data_PCOD8120461
_publ_section_title
;
Structure prediction by ZEFSAII (Michael W. Deem and Ramdas Pophale) SiO2 
 PCOD8120461
Probable space group: P 2/C
;
_chemical_formula_sum "Si O2"
_cell_formula_units_Z 30
_cell_length_a 12.178832
_cell_length_b 13.931630
_cell_length_c 17.908362
_cell_angle_alpha 90.000000
_cell_angle_beta 149.984042
_cell_angle_gamma 90.000000
_cell_volume 1519.997526
_symmetry_space_group_name_H-M "P 2/C"
_symmetry_group_IT_number 13
_symmetry_cell_setting 'monoclinic'
loop_
_space_group_symop_operation_xyz
x,y,z
-x,y,1/2-z
-x,-y,-z
x,-y,1/2+z
loop_
_atom_site_type_symbol
_atom_site_label
_atom_site_fract_x
_atom_site_fract_y
_atom_site_fract_z
Si Si1 0.000000 0.559944 0.750000
Si Si2 0.730533 0.269955 0.037976
Si Si3 0.724227 0.574581 0.841837
Si Si4 0.210628 0.915344 0.328532
Si Si5 0.889335 0.557356 0.325741
Si Si6 0.687081 0.124640 0.149572
Si Si7 0.755176 0.763517 0.277484
Si Si8 0.951023 0.239147 0.409042
O O1 0.208654 0.622921 0.899350
O O2 0.106682 0.491187 0.751676
O O3 0.733471 0.200857 0.111335
O O4 0.917646 0.243028 0.090425
O O5 0.498962 0.263602 0.858574
O O6 0.500000 0.604526 0.750000
O O7 0.696925 0.489096 0.764755
O O8 0.830369 0.663169 0.859963
O O9 0.880109 0.535107 0.998635
O O10 0.427651 0.895665 0.505261
O O11 0.221780 0.856836 0.258878
O O12 0.000000 0.880091 0.250000
O O13 0.185615 0.027115 0.294656
O O14 0.860890 0.671225 0.299380
O O15 0.764520 0.161196 0.277400
O O16 0.881024 0.791394 0.427443
#
# Coordination Sequence:
#
# PCOD8120461 Si02
#       8
#     2   4   4   4   4   4   4   4
#     4  12  22  38  62  88 116 156 218 252 306 376
#     4  11  20  39  63  91 116 161 208 262 302 372
#     4  10  22  39  58  83 120 161 200 245 325 368
#     4  10  22  41  61  93 127 166 201 257 314 374
#     4  10  23  39  55  86 120 160 203 258 302 376
#     4  10  21  39  68  91 123 163 210 253 313 365
#     4  10  25  37  59  90 125 162 204 255 318 360
#     4  11  20  40  61  90 119 160 206 257 303 374
#
# _framework density 19.736875000000001
#
# number of rings (size 3 to 8) (size 9 to 14) (size 15 to 20)
#    0.000    1.600    2.667    1.200    2.800    3.200 
#    2.400    0.000    0.000    1.600    0.000    0.000 
#    0.000    0.000    0.000    0.000    0.000    0.000 
#
# Total GULP energy -371918.287569 kJ/mol
# GULP energy per Si atom -12397.276252 kJ/mol
# Density = 1.969195 g / cm^3
# Si number density = 19.736875 Si / 1000 Ang^3
#
#
#
# Elastic Constant Matrix: (Units=GPa)
#
#
# Indices 1 2 3 4 5 6 
#
# 1 62.8723 18.9926 38.9420 0.0000 10.9683 0.0000
# 2 18.9926 82.2207 38.1689 0.0000 -11.7284 0.0000
# 3 38.9420 38.1689 121.7745 0.0000 -12.1058 0.0000
# 4 0.0000 0.0000 0.0000 32.7105 0.0000 -4.2676
# 5 10.9683 -11.7284 -12.1058 0.0000 32.2978 0.0000
# 6 0.0000 0.0000 0.0000 -4.2676 0.0000 13.8449
#
#
#
# Elastic Compliance Matrix: (Units=1/GPa)
#
#
# Indices 1 2 3 4 5 6 
#
# 1 0.023982 -0.003716 -0.007736 0.000000 -0.012393 0.000000
# 2 -0.003716 0.015232 -0.003023 0.000000 0.005660 0.000000
# 3 -0.007736 -0.003023 0.012242 0.000000 0.006118 0.000000
# 4 0.000000 0.000000 0.000000 0.031852 0.000000 0.009818
# 5 -0.012393 0.005660 0.006118 0.000000 0.039519 0.000000
# 6 0.000000 0.000000 0.000000 0.009818 0.000000 0.075255
#
#
# Mechanical properties :
#
#
# Convention : Reuss Voigt Hill
#
# Bulk Modulus (GPa) = 44.43707 51.00827 47.72267
# Shear Modulus (GPa) = 21.31894 27.15491 24.23693
#
# Velocity S-wave (km/s) = 3.29014 3.71326 3.50809
# Velocity P-wave (km/s) = 6.08252 6.65467 6.37502
#
# Compressibility (1/GPa) = 0.02250373
#
# Stress axis : x y z
#
# Youngs Moduli (GPa) = 41.69871 65.65318 81.68850
#
# Poissons Ratio (x) = 0.24397 0.63196
# Poissons Ratio (y) = 0.15496 0.24696
# Poissons Ratio (z) = 0.32259 0.19848
#
# Static dielectric constant tensor:
#      x y z
#    x 3.416330 0.000000 -0.020110 
#    y 0.000000 3.576530 0.000000 
#    z -0.020110 0.000000 3.907190 
# 
# 
# High freq. dielectric constant tensor:
#      x y z
#    x 1.759710 0.000000 0.000060 
#    y 0.000000 1.771180 0.000000 
#    z 0.000060 0.000000 1.779110 
# 
# From -- ./inp_files/66861.got.cif
#   From: 2010.06.25/outbox.cif.g09.slc.cpg/sg13_34_cif.got.tgz:66861.got - 2010.06.28 04:50:58.
