data_PCOD8120026
_publ_section_title
;
Structure prediction by ZEFSAII (Michael W. Deem and Ramdas Pophale) SiO2 
 PCOD8120026
Probable space group: P 2/C
;
_chemical_formula_sum "Si O2"
_cell_formula_units_Z 30
_cell_length_a 8.604878
_cell_length_b 8.335478
_cell_length_c 21.494823
_cell_angle_alpha 90.000000
_cell_angle_beta 103.936286
_cell_angle_gamma 90.000000
_cell_volume 1496.350541
_symmetry_space_group_name_H-M "P 2/C"
_symmetry_group_IT_number 13
_symmetry_cell_setting 'monoclinic'
loop_
_space_group_symop_operation_xyz
x,y,z
-x,y,1/2-z
-x,-y,-z
x,-y,1/2+z
loop_
_atom_site_type_symbol
_atom_site_label
_atom_site_fract_x
_atom_site_fract_y
_atom_site_fract_z
Si Si1 0.427757 0.311036 0.177823
Si Si2 0.295442 0.779911 0.055402
Si Si3 0.244531 0.144554 0.058232
Si Si4 0.165745 0.421659 0.644828
Si Si5 0.395260 0.356001 0.963645
Si Si6 0.000000 0.444728 0.750000
Si Si7 0.055981 0.323419 0.436779
Si Si8 0.256596 0.418627 0.355361
O O1 0.500000 0.247382 0.250000
O O2 0.342531 0.167473 0.132114
O O3 0.305121 0.455496 0.179068
O O4 0.566866 0.367616 0.145248
O O5 0.249831 0.731456 0.121484
O O6 0.483964 0.762442 0.060917
O O7 0.253812 0.962920 0.036706
O O8 0.190359 0.657483 0.003134
O O9 0.059409 0.178562 0.055490
O O10 0.304617 0.262828 0.009822
O O11 0.067057 0.352022 0.695346
O O12 0.045394 0.513727 0.585842
O O13 0.266850 0.424446 0.901689
O O14 0.500000 0.500000 0.000000
O O15 0.152531 0.550234 0.784156
O O16 0.159100 0.281896 0.384421
#
# Coordination Sequence:
#
# PCOD8120026 Si02
#       8
#     4   4   4   4   4   2   4   4
#     4  11  20  40  63  87 117 162 209 254 298 366
#     4  12  22  39  60  91 127 160 197 254 317 378
#     4  11  25  38  57  93 128 163 197 249 323 372
#     4  10  21  36  64  86 117 155 213 255 302 354
#     4  12  21  38  64  92 121 154 205 257 306 366
#     4  10  22  36  58  94 112 152 198 270 298 350
#     4  10  22  37  59  88 123 158 197 253 308 363
#     4  11  21  37  64  92 117 151 211 259 303 354
#
# _framework density 20.048779
#
# number of rings (size 3 to 8) (size 9 to 14) (size 15 to 20)
#    0.000    1.067    5.333    2.000    3.733    0.000 
#    0.000    2.000    2.933    0.000    0.000    0.000 
#    0.000    0.000    0.000    0.000    0.000    0.000 
#
# Total GULP energy -371773.237833 kJ/mol
# GULP energy per Si atom -12392.441261 kJ/mol
# Density = 2.000315 g / cm^3
# Si number density = 20.048779 Si / 1000 Ang^3
#
#
#
# Elastic Constant Matrix: (Units=GPa)
#
#
# Indices 1 2 3 4 5 6 
#
# 1 126.1936 22.6974 35.3570 0.0000 -15.8456 0.0000
# 2 22.6974 61.1052 20.2564 0.0000 -12.0245 0.0000
# 3 35.3570 20.2564 94.1272 0.0000 -6.5616 0.0000
# 4 0.0000 0.0000 0.0000 12.2011 0.0000 -0.4817
# 5 -15.8456 -12.0245 -6.5616 0.0000 47.5143 0.0000
# 6 0.0000 0.0000 0.0000 -0.4817 0.0000 16.9295
#
#
#
# Elastic Compliance Matrix: (Units=1/GPa)
#
#
# Indices 1 2 3 4 5 6 
#
# 1 0.009396 -0.002087 -0.002927 0.000000 0.002201 0.000000
# 2 -0.002087 0.018862 -0.003020 0.000000 0.003660 0.000000
# 3 -0.002927 -0.003020 0.012371 0.000000 -0.000032 0.000000
# 4 0.000000 0.000000 0.000000 0.082052 0.000000 0.002334
# 5 0.002201 0.003660 -0.000032 0.000000 0.022702 0.000000
# 6 0.000000 0.000000 0.000000 0.002334 0.000000 0.059135
#
#
# Mechanical properties :
#
#
# Convention : Reuss Voigt Hill
#
# Bulk Modulus (GPa) = 40.71421 48.67197 44.69309
# Shear Modulus (GPa) = 21.85576 28.87001 25.36288
#
# Velocity S-wave (km/s) = 3.30529 3.79883 3.56063
# Velocity P-wave (km/s) = 5.90917 6.60083 6.26455
#
# Compressibility (1/GPa) = 0.02456145
#
# Stress axis : x y z
#
# Youngs Moduli (GPa) = 106.42683 53.01720 80.83377
#
# Poissons Ratio (x) = 0.11063 0.23660
# Poissons Ratio (y) = 0.22208 0.24413
# Poissons Ratio (z) = 0.31151 0.16012
#
# Static dielectric constant tensor:
#      x y z
#    x 4.129330 0.000000 -0.090800 
#    y 0.000000 3.078720 0.000000 
#    z -0.090800 0.000000 3.776100 
# 
# 
# High freq. dielectric constant tensor:
#      x y z
#    x 1.818730 0.000000 -0.006760 
#    y 0.000000 1.720950 0.000000 
#    z -0.006760 0.000000 1.790040 
# 
# From -- ./inp_files/75721.got.cif
#   From: 2010.06.25/outbox.cif.g09.slc.cpg/sg13_38_cif.got.tgz:75721.got - 2010.06.28 04:50:58.
