data_PCOD8120284
_publ_section_title
;
Structure prediction by ZEFSAII (Michael W. Deem and Ramdas Pophale) SiO2 
 PCOD8120284
Probable space group: P 2/C
;
_chemical_formula_sum "Si O2"
_cell_formula_units_Z 26
_cell_length_a 6.538923
_cell_length_b 7.660494
_cell_length_c 24.229681
_cell_angle_alpha 90.000000
_cell_angle_beta 79.842274
_cell_angle_gamma 90.000000
_cell_volume 1194.674659
_symmetry_space_group_name_H-M "P 2/C"
_symmetry_group_IT_number 13
_symmetry_cell_setting 'monoclinic'
loop_
_space_group_symop_operation_xyz
x,y,z
-x,y,1/2-z
-x,-y,-z
x,-y,1/2+z
loop_
_atom_site_type_symbol
_atom_site_label
_atom_site_fract_x
_atom_site_fract_y
_atom_site_fract_z
Si Si1 0.800485 0.690329 0.555830
Si Si2 0.060431 0.157943 0.133401
Si Si3 0.400071 0.834985 0.531853
Si Si4 0.156911 0.505741 0.695657
Si Si5 0.875245 0.702674 0.047173
Si Si6 0.500000 0.660961 0.250000
Si Si7 0.111754 0.189955 0.833191
O O1 0.557016 0.710369 0.557661
O O2 0.880759 0.497225 0.565197
O O3 0.854345 0.792088 0.609224
O O4 0.915687 0.761446 0.494960
O O5 0.228851 0.090941 0.081661
O O6 0.169479 0.323589 0.157242
O O7 0.990969 0.998594 0.177234
O O8 0.312989 0.718842 0.486446
O O9 0.500000 0.000000 0.500000
O O10 0.385235 0.459556 0.709578
O O11 0.000000 0.564550 0.750000
O O12 0.062180 0.336614 0.669642
O O13 0.840232 0.817458 0.103605
O O14 0.676986 0.779258 0.211862
#
# Coordination Sequence:
#
# PCOD8120284 Si02
#       7
#     4   4   4   4   4   2   4
#     4  10  21  39  61  96 131 177 215 257 320 393
#     4  11  24  42  69  95 132 174 216 267 332 390
#     4  11  23  37  58 101 136 173 220 260 315 398
#     4  10  24  46  66  94 127 166 221 282 332 392
#     4  10  21  38  63  92 135 174 211 266 320 384
#     4  10  26  46  72  96 130 170 228 282 344 398
#     4  11  23  44  68  97 132 173 216 279 334 389
#
# _framework density 21.763248000000001
#
# number of rings (size 3 to 8) (size 9 to 14) (size 15 to 20)
#    0.000    1.538    1.538    2.308    2.154    8.000 
#    0.000    3.846    0.000    0.000    0.000    0.000 
#    0.000    0.000    0.000    0.000    0.000    0.000 
#
# Total GULP energy -322321.506130 kJ/mol
# GULP energy per Si atom -12396.981005 kJ/mol
# Density = 2.171371 g / cm^3
# Si number density = 21.763248 Si / 1000 Ang^3
#
#
#
# Elastic Constant Matrix: (Units=GPa)
#
#
# Indices 1 2 3 4 5 6 
#
# 1 130.4655 42.7888 38.6370 0.0000 17.1620 0.0000
# 2 42.7888 130.0380 44.6810 0.0000 -0.4632 0.0000
# 3 38.6370 44.6810 89.3373 0.0000 2.7635 0.0000
# 4 0.0000 0.0000 0.0000 26.2053 0.0000 -5.6999
# 5 17.1620 -0.4632 2.7635 0.0000 24.4630 0.0000
# 6 0.0000 0.0000 0.0000 -5.6999 0.0000 19.7526
#
#
#
# Elastic Compliance Matrix: (Units=1/GPa)
#
#
# Indices 1 2 3 4 5 6 
#
# 1 0.010242 -0.002350 -0.003041 0.000000 -0.006886 0.000000
# 2 -0.002350 0.009837 -0.003974 0.000000 0.002284 0.000000
# 3 -0.003041 -0.003974 0.014483 0.000000 0.000422 0.000000
# 4 0.000000 0.000000 0.000000 0.040716 0.000000 0.011749
# 5 -0.006886 0.002284 0.000422 0.000000 0.045705 0.000000
# 6 0.000000 0.000000 0.000000 0.011749 0.000000 0.054017
#
#
# Mechanical properties :
#
#
# Convention : Reuss Voigt Hill
#
# Bulk Modulus (GPa) = 63.16370 66.89493 65.02931
# Shear Modulus (GPa) = 25.12473 28.99978 27.06225
#
# Velocity S-wave (km/s) = 3.40142 3.65432 3.53013
# Velocity P-wave (km/s) = 6.67175 6.97206 6.82356
#
# Compressibility (1/GPa) = 0.01583188
#
# Stress axis : x y z
#
# Youngs Moduli (GPa) = 97.63717 101.65809 69.04416
#
# Poissons Ratio (x) = 0.23886 0.20999
# Poissons Ratio (y) = 0.22941 0.27440
# Poissons Ratio (z) = 0.29695 0.40402
#
# Static dielectric constant tensor:
#      x y z
#    x 3.503440 0.000000 0.027310 
#    y 0.000000 3.648370 0.000000 
#    z 0.027310 0.000000 3.974390 
# 
# 
# High freq. dielectric constant tensor:
#      x y z
#    x 1.855790 0.000000 0.006480 
#    y 0.000000 1.855630 0.000000 
#    z 0.006480 0.000000 1.855010 
# 
# From -- ./inp_files/90223.got.cif
#   From: 2010.06.25/outbox.cif.g09.slc.cpg/sg13_46_cif.got.tgz:90223.got - 2010.06.28 04:50:58.
