data_PCOD8120675
_publ_section_title
;
Structure prediction by ZEFSAII (Michael W. Deem and Ramdas Pophale) SiO2 
 PCOD8120675
Probable space group: P 2/C
;
_chemical_formula_sum "Si O2"
_cell_formula_units_Z 28
_cell_length_a 15.683904
_cell_length_b 8.828699
_cell_length_c 22.427114
_cell_angle_alpha 90.000000
_cell_angle_beta 27.134357
_cell_angle_gamma 90.000000
_cell_volume 1416.328534
_symmetry_space_group_name_H-M "P 2/C"
_symmetry_group_IT_number 13
_symmetry_cell_setting 'monoclinic'
loop_
_space_group_symop_operation_xyz
x,y,z
-x,y,1/2-z
-x,-y,-z
x,-y,1/2+z
loop_
_atom_site_type_symbol
_atom_site_label
_atom_site_fract_x
_atom_site_fract_y
_atom_site_fract_z
Si Si1 0.307905 0.761802 0.904667
Si Si2 0.038297 0.175042 0.467097
Si Si3 0.411910 0.009045 0.929395
Si Si4 0.378354 0.246405 0.770338
Si Si5 0.332403 0.236102 0.181309
Si Si6 0.568519 0.489016 0.088570
Si Si7 0.785754 0.263748 0.379919
O O1 0.500000 0.745003 0.750000
O O2 0.136578 0.757963 0.965204
O O3 0.292622 0.621381 0.960465
O O4 0.310170 0.921589 0.938390
O O5 0.163182 0.200218 0.331249
O O6 0.841645 0.259705 0.579118
O O7 0.000000 0.000000 0.500000
O O8 0.582112 0.118790 0.803864
O O9 0.505009 0.889156 0.915922
O O10 0.255050 0.107989 0.059794
O O11 0.500000 0.189472 0.750000
O O12 0.448991 0.411724 0.708728
O O13 0.419199 0.397515 0.142998
O O14 0.264988 0.240374 0.156515
O O15 0.682927 0.593206 0.972407
O O16 0.000000 0.303373 0.250000
#
# Coordination Sequence:
#
# PCOD8120675 Si02
#       7
#     4   4   4   4   4   4   4
#     4  11  20  42  67  98 132 163 211 264 338 387
#     4  12  23  37  70 104 131 167 217 272 332 399
#     4  10  21  41  66  90 130 170 208 275 322 380
#     4  11  23  37  61  96 135 166 209 269 333 386
#     4  11  23  43  64  92 129 175 214 259 330 386
#     4  10  24  44  63  89 131 177 208 271 322 388
#     4  11  26  42  64  92 126 174 229 264 312 380
#
# _framework density 19.769424999999998
#
# number of rings (size 3 to 8) (size 9 to 14) (size 15 to 20)
#    0.000    1.143    4.286    2.571    6.000    1.714 
#    0.000    2.857    0.000    0.000    0.000    0.000 
#    0.000    0.000    0.000    0.000    0.000    0.000 
#
# Total GULP energy -347261.113517 kJ/mol
# GULP energy per Si atom -12402.182626 kJ/mol
# Density = 1.972443 g / cm^3
# Si number density = 19.769425 Si / 1000 Ang^3
#
#
#
# Elastic Constant Matrix: (Units=GPa)
#
#
# Indices 1 2 3 4 5 6 
#
# 1 121.0883 31.6058 43.8841 0.0000 0.0291 0.0000
# 2 31.6058 113.5186 47.6106 0.0000 7.7701 0.0000
# 3 43.8841 47.6106 121.4591 0.0000 -4.4060 0.0000
# 4 0.0000 0.0000 0.0000 17.5128 0.0000 7.5074
# 5 0.0291 7.7701 -4.4060 0.0000 37.5764 0.0000
# 6 0.0000 0.0000 0.0000 7.5074 0.0000 32.0058
#
#
#
# Elastic Compliance Matrix: (Units=1/GPa)
#
#
# Indices 1 2 3 4 5 6 
#
# 1 0.009705 -0.001469 -0.002932 0.000000 -0.000048 0.000000
# 2 -0.001469 0.011040 -0.003896 0.000000 -0.002738 0.000000
# 3 -0.002932 -0.003896 0.010896 0.000000 0.002085 0.000000
# 4 0.000000 0.000000 0.000000 0.063485 0.000000 -0.014891
# 5 -0.000048 -0.002738 0.002085 0.000000 0.027423 0.000000
# 6 0.000000 0.000000 0.000000 -0.014891 0.000000 0.034737
#
#
# Mechanical properties :
#
#
# Convention : Reuss Voigt Hill
#
# Bulk Modulus (GPa) = 66.46583 66.91856 66.69220
# Shear Modulus (GPa) = 27.94951 32.95004 30.44978
#
# Velocity S-wave (km/s) = 3.76410 4.08697 3.92885
# Velocity P-wave (km/s) = 7.25153 7.49628 7.37492
#
# Compressibility (1/GPa) = 0.01504532
#
# Stress axis : x y z
#
# Youngs Moduli (GPa) = 103.04463 90.58347 91.78086
#
# Poissons Ratio (x) = 0.13305 0.26913
# Poissons Ratio (y) = 0.15136 0.35758
# Poissons Ratio (z) = 0.30216 0.35291
#
# Static dielectric constant tensor:
#      x y z
#    x 3.881260 0.000000 -0.126240 
#    y 0.000000 3.781280 0.000000 
#    z -0.126240 0.000000 3.640090 
# 
# 
# High freq. dielectric constant tensor:
#      x y z
#    x 1.777340 0.000000 0.003300 
#    y 0.000000 1.787280 0.000000 
#    z 0.003300 0.000000 1.761460 
# 
# From -- ./inp_files/49977.got.cif
#   From: 2010.06.25/outbox.cif.g09.slc.cpg/sg13_25_cif.got.tgz:49977.got - 2010.06.28 04:50:58.
