data_PCOD8120427
_publ_section_title
;
Structure prediction by ZEFSAII (Michael W. Deem and Ramdas Pophale) SiO2 
 PCOD8120427
Probable space group: P 2/C
;
_chemical_formula_sum "Si O2"
_cell_formula_units_Z 32
_cell_length_a 13.178149
_cell_length_b 13.865464
_cell_length_c 18.916050
_cell_angle_alpha 90.000000
_cell_angle_beta 27.768661
_cell_angle_gamma 90.000000
_cell_volume 1610.328696
_symmetry_space_group_name_H-M "P 2/C"
_symmetry_group_IT_number 13
_symmetry_cell_setting 'monoclinic'
loop_
_space_group_symop_operation_xyz
x,y,z
-x,y,1/2-z
-x,-y,-z
x,-y,1/2+z
loop_
_atom_site_type_symbol
_atom_site_label
_atom_site_fract_x
_atom_site_fract_y
_atom_site_fract_z
Si Si1 0.623190 0.482315 0.107209
Si Si2 0.015725 0.229665 0.957122
Si Si3 0.149086 0.934218 0.859921
Si Si4 0.559562 0.901672 0.294081
Si Si5 0.974690 0.640007 0.922392
Si Si6 0.031802 0.663007 0.150877
Si Si7 0.325110 0.508837 0.168517
Si Si8 0.905167 0.837853 0.885835
O O1 0.500000 0.435609 0.250000
O O2 0.449819 0.533979 0.163512
O O3 0.782993 0.563814 0.036368
O O4 0.745400 0.397583 0.989537
O O5 0.249894 0.177938 0.819136
O O6 0.959263 0.248421 0.909858
O O7 0.013494 0.329942 0.002255
O O8 0.825622 0.164803 0.110877
O O9 0.036510 0.913284 0.853960
O O10 0.371469 0.995255 0.713038
O O11 0.000000 0.000000 0.000000
O O12 0.500000 0.920243 0.250000
O O13 0.348345 0.864543 0.465274
O O14 0.924765 0.730931 0.904243
O O15 0.197112 0.591929 0.757408
O O16 0.831941 0.596205 0.252571
O O17 0.000000 0.703366 0.250000
O O18 0.500000 0.500000 0.000000
O O19 0.000000 0.842426 0.750000
#
# Coordination Sequence:
#
# PCOD8120427 Si02
#       8
#     4   4   4   4   4   4   4   4
#     4  11  23  38  62  86 121 174 215 257 307 365
#     4  10  21  39  65  93 122 157 216 266 296 378
#     4   9  19  41  65  90 124 161 199 254 313 388
#     4  11  20  40  73  92 119 169 200 247 331 376
#     4  10  23  38  62  95 120 160 222 263 299 360
#     4  11  23  40  59  89 129 167 209 259 311 367
#     4  11  23  38  60  83 128 179 205 251 320 363
#     4  11  24  38  65 101 129 152 207 272 305 374
#
# _framework density 19.87172
#
# number of rings (size 3 to 8) (size 9 to 14) (size 15 to 20)
#    0.000    1.500    5.000    1.500    5.250    2.500 
#    0.000    5.625    0.000    0.000    0.000    0.000 
#    0.000    0.000    0.000    0.000    0.000    0.000 
#
# Total GULP energy -396749.910748 kJ/mol
# GULP energy per Si atom -12398.434711 kJ/mol
# Density = 1.982649 g / cm^3
# Si number density = 19.871720 Si / 1000 Ang^3
#
#
#
# Elastic Constant Matrix: (Units=GPa)
#
#
# Indices 1 2 3 4 5 6 
#
# 1 109.5654 31.5281 36.5772 0.0000 19.1201 0.0000
# 2 31.5281 78.0778 30.5237 0.0000 -2.0091 0.0000
# 3 36.5772 30.5237 113.9949 0.0000 7.9114 0.0000
# 4 0.0000 0.0000 0.0000 19.0466 0.0000 1.2234
# 5 19.1201 -2.0091 7.9114 0.0000 37.2500 0.0000
# 6 0.0000 0.0000 0.0000 1.2234 0.0000 21.0756
#
#
#
# Elastic Compliance Matrix: (Units=1/GPa)
#
#
# Indices 1 2 3 4 5 6 
#
# 1 0.012148 -0.004128 -0.002379 0.000000 -0.005953 0.000000
# 2 -0.004128 0.015804 -0.003160 0.000000 0.003643 0.000000
# 3 -0.002379 -0.003160 0.010463 0.000000 -0.001171 0.000000
# 4 0.000000 0.000000 0.000000 0.052699 0.000000 -0.003059
# 5 -0.005953 0.003643 -0.001171 0.000000 0.030346 0.000000
# 6 0.000000 0.000000 0.000000 -0.003059 0.000000 0.047626
#
#
# Mechanical properties :
#
#
# Convention : Reuss Voigt Hill
#
# Bulk Modulus (GPa) = 52.41118 55.43289 53.92204
# Shear Modulus (GPa) = 25.66975 29.00837 27.33906
#
# Velocity S-wave (km/s) = 3.59802 3.82485 3.71317
# Velocity P-wave (km/s) = 6.61007 6.88926 6.75111
#
# Compressibility (1/GPa) = 0.01907990
#
# Stress axis : x y z
#
# Youngs Moduli (GPa) = 82.31748 63.27569 95.57348
#
# Poissons Ratio (x) = 0.26123 0.22740
# Poissons Ratio (y) = 0.33984 0.30200
# Poissons Ratio (z) = 0.19586 0.19994
#
# Static dielectric constant tensor:
#      x y z
#    x 3.536710 0.000000 -0.005800 
#    y 0.000000 3.805690 0.000000 
#    z -0.005800 0.000000 3.911380 
# 
# 
# High freq. dielectric constant tensor:
#      x y z
#    x 1.778290 0.000000 0.000740 
#    y 0.000000 1.766190 0.000000 
#    z 0.000740 0.000000 1.777190 
# 
# From -- ./inp_files/39472.got.cif
#   From: 2010.06.25/outbox.cif.g09.slc.cpg/sg13_20_cif.got.tgz:39472.got - 2010.06.28 04:50:58.
