data_PCOD8120682
_publ_section_title
;
Structure prediction by ZEFSAII (Michael W. Deem and Ramdas Pophale) SiO2 
 PCOD8120682
Probable space group: P 2/C
;
_chemical_formula_sum "Si O2"
_cell_formula_units_Z 18
_cell_length_a 5.442748
_cell_length_b 17.156428
_cell_length_c 9.525100
_cell_angle_alpha 90.000000
_cell_angle_beta 51.735566
_cell_angle_gamma 90.000000
_cell_volume 698.350311
_symmetry_space_group_name_H-M "P 2/C"
_symmetry_group_IT_number 13
_symmetry_cell_setting 'monoclinic'
loop_
_space_group_symop_operation_xyz
x,y,z
-x,y,1/2-z
-x,-y,-z
x,-y,1/2+z
loop_
_atom_site_type_symbol
_atom_site_label
_atom_site_fract_x
_atom_site_fract_y
_atom_site_fract_z
Si Si1 0.000000 0.982387 0.750000
Si Si2 0.632453 0.240449 0.359477
Si Si3 0.536803 0.104870 0.585873
Si Si4 0.797677 0.522367 0.704451
Si Si5 0.654317 0.351827 0.839048
O O1 0.704521 0.033661 0.812708
O O2 0.116901 0.928675 0.577180
O O3 0.500000 0.241798 0.250000
O O4 0.445755 0.170396 0.503797
O O5 0.561499 0.323657 0.456625
O O6 0.000000 0.224913 0.250000
O O7 0.500000 0.146631 0.750000
O O8 0.500000 0.571389 0.750000
O O9 0.662227 0.445795 0.832026
O O10 0.000000 0.569450 0.750000
O O11 0.000000 0.500000 0.500000
O O12 0.500000 0.319332 0.750000
O O13 0.000000 0.318515 0.750000
#
# Coordination Sequence:
#
# PCOD8120682 Si02
#       5
#     2   4   4   4   4
#     4  10  24  42  66 106 136 184 240 288 366 422
#     4  12  27  45  69 101 138 185 240 293 352 424
#     4  11  24  42  70  97 143 181 241 295 360 418
#     4  10  21  41  67 101 138 176 224 279 341 418
#     4  10  22  44  69  97 136 180 232 279 352 413
#
# _framework density 25.775029
#
# number of rings (size 3 to 8) (size 9 to 14) (size 15 to 20)
#    0.000    1.333    1.111    3.333    4.667    3.556 
#    0.000   26.667    0.000    0.000    0.000    0.000 
#    0.000    0.000    0.000    0.000    0.000    0.000 
#
# Total GULP energy -223009.408524 kJ/mol
# GULP energy per Si atom -12389.411585 kJ/mol
# Density = 2.571636 g / cm^3
# Si number density = 25.775029 Si / 1000 Ang^3
#
#
#
# Elastic Constant Matrix: (Units=GPa)
#
#
# Indices 1 2 3 4 5 6 
#
# 1 247.5315 7.9272 75.4103 0.0000 21.5328 0.0000
# 2 7.9272 92.2397 45.1688 0.0000 7.9012 0.0000
# 3 75.4103 45.1688 161.6940 0.0000 22.1676 0.0000
# 4 0.0000 0.0000 0.0000 43.9490 0.0000 5.1466
# 5 21.5328 7.9012 22.1676 0.0000 57.1445 0.0000
# 6 0.0000 0.0000 0.0000 5.1466 0.0000 16.7384
#
#
#
# Elastic Compliance Matrix: (Units=1/GPa)
#
#
# Indices 1 2 3 4 5 6 
#
# 1 0.004813 0.000816 -0.002333 0.000000 -0.001022 0.000000
# 2 0.000816 0.012706 -0.003852 0.000000 -0.000570 0.000000
# 3 -0.002333 -0.003852 0.008613 0.000000 -0.001930 0.000000
# 4 0.000000 0.000000 0.000000 0.023604 0.000000 -0.007257
# 5 -0.001022 -0.000570 -0.001930 0.000000 0.018712 0.000000
# 6 0.000000 0.000000 0.000000 -0.007257 0.000000 0.061974
#
#
# Mechanical properties :
#
#
# Convention : Reuss Voigt Hill
#
# Bulk Modulus (GPa) = 64.95378 84.27533 74.61455
# Shear Modulus (GPa) = 34.17841 48.43031 41.30436
#
# Velocity S-wave (km/s) = 3.64542 4.33940 4.00746
# Velocity P-wave (km/s) = 6.55544 7.60754 7.10100
#
# Compressibility (1/GPa) = 0.01539556
#
# Stress axis : x y z
#
# Youngs Moduli (GPa) = 207.75808 78.70130 116.10327
#
# Poissons Ratio (x) = -0.06423 0.27084
# Poissons Ratio (y) = -0.16957 0.44722
# Poissons Ratio (z) = 0.48465 0.30315
#
# Static dielectric constant tensor:
#      x y z
#    x 5.299970 0.000000 -0.053940 
#    y 0.000000 4.465550 0.000000 
#    z -0.053940 0.000000 4.999190 
# 
# 
# High freq. dielectric constant tensor:
#      x y z
#    x 2.032530 0.000000 -0.001060 
#    y 0.000000 2.012320 0.000000 
#    z -0.001060 0.000000 2.051060 
# 
# From -- ./inp_files/9875.got.cif
#   From: 2010.06.25/outbox.cif.g09.slc.cpg/sg13_5_cif.got.tgz:9875.got - 2010.06.28 04:50:58.
