data_PCOD8120747
_publ_section_title
;
Structure prediction by ZEFSAII (Michael W. Deem and Ramdas Pophale) SiO2 
 PCOD8120747
Probable space group: P 2/C
;
_chemical_formula_sum "Si O2"
_cell_formula_units_Z 32
_cell_length_a 13.426603
_cell_length_b 10.965950
_cell_length_c 10.258914
_cell_angle_alpha 90.000000
_cell_angle_beta 91.474715
_cell_angle_gamma 90.000000
_cell_volume 1509.975593
_symmetry_space_group_name_H-M "P 2/C"
_symmetry_group_IT_number 13
_symmetry_cell_setting 'monoclinic'
loop_
_space_group_symop_operation_xyz
x,y,z
-x,y,1/2-z
-x,-y,-z
x,-y,1/2+z
loop_
_atom_site_type_symbol
_atom_site_label
_atom_site_fract_x
_atom_site_fract_y
_atom_site_fract_z
Si Si1 0.210367 0.724410 0.643228
Si Si2 0.892406 0.763221 0.386628
Si Si3 0.067074 0.504013 0.127269
Si Si4 0.698329 0.112738 0.929700
Si Si5 0.575790 0.389674 0.372439
Si Si6 0.550061 0.334759 0.889819
Si Si7 0.888160 0.162581 0.604377
Si Si8 0.757995 0.954001 0.693733
O O1 0.133150 0.614228 0.659093
O O2 0.321992 0.676151 0.656258
O O3 0.189093 0.789920 0.505699
O O4 0.199659 0.823138 0.758185
O O5 0.869523 0.621941 0.413760
O O6 0.811711 0.844844 0.454932
O O7 0.877603 0.756757 0.231297
O O8 0.997280 0.822784 0.438433
O O9 0.000000 0.531874 0.250000
O O10 0.000000 0.500000 0.000000
O O11 0.629583 0.228154 0.903972
O O12 0.695550 0.018241 0.809073
O O13 0.677546 0.053749 0.071532
O O14 0.500000 0.375041 0.250000
O O15 0.530872 0.324237 0.498151
O O16 0.600281 0.531680 0.401083
O O17 0.500000 0.316301 0.750000
O O18 0.855907 0.026927 0.647893
#
# Coordination Sequence:
#
# PCOD8120747 Si02
#       8
#     4   4   4   4   4   4   4   4
#     4  12  24  42  72  96 139 180 224 288 332 398
#     4  10  21  42  65  91 138 178 217 273 343 401
#     4  12  24  43  64 105 138 168 226 274 343 407
#     4  11  24  44  67  96 133 180 229 281 332 399
#     4  10  23  46  69 103 139 170 224 285 350 414
#     4  10  23  44  72 103 129 172 227 281 355 415
#     4  10  21  44  61  93 133 183 219 274 330 400
#     4  11  25  43  65  96 136 177 239 264 332 400
#
# _framework density 21.192395999999999
#
# number of rings (size 3 to 8) (size 9 to 14) (size 15 to 20)
#    0.000    1.250    3.750    1.500    5.250    0.500 
#   20.250    3.125    0.000    0.000    0.000    0.000 
#    0.000    0.000    0.000    0.000    0.000    0.000 
#
# Total GULP energy -396553.789769 kJ/mol
# GULP energy per Si atom -12392.305930 kJ/mol
# Density = 2.114416 g / cm^3
# Si number density = 21.192396 Si / 1000 Ang^3
#
#
#
# Elastic Constant Matrix: (Units=GPa)
#
#
# Indices 1 2 3 4 5 6 
#
# 1 90.2526 60.9261 34.1586 0.0000 7.9903 0.0000
# 2 60.9261 123.1492 36.9072 0.0000 -1.1944 0.0000
# 3 34.1586 36.9072 125.9117 0.0000 15.0694 0.0000
# 4 0.0000 0.0000 0.0000 52.7704 0.0000 16.7031
# 5 7.9903 -1.1944 15.0694 0.0000 22.4167 0.0000
# 6 0.0000 0.0000 0.0000 16.7031 0.0000 46.5939
#
#
#
# Elastic Compliance Matrix: (Units=1/GPa)
#
#
# Indices 1 2 3 4 5 6 
#
# 1 0.017900 -0.008397 -0.001716 0.000000 -0.005674 0.000000
# 2 -0.008397 0.012964 -0.002135 0.000000 0.005119 0.000000
# 3 -0.001716 -0.002135 0.009759 0.000000 -0.006062 0.000000
# 4 0.000000 0.000000 0.000000 0.021375 0.000000 -0.007663
# 5 -0.005674 0.005119 -0.006062 0.000000 0.050980 0.000000
# 6 0.000000 0.000000 0.000000 -0.007663 0.000000 0.024209
#
#
# Mechanical properties :
#
#
# Convention : Reuss Voigt Hill
#
# Bulk Modulus (GPa) = 62.00179 67.03303 64.51741
# Shear Modulus (GPa) = 29.92989 38.17764 34.05376
#
# Velocity S-wave (km/s) = 3.76213 4.24899 4.01295
# Velocity P-wave (km/s) = 6.94202 7.46801 7.20981
#
# Compressibility (1/GPa) = 0.01612857
#
# Stress axis : x y z
#
# Youngs Moduli (GPa) = 55.86620 77.13875 102.47154
#
# Poissons Ratio (x) = 0.64770 0.17582
# Poissons Ratio (y) = 0.46908 0.21874
# Poissons Ratio (z) = 0.09585 0.16466
#
# Static dielectric constant tensor:
#      x y z
#    x 3.898670 0.000000 0.114410 
#    y 0.000000 3.807600 0.000000 
#    z 0.114410 0.000000 4.096270 
# 
# 
# High freq. dielectric constant tensor:
#      x y z
#    x 1.807210 0.000000 0.007990 
#    y 0.000000 1.846070 0.000000 
#    z 0.007990 0.000000 1.849820 
# 
# From -- ./inp_files/33848.got.cif
#   From: 2010.06.25/outbox.cif.g09.slc.cpg/sg13_17_cif.got.tgz:33848.got - 2010.06.28 04:50:58.
