data_PCOD8120363
_publ_section_title
;
Structure prediction by ZEFSAII (Michael W. Deem and Ramdas Pophale) SiO2 
 PCOD8120363
Probable space group: P 2/C
;
_chemical_formula_sum "Si O2"
_cell_formula_units_Z 18
_cell_length_a 6.999753
_cell_length_b 6.070295
_cell_length_c 21.009098
_cell_angle_alpha 90.000000
_cell_angle_beta 74.917600
_cell_angle_gamma 90.000000
_cell_volume 861.937667
_symmetry_space_group_name_H-M "P 2/C"
_symmetry_group_IT_number 13
_symmetry_cell_setting 'monoclinic'
loop_
_space_group_symop_operation_xyz
x,y,z
-x,y,1/2-z
-x,-y,-z
x,-y,1/2+z
loop_
_atom_site_type_symbol
_atom_site_label
_atom_site_fract_x
_atom_site_fract_y
_atom_site_fract_z
Si Si1 0.353276 0.487906 0.206934
Si Si2 0.178903 0.587902 0.526554
Si Si3 0.545033 0.264072 0.924279
Si Si4 0.191101 0.112688 0.139585
Si Si5 0.000000 0.802796 0.250000
O O1 0.500000 0.424770 0.250000
O O2 0.472038 0.598094 0.138994
O O3 0.256484 0.260743 0.193173
O O4 0.189149 0.653699 0.248264
O O5 0.297571 0.377422 0.542075
O O6 0.326016 0.741961 0.472799
O O7 0.096040 0.736254 0.592240
O O8 0.000000 0.500000 0.500000
O O9 0.617713 0.015663 0.904917
O O10 0.031265 0.943258 0.182476
#
# Coordination Sequence:
#
# PCOD8120363 Si02
#       5
#     4   4   4   4   2
#     4  10  22  40  61  86 120 159 197 246 298 352
#     4  10  21  39  61  87 120 156 195 246 297 347
#     4   9  21  39  58  87 121 152 198 245 290 353
#     4  10  21  39  62  87 120 158 197 246 297 355
#     4  10  22  40  58  86 122 154 200 250 296 352
#
# _framework density 20.883178999999998
#
# number of rings (size 3 to 8) (size 9 to 14) (size 15 to 20)
#    0.000    2.222    0.000    1.333    0.000   11.556 
#    0.000   11.111    0.000    0.000    0.000    0.000 
#    0.000    0.000    0.000    0.000    0.000    0.000 
#
# Total GULP energy -223241.305004 kJ/mol
# GULP energy per Si atom -12402.294722 kJ/mol
# Density = 2.083565 g / cm^3
# Si number density = 20.883179 Si / 1000 Ang^3
#
#
#
# Elastic Constant Matrix: (Units=GPa)
#
#
# Indices 1 2 3 4 5 6 
#
# 1 117.4867 53.5493 81.5547 0.0000 9.9410 0.0000
# 2 53.5493 117.8112 52.5453 0.0000 1.5528 0.0000
# 3 81.5547 52.5453 119.6709 0.0000 6.0475 0.0000
# 4 0.0000 0.0000 0.0000 34.2727 0.0000 -2.3797
# 5 9.9410 1.5528 6.0475 0.0000 39.1329 0.0000
# 6 0.0000 0.0000 0.0000 -2.3797 0.0000 8.2550
#
#
#
# Elastic Compliance Matrix: (Units=1/GPa)
#
#
# Indices 1 2 3 4 5 6 
#
# 1 0.017346 -0.003279 -0.010245 0.000000 -0.002693 0.000000
# 2 -0.003279 0.011179 -0.002714 0.000000 0.000809 0.000000
# 3 -0.010245 -0.002714 0.016522 0.000000 0.000157 0.000000
# 4 0.000000 0.000000 0.000000 0.029774 0.000000 0.008583
# 5 -0.002693 0.000809 0.000157 0.000000 0.026182 0.000000
# 6 0.000000 0.000000 0.000000 0.008583 0.000000 0.123613
#
#
# Mechanical properties :
#
#
# Convention : Reuss Voigt Hill
#
# Bulk Modulus (GPa) = 79.56063 81.14083 80.35073
# Shear Modulus (GPa) = 19.13637 27.48675 23.31156
#
# Velocity S-wave (km/s) = 3.03042 3.63190 3.34471
# Velocity P-wave (km/s) = 7.10107 7.51842 7.31272
#
# Compressibility (1/GPa) = 0.01256903
#
# Stress axis : x y z
#
# Youngs Moduli (GPa) = 57.65047 89.45553 60.52501
#
# Poissons Ratio (x) = 0.29336 0.62008
# Poissons Ratio (y) = 0.18906 0.16429
# Poissons Ratio (z) = 0.59063 0.24282
#
# Static dielectric constant tensor:
#      x y z
#    x 3.383100 0.000000 -0.166910 
#    y 0.000000 3.933510 0.000000 
#    z -0.166910 0.000000 4.072490 
# 
# 
# High freq. dielectric constant tensor:
#      x y z
#    x 1.785690 0.000000 -0.009800 
#    y 0.000000 1.827900 0.000000 
#    z -0.009800 0.000000 1.836450 
# 
# From -- ./inp_files/82960.got.cif
#   From: 2010.06.25/outbox.cif.g09.slc.cpg/sg13_42_cif.got.tgz:82960.got - 2010.06.28 04:50:58.
