data_PCOD8120637
_publ_section_title
;
Structure prediction by ZEFSAII (Michael W. Deem and Ramdas Pophale) SiO2 
 PCOD8120637
Probable space group: P 2/C
;
_chemical_formula_sum "Si O2"
_cell_formula_units_Z 28
_cell_length_a 20.039545
_cell_length_b 8.520587
_cell_length_c 12.823467
_cell_angle_alpha 90.000000
_cell_angle_beta 146.091674
_cell_angle_gamma 90.000000
_cell_volume 1221.497278
_symmetry_space_group_name_H-M "P 2/C"
_symmetry_group_IT_number 13
_symmetry_cell_setting 'monoclinic'
loop_
_space_group_symop_operation_xyz
x,y,z
-x,y,1/2-z
-x,-y,-z
x,-y,1/2+z
loop_
_atom_site_type_symbol
_atom_site_label
_atom_site_fract_x
_atom_site_fract_y
_atom_site_fract_z
Si Si1 0.874963 0.263556 0.060681
Si Si2 0.915197 0.312025 0.548824
Si Si3 0.694225 0.494920 0.778866
Si Si4 0.198809 0.048699 0.961683
Si Si5 0.468480 0.045944 0.820841
Si Si6 0.494280 0.268088 0.043094
Si Si7 0.078600 0.845495 0.108735
O O1 0.000000 0.351178 0.250000
O O2 0.876942 0.111847 0.137343
O O3 0.758262 0.369901 0.940438
O O4 0.864665 0.214189 0.925320
O O5 0.811370 0.430895 0.376272
O O6 0.853684 0.154746 0.513842
O O7 0.000000 0.381867 0.750000
O O8 0.991180 0.285681 0.543364
O O9 0.611732 0.396418 0.592016
O O10 0.615467 0.633761 0.730414
O O11 0.187012 0.126422 0.832326
O O12 0.332139 0.999194 0.164256
O O13 0.500000 0.116096 0.750000
O O14 0.536313 0.876665 0.919828
O O15 0.512211 0.183905 0.954022
O O16 0.000000 0.000000 0.000000
#
# Coordination Sequence:
#
# PCOD8120637 Si02
#       7
#     4   4   4   4   4   4   4
#     4  12  23  41  66  99 131 174 214 262 329 390
#     4  10  21  41  62  92 131 176 210 257 326 387
#     4  11  23  42  67  90 140 175 200 268 340 386
#     4  11  21  40  66  92 129 170 215 272 318 375
#     4  11  24  43  72  97 117 171 233 268 316 376
#     4  10  24  46  65  96 129 168 221 272 324 381
#     4  11  22  37  66  99 127 160 224 268 304 377
#
# _framework density 22.922688999999998
#
# number of rings (size 3 to 8) (size 9 to 14) (size 15 to 20)
#    0.000    1.143    5.714    0.857    2.000    1.714 
#    0.000    7.143    0.000    0.000    0.000    0.000 
#    0.000    0.000    0.000    0.000    0.000    0.000 
#
# Total GULP energy -346879.875242 kJ/mol
# GULP energy per Si atom -12388.566973 kJ/mol
# Density = 2.287052 g / cm^3
# Si number density = 22.922689 Si / 1000 Ang^3
#
#
#
# Elastic Constant Matrix: (Units=GPa)
#
#
# Indices 1 2 3 4 5 6 
#
# 1 70.2275 19.8799 17.6160 0.0000 -12.0031 0.0000
# 2 19.8799 119.2290 37.1972 0.0000 6.0623 0.0000
# 3 17.6160 37.1972 115.1015 0.0000 14.3005 0.0000
# 4 0.0000 0.0000 0.0000 42.5992 0.0000 14.6731
# 5 -12.0031 6.0623 14.3005 0.0000 29.5071 0.0000
# 6 0.0000 0.0000 0.0000 14.6731 0.0000 2.4366
#
#
#
# Elastic Compliance Matrix: (Units=1/GPa)
#
#
# Indices 1 2 3 4 5 6 
#
# 1 0.017185 -0.002394 -0.002965 0.000000 0.008919 0.000000
# 2 -0.002394 0.009668 -0.002543 0.000000 -0.001728 0.000000
# 3 -0.002965 -0.002543 0.010692 0.000000 -0.005866 0.000000
# 4 0.000000 0.000000 0.000000 -0.021852 0.000000 0.131594
# 5 0.008919 -0.001728 -0.005866 0.000000 0.040716 0.000000
# 6 0.000000 0.000000 0.000000 0.131594 0.000000 -0.382046
#
#
# Mechanical properties :
#
#
# Convention : Reuss Voigt Hill
#
# Bulk Modulus (GPa) = 45.99515 50.43827 48.21671
# Shear Modulus (GPa) = -16.52426 30.23289 6.85431
#
# Velocity S-wave (km/s) = -2.68781 3.63562 1.73109
# Velocity P-wave (km/s) = 3.23673 6.29881 5.00757
#
# Compressibility (1/GPa) = 0.02174142
#
# Stress axis : x y z
#
# Youngs Moduli (GPa) = 58.18931 103.43742 93.52467
#
# Poissons Ratio (x) = 0.24763 0.27727
# Poissons Ratio (y) = 0.13931 0.23786
# Poissons Ratio (z) = 0.17251 0.26307
#
# Static dielectric constant tensor:
#      x y z
#    x 3.634210 0.000000 0.105100 
#    y 0.000000 4.478580 0.000000 
#    z 0.105100 0.000000 4.364380 
# 
# 
# High freq. dielectric constant tensor:
#      x y z
#    x 1.855400 0.000000 0.013790 
#    y 0.000000 1.925630 0.000000 
#    z 0.013790 0.000000 1.919990 
# 
# From -- ./inp_files/57505.got.cif
#   From: 2010.06.25/outbox.cif.g09.slc.cpg/sg13_29_cif.got.tgz:57505.got - 2010.06.28 04:50:58.
