data_PCOD8120486
_publ_section_title
;
Structure prediction by ZEFSAII (Michael W. Deem and Ramdas Pophale) SiO2 
 PCOD8120486
Probable space group: P 2/C
;
_chemical_formula_sum "Si O2"
_cell_formula_units_Z 22
_cell_length_a 26.328522
_cell_length_b 8.630660
_cell_length_c 14.600464
_cell_angle_alpha 90.000000
_cell_angle_beta 162.394133
_cell_angle_gamma 90.000000
_cell_volume 1003.496483
_symmetry_space_group_name_H-M "P 2/C"
_symmetry_group_IT_number 13
_symmetry_cell_setting 'monoclinic'
loop_
_space_group_symop_operation_xyz
x,y,z
-x,y,1/2-z
-x,-y,-z
x,-y,1/2+z
loop_
_atom_site_type_symbol
_atom_site_label
_atom_site_fract_x
_atom_site_fract_y
_atom_site_fract_z
Si Si1 0.506248 0.170871 0.627795
Si Si2 0.000000 0.729457 0.750000
Si Si3 0.082577 0.866472 0.201940
Si Si4 0.698592 0.082604 0.796819
Si Si5 0.883564 0.406190 0.866378
Si Si6 0.752001 0.708488 0.696459
O O1 0.603430 0.207000 0.699274
O O2 0.341085 0.277825 0.364354
O O3 0.439664 0.993443 0.507452
O O4 0.644255 0.183650 0.943859
O O5 0.834623 0.834559 0.468000
O O6 0.989791 0.629517 0.640638
O O7 0.173644 0.747956 0.286588
O O8 0.219036 0.942448 0.502637
O O9 0.941824 0.775068 0.020910
O O10 0.000000 0.000000 0.000000
O O11 0.736509 0.526777 0.641444
O O12 0.000000 0.500000 0.000000
#
# Coordination Sequence:
#
# PCOD8120486 Si02
#       6
#     4   2   4   4   4   4
#     4  10  22  39  58  88 136 167 207 266 345 397
#     4  12  22  40  70 100 130 170 238 284 328 392
#     4  11  19  39  67  95 119 165 229 281 322 388
#     4  11  22  37  64 100 122 167 223 288 329 395
#     4  10  23  39  63  94 131 167 215 276 331 390
#     4  10  21  40  60  85 130 176 208 267 341 402
#
# _framework density 21.923345000000001
#
# number of rings (size 3 to 8) (size 9 to 14) (size 15 to 20)
#    0.000    1.455    3.636    2.182    0.000    2.909 
#    0.000    9.091    0.000    0.000    0.000    0.000 
#    0.000    0.000    0.000    0.000    0.000    0.000 
#
# Total GULP energy -272556.431521 kJ/mol
# GULP energy per Si atom -12388.928706 kJ/mol
# Density = 2.187345 g / cm^3
# Si number density = 21.923345 Si / 1000 Ang^3
#
#
#
# Elastic Constant Matrix: (Units=GPa)
#
#
# Indices 1 2 3 4 5 6 
#
# 1 110.4162 56.5888 29.7639 0.0000 21.4651 0.0000
# 2 56.5888 111.7541 31.7228 0.0000 1.9545 0.0000
# 3 29.7639 31.7228 73.1262 0.0000 5.3426 0.0000
# 4 0.0000 0.0000 0.0000 23.4358 0.0000 6.8358
# 5 21.4651 1.9545 5.3426 0.0000 49.8616 0.0000
# 6 0.0000 0.0000 0.0000 6.8358 0.0000 46.2910
#
#
#
# Elastic Compliance Matrix: (Units=1/GPa)
#
#
# Indices 1 2 3 4 5 6 
#
# 1 0.014048 -0.006282 -0.002589 0.000000 -0.005524 0.000000
# 2 -0.006282 0.013014 -0.003275 0.000000 0.002545 0.000000
# 3 -0.002589 -0.003275 0.016185 0.000000 -0.000491 0.000000
# 4 0.000000 0.000000 0.000000 0.044590 0.000000 -0.006585
# 5 -0.005524 0.002545 -0.000491 0.000000 0.022386 0.000000
# 6 0.000000 0.000000 0.000000 -0.006585 0.000000 0.022575
#
#
# Mechanical properties :
#
#
# Convention : Reuss Voigt Hill
#
# Bulk Modulus (GPa) = 52.75377 59.04970 55.90173
# Shear Modulus (GPa) = 30.59805 35.73242 33.16524
#
# Velocity S-wave (km/s) = 3.73994 4.04156 3.89367
# Velocity P-wave (km/s) = 6.53946 6.98370 6.76523
#
# Compressibility (1/GPa) = 0.01895599
#
# Stress axis : x y z
#
# Youngs Moduli (GPa) = 71.18515 76.83901 61.78443
#
# Poissons Ratio (x) = 0.48269 0.15996
# Poissons Ratio (y) = 0.44717 0.20233
# Poissons Ratio (z) = 0.18430 0.25163
#
# Static dielectric constant tensor:
#      x y z
#    x 4.586710 0.000000 0.264050 
#    y 0.000000 4.558130 0.000000 
#    z 0.264050 0.000000 3.953780 
# 
# 
# High freq. dielectric constant tensor:
#      x y z
#    x 1.875920 0.000000 0.015420 
#    y 0.000000 1.847300 0.000000 
#    z 0.015420 0.000000 1.845720 
# 
# From -- ./inp_files/59461.got.cif
#   From: 2010.06.25/outbox.cif.g09.slc.cpg/sg13_30_cif.got.tgz:59461.got - 2010.06.28 04:50:58.
