data_PCOD8120699
_publ_section_title
;
Structure prediction by ZEFSAII (Michael W. Deem and Ramdas Pophale) SiO2 
 PCOD8120699
Probable space group: P 2/C
;
_chemical_formula_sum "Si O2"
_cell_formula_units_Z 28
_cell_length_a 21.916670
_cell_length_b 9.185426
_cell_length_c 19.613982
_cell_angle_alpha 90.000000
_cell_angle_beta 160.598315
_cell_angle_gamma 90.000000
_cell_volume 1311.670412
_symmetry_space_group_name_H-M "P 2/C"
_symmetry_group_IT_number 13
_symmetry_cell_setting 'monoclinic'
loop_
_space_group_symop_operation_xyz
x,y,z
-x,y,1/2-z
-x,-y,-z
x,-y,1/2+z
loop_
_atom_site_type_symbol
_atom_site_label
_atom_site_fract_x
_atom_site_fract_y
_atom_site_fract_z
Si Si1 0.170228 0.721635 0.330973
Si Si2 0.097559 0.438600 0.036584
Si Si3 0.636681 0.913515 0.332986
Si Si4 0.605193 0.077297 0.525060
Si Si5 0.000000 0.928751 0.250000
Si Si6 0.648557 0.215155 0.132686
Si Si7 0.397694 0.619382 0.272582
Si Si8 0.500000 0.426259 0.250000
O O1 0.255089 0.807107 0.357378
O O2 0.324037 0.674004 0.548009
O O3 0.019380 0.826174 0.205222
O O4 0.059661 0.582910 0.186036
O O5 0.187896 0.282498 0.150493
O O6 0.250228 0.545017 0.166590
O O7 0.000000 0.500000 0.000000
O O8 0.500000 0.872753 0.250000
O O9 0.687489 0.769196 0.344640
O O10 0.551181 0.037300 0.194625
O O11 0.823326 0.970289 0.561113
O O12 0.520004 0.160394 0.499289
O O13 0.714369 0.929032 0.660932
O O14 0.578174 0.341789 0.007203
O O15 0.455852 0.518700 0.270760
#
# Coordination Sequence:
#
# PCOD8120699 Si02
#       8
#     4   4   4   4   2   4   4   2
#     4  12  24  39  63  95 132 168 220 272 332 392
#     4  12  25  41  62  96 133 169 222 276 324 400
#     4  11  22  43  65  96 133 172 223 277 340 402
#     4  10  21  41  68  92 126 172 217 278 334 388
#     4  12  24  38  66  96 130 168 216 278 334 400
#     4  10  22  42  68  91 124 173 224 266 335 391
#     4  11  24  43  67  92 131 180 222 268 339 401
#     4  12  24  42  66  90 136 186 218 272 340 402
#
# _framework density 21.346827000000001
#
# number of rings (size 3 to 8) (size 9 to 14) (size 15 to 20)
#    0.000    0.857    2.143    5.571    0.000    2.857 
#    0.000    0.000    0.000    0.000    0.000    0.000 
#    0.000    0.000    0.000    0.000    0.000    0.000 
#
# Total GULP energy -347290.305460 kJ/mol
# GULP energy per Si atom -12403.225195 kJ/mol
# Density = 2.129824 g / cm^3
# Si number density = 21.346827 Si / 1000 Ang^3
#
#
#
# Elastic Constant Matrix: (Units=GPa)
#
#
# Indices 1 2 3 4 5 6 
#
# 1 95.6536 27.8128 19.7640 0.0000 -0.4499 0.0000
# 2 27.8128 83.1307 37.2397 0.0000 1.2552 0.0000
# 3 19.7640 37.2397 95.5346 0.0000 -7.2204 0.0000
# 4 0.0000 0.0000 0.0000 15.6576 0.0000 -12.7179
# 5 -0.4499 1.2552 -7.2204 0.0000 31.1759 0.0000
# 6 0.0000 0.0000 0.0000 -12.7179 0.0000 50.6123
#
#
#
# Elastic Compliance Matrix: (Units=1/GPa)
#
#
# Indices 1 2 3 4 5 6 
#
# 1 0.011673 -0.003424 -0.001076 0.000000 0.000057 0.000000
# 2 -0.003424 0.015694 -0.005558 0.000000 -0.001969 0.000000
# 3 -0.001076 -0.005558 0.013102 0.000000 0.003243 0.000000
# 4 0.000000 0.000000 0.000000 0.080245 0.000000 0.020164
# 5 0.000057 -0.001969 0.003243 0.000000 0.032907 0.000000
# 6 0.000000 0.000000 0.000000 0.020164 0.000000 0.024825
#
#
# Mechanical properties :
#
#
# Convention : Reuss Voigt Hill
#
# Bulk Modulus (GPa) = 49.13407 49.32801 49.23104
# Shear Modulus (GPa) = 24.34912 32.12264 28.23588
#
# Velocity S-wave (km/s) = 3.38101 3.88338 3.64087
# Velocity P-wave (km/s) = 6.18939 6.57766 6.38648
#
# Compressibility (1/GPa) = 0.02035248
#
# Stress axis : x y z
#
# Youngs Moduli (GPa) = 85.67095 63.71671 76.32655
#
# Poissons Ratio (x) = 0.21818 0.08210
# Poissons Ratio (y) = 0.29336 0.42423
# Poissons Ratio (z) = 0.09216 0.35415
#
# Static dielectric constant tensor:
#      x y z
#    x 4.022260 0.000000 -0.078120 
#    y 0.000000 4.008400 0.000000 
#    z -0.078120 0.000000 3.464040 
# 
# 
# High freq. dielectric constant tensor:
#      x y z
#    x 1.854490 0.000000 -0.009560 
#    y 0.000000 1.848750 0.000000 
#    z -0.009560 0.000000 1.828350 
# 
# From -- ./inp_files/82253.got.cif
#   From: 2010.06.25/outbox.cif.g09.slc.cpg/sg13_42_cif.got.tgz:82253.got - 2010.06.28 04:50:58.
