data_PCOD8120811
_publ_section_title
;
Structure prediction by ZEFSAII (Michael W. Deem and Ramdas Pophale) SiO2 
 PCOD8120811
Probable space group: P 2/C
;
_chemical_formula_sum "Si O2"
_cell_formula_units_Z 28
_cell_length_a 6.627782
_cell_length_b 7.660031
_cell_length_c 25.746603
_cell_angle_alpha 90.000000
_cell_angle_beta 96.157195
_cell_angle_gamma 90.000000
_cell_volume 1299.589343
_symmetry_space_group_name_H-M "P 2/C"
_symmetry_group_IT_number 13
_symmetry_cell_setting 'monoclinic'
loop_
_space_group_symop_operation_xyz
x,y,z
-x,y,1/2-z
-x,-y,-z
x,-y,1/2+z
loop_
_atom_site_type_symbol
_atom_site_label
_atom_site_fract_x
_atom_site_fract_y
_atom_site_fract_z
Si Si1 0.442774 0.488351 0.307398
Si Si2 0.881361 0.800310 0.193349
Si Si3 0.823578 0.639426 0.376585
Si Si4 0.710722 0.784613 0.480279
Si Si5 0.001190 0.679852 0.574288
Si Si6 0.289150 0.859182 0.859011
Si Si7 0.385544 0.154622 0.047421
O O1 0.500000 0.453035 0.250000
O O2 0.653827 0.539019 0.339638
O O3 0.356725 0.308368 0.327923
O O4 0.274071 0.638873 0.308658
O O5 0.054736 0.779610 0.154299
O O6 0.000000 0.820303 0.250000
O O7 0.756155 0.977894 0.179669
O O8 0.704524 0.726752 0.420841
O O9 0.003414 0.513455 0.402197
O O10 0.501181 0.740187 0.504673
O O11 0.891292 0.689548 0.515721
O O12 0.737821 0.994706 0.481739
O O13 0.237827 0.713113 0.571629
O O14 0.911441 0.814317 0.613470
O O15 0.458670 0.917005 0.905090
#
# Coordination Sequence:
#
# PCOD8120811 Si02
#       7
#     4   4   4   4   4   4   4
#     4  12  26  48  72 100 140 181 232 291 352 409
#     4  12  27  47  72 102 135 182 237 289 348 414
#     4  12  24  44  69  99 142 178 228 290 340 411
#     4  10  23  38  64 103 135 183 227 278 336 414
#     4  11  22  41  69  99 137 184 224 275 347 412
#     4  11  25  45  71 102 136 182 229 282 351 410
#     4  10  21  43  64  98 142 177 228 281 335 416
#
# _framework density 21.545266000000002
#
# number of rings (size 3 to 8) (size 9 to 14) (size 15 to 20)
#    0.000    0.857    4.286    2.571    0.000    6.286 
#    2.571    0.000    0.000    0.000    0.000    0.000 
#    0.000    0.000    0.000    0.000    0.000    0.000 
#
# Total GULP energy -347224.161100 kJ/mol
# GULP energy per Si atom -12400.862896 kJ/mol
# Density = 2.149623 g / cm^3
# Si number density = 21.545266 Si / 1000 Ang^3
#
#
#
# Elastic Constant Matrix: (Units=GPa)
#
#
# Indices 1 2 3 4 5 6 
#
# 1 99.4489 39.2299 51.8030 0.0000 -10.3016 0.0000
# 2 39.2299 99.4779 46.1304 0.0000 -2.5466 0.0000
# 3 51.8030 46.1304 144.1622 0.0000 -8.6615 0.0000
# 4 0.0000 0.0000 0.0000 29.4399 0.0000 -0.5568
# 5 -10.3016 -2.5466 -8.6615 0.0000 31.7688 0.0000
# 6 0.0000 0.0000 0.0000 -0.5568 0.0000 33.2503
#
#
#
# Elastic Compliance Matrix: (Units=1/GPa)
#
#
# Indices 1 2 3 4 5 6 
#
# 1 0.013681 -0.003667 -0.003552 0.000000 0.003174 0.000000
# 2 -0.003667 0.012787 -0.002830 0.000000 -0.000936 0.000000
# 3 -0.003552 -0.002830 0.009186 0.000000 0.001126 0.000000
# 4 0.000000 0.000000 0.000000 0.033978 0.000000 0.000569
# 5 0.003174 -0.000936 0.001126 0.000000 0.032739 0.000000
# 6 0.000000 0.000000 0.000000 0.000569 0.000000 0.030084
#
#
# Mechanical properties :
#
#
# Convention : Reuss Voigt Hill
#
# Bulk Modulus (GPa) = 64.28385 68.60174 66.44280
# Shear Modulus (GPa) = 31.69790 32.62017 32.15904
#
# Velocity S-wave (km/s) = 3.83981 3.89527 3.86764
# Velocity P-wave (km/s) = 7.03991 7.22086 7.13096
#
# Compressibility (1/GPa) = 0.01555601
#
# Stress axis : x y z
#
# Youngs Moduli (GPa) = 73.09468 78.20423 108.85717
#
# Poissons Ratio (x) = 0.28675 0.38667
# Poissons Ratio (y) = 0.26802 0.30810
# Poissons Ratio (z) = 0.25964 0.22134
#
# Static dielectric constant tensor:
#      x y z
#    x 3.947360 0.000000 -0.120260 
#    y 0.000000 3.740130 0.000000 
#    z -0.120260 0.000000 4.011730 
# 
# 
# High freq. dielectric constant tensor:
#      x y z
#    x 1.853790 0.000000 -0.007940 
#    y 0.000000 1.842960 0.000000 
#    z -0.007940 0.000000 1.859700 
# 
# From -- ./inp_files/90281.got.cif
#   From: 2010.06.25/outbox.cif.g09.slc.cpg/sg13_46_cif.got.tgz:90281.got - 2010.06.28 04:50:58.
