data_PCOD8120799
_publ_section_title
;
Structure prediction by ZEFSAII (Michael W. Deem and Ramdas Pophale) SiO2 
 PCOD8120799
Probable space group: P 2/C
;
_chemical_formula_sum "Si O2"
_cell_formula_units_Z 32
_cell_length_a 24.102436
_cell_length_b 11.307668
_cell_length_c 18.333306
_cell_angle_alpha 90.000000
_cell_angle_beta 161.691600
_cell_angle_gamma 90.000000
_cell_volume 1569.590870
_symmetry_space_group_name_H-M "P 2/C"
_symmetry_group_IT_number 13
_symmetry_cell_setting 'monoclinic'
loop_
_space_group_symop_operation_xyz
x,y,z
-x,y,1/2-z
-x,-y,-z
x,-y,1/2+z
loop_
_atom_site_type_symbol
_atom_site_label
_atom_site_fract_x
_atom_site_fract_y
_atom_site_fract_z
Si Si1 0.036654 0.927674 0.377860
Si Si2 0.892491 0.573677 0.542557
Si Si3 0.661235 0.927249 0.170516
Si Si4 0.623384 0.239991 0.971857
Si Si5 0.543429 0.298831 0.594392
Si Si6 0.064010 0.377401 0.111836
Si Si7 0.149522 0.679056 0.565841
Si Si8 0.177807 0.996791 0.767158
O O1 0.120939 0.796608 0.483065
O O2 0.000000 0.965458 0.250000
O O3 0.853635 0.932784 0.196004
O O4 0.164730 0.025672 0.571891
O O5 0.683299 0.598415 0.290375
O O6 0.932187 0.435179 0.576575
O O7 0.000000 0.610554 0.750000
O O8 0.953306 0.650952 0.547058
O O9 0.634535 0.788343 0.150276
O O10 0.672811 0.942539 0.097057
O O11 0.500000 0.000000 0.000000
O O12 0.500000 0.237704 0.750000
O O13 0.500298 0.222162 0.888455
O O14 0.729177 0.366010 0.106558
O O15 0.768932 0.137305 0.148127
O O16 0.358799 0.350437 0.333910
O O17 0.056275 0.294343 0.028889
O O18 0.000000 0.500000 0.000000
O O19 0.000000 0.000000 0.500000
#
# Coordination Sequence:
#
# PCOD8120799 Si02
#       8
#     4   4   4   4   4   4   4   4
#     4  11  24  38  62  90 121 158 204 253 304 355
#     4  11  23  37  61  92 119 150 203 265 301 346
#     4  11  20  39  60  86 121 158 201 241 295 374
#     4  11  22  37  58  89 127 156 193 257 318 349
#     4  11  22  36  63  86 118 158 201 241 299 371
#     4   9  20  38  61  85 115 163 208 241 295 376
#     4  10  21  43  60  83 119 168 202 239 304 373
#     4  10  22  38  58  86 120 164 201 244 299 374
#
# _framework density 20.387478999999999
#
# number of rings (size 3 to 8) (size 9 to 14) (size 15 to 20)
#    0.000    1.500    2.500    3.750    7.000    0.500 
#    0.000    0.000    0.000    0.000    0.000    0.000 
#    0.000    0.000    0.000    0.000    0.000    0.000 
#
# Total GULP energy -396453.138994 kJ/mol
# GULP energy per Si atom -12389.160594 kJ/mol
# Density = 2.034108 g / cm^3
# Si number density = 20.387479 Si / 1000 Ang^3
#
#
#
# Elastic Constant Matrix: (Units=GPa)
#
#
# Indices 1 2 3 4 5 6 
#
# 1 143.4259 23.9785 51.6779 0.0000 1.8160 0.0000
# 2 23.9785 67.3520 31.5056 0.0000 -0.9485 0.0000
# 3 51.6779 31.5056 88.5574 0.0000 -4.4814 0.0000
# 4 0.0000 0.0000 0.0000 30.2416 0.0000 3.1196
# 5 1.8160 -0.9485 -4.4814 0.0000 30.1302 0.0000
# 6 0.0000 0.0000 0.0000 3.1196 0.0000 26.3449
#
#
#
# Elastic Compliance Matrix: (Units=1/GPa)
#
#
# Indices 1 2 3 4 5 6 
#
# 1 0.008923 -0.000874 -0.004962 0.000000 -0.001303 0.000000
# 2 -0.000874 0.017902 -0.005872 0.000000 -0.000257 0.000000
# 3 -0.004962 -0.005872 0.016406 0.000000 0.002554 0.000000
# 4 0.000000 0.000000 0.000000 0.033476 0.000000 -0.003964
# 5 -0.001303 -0.000257 0.002554 0.000000 0.033640 0.000000
# 6 0.000000 0.000000 0.000000 -0.003964 0.000000 0.038427
#
#
# Mechanical properties :
#
#
# Convention : Reuss Voigt Hill
#
# Bulk Modulus (GPa) = 50.46704 57.07325 53.77015
# Shear Modulus (GPa) = 27.96524 30.15487 29.06006
#
# Velocity S-wave (km/s) = 3.70765 3.85006 3.77953
# Velocity P-wave (km/s) = 6.56784 6.91513 6.74372
#
# Compressibility (1/GPa) = 0.01981491
#
# Stress axis : x y z
#
# Youngs Moduli (GPa) = 112.07403 55.86105 60.95379
#
# Poissons Ratio (x) = 0.04882 0.30245
# Poissons Ratio (y) = 0.09794 0.35791
# Poissons Ratio (z) = 0.55610 0.32800
#
# Static dielectric constant tensor:
#      x y z
#    x -21.396910 0.000000 -7.171470 
#    y 0.000000 3.597200 0.000000 
#    z -7.171470 0.000000 1.456540 
# 
# 
# High freq. dielectric constant tensor:
#      x y z
#    x 1.814200 0.000000 0.008730 
#    y 0.000000 1.781120 0.000000 
#    z 0.008730 0.000000 1.779900 
# 
# From -- ./inp_files/71495.got.cif
#   From: 2010.06.25/outbox.cif.g09.slc.cpg/sg13_36_cif.got.tgz:71495.got - 2010.06.28 04:50:58.
