data_PCOD8120032
_publ_section_title
;
Structure prediction by ZEFSAII (Michael W. Deem and Ramdas Pophale) SiO2 
 PCOD8120032
Probable space group: P 2/C
;
_chemical_formula_sum "Si O2"
_cell_formula_units_Z 20
_cell_length_a 17.189079
_cell_length_b 8.801495
_cell_length_c 11.954684
_cell_angle_alpha 90.000000
_cell_angle_beta 32.284576
_cell_angle_gamma 90.000000
_cell_volume 966.028383
_symmetry_space_group_name_H-M "P 2/C"
_symmetry_group_IT_number 13
_symmetry_cell_setting 'monoclinic'
loop_
_space_group_symop_operation_xyz
x,y,z
-x,y,1/2-z
-x,-y,-z
x,-y,1/2+z
loop_
_atom_site_type_symbol
_atom_site_label
_atom_site_fract_x
_atom_site_fract_y
_atom_site_fract_z
Si Si1 0.331341 0.728868 0.437430
Si Si2 0.069973 0.838049 0.891981
Si Si3 0.204962 0.678425 0.356542
Si Si4 0.137513 0.359463 0.515867
Si Si5 0.665488 0.374198 0.029946
O O1 0.500000 0.775891 0.250000
O O2 0.225952 0.838451 0.638707
O O3 0.291742 0.751674 0.354828
O O4 0.303496 0.555294 0.509511
O O5 0.090648 0.772857 0.990464
O O6 0.959642 0.740085 0.950094
O O7 0.000000 0.000000 0.000000
O O8 0.206459 0.496886 0.363234
O O9 0.287552 0.711203 0.140316
O O10 0.251236 0.295179 0.468197
O O11 0.000000 0.425233 0.750000
O O12 0.500000 0.336937 0.250000
#
# Coordination Sequence:
#
# PCOD8120032 Si02
#       5
#     4   4   4   4   4
#     4  10  23  40  66  97 128 162 207 264 325 374
#     4  12  25  42  63  90 128 173 215 256 307 378
#     4  11  21  41  65  93 128 163 211 262 316 374
#     4  11  21  37  66  92 122 159 217 263 310 373
#     4  10  21  36  66 103 127 158 204 271 324 368
#
# _framework density 20.703326000000001
#
# number of rings (size 3 to 8) (size 9 to 14) (size 15 to 20)
#    0.000    1.200    4.000    3.600    2.800    4.000 
#    0.000    2.000    0.000    0.000    0.000    0.000 
#    0.000    0.000    0.000    0.000    0.000    0.000 
#
# Total GULP energy -248014.589183 kJ/mol
# GULP energy per Si atom -12400.729459 kJ/mol
# Density = 2.065620 g / cm^3
# Si number density = 20.703326 Si / 1000 Ang^3
#
#
#
# Elastic Constant Matrix: (Units=GPa)
#
#
# Indices 1 2 3 4 5 6 
#
# 1 193.7958 40.9226 79.1352 0.0000 -6.1852 0.0000
# 2 40.9226 58.3591 32.7772 0.0000 6.3893 0.0000
# 3 79.1352 32.7772 135.1336 0.0000 -13.2878 0.0000
# 4 0.0000 0.0000 0.0000 31.8000 0.0000 0.4837
# 5 -6.1852 6.3893 -13.2878 0.0000 38.0858 0.0000
# 6 0.0000 0.0000 0.0000 0.4837 0.0000 13.2993
#
#
#
# Elastic Compliance Matrix: (Units=1/GPa)
#
#
# Indices 1 2 3 4 5 6 
#
# 1 0.007252 -0.003226 -0.003412 0.000000 0.000529 0.000000
# 2 -0.003226 0.022314 -0.004083 0.000000 -0.005692 0.000000
# 3 -0.003412 -0.004083 0.010771 0.000000 0.003889 0.000000
# 4 0.000000 0.000000 0.000000 0.031464 0.000000 -0.001144
# 5 0.000529 -0.005692 0.003889 0.000000 0.028654 0.000000
# 6 0.000000 0.000000 0.000000 -0.001144 0.000000 0.075234
#
#
# Mechanical properties :
#
#
# Convention : Reuss Voigt Hill
#
# Bulk Modulus (GPa) = 52.92640 76.99539 64.96090
# Shear Modulus (GPa) = 24.57877 32.26725 28.42301
#
# Velocity S-wave (km/s) = 3.44930 3.95214 3.70925
# Velocity P-wave (km/s) = 6.44075 7.62210 7.05619
#
# Compressibility (1/GPa) = 0.01889416
#
# Stress axis : x y z
#
# Youngs Moduli (GPa) = 137.90246 44.81525 92.84380
#
# Poissons Ratio (x) = 0.14459 0.31678
# Poissons Ratio (y) = 0.44493 0.37904
# Poissons Ratio (z) = 0.47052 0.18296
#
# Static dielectric constant tensor:
#      x y z
#    x 4.056220 0.000000 0.004560 
#    y 0.000000 3.218820 0.000000 
#    z 0.004560 0.000000 3.714580 
# 
# 
# High freq. dielectric constant tensor:
#      x y z
#    x 1.834800 0.000000 0.002320 
#    y 0.000000 1.758580 0.000000 
#    z 0.002320 0.000000 1.819160 
# 
# From -- ./inp_files/28120.got.cif
#   From: 2010.06.25/outbox.cif.g09.slc.cpg/sg13_15_cif.got.tgz:28120.got - 2010.06.28 04:50:58.
