data_PCOD8120093
_publ_section_title
;
Structure prediction by ZEFSAII (Michael W. Deem and Ramdas Pophale) SiO2 
 PCOD8120093
Probable space group: P 2/C
;
_chemical_formula_sum "Si O2"
_cell_formula_units_Z 32
_cell_length_a 11.356016
_cell_length_b 14.610268
_cell_length_c 13.570526
_cell_angle_alpha 90.000000
_cell_angle_beta 47.541582
_cell_angle_gamma 90.000000
_cell_volume 1661.117480
_symmetry_space_group_name_H-M "P 2/C"
_symmetry_group_IT_number 13
_symmetry_cell_setting 'monoclinic'
loop_
_space_group_symop_operation_xyz
x,y,z
-x,y,1/2-z
-x,-y,-z
x,-y,1/2+z
loop_
_atom_site_type_symbol
_atom_site_label
_atom_site_fract_x
_atom_site_fract_y
_atom_site_fract_z
Si Si1 0.652214 0.512704 0.035483
Si Si2 0.823083 0.993026 0.382454
Si Si3 0.181578 0.357444 0.679132
Si Si4 0.720170 0.488446 0.719066
Si Si5 0.276440 0.165817 0.174015
Si Si6 0.166486 0.635059 0.706389
Si Si7 0.358140 0.178975 0.531106
Si Si8 0.678421 0.090944 0.139607
O O1 0.463029 0.504322 0.144316
O O2 0.733590 0.523304 0.095528
O O3 0.721136 0.420278 0.950921
O O4 0.695893 0.601828 0.946525
O O5 0.704450 0.920489 0.394942
O O6 0.794739 0.982185 0.517625
O O7 0.000000 0.966008 0.250000
O O8 0.785616 0.096310 0.373323
O O9 0.195809 0.399957 0.780138
O O10 0.257084 0.257224 0.639928
O O11 0.000000 0.349489 0.750000
O O12 0.812657 0.579713 0.703006
O O13 0.173260 0.257561 0.225026
O O14 0.250084 0.119811 0.295899
O O15 0.457527 0.191009 0.046822
O O16 0.000000 0.608650 0.750000
O O17 0.336338 0.180771 0.423660
O O18 0.500000 0.048095 0.250000
#
# Coordination Sequence:
#
# PCOD8120093 Si02
#       8
#     4   4   4   4   4   4   4   4
#     4  10  21  38  58  84 115 148 204 235 289 357
#     4  10  21  37  59  88 121 148 192 253 300 345
#     4  11  21  35  58  84 117 150 189 246 301 342
#     4  10  21  37  60  82 112 158 192 241 290 355
#     4  11  20  39  63  81 116 160 195 238 297 354
#     4  11  23  37  57  87 119 152 192 244 296 349
#     4   9  20  37  57  84 111 148 198 242 280 355
#     4   8  20  36  60  87 111 146 206 237 280 359
#
# _framework density 19.264140000000001
#
# number of rings (size 3 to 8) (size 9 to 14) (size 15 to 20)
#    0.750    1.250    0.000    5.625    1.750    2.500 
#    0.000    1.250    2.750    0.000    0.000    0.000 
#    0.000    0.000    0.000    0.000    0.000    0.000 
#
# Total GULP energy -396664.650089 kJ/mol
# GULP energy per Si atom -12395.770315 kJ/mol
# Density = 1.922029 g / cm^3
# Si number density = 19.264140 Si / 1000 Ang^3
#
#
#
# Elastic Constant Matrix: (Units=GPa)
#
#
# Indices 1 2 3 4 5 6 
#
# 1 84.0878 24.9803 22.4634 0.0000 1.3611 0.0000
# 2 24.9803 105.3677 18.3041 0.0000 8.7947 0.0000
# 3 22.4634 18.3041 57.4364 0.0000 3.2513 0.0000
# 4 0.0000 0.0000 0.0000 17.7825 0.0000 -4.7847
# 5 1.3611 8.7947 3.2513 0.0000 28.7786 0.0000
# 6 0.0000 0.0000 0.0000 -4.7847 0.0000 18.0046
#
#
#
# Elastic Compliance Matrix: (Units=1/GPa)
#
#
# Indices 1 2 3 4 5 6 
#
# 1 0.013879 -0.002535 -0.004657 0.000000 0.000644 0.000000
# 2 -0.002535 0.010727 -0.002263 0.000000 -0.002903 0.000000
# 3 -0.004657 -0.002263 0.020029 0.000000 -0.001351 0.000000
# 4 0.000000 0.000000 0.000000 0.060566 0.000000 0.016095
# 5 0.000644 -0.002903 -0.001351 0.000000 0.035757 0.000000
# 6 0.000000 0.000000 0.000000 0.016095 0.000000 0.059819
#
#
# Mechanical properties :
#
#
# Convention : Reuss Voigt Hill
#
# Bulk Modulus (GPa) = 38.87087 42.04306 40.45697
# Shear Modulus (GPa) = 21.90470 24.98940 23.44705
#
# Velocity S-wave (km/s) = 3.37571 3.60557 3.49253
# Velocity P-wave (km/s) = 5.95109 6.26142 6.10823
#
# Compressibility (1/GPa) = 0.02572620
#
# Stress axis : x y z
#
# Youngs Moduli (GPa) = 72.05112 93.22307 49.92682
#
# Poissons Ratio (x) = 0.23634 0.23249
# Poissons Ratio (y) = 0.18267 0.11297
# Poissons Ratio (z) = 0.33551 0.21093
#
# Static dielectric constant tensor:
#      x y z
#    x 3.561840 0.000000 0.000090 
#    y 0.000000 3.320990 0.000000 
#    z 0.000090 0.000000 3.525690 
# 
# 
# High freq. dielectric constant tensor:
#      x y z
#    x 1.749810 0.000000 -0.009620 
#    y 0.000000 1.736480 0.000000 
#    z -0.009620 0.000000 1.748000 
# 
# From -- ./inp_files/51460.got.cif
#   From: 2010.06.25/outbox.cif.g09.slc.cpg/sg13_26_cif.got.tgz:51460.got - 2010.06.28 04:50:58.
