data_PCOD8120717
_publ_section_title
;
Structure prediction by ZEFSAII (Michael W. Deem and Ramdas Pophale) SiO2 
 PCOD8120717
Probable space group: P 2/C
;
_chemical_formula_sum "Si O2"
_cell_formula_units_Z 20
_cell_length_a 9.082424
_cell_length_b 7.452555
_cell_length_c 27.795717
_cell_angle_alpha 90.000000
_cell_angle_beta 30.176545
_cell_angle_gamma 90.000000
_cell_volume 945.724064
_symmetry_space_group_name_H-M "P 2/C"
_symmetry_group_IT_number 13
_symmetry_cell_setting 'monoclinic'
loop_
_space_group_symop_operation_xyz
x,y,z
-x,y,1/2-z
-x,-y,-z
x,-y,1/2+z
loop_
_atom_site_type_symbol
_atom_site_label
_atom_site_fract_x
_atom_site_fract_y
_atom_site_fract_z
Si Si1 0.714915 0.277806 0.046712
Si Si2 0.660003 0.613333 0.349078
Si Si3 0.265323 0.153856 0.353710
Si Si4 0.639131 0.256325 0.661324
Si Si5 0.384504 0.072412 0.982376
O O1 0.493187 0.429194 0.091166
O O2 0.744983 0.278059 0.096162
O O3 0.602264 0.085141 0.060699
O O4 0.029067 0.326275 0.935467
O O5 0.551362 0.667916 0.327636
O O6 0.596177 0.767827 0.405958
O O7 0.000000 0.574361 0.250000
O O8 0.500000 0.237012 0.250000
O O9 0.946278 0.146266 0.419106
O O10 0.371410 0.957858 0.339467
O O11 0.500000 0.326921 0.750000
O O12 0.500000 0.000000 0.000000
#
# Coordination Sequence:
#
# PCOD8120717 Si02
#       5
#     4   4   4   4   4
#     4  11  23  47  68  96 135 174 228 270 328 408
#     4  12  27  42  66 101 137 177 218 278 343 387
#     4  10  21  41  73 101 125 180 230 266 334 400
#     4  10  21  43  71  96 131 177 224 276 328 400
#     4  11  25  44  68  97 138 175 215 285 337 390
#
# _framework density 21.147818000000001
#
# number of rings (size 3 to 8) (size 9 to 14) (size 15 to 20)
#    0.000    1.200    4.000    1.800    8.400    4.000 
#    0.000    0.000    0.000    0.000    0.000    0.000 
#    0.000    0.000    0.000    0.000    0.000    0.000 
#
# Total GULP energy -248115.903140 kJ/mol
# GULP energy per Si atom -12405.795157 kJ/mol
# Density = 2.109968 g / cm^3
# Si number density = 21.147818 Si / 1000 Ang^3
#
#
#
# Elastic Constant Matrix: (Units=GPa)
#
#
# Indices 1 2 3 4 5 6 
#
# 1 97.3719 37.2846 59.5018 0.0000 -2.6837 0.0000
# 2 37.2846 78.4559 65.5502 0.0000 -8.6487 0.0000
# 3 59.5018 65.5502 190.2801 0.0000 -1.8775 0.0000
# 4 0.0000 0.0000 0.0000 73.8732 0.0000 1.5379
# 5 -2.6837 -8.6487 -1.8775 0.0000 40.9049 0.0000
# 6 0.0000 0.0000 0.0000 1.5379 0.0000 25.7586
#
#
#
# Elastic Compliance Matrix: (Units=1/GPa)
#
#
# Indices 1 2 3 4 5 6 
#
# 1 0.013565 -0.004090 -0.002834 0.000000 -0.000105 0.000000
# 2 -0.004090 0.019647 -0.005453 0.000000 0.003635 0.000000
# 3 -0.002834 -0.005453 0.008011 0.000000 -0.000971 0.000000
# 4 0.000000 0.000000 0.000000 0.013554 0.000000 -0.000809
# 5 -0.000105 0.003635 -0.000971 0.000000 0.025164 0.000000
# 6 0.000000 0.000000 0.000000 -0.000809 0.000000 0.038870
#
#
# Mechanical properties :
#
#
# Convention : Reuss Voigt Hill
#
# Bulk Modulus (GPa) = 60.72559 76.75344 68.73952
# Shear Modulus (GPa) = 33.54483 41.69211 37.61847
#
# Velocity S-wave (km/s) = 3.98704 4.44493 4.22220
# Velocity P-wave (km/s) = 7.06912 7.91933 7.50627
#
# Compressibility (1/GPa) = 0.01646752
#
# Stress axis : x y z
#
# Youngs Moduli (GPa) = 73.71960 50.89871 124.83518
#
# Poissons Ratio (x) = 0.20820 0.35375
# Poissons Ratio (y) = 0.30154 0.68076
# Poissons Ratio (z) = 0.20890 0.27756
#
# Static dielectric constant tensor:
#      x y z
#    x 3.947320 0.000000 0.089290 
#    y 0.000000 3.857340 0.000000 
#    z 0.089290 0.000000 4.103990 
# 
# 
# High freq. dielectric constant tensor:
#      x y z
#    x 1.823120 0.000000 0.001910 
#    y 0.000000 1.832320 0.000000 
#    z 0.001910 0.000000 1.838740 
# 
# From -- ./inp_files/91198.got.cif
#   From: 2010.06.25/outbox.cif.g09.slc.cpg/sg13_46_cif.got.tgz:91198.got - 2010.06.28 04:50:58.
