data_PCOD8120537
_publ_section_title
;
Structure prediction by ZEFSAII (Michael W. Deem and Ramdas Pophale) SiO2 
 PCOD8120537
Probable space group: P 2/C
;
_chemical_formula_sum "Si O2"
_cell_formula_units_Z 32
_cell_length_a 15.329558
_cell_length_b 10.830712
_cell_length_c 18.294049
_cell_angle_alpha 90.000000
_cell_angle_beta 152.393694
_cell_angle_gamma 90.000000
_cell_volume 1407.493767
_symmetry_space_group_name_H-M "P 2/C"
_symmetry_group_IT_number 13
_symmetry_cell_setting 'monoclinic'
loop_
_space_group_symop_operation_xyz
x,y,z
-x,y,1/2-z
-x,-y,-z
x,-y,1/2+z
loop_
_atom_site_type_symbol
_atom_site_label
_atom_site_fract_x
_atom_site_fract_y
_atom_site_fract_z
Si Si1 0.408907 0.433878 0.854611
Si Si2 0.439319 0.201026 0.965541
Si Si3 0.775420 0.684067 0.768743
Si Si4 0.167708 0.850542 0.561809
Si Si5 0.248851 0.905029 0.195866
Si Si6 0.787102 0.533451 0.565655
Si Si7 0.792273 0.330912 0.925819
Si Si8 0.793489 0.245501 0.567359
O O1 0.343654 0.324916 0.859840
O O2 0.355477 0.566739 0.846704
O O3 0.283488 0.429563 0.688319
O O4 0.635357 0.429569 0.014101
O O5 0.399045 0.096518 0.874481
O O6 0.348849 0.187376 0.978907
O O7 0.666423 0.207816 0.142947
O O8 0.781188 0.723831 0.858216
O O9 0.984075 0.662862 0.896360
O O10 0.227783 0.832873 0.522755
O O11 0.949074 0.882932 0.410660
O O12 0.280511 0.964900 0.680261
O O13 0.279035 0.803530 0.153761
O O14 0.719639 0.624620 0.450360
O O15 0.758447 0.389785 0.523778
O O16 0.000000 0.560187 0.750000
O O17 0.000000 0.224824 0.750000
#
# Coordination Sequence:
#
# PCOD8120537 Si02
#       8
#     4   4   4   4   4   4   4   4
#     4  11  22  38  62  90 133 169 202 258 323 393
#     4  11  22  38  64  92 126 164 211 258 327 385
#     4  11  22  36  62  94 126 163 210 263 320 391
#     4  10  21  40  64  87 124 161 219 266 321 379
#     4   9  21  42  64  86 117 171 213 266 318 386
#     4  11  23  37  62  93 134 166 208 265 320 387
#     4  10  22  38  62  90 123 170 214 256 320 384
#     4  11  22  36  63  96 125 163 211 270 324 382
#
# _framework density 22.735444999999999
#
# number of rings (size 3 to 8) (size 9 to 14) (size 15 to 20)
#    0.000    1.500    2.500    2.625    3.500    1.000 
#    0.000    0.625   13.750    0.000    0.000    0.000 
#    0.000    0.000    0.000    0.000    0.000    0.000 
#
# Total GULP energy -396627.684828 kJ/mol
# GULP energy per Si atom -12394.615151 kJ/mol
# Density = 2.268370 g / cm^3
# Si number density = 22.735445 Si / 1000 Ang^3
#
#
#
# Elastic Constant Matrix: (Units=GPa)
#
#
# Indices 1 2 3 4 5 6 
#
# 1 110.8795 44.6940 26.8155 0.0000 -26.1883 0.0000
# 2 44.6940 60.8409 -3.0497 0.0000 -10.0448 0.0000
# 3 26.8155 -3.0497 89.0520 0.0000 1.8037 0.0000
# 4 0.0000 0.0000 0.0000 27.8361 0.0000 -6.2508
# 5 -26.1883 -10.0448 1.8037 0.0000 36.5669 0.0000
# 6 0.0000 0.0000 0.0000 -6.2508 0.0000 28.3426
#
#
#
# Elastic Compliance Matrix: (Units=1/GPa)
#
#
# Indices 1 2 3 4 5 6 
#
# 1 0.017257 -0.011396 -0.005779 0.000000 0.009514 0.000000
# 2 -0.011396 0.024765 0.004312 0.000000 -0.001572 0.000000
# 3 -0.005779 0.004312 0.013190 0.000000 -0.003605 0.000000
# 4 0.000000 0.000000 0.000000 0.037796 0.000000 0.008336
# 5 0.009514 -0.001572 -0.003605 0.000000 0.033907 0.000000
# 6 0.000000 0.000000 0.000000 0.008336 0.000000 0.037121
#
#
# Mechanical properties :
#
#
# Convention : Reuss Voigt Hill
#
# Bulk Modulus (GPa) = 33.91669 44.18800 39.05235
# Shear Modulus (GPa) = 25.05101 31.36997 28.21049
#
# Velocity S-wave (km/s) = 3.32301 3.71857 3.52634
# Velocity P-wave (km/s) = 5.44734 6.15751 5.81328
#
# Compressibility (1/GPa) = 0.02948401
#
# Stress axis : x y z
#
# Youngs Moduli (GPa) = 57.94674 40.38011 75.81266
#
# Poissons Ratio (x) = 0.46018 0.43816
# Poissons Ratio (y) = 0.66037 -0.32687
# Poissons Ratio (z) = 0.33490 -0.17410
#
# Static dielectric constant tensor:
#      x y z
#    x 3.925860 0.000000 -0.173380 
#    y 0.000000 3.970960 0.000000 
#    z -0.173380 0.000000 4.317590 
# 
# 
# High freq. dielectric constant tensor:
#      x y z
#    x 1.884820 0.000000 -0.017690 
#    y 0.000000 1.880340 0.000000 
#    z -0.017690 0.000000 1.920070 
# 
# From -- ./inp_files/68705.got.cif
#   From: 2010.06.25/outbox.cif.g09.slc.cpg/sg13_35_cif.got.tgz:68705.got - 2010.06.28 04:50:58.
