data_PCOD8120028
_publ_section_title
;
Structure prediction by ZEFSAII (Michael W. Deem and Ramdas Pophale) SiO2 
 PCOD8120028
Probable space group: P 2/C
;
_chemical_formula_sum "Si O2"
_cell_formula_units_Z 32
_cell_length_a 15.669553
_cell_length_b 10.362856
_cell_length_c 9.471469
_cell_angle_alpha 90.000000
_cell_angle_beta 94.723796
_cell_angle_gamma 90.000000
_cell_volume 1532.765516
_symmetry_space_group_name_H-M "P 2/C"
_symmetry_group_IT_number 13
_symmetry_cell_setting 'monoclinic'
loop_
_space_group_symop_operation_xyz
x,y,z
-x,y,1/2-z
-x,-y,-z
x,-y,1/2+z
loop_
_atom_site_type_symbol
_atom_site_label
_atom_site_fract_x
_atom_site_fract_y
_atom_site_fract_z
Si Si1 0.807084 0.336175 0.001350
Si Si2 0.292992 0.003889 0.615632
Si Si3 0.763872 0.776269 0.214252
Si Si4 0.669105 0.835678 0.629440
Si Si5 0.594112 0.586912 0.708051
Si Si6 0.881723 0.928301 0.048575
Si Si7 0.693589 0.573515 0.010272
Si Si8 0.971115 0.195387 0.096049
O O1 0.758558 0.227851 0.089010
O O2 0.775980 0.478834 0.040565
O O3 0.907971 0.307208 0.029464
O O4 0.786195 0.331057 0.832334
O O5 0.301463 0.124660 0.722524
O O6 0.347674 0.044824 0.482406
O O7 0.330118 0.883677 0.708111
O O8 0.195048 0.969722 0.565358
O O9 0.847351 0.857443 0.183015
O O10 0.721881 0.714431 0.068526
O O11 0.597448 0.723358 0.623132
O O12 0.500000 0.559003 0.750000
O O13 0.616612 0.475463 0.599507
O O14 0.662247 0.585178 0.845446
O O15 0.927755 0.056298 0.108076
O O16 0.945530 0.823756 0.989081
O O17 0.000000 0.248618 0.250000
#
# Coordination Sequence:
#
# PCOD8120028 Si02
#       8
#     4   4   4   4   4   4   4   4
#     4  10  21  40  58  86 122 162 215 262 296 372
#     4  11  19  38  61  93 125 162 211 251 300 378
#     4  11  20  37  62  91 117 160 215 256 303 361
#     4  10  21  36  64  90 126 161 203 248 306 373
#     4  11  24  43  67  98 125 156 201 260 313 370
#     4  11  21  32  59  89 121 161 208 260 314 361
#     4  11  23  43  70  88 120 165 213 253 305 372
#     4  11  22  34  54  86 127 161 206 264 321 351
#
# _framework density 20.877296000000001
#
# number of rings (size 3 to 8) (size 9 to 14) (size 15 to 20)
#    0.000    1.250    5.000    2.625    1.750    1.000 
#    0.000    1.250    0.000    0.000    0.000    0.000 
#    0.000    0.000    0.000    0.000    0.000    0.000 
#
# Total GULP energy -396627.142691 kJ/mol
# GULP energy per Si atom -12394.598209 kJ/mol
# Density = 2.082978 g / cm^3
# Si number density = 20.877296 Si / 1000 Ang^3
#
#
#
# Elastic Constant Matrix: (Units=GPa)
#
#
# Indices 1 2 3 4 5 6 
#
# 1 50.8625 23.0546 11.1680 0.0000 -12.7177 0.0000
# 2 23.0546 52.7338 17.1492 0.0000 -3.1799 0.0000
# 3 11.1680 17.1492 84.9180 0.0000 -9.1343 0.0000
# 4 0.0000 0.0000 0.0000 40.6857 0.0000 -2.4043
# 5 -12.7177 -3.1799 -9.1343 0.0000 26.9380 0.0000
# 6 0.0000 0.0000 0.0000 -2.4043 0.0000 18.7999
#
#
#
# Elastic Compliance Matrix: (Units=1/GPa)
#
#
# Indices 1 2 3 4 5 6 
#
# 1 0.027789 -0.011413 -0.000087 0.000000 0.011743 0.000000
# 2 -0.011413 0.025012 -0.003956 0.000000 -0.003777 0.000000
# 3 -0.000087 -0.003956 0.013006 0.000000 0.003902 0.000000
# 4 0.000000 0.000000 0.000000 0.024766 0.000000 0.003167
# 5 0.011743 -0.003777 0.003902 0.000000 0.043543 0.000000
# 6 0.000000 0.000000 0.000000 0.003167 0.000000 0.053597
#
#
# Mechanical properties :
#
#
# Convention : Reuss Voigt Hill
#
# Bulk Modulus (GPa) = 28.65734 32.36199 30.50967
# Shear Modulus (GPa) = 21.71488 26.42757 24.07122
#
# Velocity S-wave (km/s) = 3.22859 3.56174 3.39925
# Velocity P-wave (km/s) = 5.25878 5.69643 5.48197
#
# Compressibility (1/GPa) = 0.03489507
#
# Stress axis : x y z
#
# Youngs Moduli (GPa) = 35.98516 39.98141 76.88627
#
# Poissons Ratio (x) = 0.45630 0.00667
# Poissons Ratio (y) = 0.41069 0.30420
# Poissons Ratio (z) = 0.00312 0.15818
#
# Static dielectric constant tensor:
#      x y z
#    x 3.460660 0.000000 -0.166000 
#    y 0.000000 3.713290 0.000000 
#    z -0.166000 0.000000 4.038210 
# 
# 
# High freq. dielectric constant tensor:
#      x y z
#    x 1.775130 0.000000 -0.013470 
#    y 0.000000 1.813170 0.000000 
#    z -0.013470 0.000000 1.835080 
# 
# From -- ./inp_files/19030.got.cif
#   From: 2010.06.25/outbox.cif.g09.slc.cpg/sg13_10_cif.got.tgz:19030.got - 2010.06.28 04:50:58.
