data_PCOD8120043
_publ_section_title
;
Structure prediction by ZEFSAII (Michael W. Deem and Ramdas Pophale) SiO2 
 PCOD8120043
Probable space group: P 2/C
;
_chemical_formula_sum "Si O2"
_cell_formula_units_Z 18
_cell_length_a 22.306774
_cell_length_b 7.374378
_cell_length_c 5.198154
_cell_angle_alpha 90.000000
_cell_angle_beta 83.969265
_cell_angle_gamma 90.000000
_cell_volume 850.356634
_symmetry_space_group_name_H-M "P 2/C"
_symmetry_group_IT_number 13
_symmetry_cell_setting 'monoclinic'
loop_
_space_group_symop_operation_xyz
x,y,z
-x,y,1/2-z
-x,-y,-z
x,-y,1/2+z
loop_
_atom_site_type_symbol
_atom_site_label
_atom_site_fract_x
_atom_site_fract_y
_atom_site_fract_z
Si Si1 0.526328 0.796633 0.987845
Si Si2 0.217987 0.381863 0.134616
Si Si3 0.111432 0.884175 0.736693
Si Si4 0.000000 0.378524 0.250000
Si Si5 0.354246 0.616708 0.606978
O O1 0.500000 0.694213 0.750000
O O2 0.500000 0.694817 0.250000
O O3 0.599215 0.784284 0.952254
O O4 0.500000 0.000000 0.000000
O O5 0.204584 0.521821 0.369948
O O6 0.176369 0.207093 0.176770
O O7 0.286397 0.307675 0.115523
O O8 0.059537 0.740257 0.714291
O O9 0.104852 0.040386 0.527450
O O10 0.000000 0.500000 0.500000
O O11 0.365243 0.533329 0.883241
#
# Coordination Sequence:
#
# PCOD8120043 Si02
#       5
#     4   4   4   2   4
#     4  10  21  37  53  81 113 149 183 240 304 355
#     4  10  21  41  63  87 122 162 208 251 301 371
#     4  12  24  41  62  98 131 164 205 261 308 356
#     4  12  24  42  68  94 126 178 214 250 304 360
#     4  10  21  37  60  85 111 151 199 247 291 353
#
# _framework density 21.167591000000002
#
# number of rings (size 3 to 8) (size 9 to 14) (size 15 to 20)
#    0.000    1.333    0.000    6.000    0.000    2.667 
#    8.000    0.000    0.000    0.000    0.000    0.000 
#    0.000    0.000    0.000    0.000    0.000    0.000 
#
# Total GULP energy -223187.668523 kJ/mol
# GULP energy per Si atom -12399.314918 kJ/mol
# Density = 2.111941 g / cm^3
# Si number density = 21.167591 Si / 1000 Ang^3
#
#
#
# Elastic Constant Matrix: (Units=GPa)
#
#
# Indices 1 2 3 4 5 6 
#
# 1 162.6610 64.5528 34.8348 0.0000 -10.5384 0.0000
# 2 64.5528 73.1226 13.7403 0.0000 -6.6634 0.0000
# 3 34.8348 13.7403 144.6392 0.0000 -5.0923 0.0000
# 4 0.0000 0.0000 0.0000 29.7514 0.0000 0.5860
# 5 -10.5384 -6.6634 -5.0923 0.0000 29.6875 0.0000
# 6 0.0000 0.0000 0.0000 0.5860 0.0000 30.9338
#
#
#
# Elastic Compliance Matrix: (Units=1/GPa)
#
#
# Indices 1 2 3 4 5 6 
#
# 1 0.009854 -0.008285 -0.001538 0.000000 0.001375 0.000000
# 2 -0.008285 0.021145 0.000050 0.000000 0.001814 0.000000
# 3 -0.001538 0.000050 0.007305 0.000000 0.000718 0.000000
# 4 0.000000 0.000000 0.000000 0.033624 0.000000 -0.000637
# 5 0.001375 0.001814 0.000718 0.000000 0.034703 0.000000
# 6 0.000000 0.000000 0.000000 -0.000637 0.000000 0.032339
#
#
# Mechanical properties :
#
#
# Convention : Reuss Voigt Hill
#
# Bulk Modulus (GPa) = 53.30632 67.40873 60.35752
# Shear Modulus (GPa) = 30.34569 35.89420 33.11994
#
# Velocity S-wave (km/s) = 3.79039 4.12237 3.95986
# Velocity P-wave (km/s) = 6.66286 7.38735 7.03444
#
# Compressibility (1/GPa) = 0.01875950
#
# Stress axis : x y z
#
# Youngs Moduli (GPa) = 101.48092 47.29147 136.89966
#
# Poissons Ratio (x) = 0.39181 0.21052
# Poissons Ratio (y) = 0.84077 -0.00691
# Poissons Ratio (z) = 0.15606 -0.00239
#
# Static dielectric constant tensor:
#      x y z
#    x 4.098820 0.000000 0.629840 
#    y 0.000000 3.497070 0.000000 
#    z 0.629840 0.000000 10.945810 
# 
# 
# High freq. dielectric constant tensor:
#      x y z
#    x 1.847630 0.000000 -0.000970 
#    y 0.000000 1.801870 0.000000 
#    z -0.000970 0.000000 1.865770 
# 
# From -- ./inp_files/5819.got.cif
#   From: 2010.06.25/outbox.cif.g09.slc.cpg/sg13_3_cif.got.tgz:5819.got - 2010.06.28 04:50:58.
