data_PCOD8120940
_publ_section_title
;
Structure prediction by ZEFSAII (Michael W. Deem and Ramdas Pophale) SiO2 
 PCOD8120940
Probable space group: P 2/C
;
_chemical_formula_sum "Si O2"
_cell_formula_units_Z 32
_cell_length_a 23.326442
_cell_length_b 10.690402
_cell_length_c 22.114537
_cell_angle_alpha 90.000000
_cell_angle_beta 18.554712
_cell_angle_gamma 90.000000
_cell_volume 1754.827000
_symmetry_space_group_name_H-M "P 2/C"
_symmetry_group_IT_number 13
_symmetry_cell_setting 'monoclinic'
loop_
_space_group_symop_operation_xyz
x,y,z
-x,y,1/2-z
-x,-y,-z
x,-y,1/2+z
loop_
_atom_site_type_symbol
_atom_site_label
_atom_site_fract_x
_atom_site_fract_y
_atom_site_fract_z
Si Si1 0.795292 0.751511 0.386520
Si Si2 0.500211 0.547430 0.819447
Si Si3 0.500364 0.598723 0.055477
Si Si4 0.788018 0.061772 0.796216
Si Si5 0.204238 0.248807 0.477509
Si Si6 0.212722 0.194480 0.250080
Si Si7 0.787931 0.062223 0.127953
Si Si8 0.213736 0.805963 0.323355
O O1 0.678147 0.629163 0.493056
O O2 0.718804 0.869160 0.425412
O O3 0.784382 0.797955 0.465677
O O4 0.999688 0.717765 0.162775
O O5 0.500000 0.490898 0.750000
O O6 0.499916 0.451633 0.875266
O O7 0.679259 0.628488 0.649488
O O8 0.319379 0.679817 0.232087
O O9 0.500000 0.500000 0.000000
O O10 0.682059 0.679144 0.869491
O O11 0.722048 0.145484 0.806246
O O12 0.000046 0.055746 0.579707
O O13 0.724111 0.917163 0.858701
O O14 0.281268 0.131479 0.362782
O O15 0.277463 0.146014 0.250680
O O16 0.999432 0.223206 0.459699
O O17 0.723359 0.917758 0.193977
#
# Coordination Sequence:
#
# PCOD8120940 Si02
#       8
#     4   4   4   4   4   4   4   4
#     4   9  17  31  53  76  96 124 163 205 247 291
#     4  10  22  37  49  69 103 136 168 205 243 285
#     4  12  24  34  51  76  97 132 182 209 228 283
#     4   8  15  31  53  76 101 124 152 199 258 307
#     4   9  17  31  53  76  96 124 163 205 247 291
#     4   9  19  34  51  74 103 129 156 201 255 296
#     4   8  15  31  53  76 101 124 152 199 258 307
#     4   9  19  34  51  74 103 129 156 201 255 296
#
# _framework density 18.235415
#
# number of rings (size 3 to 8) (size 9 to 14) (size 15 to 20)
#    0.000    2.750    0.000    3.000    0.000    4.500 
#    0.000    1.250    0.000    1.500    0.000    0.000 
#    0.000    0.000    0.000    0.000    0.000    0.000 
#
# Total GULP energy -396453.424001 kJ/mol
# GULP energy per Si atom -12389.169500 kJ/mol
# Density = 1.819391 g / cm^3
# Si number density = 18.235415 Si / 1000 Ang^3
#
#
#
# Elastic Constant Matrix: (Units=GPa)
#
#
# Indices 1 2 3 4 5 6 
#
# 1 108.9933 78.0219 41.2136 0.0000 10.1597 0.0000
# 2 78.0219 128.3523 53.1406 0.0000 7.5571 0.0000
# 3 41.2136 53.1406 83.1426 0.0000 -2.0116 0.0000
# 4 0.0000 0.0000 0.0000 3.9209 0.0000 8.8725
# 5 10.1597 7.5571 -2.0116 0.0000 20.3015 0.0000
# 6 0.0000 0.0000 0.0000 8.8725 0.0000 35.1692
#
#
#
# Elastic Compliance Matrix: (Units=1/GPa)
#
#
# Indices 1 2 3 4 5 6 
#
# 1 0.017178 -0.008882 -0.002973 0.000000 -0.005585 0.000000
# 2 -0.008882 0.015639 -0.005640 0.000000 -0.001935 0.000000
# 3 -0.002973 -0.005640 0.017234 0.000000 0.005295 0.000000
# 4 0.000000 0.000000 0.000000 0.594326 0.000000 -0.149937
# 5 -0.005585 -0.001935 0.005295 0.000000 0.053297 0.000000
# 6 0.000000 0.000000 0.000000 -0.149937 0.000000 0.066260
#
#
# Mechanical properties :
#
#
# Convention : Reuss Voigt Hill
#
# Bulk Modulus (GPa) = 66.39644 73.91559 70.15602
# Shear Modulus (GPa) = 6.21933 21.75248 13.98590
#
# Velocity S-wave (km/s) = 1.84878 3.45754 2.77242
# Velocity P-wave (km/s) = 6.40680 7.52074 6.98601
#
# Compressibility (1/GPa) = 0.01506105
#
# Stress axis : x y z
#
# Youngs Moduli (GPa) = 58.21409 63.94165 58.02479
#
# Poissons Ratio (x) = 0.56795 0.17251
# Poissons Ratio (y) = 0.51707 0.32724
# Poissons Ratio (z) = 0.17308 0.36061
#
# Static dielectric constant tensor:
#      x y z
#    x 3.767890 0.000000 0.098960 
#    y 0.000000 3.357970 0.000000 
#    z 0.098960 0.000000 3.424950 
# 
# 
# High freq. dielectric constant tensor:
#      x y z
#    x 1.703340 0.000000 -0.002940 
#    y 0.000000 1.690230 0.000000 
#    z -0.002940 0.000000 1.713690 
# 
# From -- ./inp_files/88925.got.cif
#   From: 2010.06.25/outbox.cif.g09.slc.cpg/sg13_45_cif.got.tgz:88925.got - 2010.06.28 04:50:58.
