data_PCOD8120779
_publ_section_title
;
Structure prediction by ZEFSAII (Michael W. Deem and Ramdas Pophale) SiO2 
 PCOD8120779
Probable space group: P 2/C
;
_chemical_formula_sum "Si O2"
_cell_formula_units_Z 18
_cell_length_a 20.680238
_cell_length_b 5.264913
_cell_length_c 10.951324
_cell_angle_alpha 90.000000
_cell_angle_beta 35.140309
_cell_angle_gamma 90.000000
_cell_volume 686.308822
_symmetry_space_group_name_H-M "P 2/C"
_symmetry_group_IT_number 13
_symmetry_cell_setting 'monoclinic'
loop_
_space_group_symop_operation_xyz
x,y,z
-x,y,1/2-z
-x,-y,-z
x,-y,1/2+z
loop_
_atom_site_type_symbol
_atom_site_label
_atom_site_fract_x
_atom_site_fract_y
_atom_site_fract_z
Si Si1 0.569662 0.517947 0.018660
Si Si2 0.122517 0.469554 0.862721
Si Si3 0.000000 0.767641 0.750000
Si Si4 0.179407 0.961368 0.648985
Si Si5 0.629065 0.018226 0.842246
O O1 0.500000 0.544144 0.250000
O O2 0.500000 0.500000 0.000000
O O3 0.644360 0.260960 0.909488
O O4 0.653641 0.759573 0.879713
O O5 0.189093 0.730299 0.732279
O O6 0.185079 0.230182 0.706536
O O7 0.000000 0.500000 0.000000
O O8 0.100984 0.407824 0.039305
O O9 0.061662 0.943588 0.755397
O O10 0.289491 0.945958 0.396503
O O11 0.500000 0.000000 0.000000
#
# Coordination Sequence:
#
# PCOD8120779 Si02
#       5
#     4   4   2   4   4
#     4  10  21  42  68  92 133 178 222 272 325 392
#     4  10  22  40  66  91 132 165 215 274 322 393
#     4  10  22  42  64  98 124 170 216 276 332 382
#     4  11  23  42  65  97 128 171 220 263 331 388
#     4  10  22  43  65  95 133 172 217 268 329 400
#
# _framework density 26.227260999999999
#
# number of rings (size 3 to 8) (size 9 to 14) (size 15 to 20)
#    0.000    1.778    0.000    4.667    0.000    8.000 
#   24.000    0.000    0.000    0.000    0.000    0.000 
#    0.000    0.000    0.000    0.000    0.000    0.000 
#
# Total GULP energy -223051.084047 kJ/mol
# GULP energy per Si atom -12391.726892 kJ/mol
# Density = 2.616757 g / cm^3
# Si number density = 26.227261 Si / 1000 Ang^3
#
#
#
# Elastic Constant Matrix: (Units=GPa)
#
#
# Indices 1 2 3 4 5 6 
#
# 1 81.1369 -5.8671 22.0484 0.0000 6.3630 0.0000
# 2 -5.8671 211.8506 40.0824 0.0000 1.7117 0.0000
# 3 22.0484 40.0824 186.2186 0.0000 7.1611 0.0000
# 4 0.0000 0.0000 0.0000 52.5562 0.0000 21.0890
# 5 6.3630 1.7117 7.1611 0.0000 39.3774 0.0000
# 6 0.0000 0.0000 0.0000 21.0890 0.0000 -39.3133
#
#
#
# Elastic Compliance Matrix: (Units=1/GPa)
#
#
# Indices 1 2 3 4 5 6 
#
# 1 0.012955 0.000678 -0.001609 0.000000 -0.001830 0.000000
# 2 0.000678 0.004956 -0.001143 0.000000 -0.000117 0.000000
# 3 -0.001609 -0.001143 0.005835 0.000000 -0.000751 0.000000
# 4 0.000000 0.000000 0.000000 0.015657 0.000000 0.008399
# 5 -0.001830 -0.000117 -0.000751 0.000000 0.025833 0.000000
# 6 0.000000 0.000000 0.000000 0.008399 0.000000 -0.020931
#
#
# Mechanical properties :
#
#
# Convention : Reuss Voigt Hill
#
# Bulk Modulus (GPa) = 51.02420 65.74817 58.38619
# Shear Modulus (GPa) = 90.93263 38.72020 64.82641
#
# Velocity S-wave (km/s) = 5.89460 3.84648 4.97703
# Velocity P-wave (km/s) = 8.11328 6.69703 7.43894
#
# Compressibility (1/GPa) = 0.01959854
#
# Stress axis : x y z
#
# Youngs Moduli (GPa) = 77.19169 201.76708 171.36729
#
# Poissons Ratio (x) = -0.13681 0.27580
# Poissons Ratio (y) = -0.05234 0.19580
# Poissons Ratio (z) = 0.12423 0.23053
#
# Static dielectric constant tensor:
#      x y z
#    x 3.487870 0.000000 -5.117030 
#    y 0.000000 8.614130 0.000000 
#    z -5.117030 0.000000 -21.028360 
# 
# 
# High freq. dielectric constant tensor:
#      x y z
#    x 2.042880 0.000000 -0.001070 
#    y 0.000000 2.074070 0.000000 
#    z -0.001070 0.000000 2.062000 
# 
# From -- ./inp_files/41953.got.cif
#   From: 2010.06.25/outbox.cif.g09.slc.cpg/sg13_21_cif.got.tgz:41953.got - 2010.06.28 04:50:58.
