data_PCOD8120354
_publ_section_title
;
Structure prediction by ZEFSAII (Michael W. Deem and Ramdas Pophale) SiO2 
 PCOD8120354
Probable space group: P 2/C
;
_chemical_formula_sum "Si O2"
_cell_formula_units_Z 22
_cell_length_a 25.753870
_cell_length_b 7.793809
_cell_length_c 5.179664
_cell_angle_alpha 90.000000
_cell_angle_beta 83.230690
_cell_angle_gamma 90.000000
_cell_volume 1032.418278
_symmetry_space_group_name_H-M "P 2/C"
_symmetry_group_IT_number 13
_symmetry_cell_setting 'monoclinic'
loop_
_space_group_symop_operation_xyz
x,y,z
-x,y,1/2-z
-x,-y,-z
x,-y,1/2+z
loop_
_atom_site_type_symbol
_atom_site_label
_atom_site_fract_x
_atom_site_fract_y
_atom_site_fract_z
Si Si1 0.941615 0.425330 0.021463
Si Si2 0.207623 0.613733 0.978983
Si Si3 0.116163 0.112035 0.526886
Si Si4 0.707292 0.890289 0.607187
Si Si5 0.500000 0.385223 0.250000
Si Si6 0.585954 0.106397 0.160206
O O1 0.912098 0.479697 0.301668
O O2 0.938108 0.219944 0.980932
O O3 0.000000 0.500000 0.000000
O O4 0.203813 0.468096 0.764210
O O5 0.162304 0.752852 0.962033
O O6 0.262697 0.710808 0.920585
O O7 0.118680 0.035355 0.811430
O O8 0.646449 0.841830 0.641808
O O9 0.723172 0.992193 0.855587
O O10 0.500000 0.500000 0.500000
O O11 0.552469 0.274680 0.224841
O O12 0.571708 0.969151 0.389164
#
# Coordination Sequence:
#
# PCOD8120354 Si02
#       6
#     4   4   4   4   2   4
#     4  10  21  41  63  86 120 156 189 237 292 343
#     4  12  24  39  62  90 122 159 192 237 298 352
#     4  12  24  41  64  91 120 156 201 243 283 343
#     4  10  21  39  61  87 117 153 197 246 290 347
#     4  12  24  36  56  86 118 150 196 254 298 342
#     4  10  21  39  61  81 113 158 199 238 295 359
#
# _framework density 21.309194000000002
#
# number of rings (size 3 to 8) (size 9 to 14) (size 15 to 20)
#    0.000    1.091    0.000    7.091    0.000    1.455 
#    0.000   10.909    0.000    0.000    0.000    0.000 
#    0.000    0.000    0.000    0.000    0.000    0.000 
#
# Total GULP energy -272819.177799 kJ/mol
# GULP energy per Si atom -12400.871718 kJ/mol
# Density = 2.126069 g / cm^3
# Si number density = 21.309194 Si / 1000 Ang^3
#
#
#
# Elastic Constant Matrix: (Units=GPa)
#
#
# Indices 1 2 3 4 5 6 
#
# 1 83.2011 48.8444 12.6727 0.0000 -2.5798 0.0000
# 2 48.8444 101.9366 19.4307 0.0000 1.3509 0.0000
# 3 12.6727 19.4307 127.7897 0.0000 16.2142 0.0000
# 4 0.0000 0.0000 0.0000 53.5383 0.0000 -3.4846
# 5 -2.5798 1.3509 16.2142 0.0000 18.1871 0.0000
# 6 0.0000 0.0000 0.0000 -3.4846 0.0000 49.4267
#
#
#
# Elastic Compliance Matrix: (Units=1/GPa)
#
#
# Indices 1 2 3 4 5 6 
#
# 1 0.016985 -0.008008 -0.000956 0.000000 0.003857 0.000000
# 2 -0.008008 0.013886 -0.001175 0.000000 -0.001120 0.000000
# 3 -0.000956 -0.001175 0.009139 0.000000 -0.008196 0.000000
# 4 0.000000 0.000000 0.000000 0.018764 0.000000 0.001323
# 5 0.003857 -0.001120 -0.008196 0.000000 0.062921 0.000000
# 6 0.000000 0.000000 0.000000 0.001323 0.000000 0.020325
#
#
# Mechanical properties :
#
#
# Convention : Reuss Voigt Hill
#
# Bulk Modulus (GPa) = 50.67932 52.75812 51.71872
# Shear Modulus (GPa) = 29.60761 39.69574 34.65167
#
# Velocity S-wave (km/s) = 3.73155 4.32075 4.03691
# Velocity P-wave (km/s) = 6.51156 7.05011 6.78618
#
# Compressibility (1/GPa) = 0.01973191
#
# Stress axis : x y z
#
# Youngs Moduli (GPa) = 58.87460 72.01591 109.42398
#
# Poissons Ratio (x) = 0.57667 0.10463
# Poissons Ratio (y) = 0.47144 0.12860
# Poissons Ratio (z) = 0.05629 0.08463
#
# Static dielectric constant tensor:
#      x y z
#    x 4.077880 0.000000 0.031730 
#    y 0.000000 3.968250 0.000000 
#    z 0.031730 0.000000 1.756790 
# 
# 
# High freq. dielectric constant tensor:
#      x y z
#    x 1.839380 0.000000 0.004620 
#    y 0.000000 1.834910 0.000000 
#    z 0.004620 0.000000 1.866630 
# 
# From -- ./inp_files/7936.got.cif
#   From: 2010.06.25/outbox.cif.g09.slc.cpg/sg13_4_cif.got.tgz:7936.got - 2010.06.28 04:50:58.
