data_PCOD8120673
_publ_section_title
;
Structure prediction by ZEFSAII (Michael W. Deem and Ramdas Pophale) SiO2 
 PCOD8120673
Probable space group: P 2/C
;
_chemical_formula_sum "Si O2"
_cell_formula_units_Z 20
_cell_length_a 9.219015
_cell_length_b 11.496014
_cell_length_c 17.288936
_cell_angle_alpha 90.000000
_cell_angle_beta 148.082776
_cell_angle_gamma 90.000000
_cell_volume 968.732932
_symmetry_space_group_name_H-M "P 2/C"
_symmetry_group_IT_number 13
_symmetry_cell_setting 'monoclinic'
loop_
_space_group_symop_operation_xyz
x,y,z
-x,y,1/2-z
-x,-y,-z
x,-y,1/2+z
loop_
_atom_site_type_symbol
_atom_site_label
_atom_site_fract_x
_atom_site_fract_y
_atom_site_fract_z
Si Si1 0.010950 0.473084 0.842205
Si Si2 0.716964 0.971570 0.913218
Si Si3 0.579111 0.154585 0.621554
Si Si4 0.186130 0.206327 0.928485
Si Si5 0.549330 0.604483 0.363050
O O1 0.136994 0.343603 0.901601
O O2 0.000000 0.523630 0.750000
O O3 0.692866 0.477340 0.717799
O O4 0.167845 0.549743 0.977148
O O5 0.500000 0.991893 0.750000
O O6 0.627058 0.051964 0.945733
O O7 0.709394 0.838128 0.940683
O O8 0.000000 0.000000 0.000000
O O9 0.583963 0.170903 0.530824
O O10 0.457181 0.267442 0.606658
O O11 0.898436 0.136813 0.788542
O O12 0.500000 0.612632 0.250000
#
# Coordination Sequence:
#
# PCOD8120673 Si02
#       5
#     4   4   4   4   4
#     4  11  22  42  67  91 129 171 209 257 315 383
#     4  12  24  41  65  94 126 162 209 265 315 370
#     4  10  21  42  65  87 128 170 205 249 319 381
#     4  10  21  41  66  88 123 174 207 245 314 383
#     4  11  23  40  66  96 127 164 211 262 317 370
#
# _framework density 20.645524000000002
#
# number of rings (size 3 to 8) (size 9 to 14) (size 15 to 20)
#    0.000    1.200    6.000    2.400    2.800    0.800 
#    3.600    0.000    0.000    0.000    0.000    0.000 
#    0.000    0.000    0.000    0.000    0.000    0.000 
#
# Total GULP energy -247791.998228 kJ/mol
# GULP energy per Si atom -12389.599911 kJ/mol
# Density = 2.059853 g / cm^3
# Si number density = 20.645524 Si / 1000 Ang^3
#
#
#
# Elastic Constant Matrix: (Units=GPa)
#
#
# Indices 1 2 3 4 5 6 
#
# 1 87.5818 12.1012 6.1778 0.0000 -13.6880 0.0000
# 2 12.1012 46.3249 17.8198 0.0000 -16.3803 0.0000
# 3 6.1778 17.8198 63.0327 0.0000 -8.0428 0.0000
# 4 0.0000 0.0000 0.0000 22.7900 0.0000 -3.1993
# 5 -13.6880 -16.3803 -8.0428 0.0000 28.5889 0.0000
# 6 0.0000 0.0000 0.0000 -3.1993 0.0000 41.8898
#
#
#
# Elastic Compliance Matrix: (Units=1/GPa)
#
#
# Indices 1 2 3 4 5 6 
#
# 1 0.012418 -0.001368 -0.000178 0.000000 0.005112 0.000000
# 2 -0.001368 0.029504 -0.006362 0.000000 0.014460 0.000000
# 3 -0.000178 -0.006362 0.017845 0.000000 0.001290 0.000000
# 4 0.000000 0.000000 0.000000 0.044354 0.000000 0.003388
# 5 0.005112 0.014460 0.001290 0.000000 0.046074 0.000000
# 6 0.000000 0.000000 0.000000 0.003388 0.000000 0.024131
#
#
# Mechanical properties :
#
#
# Convention : Reuss Voigt Hill
#
# Bulk Modulus (GPa) = 22.75203 29.90410 26.32806
# Shear Modulus (GPa) = 24.41476 29.37645 26.89561
#
# Velocity S-wave (km/s) = 3.44258 3.77622 3.61325
# Velocity P-wave (km/s) = 5.18132 5.79043 5.49432
#
# Compressibility (1/GPa) = 0.04395213
#
# Stress axis : x y z
#
# Youngs Moduli (GPa) = 80.52566 33.89340 56.03686
#
# Poissons Ratio (x) = 0.04636 0.00998
# Poissons Ratio (y) = 0.11015 0.35650
# Poissons Ratio (z) = 0.01434 0.21563
#
# Static dielectric constant tensor:
#      x y z
#    x 4.985190 0.000000 -0.203830 
#    y 0.000000 3.546250 0.000000 
#    z -0.203830 0.000000 3.661330 
# 
# 
# High freq. dielectric constant tensor:
#      x y z
#    x 1.832400 0.000000 0.000310 
#    y 0.000000 1.792650 0.000000 
#    z 0.000310 0.000000 1.795840 
# 
# From -- ./inp_files/21769.got.cif
#   From: 2010.06.25/outbox.cif.g09.slc.cpg/sg13_11_cif.got.tgz:21769.got - 2010.06.28 04:50:58.
