data_PCOD8120365
_publ_section_title
;
Structure prediction by ZEFSAII (Michael W. Deem and Ramdas Pophale) SiO2 
 PCOD8120365
Probable space group: P 2/C
;
_chemical_formula_sum "Si O2"
_cell_formula_units_Z 26
_cell_length_a 19.937960
_cell_length_b 6.201340
_cell_length_c 26.659376
_cell_angle_alpha 90.000000
_cell_angle_beta 159.039021
_cell_angle_gamma 90.000000
_cell_volume 1179.163703
_symmetry_space_group_name_H-M "P 2/C"
_symmetry_group_IT_number 13
_symmetry_cell_setting 'monoclinic'
loop_
_space_group_symop_operation_xyz
x,y,z
-x,y,1/2-z
-x,-y,-z
x,-y,1/2+z
loop_
_atom_site_type_symbol
_atom_site_label
_atom_site_fract_x
_atom_site_fract_y
_atom_site_fract_z
Si Si1 0.820926 0.722503 0.352552
Si Si2 0.000000 0.354378 0.750000
Si Si3 0.161787 0.999798 0.934835
Si Si4 0.469350 0.958531 0.072974
Si Si5 0.259028 0.688492 0.758946
Si Si6 0.087938 0.975730 0.992592
Si Si7 0.182610 0.309666 0.313798
O O1 0.647804 0.803585 0.198357
O O2 0.812257 0.466042 0.336337
O O3 0.791716 0.806889 0.389450
O O4 0.028666 0.807621 0.481410
O O5 0.081367 0.211812 0.851859
O O6 0.168417 0.498520 0.844482
O O7 0.199204 0.041465 0.020073
O O8 0.023443 0.797305 0.831754
O O9 0.362425 0.945058 0.051275
O O10 0.538009 0.205230 0.110978
O O11 0.330604 0.875779 0.932574
O O12 0.252471 0.582979 0.810042
O O13 0.111960 0.880201 0.661920
#
# Coordination Sequence:
#
# PCOD8120365 Si02
#       7
#     4   2   4   4   4   4   4
#     4  10  21  39  61  88 116 156 205 257 304 361
#     4  12  20  36  64  84 120 168 212 248 306 380
#     4  11  22  39  60  85 121 164 198 254 313 361
#     4  11  22  37  56  88 131 153 199 259 308 362
#     4  10  22  37  63  87 120 162 204 250 311 366
#     4   9  21  41  62  83 116 157 207 256 301 365
#     4  11  22  39  57  91 123 163 208 251 301 375
#
# _framework density 22.049524999999999
#
# number of rings (size 3 to 8) (size 9 to 14) (size 15 to 20)
#    0.000    1.538    3.077    1.846    2.154    1.231 
#    0.000    0.000    0.000    5.538    0.000    0.000 
#    0.000    0.000    0.000    0.000    0.000    0.000 
#
# Total GULP energy -322225.482247 kJ/mol
# GULP energy per Si atom -12393.287779 kJ/mol
# Density = 2.199934 g / cm^3
# Si number density = 22.049525 Si / 1000 Ang^3
#
#
#
# Elastic Constant Matrix: (Units=GPa)
#
#
# Indices 1 2 3 4 5 6 
#
# 1 161.3588 51.0733 27.9797 0.0000 -8.3966 0.0000
# 2 51.0733 91.9847 14.0681 0.0000 0.3570 0.0000
# 3 27.9797 14.0681 45.5770 0.0000 6.8909 0.0000
# 4 0.0000 0.0000 0.0000 35.1238 0.0000 -4.2152
# 5 -8.3966 0.3570 6.8909 0.0000 30.6038 0.0000
# 6 0.0000 0.0000 0.0000 -4.2152 0.0000 31.4550
#
#
#
# Elastic Compliance Matrix: (Units=1/GPa)
#
#
# Indices 1 2 3 4 5 6 
#
# 1 0.008407 -0.004003 -0.004432 0.000000 0.003351 0.000000
# 2 -0.004003 0.013330 -0.001519 0.000000 -0.000912 0.000000
# 3 -0.004432 -0.001519 0.026204 0.000000 -0.007099 0.000000
# 4 0.000000 0.000000 0.000000 0.028936 0.000000 0.003878
# 5 0.003351 -0.000912 -0.007099 0.000000 0.035204 0.000000
# 6 0.000000 0.000000 0.000000 0.003878 0.000000 0.032311
#
#
# Mechanical properties :
#
#
# Convention : Reuss Voigt Hill
#
# Bulk Modulus (GPa) = 35.67333 53.90697 44.79015
# Shear Modulus (GPa) = 28.79416 33.15648 30.97532
#
# Velocity S-wave (km/s) = 3.61762 3.88200 3.75214
# Velocity P-wave (km/s) = 5.80202 6.67791 6.25531
#
# Compressibility (1/GPa) = 0.02803214
#
# Stress axis : x y z
#
# Youngs Moduli (GPa) = 118.94211 75.01884 38.16200
#
# Poissons Ratio (x) = 0.30032 0.16915
# Poissons Ratio (y) = 0.47616 0.05797
# Poissons Ratio (z) = 0.52720 0.11396
#
# Static dielectric constant tensor:
#      x y z
#    x 4.320820 0.000000 0.082080 
#    y 0.000000 3.867990 0.000000 
#    z 0.082080 0.000000 3.724820 
# 
# 
# High freq. dielectric constant tensor:
#      x y z
#    x 1.873540 0.000000 -0.002140 
#    y 0.000000 1.858660 0.000000 
#    z -0.002140 0.000000 1.849520 
# 
# From -- ./inp_files/97459.got.cif
#   From: 2010.06.25/outbox.cif.g09.slc.cpg/sg13_49_cif.got.tgz:97459.got - 2010.06.28 04:50:58.
