data_PCOD8120784
_publ_section_title
;
Structure prediction by ZEFSAII (Michael W. Deem and Ramdas Pophale) SiO2 
 PCOD8120784
Probable space group: P 2/C
;
_chemical_formula_sum "Si O2"
_cell_formula_units_Z 32
_cell_length_a 11.665338
_cell_length_b 8.901687
_cell_length_c 19.418150
_cell_angle_alpha 90.000000
_cell_angle_beta 52.392572
_cell_angle_gamma 90.000000
_cell_volume 1597.416301
_symmetry_space_group_name_H-M "P 2/C"
_symmetry_group_IT_number 13
_symmetry_cell_setting 'monoclinic'
loop_
_space_group_symop_operation_xyz
x,y,z
-x,y,1/2-z
-x,-y,-z
x,-y,1/2+z
loop_
_atom_site_type_symbol
_atom_site_label
_atom_site_fract_x
_atom_site_fract_y
_atom_site_fract_z
Si Si1 0.417219 0.395854 0.084214
Si Si2 0.624447 0.543143 0.254907
Si Si3 0.059580 0.519866 0.401197
Si Si4 0.524919 0.065095 0.064866
Si Si5 0.905008 0.149078 0.596882
Si Si6 0.618103 0.901420 0.261793
Si Si7 0.165997 0.934750 0.519248
Si Si8 0.103217 0.312694 0.146931
O O1 0.403152 0.482030 0.159937
O O2 0.504905 0.243658 0.068025
O O3 0.259141 0.368706 0.112165
O O4 0.500000 0.500000 0.000000
O O5 0.500000 0.484982 0.250000
O O6 0.771878 0.474440 0.168464
O O7 0.617712 0.721873 0.265906
O O8 0.055898 0.694310 0.381326
O O9 0.000000 0.500000 0.500000
O O10 0.962824 0.429581 0.382834
O O11 0.408497 0.985598 0.156936
O O12 0.682615 0.019719 0.033162
O O13 0.500000 0.000000 0.000000
O O14 0.781571 0.053085 0.681358
O O15 0.052273 0.061030 0.542758
O O16 0.840880 0.180344 0.543101
O O17 0.500000 0.958961 0.250000
O O18 0.125577 0.849529 0.603931
O O19 0.000000 0.292718 0.250000
#
# Coordination Sequence:
#
# PCOD8120784 Si02
#       8
#     4   4   4   4   4   4   4   4
#     4  12  28  45  68  99 138 183 228 285 345 418
#     4  10  24  43  67 100 134 175 227 278 342 406
#     4  11  23  42  72 100 133 181 224 280 345 408
#     4  12  25  43  66  97 132 181 222 271 348 409
#     4  10  23  41  67 103 127 174 225 284 330 404
#     4  10  21  42  69  92 135 172 221 273 338 395
#     4  11  24  43  67  96 135 173 226 276 342 399
#     4  12  26  47  67  98 145 180 227 281 348 412
#
# _framework density 20.032350000000001
#
# number of rings (size 3 to 8) (size 9 to 14) (size 15 to 20)
#    0.000    1.000    5.000    0.750    5.250    0.500 
#    0.000    0.625    0.000    0.000    0.000    0.000 
#    0.000    0.000    0.000    0.000    0.000    0.000 
#
# Total GULP energy -396760.300605 kJ/mol
# GULP energy per Si atom -12398.759394 kJ/mol
# Density = 1.998676 g / cm^3
# Si number density = 20.032350 Si / 1000 Ang^3
#
#
#
# Elastic Constant Matrix: (Units=GPa)
#
#
# Indices 1 2 3 4 5 6 
#
# 1 116.5476 29.3360 45.4983 0.0000 -5.4201 0.0000
# 2 29.3360 51.3516 31.8323 0.0000 -6.1261 0.0000
# 3 45.4983 31.8323 160.8241 0.0000 6.0495 0.0000
# 4 0.0000 0.0000 0.0000 37.3936 0.0000 6.6005
# 5 -5.4201 -6.1261 6.0495 0.0000 39.1162 0.0000
# 6 0.0000 0.0000 0.0000 6.6005 0.0000 27.8604
#
#
#
# Elastic Compliance Matrix: (Units=1/GPa)
#
#
# Indices 1 2 3 4 5 6 
#
# 1 0.010626 -0.004620 -0.002132 0.000000 0.001079 0.000000
# 2 -0.004620 0.024907 -0.003767 0.000000 0.003843 0.000000
# 3 -0.002132 -0.003767 0.007645 0.000000 -0.002068 0.000000
# 4 0.000000 0.000000 0.000000 0.027910 0.000000 -0.006612
# 5 0.001079 0.003843 -0.002068 0.000000 0.026636 0.000000
# 6 0.000000 0.000000 0.000000 -0.006612 0.000000 0.037460
#
#
# Mechanical properties :
#
#
# Convention : Reuss Voigt Hill
#
# Bulk Modulus (GPa) = 45.17105 60.22851 52.69978
# Shear Modulus (GPa) = 30.56227 35.67781 33.12004
#
# Velocity S-wave (km/s) = 3.91019 4.22478 4.07052
# Velocity P-wave (km/s) = 6.55623 7.34365 6.96108
#
# Compressibility (1/GPa) = 0.02213807
#
# Stress axis : x y z
#
# Youngs Moduli (GPa) = 94.11270 40.14994 130.81001
#
# Poissons Ratio (x) = 0.18548 0.27892
# Poissons Ratio (y) = 0.43478 0.49282
# Poissons Ratio (z) = 0.20067 0.15126
#
# Static dielectric constant tensor:
#      x y z
#    x 3.755540 0.000000 -0.353860 
#    y 0.000000 3.518210 0.000000 
#    z -0.353860 0.000000 1.183810 
# 
# 
# High freq. dielectric constant tensor:
#      x y z
#    x 1.793230 0.000000 -0.004680 
#    y 0.000000 1.777610 0.000000 
#    z -0.004680 0.000000 1.803060 
# 
# From -- ./inp_files/78274.got.cif
#   From: 2010.06.25/outbox.cif.g09.slc.cpg/sg13_40_cif.got.tgz:78274.got - 2010.06.28 04:50:58.
