data_PCOD8120059
_publ_section_title
;
Structure prediction by ZEFSAII (Michael W. Deem and Ramdas Pophale) SiO2 
 PCOD8120059
Probable space group: P 2/C
;
_chemical_formula_sum "Si O2"
_cell_formula_units_Z 30
_cell_length_a 17.053154
_cell_length_b 12.304489
_cell_length_c 8.777020
_cell_angle_alpha 90.000000
_cell_angle_beta 122.056638
_cell_angle_gamma 90.000000
_cell_volume 1560.872075
_symmetry_space_group_name_H-M "P 2/C"
_symmetry_group_IT_number 13
_symmetry_cell_setting 'monoclinic'
loop_
_space_group_symop_operation_xyz
x,y,z
-x,y,1/2-z
-x,-y,-z
x,-y,1/2+z
loop_
_atom_site_type_symbol
_atom_site_label
_atom_site_fract_x
_atom_site_fract_y
_atom_site_fract_z
Si Si1 0.612681 0.602688 0.712002
Si Si2 0.000000 0.472178 0.750000
Si Si3 0.785913 0.316546 0.215956
Si Si4 0.127712 0.547933 0.138591
Si Si5 0.594787 0.628027 0.043783
Si Si6 0.115282 0.097982 0.699061
Si Si7 0.097652 0.874060 0.531649
Si Si8 0.753621 0.263357 0.837836
O O1 0.690164 0.673632 0.708003
O O2 0.631491 0.606192 0.911387
O O3 0.513978 0.655573 0.568022
O O4 0.615010 0.477291 0.667146
O O5 0.068115 0.399073 0.716647
O O6 0.938548 0.547657 0.576283
O O7 0.838402 0.431242 0.266619
O O8 0.855127 0.236759 0.371583
O O9 0.764419 0.264869 0.029725
O O10 0.214623 0.621386 0.197556
O O11 0.646186 0.733051 0.172988
O O12 0.189585 0.166415 0.679405
O O13 0.012162 0.139477 0.555713
O O14 0.131688 0.973507 0.669992
O O15 0.130442 0.103595 0.894179
#
# Coordination Sequence:
#
# PCOD8120059 Si02
#       8
#     4   2   4   4   4   4   4   4
#     4  10  21  37  57  83 116 152 191 237 290 349
#     4  10  24  38  48  70 120 158 192 230 282 342
#     4  12  24  36  58  85 117 152 195 238 286 347
#     4  11  24  36  51  80 114 156 193 232 283 342
#     4  10  21  37  57  83 116 152 191 237 290 349
#     4  10  23  41  62  85 115 154 198 243 288 337
#     4  10  23  41  62  85 115 154 198 243 288 337
#     4  12  24  36  58  85 117 152 195 238 286 347
#
# _framework density 19.220023999999999
#
# number of rings (size 3 to 8) (size 9 to 14) (size 15 to 20)
#    0.000    1.333    2.667    2.400    7.467    3.200 
#    0.000    0.000    0.000    0.800    0.000    0.000 
#    0.000    0.000    0.000    0.000    0.000    0.000 
#
# Total GULP energy -371946.817066 kJ/mol
# GULP energy per Si atom -12398.227236 kJ/mol
# Density = 1.917628 g / cm^3
# Si number density = 19.220024 Si / 1000 Ang^3
#
#
#
# Elastic Constant Matrix: (Units=GPa)
#
#
# Indices 1 2 3 4 5 6 
#
# 1 98.0137 17.0939 17.4073 0.0000 -4.2251 0.0000
# 2 17.0939 53.3081 6.5045 0.0000 2.4228 0.0000
# 3 17.4073 6.5045 77.6622 0.0000 -6.2930 0.0000
# 4 0.0000 0.0000 0.0000 4.6380 0.0000 -9.2992
# 5 -4.2251 2.4228 -6.2930 0.0000 31.3964 0.0000
# 6 0.0000 0.0000 0.0000 -9.2992 0.0000 28.8239
#
#
#
# Elastic Compliance Matrix: (Units=1/GPa)
#
#
# Indices 1 2 3 4 5 6 
#
# 1 0.011231 -0.003404 -0.002123 0.000000 0.001349 0.000000
# 2 -0.003404 0.020086 -0.001100 0.000000 -0.002228 0.000000
# 3 -0.002123 -0.001100 0.013650 0.000000 0.002535 0.000000
# 4 0.000000 0.000000 0.000000 0.610549 0.000000 0.196976
# 5 0.001349 -0.002228 0.002535 0.000000 0.032712 0.000000
# 6 0.000000 0.000000 0.000000 0.196976 0.000000 0.098242
#
#
# Mechanical properties :
#
#
# Convention : Reuss Voigt Hill
#
# Bulk Modulus (GPa) = 31.53233 34.55505 33.04369
# Shear Modulus (GPa) = 6.17059 25.50354 15.83706
#
# Velocity S-wave (km/s) = 1.79373 3.64665 2.87363
# Velocity P-wave (km/s) = 4.55319 5.97900 5.31413
#
# Compressibility (1/GPa) = 0.03171349
#
# Stress axis : x y z
#
# Youngs Moduli (GPa) = 89.03552 49.78632 73.26175
#
# Poissons Ratio (x) = 0.16946 0.15554
# Poissons Ratio (y) = 0.30306 0.08058
# Poissons Ratio (z) = 0.18903 0.05476
#
# Static dielectric constant tensor:
#      x y z
#    x 3.803630 0.000000 -0.074330 
#    y 0.000000 3.179880 0.000000 
#    z -0.074330 0.000000 3.709920 
# 
# 
# High freq. dielectric constant tensor:
#      x y z
#    x 1.761340 0.000000 -0.009240 
#    y 0.000000 1.708230 0.000000 
#    z -0.009240 0.000000 1.766990 
# 
# From -- ./inp_files/21761.got.cif
#   From: 2010.06.25/outbox.cif.g09.slc.cpg/sg13_11_cif.got.tgz:21761.got - 2010.06.28 04:50:58.
