data_PCOD8120767
_publ_section_title
;
Structure prediction by ZEFSAII (Michael W. Deem and Ramdas Pophale) SiO2 
 PCOD8120767
Probable space group: P 2/C
;
_chemical_formula_sum "Si O2"
_cell_formula_units_Z 16
_cell_length_a 9.061694
_cell_length_b 17.466978
_cell_length_c 5.152540
_cell_angle_alpha 90.000000
_cell_angle_beta 120.142354
_cell_angle_gamma 90.000000
_cell_volume 705.268367
_symmetry_space_group_name_H-M "P 2/C"
_symmetry_group_IT_number 13
_symmetry_cell_setting 'monoclinic'
loop_
_space_group_symop_operation_xyz
x,y,z
-x,y,1/2-z
-x,-y,-z
x,-y,1/2+z
loop_
_atom_site_type_symbol
_atom_site_label
_atom_site_fract_x
_atom_site_fract_y
_atom_site_fract_z
Si Si1 0.385395 0.325888 0.894964
Si Si2 0.075545 0.585551 0.067079
Si Si3 0.301361 0.047244 0.582020
Si Si4 0.892147 0.197287 0.911734
O O1 0.500000 0.308931 0.750000
O O2 0.281231 0.406389 0.759809
O O3 0.248643 0.258606 0.801817
O O4 0.500000 0.332665 0.250000
O O5 0.000000 0.629771 0.250000
O O6 0.000000 0.628543 0.750000
O O7 0.000000 0.500000 0.000000
O O8 0.500000 0.068869 0.750000
O O9 0.195990 0.122095 0.552900
O O10 0.253805 0.016605 0.254572
O O11 0.000000 0.177013 0.750000
O O12 0.000000 0.230653 0.250000
#
# Coordination Sequence:
#
# PCOD8120767 Si02
#       4
#     4   4   4   4
#     4  12  25  43  67  96 129 168 218 266 316 381
#     4  10  21  42  67  93 129 167 202 255 319 379
#     4  10  22  40  62  90 128 169 212 267 325 379
#     4  12  25  41  65  94 128 172 217 267 324 380
#
# _framework density 22.686402000000001
#
# number of rings (size 3 to 8) (size 9 to 14) (size 15 to 20)
#    0.000    1.000    0.000    6.750    0.000    6.000 
#    0.000   15.000    0.000    0.000    0.000    0.000 
#    0.000    0.000    0.000    0.000    0.000    0.000 
#
# Total GULP energy -198295.380501 kJ/mol
# GULP energy per Si atom -12393.461281 kJ/mol
# Density = 2.263477 g / cm^3
# Si number density = 22.686402 Si / 1000 Ang^3
#
#
#
# Elastic Constant Matrix: (Units=GPa)
#
#
# Indices 1 2 3 4 5 6 
#
# 1 156.0450 57.9230 75.9021 0.0000 -16.2579 0.0000
# 2 57.9230 106.6084 27.0619 0.0000 20.0459 0.0000
# 3 75.9021 27.0619 206.7836 0.0000 -8.4335 0.0000
# 4 0.0000 0.0000 0.0000 17.0364 0.0000 19.1871
# 5 -16.2579 20.0459 -8.4335 0.0000 53.3494 0.0000
# 6 0.0000 0.0000 0.0000 19.1871 0.0000 23.8605
#
#
#
# Elastic Compliance Matrix: (Units=1/GPa)
#
#
# Indices 1 2 3 4 5 6 
#
# 1 0.010531 -0.005925 -0.002887 0.000000 0.004979 0.000000
# 2 -0.005925 0.013901 0.000069 0.000000 -0.007018 0.000000
# 3 -0.002887 0.000069 0.005888 0.000000 0.000025 0.000000
# 4 0.000000 0.000000 0.000000 0.622129 0.000000 -0.500278
# 5 0.004979 -0.007018 0.000025 0.000000 0.022903 0.000000
# 6 0.000000 0.000000 0.000000 -0.500278 0.000000 0.444203
#
#
# Mechanical properties :
#
#
# Convention : Reuss Voigt Hill
#
# Bulk Modulus (GPa) = 77.91531 87.91233 82.91382
# Shear Modulus (GPa) = 4.38090 39.41926 21.90008
#
# Velocity S-wave (km/s) = 1.39114 4.17294 3.11036
# Velocity P-wave (km/s) = 6.08271 7.87738 7.03749
#
# Compressibility (1/GPa) = 0.01283445
#
# Stress axis : x y z
#
# Youngs Moduli (GPa) = 94.96003 71.93542 169.84857
#
# Poissons Ratio (x) = 0.42622 0.49034
# Poissons Ratio (y) = 0.56264 -0.01178
# Poissons Ratio (z) = 0.27414 -0.00499
#
# Static dielectric constant tensor:
#      x y z
#    x 4.087720 0.000000 0.458510 
#    y 0.000000 3.978750 0.000000 
#    z 0.458510 0.000000 3.721440 
# 
# 
# High freq. dielectric constant tensor:
#      x y z
#    x 1.914530 0.000000 -0.014250 
#    y 0.000000 1.890440 0.000000 
#    z -0.014250 0.000000 1.916370 
# 
# From -- ./inp_files/1676.got.cif
#   From: 2010.06.25/outbox.cif.g09.slc.cpg/sg13_1_cif.got.tgz:1676.got - 2010.06.28 04:50:58.
