data_PCOD8120213
_publ_section_title
;
Structure prediction by ZEFSAII (Michael W. Deem and Ramdas Pophale) SiO2 
 PCOD8120213
Probable space group: P 2/C
;
_chemical_formula_sum "Si O2"
_cell_formula_units_Z 24
_cell_length_a 5.367476
_cell_length_b 14.345131
_cell_length_c 12.661838
_cell_angle_alpha 90.000000
_cell_angle_beta 71.224154
_cell_angle_gamma 90.000000
_cell_volume 923.044771
_symmetry_space_group_name_H-M "P 2/C"
_symmetry_group_IT_number 13
_symmetry_cell_setting 'monoclinic'
loop_
_space_group_symop_operation_xyz
x,y,z
-x,y,1/2-z
-x,-y,-z
x,-y,1/2+z
loop_
_atom_site_type_symbol
_atom_site_label
_atom_site_fract_x
_atom_site_fract_y
_atom_site_fract_z
Si Si1 0.022240 0.546570 0.125900
Si Si2 0.859146 0.064364 0.937655
Si Si3 0.579851 0.271330 0.411734
Si Si4 0.517136 0.527412 0.628350
Si Si5 0.976743 0.741489 0.048255
Si Si6 0.387588 0.919657 0.655471
O O1 0.344380 0.535882 0.066229
O O2 0.941686 0.654910 0.132265
O O3 0.000000 0.509802 0.250000
O O4 0.838752 0.481599 0.070615
O O5 0.029756 0.157946 0.890231
O O6 0.829089 0.999018 0.838484
O O7 0.579085 0.089895 0.027840
O O8 0.000000 0.000000 0.000000
O O9 0.620240 0.371192 0.351533
O O10 0.262908 0.263008 0.456448
O O11 0.709417 0.188287 0.321650
O O12 0.731085 0.265943 0.502443
O O13 0.500000 0.483863 0.750000
O O14 0.500000 0.955078 0.750000
#
# Coordination Sequence:
#
# PCOD8120213 Si02
#       6
#     4   4   4   4   4   4
#     4  10  22  40  57  85 122 162 202 253 300 373
#     4  10  21  43  62  88 130 162 203 271 313 371
#     4  11  22  38  63  91 120 160 201 258 312 375
#     4  10  21  38  59  86 124 158 200 252 308 361
#     4  11  23  39  62  87 121 161 204 253 315 364
#     4  10  22  41  64  93 125 164 213 259 322 384
#
# _framework density 26.000903999999998
#
# number of rings (size 3 to 8) (size 9 to 14) (size 15 to 20)
#    0.000    1.667    1.667    2.500    0.000    4.667 
#    3.000    2.500    0.000    0.000    0.000    0.000 
#    0.000    0.000    0.000    0.000    0.000    0.000 
#
# Total GULP energy -297330.889054 kJ/mol
# GULP energy per Si atom -12388.787044 kJ/mol
# Density = 2.594173 g / cm^3
# Si number density = 26.000904 Si / 1000 Ang^3
#
#
#
# Elastic Constant Matrix: (Units=GPa)
#
#
# Indices 1 2 3 4 5 6 
#
# 1 163.3025 62.0961 51.8026 0.0000 48.1807 0.0000
# 2 62.0961 234.7658 37.4230 0.0000 48.8896 0.0000
# 3 51.8026 37.4230 70.5056 0.0000 43.3851 0.0000
# 4 0.0000 0.0000 0.0000 26.9621 0.0000 23.6568
# 5 48.1807 48.8896 43.3851 0.0000 58.2745 0.0000
# 6 0.0000 0.0000 0.0000 23.6568 0.0000 39.4542
#
#
#
# Elastic Compliance Matrix: (Units=1/GPa)
#
#
# Indices 1 2 3 4 5 6 
#
# 1 0.008734 -0.000958 -0.003617 0.000000 -0.003725 0.000000
# 2 -0.000958 0.005267 0.000258 0.000000 -0.003819 0.000000
# 3 -0.003617 0.000258 0.027675 0.000000 -0.017831 0.000000
# 4 0.000000 0.000000 0.000000 0.078263 0.000000 -0.046926
# 5 -0.003725 -0.003819 -0.017831 0.000000 0.036719 0.000000
# 6 0.000000 0.000000 0.000000 -0.046926 0.000000 0.053483
#
#
# Mechanical properties :
#
#
# Convention : Reuss Voigt Hill
#
# Bulk Modulus (GPa) = 30.26268 85.69079 57.97673
# Shear Modulus (GPa) = 21.75912 46.08829 33.92370
#
# Velocity S-wave (km/s) = 2.89599 4.21475 3.61600
# Velocity P-wave (km/s) = 4.77982 7.53086 6.30716
#
# Compressibility (1/GPa) = 0.03304400
#
# Stress axis : x y z
#
# Youngs Moduli (GPa) = 114.49277 189.85782 36.13312
#
# Poissons Ratio (x) = 0.18188 0.13068
# Poissons Ratio (y) = 0.10968 -0.00933
# Poissons Ratio (z) = 0.41407 -0.04902
#
# Static dielectric constant tensor:
#      x y z
#    x 5.192620 0.000000 0.142880 
#    y 0.000000 5.310150 0.000000 
#    z 0.142880 0.000000 4.276420 
# 
# 
# High freq. dielectric constant tensor:
#      x y z
#    x 2.064700 0.000000 0.024190 
#    y 0.000000 2.052620 0.000000 
#    z 0.024190 0.000000 2.033500 
# 
# From -- ./inp_files/44027.got.cif
#   From: 2010.06.25/outbox.cif.g09.slc.cpg/sg13_23_cif.got.tgz:44027.got - 2010.06.28 04:50:58.
