data_PCOD8120168
_publ_section_title
;
Structure prediction by ZEFSAII (Michael W. Deem and Ramdas Pophale) SiO2 
 PCOD8120168
Probable space group: P 2/C
;
_chemical_formula_sum "Si O2"
_cell_formula_units_Z 22
_cell_length_a 5.626334
_cell_length_b 11.868636
_cell_length_c 15.153923
_cell_angle_alpha 90.000000
_cell_angle_beta 79.757992
_cell_angle_gamma 90.000000
_cell_volume 995.807532
_symmetry_space_group_name_H-M "P 2/C"
_symmetry_group_IT_number 13
_symmetry_cell_setting 'monoclinic'
loop_
_space_group_symop_operation_xyz
x,y,z
-x,y,1/2-z
-x,-y,-z
x,-y,1/2+z
loop_
_atom_site_type_symbol
_atom_site_label
_atom_site_fract_x
_atom_site_fract_y
_atom_site_fract_z
Si Si1 0.955017 0.003255 0.607763
Si Si2 0.180722 0.487653 0.566423
Si Si3 0.279634 0.781353 0.320666
Si Si4 0.467059 0.921286 0.586652
Si Si5 0.000000 0.590075 0.250000
Si Si6 0.520237 0.304528 0.510474
O O1 0.937815 0.128148 0.652147
O O2 0.685778 0.948639 0.641363
O O3 0.000000 0.000000 0.500000
O O4 0.188429 0.942818 0.639500
O O5 0.267850 0.356487 0.559666
O O6 0.370497 0.587394 0.546160
O O7 0.000000 0.500000 0.500000
O O8 0.067343 0.498750 0.670031
O O9 0.500000 0.836203 0.250000
O O10 0.212296 0.670459 0.270615
O O11 0.339469 0.745694 0.416235
O O12 0.507738 0.791389 0.560427
O O13 0.500000 0.000000 0.500000
#
# Coordination Sequence:
#
# PCOD8120168 Si02
#       6
#     4   4   4   4   2   4
#     4  10  22  37  64 100 134 176 220 275 352 427
#     4  11  25  41  67  99 135 184 239 294 362 417
#     4  12  24  39  67 103 140 174 234 305 353 414
#     4  10  21  37  68  97 132 170 229 267 345 428
#     4  12  26  40  70  98 134 178 242 308 346 412
#     4  11  23  42  65  98 135 184 232 287 356 432
#
# _framework density 22.092621999999999
#
# number of rings (size 3 to 8) (size 9 to 14) (size 15 to 20)
#    0.000    1.091    7.273    0.000   10.182    0.000 
#    0.000    0.000    4.000    0.000    0.000    0.000 
#    0.000    0.000    0.000    0.000    0.000    0.000 
#
# Total GULP energy -272543.556769 kJ/mol
# GULP energy per Si atom -12388.343489 kJ/mol
# Density = 2.204234 g / cm^3
# Si number density = 22.092622 Si / 1000 Ang^3
#
#
#
# Elastic Constant Matrix: (Units=GPa)
#
#
# Indices 1 2 3 4 5 6 
#
# 1 133.6102 24.5071 18.6281 0.0000 2.3283 0.0000
# 2 24.5071 118.1372 26.9453 0.0000 -7.6703 0.0000
# 3 18.6281 26.9453 88.0288 0.0000 -8.0564 0.0000
# 4 0.0000 0.0000 0.0000 24.6057 0.0000 -2.2375
# 5 2.3283 -7.6703 -8.0564 0.0000 28.5880 0.0000
# 6 0.0000 0.0000 0.0000 -2.2375 0.0000 19.1881
#
#
#
# Elastic Compliance Matrix: (Units=1/GPa)
#
#
# Indices 1 2 3 4 5 6 
#
# 1 0.007964 -0.001430 -0.001377 0.000000 -0.001420 0.000000
# 2 -0.001430 0.009438 -0.002406 0.000000 0.001971 0.000000
# 3 -0.001377 -0.002406 0.012666 0.000000 0.003036 0.000000
# 4 0.000000 0.000000 0.000000 0.041077 0.000000 0.004790
# 5 -0.001420 0.001971 0.003036 0.000000 0.036480 0.000000
# 6 0.000000 0.000000 0.000000 0.004790 0.000000 0.052674
#
#
# Mechanical properties :
#
#
# Convention : Reuss Voigt Hill
#
# Bulk Modulus (GPa) = 50.91548 53.32633 52.12091
# Shear Modulus (GPa) = 28.20528 32.45607 30.33068
#
# Velocity S-wave (km/s) = 3.57695 3.83703 3.70927
# Velocity P-wave (km/s) = 6.33686 6.61970 6.47982
#
# Compressibility (1/GPa) = 0.01964039
#
# Stress axis : x y z
#
# Youngs Moduli (GPa) = 125.57189 105.95330 78.95320
#
# Poissons Ratio (x) = 0.15152 0.10876
# Poissons Ratio (y) = 0.17958 0.18996
# Poissons Ratio (z) = 0.17297 0.25492
#
# Static dielectric constant tensor:
#      x y z
#    x 4.832040 0.000000 -0.130610 
#    y 0.000000 6.520850 0.000000 
#    z -0.130610 0.000000 3.475660 
# 
# 
# High freq. dielectric constant tensor:
#      x y z
#    x 1.882360 0.000000 -0.007070 
#    y 0.000000 1.862740 0.000000 
#    z -0.007070 0.000000 1.847510 
# 
# From -- ./inp_files/43609.got.cif
#   From: 2010.06.25/outbox.cif.g09.slc.cpg/sg13_22_cif.got.tgz:43609.got - 2010.06.28 04:50:58.
