data_PCOD8120991
_publ_section_title
;
Structure prediction by ZEFSAII (Michael W. Deem and Ramdas Pophale) SiO2 
 PCOD8120991
Probable space group: P 2/C
;
_chemical_formula_sum "Si O2"
_cell_formula_units_Z 18
_cell_length_a 13.545298
_cell_length_b 11.060343
_cell_length_c 10.834195
_cell_angle_alpha 90.000000
_cell_angle_beta 145.864150
_cell_angle_gamma 90.000000
_cell_volume 910.831820
_symmetry_space_group_name_H-M "P 2/C"
_symmetry_group_IT_number 13
_symmetry_cell_setting 'monoclinic'
loop_
_space_group_symop_operation_xyz
x,y,z
-x,y,1/2-z
-x,-y,-z
x,-y,1/2+z
loop_
_atom_site_type_symbol
_atom_site_label
_atom_site_fract_x
_atom_site_fract_y
_atom_site_fract_z
Si Si1 0.166172 0.735116 0.585134
Si Si2 0.500000 0.284890 0.750000
Si Si3 0.324331 0.534185 0.891481
Si Si4 0.500125 0.857990 0.484647
Si Si5 0.220758 0.272963 0.856459
O O1 0.193451 0.597389 0.658702
O O2 0.294968 0.821292 0.796222
O O3 0.220660 0.750120 0.500589
O O4 0.962591 0.772644 0.394000
O O5 0.357038 0.373760 0.539602
O O6 0.578483 0.194647 0.725759
O O7 0.234107 0.415625 0.850077
O O8 0.500000 0.500000 0.000000
O O9 0.385417 0.799272 0.473884
O O10 0.500000 0.000000 0.500000
#
# Coordination Sequence:
#
# PCOD8120991 Si02
#       5
#     4   2   4   4   4
#     4  10  23  39  61  95 119 163 205 243 312 363
#     4  10  22  38  60  96 116 162 212 244 314 372
#     4  11  19  37  63  90 129 158 196 250 314 367
#     4  11  25  42  65  85 124 166 211 253 300 362
#     4  11  22  39  64  91 125 160 198 256 305 365
#
# _framework density 19.762156999999998
#
# number of rings (size 3 to 8) (size 9 to 14) (size 15 to 20)
#    0.000    1.333    4.444    2.667    3.111    0.889 
#    0.000    3.333    0.000    0.000    0.000    0.000 
#    0.000    0.000    0.000    0.000    0.000    0.000 
#
# Total GULP energy -223117.176764 kJ/mol
# GULP energy per Si atom -12395.398709 kJ/mol
# Density = 1.971718 g / cm^3
# Si number density = 19.762157 Si / 1000 Ang^3
#
#
#
# Elastic Constant Matrix: (Units=GPa)
#
#
# Indices 1 2 3 4 5 6 
#
# 1 57.8716 30.7419 26.3669 0.0000 -5.9686 0.0000
# 2 30.7419 141.5656 34.3440 0.0000 -2.2665 0.0000
# 3 26.3669 34.3440 99.8443 0.0000 -0.3312 0.0000
# 4 0.0000 0.0000 0.0000 22.5215 0.0000 -8.7268
# 5 -5.9686 -2.2665 -0.3312 0.0000 25.0308 0.0000
# 6 0.0000 0.0000 0.0000 -8.7268 0.0000 13.6219
#
#
#
# Elastic Compliance Matrix: (Units=1/GPa)
#
#
# Indices 1 2 3 4 5 6 
#
# 1 0.021707 -0.003546 -0.004497 0.000000 0.004795 0.000000
# 2 -0.003546 0.008297 -0.001918 0.000000 -0.000120 0.000000
# 3 -0.004497 -0.001918 0.011859 0.000000 -0.001089 0.000000
# 4 0.000000 0.000000 0.000000 0.059065 0.000000 0.037840
# 5 0.004795 -0.000120 -0.001089 0.000000 0.041069 0.000000
# 6 0.000000 0.000000 0.000000 0.037840 0.000000 0.097653
#
#
# Mechanical properties :
#
#
# Convention : Reuss Voigt Hill
#
# Bulk Modulus (GPa) = 45.57529 53.57633 49.57581
# Shear Modulus (GPa) = 18.73464 26.09008 22.41236
#
# Velocity S-wave (km/s) = 3.08231 3.63740 3.37130
# Velocity P-wave (km/s) = 5.98160 6.69405 6.34783
#
# Compressibility (1/GPa) = 0.02194171
#
# Stress axis : x y z
#
# Youngs Moduli (GPa) = 46.06887 120.52088 84.32271
#
# Poissons Ratio (x) = 0.42738 0.37917
# Poissons Ratio (y) = 0.16336 0.16173
# Poissons Ratio (z) = 0.20715 0.23116
#
# Static dielectric constant tensor:
#      x y z
#    x 3.654120 0.000000 -0.152570 
#    y 0.000000 3.582040 0.000000 
#    z -0.152570 0.000000 3.811820 
# 
# 
# High freq. dielectric constant tensor:
#      x y z
#    x 1.767100 0.000000 -0.012990 
#    y 0.000000 1.764340 0.000000 
#    z -0.012990 0.000000 1.774620 
# 
# From -- ./inp_files/16019.got.cif
#   From: 2010.06.25/outbox.cif.g09.slc.cpg/sg13_9_cif.got.tgz:16019.got - 2010.06.28 04:50:58.
