data_PCOD8120077
_publ_section_title
;
Structure prediction by ZEFSAII (Michael W. Deem and Ramdas Pophale) SiO2 
 PCOD8120077
Probable space group: P 2/C
;
_chemical_formula_sum "Si O2"
_cell_formula_units_Z 30
_cell_length_a 6.352298
_cell_length_b 13.938086
_cell_length_c 19.222598
_cell_angle_alpha 90.000000
_cell_angle_beta 110.669574
_cell_angle_gamma 90.000000
_cell_volume 1592.395608
_symmetry_space_group_name_H-M "P 2/C"
_symmetry_group_IT_number 13
_symmetry_cell_setting 'monoclinic'
loop_
_space_group_symop_operation_xyz
x,y,z
-x,y,1/2-z
-x,-y,-z
x,-y,1/2+z
loop_
_atom_site_type_symbol
_atom_site_label
_atom_site_fract_x
_atom_site_fract_y
_atom_site_fract_z
Si Si1 0.176041 0.985810 0.080454
Si Si2 0.492350 0.141750 0.061855
Si Si3 0.867556 0.728423 0.916561
Si Si4 0.699395 0.547691 0.821788
Si Si5 0.460866 0.358237 0.824126
Si Si6 0.981761 0.122562 0.167388
Si Si7 0.305584 0.791519 0.050283
Si Si8 0.000000 0.556159 0.250000
O O1 0.218130 0.872060 0.094628
O O2 0.395260 0.041625 0.078692
O O3 0.069122 0.026567 0.138970
O O4 0.000000 0.000000 0.000000
O O5 0.331252 0.230781 0.059472
O O6 0.726824 0.152348 0.127249
O O7 0.537141 0.148326 0.984460
O O8 0.802863 0.619992 0.890213
O O9 0.873385 0.788418 0.845144
O O10 0.101870 0.737473 0.986441
O O11 0.500000 0.592918 0.750000
O O12 0.594833 0.457683 0.850997
O O13 0.905901 0.512277 0.799095
O O14 0.500000 0.320034 0.750000
O O15 0.545384 0.283773 0.890785
O O16 0.195305 0.376139 0.804567
O O17 0.000000 0.103975 0.250000
#
# Coordination Sequence:
#
# PCOD8120077 Si02
#       8
#     4   4   4   4   4   4   4   2
#     4  11  20  41  59  82 116 156 195 240 295 355
#     4  10  21  37  59  83 118 157 191 236 300 345
#     4  10  22  35  58  94 117 151 195 239 294 351
#     4   9  20  36  60  86 119 156 188 239 296 347
#     4   9  21  41  59  84 116 152 199 245 289 345
#     4  10  23  37  57  88 121 149 198 245 287 352
#     4  11  22  38  62  84 117 157 196 244 290 352
#     4   8  18  40  60  78 116 160 194 236 298 354
#
# _framework density 18.839541000000001
#
# number of rings (size 3 to 8) (size 9 to 14) (size 15 to 20)
#    0.000    2.400    4.000    0.400    2.800    7.467 
#    2.400    1.333    1.467    0.000    0.000    0.000 
#    0.000    0.000    0.000    0.000    0.000    0.000 
#
# Total GULP energy -371807.574953 kJ/mol
# GULP energy per Si atom -12393.585832 kJ/mol
# Density = 1.879666 g / cm^3
# Si number density = 18.839541 Si / 1000 Ang^3
#
#
#
# Elastic Constant Matrix: (Units=GPa)
#
#
# Indices 1 2 3 4 5 6 
#
# 1 112.7794 31.1559 39.0701 0.0000 7.2082 0.0000
# 2 31.1559 98.1633 51.1539 0.0000 14.0579 0.0000
# 3 39.0701 51.1539 104.6830 0.0000 -4.1272 0.0000
# 4 0.0000 0.0000 0.0000 24.0714 0.0000 4.0868
# 5 7.2082 14.0579 -4.1272 0.0000 19.6940 0.0000
# 6 0.0000 0.0000 0.0000 4.0868 0.0000 17.9108
#
#
#
# Elastic Compliance Matrix: (Units=1/GPa)
#
#
# Indices 1 2 3 4 5 6 
#
# 1 0.010651 -0.000864 -0.003713 0.000000 -0.004060 0.000000
# 2 -0.000864 0.016754 -0.008393 0.000000 -0.013402 0.000000
# 3 -0.003713 -0.008393 0.015457 0.000000 0.010589 0.000000
# 4 0.000000 0.000000 0.000000 0.043217 0.000000 -0.009861
# 5 -0.004060 -0.013402 0.010589 0.000000 0.064048 0.000000
# 6 0.000000 0.000000 0.000000 -0.009861 0.000000 0.058082
#
#
# Mechanical properties :
#
#
# Convention : Reuss Voigt Hill
#
# Bulk Modulus (GPa) = 59.09339 62.04285 60.56812
# Shear Modulus (GPa) = 20.85140 25.28498 23.06819
#
# Velocity S-wave (km/s) = 3.33045 3.66747 3.50302
# Velocity P-wave (km/s) = 6.79882 7.13706 6.96999
#
# Compressibility (1/GPa) = 0.01692237
#
# Stress axis : x y z
#
# Youngs Moduli (GPa) = 93.88422 59.68601 64.69497
#
# Poissons Ratio (x) = 0.05159 0.24021
# Poissons Ratio (y) = 0.08115 0.54298
# Poissons Ratio (z) = 0.34860 0.50094
#
# Static dielectric constant tensor:
#      x y z
#    x 3.598670 0.000000 -0.011910 
#    y 0.000000 2.733630 0.000000 
#    z -0.011910 0.000000 3.310130 
# 
# 
# High freq. dielectric constant tensor:
#      x y z
#    x 1.751330 0.000000 0.002200 
#    y 0.000000 1.723070 0.000000 
#    z 0.002200 0.000000 1.711900 
# 
# From -- ./inp_files/61632.got.cif
#   From: 2010.06.25/outbox.cif.g09.slc.cpg/sg13_31_cif.got.tgz:61632.got - 2010.06.28 04:50:58.
