data_PCOD8120900
_publ_section_title
;
Structure prediction by ZEFSAII (Michael W. Deem and Ramdas Pophale) SiO2 
 PCOD8120900
Probable space group: P 2/C
;
_chemical_formula_sum "Si O2"
_cell_formula_units_Z 22
_cell_length_a 8.123785
_cell_length_b 7.432798
_cell_length_c 16.309774
_cell_angle_alpha 90.000000
_cell_angle_beta 105.058359
_cell_angle_gamma 90.000000
_cell_volume 951.006976
_symmetry_space_group_name_H-M "P 2/C"
_symmetry_group_IT_number 13
_symmetry_cell_setting 'monoclinic'
loop_
_space_group_symop_operation_xyz
x,y,z
-x,y,1/2-z
-x,-y,-z
x,-y,1/2+z
loop_
_atom_site_type_symbol
_atom_site_label
_atom_site_fract_x
_atom_site_fract_y
_atom_site_fract_z
Si Si1 0.000000 0.843257 0.750000
Si Si2 0.353863 0.418371 0.792518
Si Si3 0.764825 0.441604 0.500647
Si Si4 0.580926 0.712081 0.562098
Si Si5 0.055280 0.464503 0.142910
Si Si6 0.362009 0.004526 0.802026
O O1 0.965925 0.716068 0.666649
O O2 0.167973 0.959854 0.750624
O O3 0.500000 0.481494 0.750000
O O4 0.372565 0.548114 0.871076
O O5 0.166317 0.440625 0.728090
O O6 0.381877 0.213602 0.822924
O O7 0.703285 0.654035 0.501431
O O8 0.612725 0.300588 0.494531
O O9 0.827384 0.407159 0.417380
O O10 0.910524 0.400830 0.588268
O O11 0.604304 0.904696 0.607071
O O12 0.500000 0.943669 0.750000
#
# Coordination Sequence:
#
# PCOD8120900 Si02
#       6
#     2   4   4   4   4   4
#     4  12  22  40  70  96 126 174 226 270 324 384
#     4  11  22  40  71  95 129 173 230 269 319 387
#     4  10  22  34  67  93 133 171 210 263 344 391
#     4  11  20  42  64  93 128 178 212 269 330 390
#     4  11  20  39  65  98 124 173 217 270 323 393
#     4  11  24  40  68  98 128 167 226 278 316 380
#
# _framework density 23.133375999999998
#
# number of rings (size 3 to 8) (size 9 to 14) (size 15 to 20)
#    0.000    1.091    5.455    1.636    0.000    2.182 
#    0.000    3.636    8.000    5.455    0.000    0.000 
#    0.000    0.000    0.000    0.000    0.000    0.000 
#
# Total GULP energy -272647.419125 kJ/mol
# GULP energy per Si atom -12393.064506 kJ/mol
# Density = 2.308072 g / cm^3
# Si number density = 23.133376 Si / 1000 Ang^3
#
#
#
# Elastic Constant Matrix: (Units=GPa)
#
#
# Indices 1 2 3 4 5 6 
#
# 1 135.8288 12.0879 17.9540 0.0000 7.6963 0.0000
# 2 12.0879 72.2015 11.4391 0.0000 -0.6488 0.0000
# 3 17.9540 11.4391 70.1320 0.0000 14.2792 0.0000
# 4 0.0000 0.0000 0.0000 19.0276 0.0000 -0.5093
# 5 7.6963 -0.6488 14.2792 0.0000 50.6577 0.0000
# 6 0.0000 0.0000 0.0000 -0.5093 0.0000 25.4611
#
#
#
# Elastic Compliance Matrix: (Units=1/GPa)
#
#
# Indices 1 2 3 4 5 6 
#
# 1 0.007714 -0.001035 -0.001660 0.000000 -0.000717 0.000000
# 2 -0.001035 0.014394 -0.002283 0.000000 0.000985 0.000000
# 3 -0.001660 -0.002283 0.015925 0.000000 -0.004266 0.000000
# 4 0.000000 0.000000 0.000000 0.052583 0.000000 0.001052
# 5 -0.000717 0.000985 -0.004266 0.000000 0.021064 0.000000
# 6 0.000000 0.000000 0.000000 0.001052 0.000000 0.039297
#
#
# Mechanical properties :
#
#
# Convention : Reuss Voigt Hill
#
# Bulk Modulus (GPa) = 35.61717 40.12491 37.87104
# Shear Modulus (GPa) = 29.36112 34.80804 32.08458
#
# Velocity S-wave (km/s) = 3.56646 3.88321 3.72820
# Velocity P-wave (km/s) = 5.69117 6.12278 5.91092
#
# Compressibility (1/GPa) = 0.02807635
#
# Stress axis : x y z
#
# Youngs Moduli (GPa) = 129.62791 69.47323 62.79519
#
# Poissons Ratio (x) = 0.07190 0.10424
# Poissons Ratio (y) = 0.13416 0.14339
# Poissons Ratio (z) = 0.21519 0.15864
#
# Static dielectric constant tensor:
#      x y z
#    x 4.920960 0.000000 -0.055260 
#    y 0.000000 3.744400 0.000000 
#    z -0.055260 0.000000 4.371770 
# 
# 
# High freq. dielectric constant tensor:
#      x y z
#    x 1.948980 0.000000 0.002810 
#    y 0.000000 1.868700 0.000000 
#    z 0.002810 0.000000 1.922140 
# 
# From -- ./inp_files/63449.got.cif
#   From: 2010.06.25/outbox.cif.g09.slc.cpg/sg13_32_cif.got.tgz:63449.got - 2010.06.28 04:50:58.
