data_PCOD8120711
_publ_section_title
;
Structure prediction by ZEFSAII (Michael W. Deem and Ramdas Pophale) SiO2 
 PCOD8120711
Probable space group: P 2/C
;
_chemical_formula_sum "Si O2"
_cell_formula_units_Z 22
_cell_length_a 14.460464
_cell_length_b 7.408838
_cell_length_c 9.019495
_cell_angle_alpha 90.000000
_cell_angle_beta 100.235731
_cell_angle_gamma 90.000000
_cell_volume 950.926946
_symmetry_space_group_name_H-M "P 2/C"
_symmetry_group_IT_number 13
_symmetry_cell_setting 'monoclinic'
loop_
_space_group_symop_operation_xyz
x,y,z
-x,y,1/2-z
-x,-y,-z
x,-y,1/2+z
loop_
_atom_site_type_symbol
_atom_site_label
_atom_site_fract_x
_atom_site_fract_y
_atom_site_fract_z
Si Si1 0.500000 0.299238 0.750000
Si Si2 0.251885 0.969548 0.263951
Si Si3 0.340711 0.190649 0.529220
Si Si4 0.684480 0.538744 0.177058
Si Si5 0.062348 0.105775 0.134174
Si Si6 0.231041 0.297591 0.073386
O O1 0.451242 0.178412 0.605435
O O2 0.423175 0.423198 0.809998
O O3 0.299857 0.011788 0.437048
O O4 0.138073 0.970685 0.235857
O O5 0.287583 0.136324 0.170012
O O6 0.292466 0.795426 0.183894
O O7 0.316294 0.369920 0.434871
O O8 0.743361 0.485164 0.339641
O O9 0.740127 0.696137 0.095001
O O10 0.118548 0.263000 0.061761
O O11 0.000000 0.188716 0.250000
O O12 0.000000 0.000000 0.000000
#
# Coordination Sequence:
#
# PCOD8120711 Si02
#       6
#     2   4   4   4   4   4
#     4  12  26  38  72  96 136 190 238 268 332 402
#     4   9  23  41  65  95 132 175 216 284 342 384
#     4  11  23  42  64  95 135 180 229 278 332 393
#     4  11  22  45  65  97 136 187 224 276 336 405
#     4  10  21  41  70  98 128 165 218 273 343 413
#     4   9  23  40  70  92 135 176 221 278 349 395
#
# _framework density 23.13532
#
# number of rings (size 3 to 8) (size 9 to 14) (size 15 to 20)
#    1.091    0.727    1.818    1.636    2.545    0.727 
#    0.000    0.909    0.000    0.000    0.000    0.000 
#    0.000    0.000    0.000    0.000    0.000    0.000 
#
# Total GULP energy -272546.977760 kJ/mol
# GULP energy per Si atom -12388.498989 kJ/mol
# Density = 2.308266 g / cm^3
# Si number density = 23.135320 Si / 1000 Ang^3
#
#
#
# Elastic Constant Matrix: (Units=GPa)
#
#
# Indices 1 2 3 4 5 6 
#
# 1 173.9289 49.4466 82.6286 0.0000 -12.3429 0.0000
# 2 49.4466 48.5976 39.7377 0.0000 -1.2878 0.0000
# 3 82.6286 39.7377 173.3269 0.0000 -12.9080 0.0000
# 4 0.0000 0.0000 0.0000 37.9068 0.0000 2.5501
# 5 -12.3429 -1.2878 -12.9080 0.0000 61.2550 0.0000
# 6 0.0000 0.0000 0.0000 2.5501 0.0000 31.3386
#
#
#
# Elastic Compliance Matrix: (Units=1/GPa)
#
#
# Indices 1 2 3 4 5 6 
#
# 1 0.009087 -0.007067 -0.002628 0.000000 0.001129 0.000000
# 2 -0.007067 0.030851 -0.003822 0.000000 -0.001581 0.000000
# 3 -0.002628 -0.003822 0.007978 0.000000 0.001071 0.000000
# 4 0.000000 0.000000 0.000000 0.026526 0.000000 -0.002158
# 5 0.001129 -0.001581 0.001071 0.000000 0.016745 0.000000
# 6 0.000000 0.000000 0.000000 -0.002158 0.000000 0.032085
#
#
# Mechanical properties :
#
#
# Convention : Reuss Voigt Hill
#
# Bulk Modulus (GPa) = 47.88607 82.16437 65.02522
# Shear Modulus (GPa) = 31.79322 41.03612 36.41467
#
# Velocity S-wave (km/s) = 3.71108 4.21615 3.97165
# Velocity P-wave (km/s) = 6.25348 7.70020 7.01424
#
# Compressibility (1/GPa) = 0.02088290
#
# Stress axis : x y z
#
# Youngs Moduli (GPa) = 110.04631 32.41393 125.34390
#
# Poissons Ratio (x) = 0.22908 0.32936
# Poissons Ratio (y) = 0.77773 0.47902
# Poissons Ratio (z) = 0.28916 0.12387
#
# Static dielectric constant tensor:
#      x y z
#    x 3.967750 0.000000 -0.193470 
#    y 0.000000 4.293900 0.000000 
#    z -0.193470 0.000000 4.820410 
# 
# 
# High freq. dielectric constant tensor:
#      x y z
#    x 1.890990 0.000000 -0.017530 
#    y 0.000000 1.920000 0.000000 
#    z -0.017530 0.000000 1.959370 
# 
# From -- ./inp_files/18170.got.cif
#   From: 2010.06.25/outbox.cif.g09.slc.cpg/sg13_10_cif.got.tgz:18170.got - 2010.06.28 04:50:58.
