data_PCOD8120083
_publ_section_title
;
Structure prediction by ZEFSAII (Michael W. Deem and Ramdas Pophale) SiO2 
 PCOD8120083
Probable space group: P 2/C
;
_chemical_formula_sum "Si O2"
_cell_formula_units_Z 18
_cell_length_a 18.353412
_cell_length_b 9.791267
_cell_length_c 8.734007
_cell_angle_alpha 90.000000
_cell_angle_beta 33.267766
_cell_angle_gamma 90.000000
_cell_volume 860.968879
_symmetry_space_group_name_H-M "P 2/C"
_symmetry_group_IT_number 13
_symmetry_cell_setting 'monoclinic'
loop_
_space_group_symop_operation_xyz
x,y,z
-x,y,1/2-z
-x,-y,-z
x,-y,1/2+z
loop_
_atom_site_type_symbol
_atom_site_label
_atom_site_fract_x
_atom_site_fract_y
_atom_site_fract_z
Si Si1 0.128213 0.847364 0.810951
Si Si2 0.904903 0.575955 0.781238
Si Si3 0.169773 0.119933 0.594278
Si Si4 0.328150 0.622435 0.820130
Si Si5 0.500000 0.538145 0.250000
O O1 0.172088 0.702679 0.662864
O O2 0.203921 0.964213 0.579879
O O3 0.167436 0.863126 0.917044
O O4 0.968739 0.850110 0.076964
O O5 0.000000 0.628136 0.750000
O O6 0.000000 0.500000 0.500000
O O7 0.793771 0.468450 0.030574
O O8 0.279323 0.227683 0.459588
O O9 0.432665 0.634078 0.496815
O O10 0.391462 0.557998 0.860246
#
# Coordination Sequence:
#
# PCOD8120083 Si02
#       5
#     4   4   4   4   2
#     4  10  22  35  57  94 125 162 191 243 330 389
#     4  12  23  36  62  97 129 160 200 261 330 380
#     4  10  21  37  59  85 129 161 198 249 311 383
#     4  11  22  41  63  89 124 162 216 264 299 371
#     4  10  24  40  64  88 118 176 224 256 298 346
#
# _framework density 20.906680999999999
#
# number of rings (size 3 to 8) (size 9 to 14) (size 15 to 20)
#    0.000    1.333    2.222    4.000    6.222    0.000 
#    0.000    0.000    0.000   22.667    0.000    0.000 
#    0.000    0.000    0.000    0.000    0.000    0.000 
#
# Total GULP energy -223209.995643 kJ/mol
# GULP energy per Si atom -12400.555313 kJ/mol
# Density = 2.085910 g / cm^3
# Si number density = 20.906681 Si / 1000 Ang^3
#
#
#
# Elastic Constant Matrix: (Units=GPa)
#
#
# Indices 1 2 3 4 5 6 
#
# 1 78.2993 28.0264 19.7131 0.0000 4.8202 0.0000
# 2 28.0264 160.9400 46.9574 0.0000 3.1660 0.0000
# 3 19.7131 46.9574 76.1231 0.0000 5.0503 0.0000
# 4 0.0000 0.0000 0.0000 36.4944 0.0000 -1.7002
# 5 4.8202 3.1660 5.0503 0.0000 31.4052 0.0000
# 6 0.0000 0.0000 0.0000 -1.7002 0.0000 22.6099
#
#
#
# Elastic Compliance Matrix: (Units=1/GPa)
#
#
# Indices 1 2 3 4 5 6 
#
# 1 0.014106 -0.001695 -0.002502 0.000000 -0.001592 0.000000
# 2 -0.001695 0.007781 -0.004373 0.000000 0.000179 0.000000
# 3 -0.002502 -0.004373 0.016604 0.000000 -0.001845 0.000000
# 4 0.000000 0.000000 0.000000 0.027498 0.000000 0.002068
# 5 -0.001592 0.000179 -0.001845 0.000000 0.032365 0.000000
# 6 0.000000 0.000000 0.000000 0.002068 0.000000 0.044384
#
#
# Mechanical properties :
#
#
# Convention : Reuss Voigt Hill
#
# Bulk Modulus (GPa) = 46.83345 56.08400 51.45873
# Shear Modulus (GPa) = 29.94110 32.81292 31.37701
#
# Velocity S-wave (km/s) = 3.78846 3.96598 3.87823
# Velocity P-wave (km/s) = 6.44875 6.91781 6.68739
#
# Compressibility (1/GPa) = 0.02135226
#
# Stress axis : x y z
#
# Youngs Moduli (GPa) = 70.89114 128.51817 60.22571
#
# Poissons Ratio (x) = 0.21787 0.15066
# Poissons Ratio (y) = 0.12018 0.26335
# Poissons Ratio (z) = 0.17734 0.56197
#
# Static dielectric constant tensor:
#      x y z
#    x 3.206470 0.000000 0.042180 
#    y 0.000000 4.019510 0.000000 
#    z 0.042180 0.000000 3.824740 
# 
# 
# High freq. dielectric constant tensor:
#      x y z
#    x 1.812230 0.000000 0.019010 
#    y 0.000000 1.817670 0.000000 
#    z 0.019010 0.000000 1.806190 
# 
# From -- ./inp_files/14500.got.cif
#   From: 2010.06.25/outbox.cif.g09.slc.cpg/sg13_8_cif.got.tgz:14500.got - 2010.06.28 04:50:58.
