data_PCOD8120052
_publ_section_title
;
Structure prediction by ZEFSAII (Michael W. Deem and Ramdas Pophale) SiO2 
 PCOD8120052
Probable space group: P 2/C
;
_chemical_formula_sum "Si O2"
_cell_formula_units_Z 30
_cell_length_a 7.942553
_cell_length_b 8.531508
_cell_length_c 20.899430
_cell_angle_alpha 90.000000
_cell_angle_beta 96.113215
_cell_angle_gamma 90.000000
_cell_volume 1408.132951
_symmetry_space_group_name_H-M "P 2/C"
_symmetry_group_IT_number 13
_symmetry_cell_setting 'monoclinic'
loop_
_space_group_symop_operation_xyz
x,y,z
-x,y,1/2-z
-x,-y,-z
x,-y,1/2+z
loop_
_atom_site_type_symbol
_atom_site_label
_atom_site_fract_x
_atom_site_fract_y
_atom_site_fract_z
Si Si1 0.680784 0.860698 0.032521
Si Si2 0.691836 0.192303 0.998665
Si Si3 0.000000 0.859139 0.250000
Si Si4 0.108506 0.428208 0.562316
Si Si5 0.989854 0.836532 0.818757
Si Si6 0.677867 0.326223 0.126775
Si Si7 0.305630 0.713061 0.603530
Si Si8 0.836482 0.646638 0.146380
O O1 0.483009 0.852019 0.043833
O O2 0.709990 0.815959 0.960292
O O3 0.777796 0.754635 0.086047
O O4 0.753618 0.037635 0.039582
O O5 0.663900 0.333408 0.048694
O O6 0.829712 0.252799 0.953274
O O7 0.142511 0.744686 0.286757
O O8 0.946120 0.976746 0.306045
O O9 0.273883 0.533445 0.581931
O O10 0.000000 0.500000 0.500000
O O11 0.011308 0.424803 0.626227
O O12 0.176948 0.802741 0.854000
O O13 0.000000 0.751251 0.750000
O O14 0.839531 0.767046 0.854084
O O15 0.491600 0.272037 0.144224
O O16 0.714176 0.499739 0.155717
#
# Coordination Sequence:
#
# PCOD8120052 Si02
#       8
#     4   4   2   4   4   4   4   4
#     4  10  22  37  64  93 135 165 217 267 340 391
#     4  10  21  37  57 101 133 166 205 277 330 402
#     4  10  28  44  66  90 132 182 222 276 332 402
#     4  12  21  36  63  99 137 167 217 264 333 405
#     4  10  24  46  65  90 127 169 224 272 324 399
#     4  11  22  40  71  93 134 167 220 275 333 392
#     4  11  22  41  68 101 123 176 214 275 338 395
#     4  12  23  40  65  97 134 179 217 274 329 398
#
# _framework density 21.304807
#
# number of rings (size 3 to 8) (size 9 to 14) (size 15 to 20)
#    0.400    0.800    4.000    1.600    2.800    3.200 
#    0.000    0.000    5.867    0.000    0.000    0.000 
#    0.000    0.000    0.000    0.000    0.000    0.000 
#
# Total GULP energy -371710.086215 kJ/mol
# GULP energy per Si atom -12390.336207 kJ/mol
# Density = 2.125632 g / cm^3
# Si number density = 21.304807 Si / 1000 Ang^3
#
#
#
# Elastic Constant Matrix: (Units=GPa)
#
#
# Indices 1 2 3 4 5 6 
#
# 1 132.8350 46.4797 45.7899 0.0000 8.3372 0.0000
# 2 46.4797 122.8817 36.6017 0.0000 13.8296 0.0000
# 3 45.7899 36.6017 79.0083 0.0000 10.8607 0.0000
# 4 0.0000 0.0000 0.0000 38.9713 0.0000 2.6590
# 5 8.3372 13.8296 10.8607 0.0000 13.2905 0.0000
# 6 0.0000 0.0000 0.0000 2.6590 0.0000 20.6086
#
#
#
# Elastic Compliance Matrix: (Units=1/GPa)
#
#
# Indices 1 2 3 4 5 6 
#
# 1 0.009973 -0.002383 -0.004683 0.000000 0.000050 0.000000
# 2 -0.002383 0.010633 -0.002512 0.000000 -0.007517 0.000000
# 3 -0.004683 -0.002512 0.017767 0.000000 -0.008968 0.000000
# 4 0.000000 0.000000 0.000000 0.025888 0.000000 -0.003340
# 5 0.000050 -0.007517 -0.008968 0.000000 0.090361 0.000000
# 6 0.000000 0.000000 0.000000 -0.003340 0.000000 0.048954
#
#
# Mechanical properties :
#
#
# Convention : Reuss Voigt Hill
#
# Bulk Modulus (GPa) = 52.03307 65.82975 58.93141
# Shear Modulus (GPa) = 21.82089 28.29764 25.05927
#
# Velocity S-wave (km/s) = 3.20382 3.64844 3.43334
# Velocity P-wave (km/s) = 6.17755 6.97956 6.59077
#
# Compressibility (1/GPa) = 0.01921855
#
# Stress axis : x y z
#
# Youngs Moduli (GPa) = 100.26976 94.04269 56.28351
#
# Poissons Ratio (x) = 0.22411 0.26357
# Poissons Ratio (y) = 0.23895 0.14136
# Poissons Ratio (z) = 0.46955 0.23620
#
# Static dielectric constant tensor:
#      x y z
#    x 3.878100 0.000000 0.082910 
#    y 0.000000 4.017020 0.000000 
#    z 0.082910 0.000000 3.748710 
# 
# 
# High freq. dielectric constant tensor:
#      x y z
#    x 1.827250 0.000000 0.011090 
#    y 0.000000 1.846960 0.000000 
#    z 0.011090 0.000000 1.813050 
# 
# From -- ./inp_files/75693.got.cif
#   From: 2010.06.25/outbox.cif.g09.slc.cpg/sg13_38_cif.got.tgz:75693.got - 2010.06.28 04:50:58.
