data_PCOD8120450
_publ_section_title
;
Structure prediction by ZEFSAII (Michael W. Deem and Ramdas Pophale) SiO2 
 PCOD8120450
Probable space group: P 2/C
;
_chemical_formula_sum "Si O2"
_cell_formula_units_Z 30
_cell_length_a 22.525486
_cell_length_b 5.317226
_cell_length_c 12.427717
_cell_angle_alpha 90.000000
_cell_angle_beta 65.911646
_cell_angle_gamma 90.000000
_cell_volume 1358.882837
_symmetry_space_group_name_H-M "P 2/C"
_symmetry_group_IT_number 13
_symmetry_cell_setting 'monoclinic'
loop_
_space_group_symop_operation_xyz
x,y,z
-x,y,1/2-z
-x,-y,-z
x,-y,1/2+z
loop_
_atom_site_type_symbol
_atom_site_label
_atom_site_fract_x
_atom_site_fract_y
_atom_site_fract_z
Si Si1 0.500000 0.859100 0.250000
Si Si2 0.223495 0.617339 0.362556
Si Si3 0.271286 0.867259 0.931944
Si Si4 0.316621 0.719121 0.117970
Si Si5 0.972038 0.758044 0.653494
Si Si6 0.386991 0.916184 0.708142
Si Si7 0.564703 0.585340 0.013471
Si Si8 0.919374 0.741093 0.107092
O O1 0.547375 0.689779 0.143287
O O2 0.542185 0.034574 0.295369
O O3 0.222953 0.362181 0.434971
O O4 0.262696 0.553164 0.221742
O O5 0.151325 0.696457 0.387346
O O6 0.249555 0.857111 0.411022
O O7 0.340835 0.781737 0.828923
O O8 0.278609 0.882826 0.056527
O O9 0.348204 0.840860 0.200157
O O10 0.378505 0.612834 0.006480
O O11 0.934682 0.491965 0.675168
O O12 0.000000 0.799204 0.750000
O O13 0.031496 0.752755 0.527862
O O14 0.923339 0.992141 0.666429
O O15 0.397327 0.776367 0.589406
O O16 0.500000 0.500000 0.000000
#
# Coordination Sequence:
#
# PCOD8120450 Si02
#       8
#     2   4   4   4   4   4   4   4
#     4  12  26  40  68  90 122 166 212 274 358 414
#     4  11  25  46  65  99 129 179 222 266 319 387
#     4  11  26  42  70  88 130 172 217 269 330 387
#     4  11  26  44  63  90 127 165 214 276 329 394
#     4  10  21  39  67 103 139 179 211 269 320 369
#     4  11  25  46  60  93 121 160 213 277 335 412
#     4  12  26  42  64  91 121 160 215 275 340 412
#     4  10  22  40  66  98 141 172 224 266 311 381
#
# _framework density 22.076955999999999
#
# number of rings (size 3 to 8) (size 9 to 14) (size 15 to 20)
#    0.000    1.067    2.667    2.400    9.333    2.133 
#    0.000    0.000    0.000    0.000    0.000    0.000 
#    0.000    0.000    0.000    0.000    0.000    0.000 
#
# Total GULP energy -371720.486135 kJ/mol
# GULP energy per Si atom -12390.682871 kJ/mol
# Density = 2.202671 g / cm^3
# Si number density = 22.076956 Si / 1000 Ang^3
#
#
#
# Elastic Constant Matrix: (Units=GPa)
#
#
# Indices 1 2 3 4 5 6 
#
# 1 109.6820 18.4093 11.9972 0.0000 8.7704 0.0000
# 2 18.4093 90.2046 3.5525 0.0000 7.5432 0.0000
# 3 11.9972 3.5525 42.2500 0.0000 23.4603 0.0000
# 4 0.0000 0.0000 0.0000 32.4859 0.0000 3.7022
# 5 8.7704 7.5432 23.4603 0.0000 33.9685 0.0000
# 6 0.0000 0.0000 0.0000 3.7022 0.0000 30.8894
#
#
#
# Elastic Compliance Matrix: (Units=1/GPa)
#
#
# Indices 1 2 3 4 5 6 
#
# 1 0.009722 -0.001852 -0.002335 0.000000 -0.000486 0.000000
# 2 -0.001852 0.011662 0.001164 0.000000 -0.002916 0.000000
# 3 -0.002335 0.001164 0.038999 0.000000 -0.026590 0.000000
# 4 0.000000 0.000000 0.000000 0.031209 0.000000 -0.003741
# 5 -0.000486 -0.002916 -0.026590 0.000000 0.048577 0.000000
# 6 0.000000 0.000000 0.000000 -0.003741 0.000000 0.032822
#
#
# Mechanical properties :
#
#
# Convention : Reuss Voigt Hill
#
# Bulk Modulus (GPa) = 18.40330 34.45051 26.42690
# Shear Modulus (GPa) = 25.36176 33.34725 29.35451
#
# Velocity S-wave (km/s) = 3.39306 3.89073 3.65039
# Velocity P-wave (km/s) = 4.86873 5.98518 5.45559
#
# Compressibility (1/GPa) = 0.05433808
#
# Stress axis : x y z
#
# Youngs Moduli (GPa) = 102.85595 85.75042 25.64198
#
# Poissons Ratio (x) = 0.15877 0.05987
# Poissons Ratio (y) = 0.19044 -0.02985
# Poissons Ratio (z) = 0.24016 -0.09983
#
# Static dielectric constant tensor:
#      x y z
#    x 4.003890 0.000000 0.105330 
#    y 0.000000 3.994660 0.000000 
#    z 0.105330 0.000000 4.792440 
# 
# 
# High freq. dielectric constant tensor:
#      x y z
#    x 1.874680 0.000000 0.005110 
#    y 0.000000 1.863450 0.000000 
#    z 0.005110 0.000000 1.875340 
# 
# From -- ./inp_files/40112.got.cif
#   From: 2010.06.25/outbox.cif.g09.slc.cpg/sg13_21_cif.got.tgz:40112.got - 2010.06.28 04:50:58.
