data_PCOD8120460
_publ_section_title
;
Structure prediction by ZEFSAII (Michael W. Deem and Ramdas Pophale) SiO2 
 PCOD8120460
Probable space group: P 2/C
;
_chemical_formula_sum "Si O2"
_cell_formula_units_Z 22
_cell_length_a 5.168305
_cell_length_b 15.745087
_cell_length_c 13.052735
_cell_angle_alpha 90.000000
_cell_angle_beta 86.495019
_cell_angle_gamma 90.000000
_cell_volume 1060.184881
_symmetry_space_group_name_H-M "P 2/C"
_symmetry_group_IT_number 13
_symmetry_cell_setting 'monoclinic'
loop_
_space_group_symop_operation_xyz
x,y,z
-x,y,1/2-z
-x,-y,-z
x,-y,1/2+z
loop_
_atom_site_type_symbol
_atom_site_label
_atom_site_fract_x
_atom_site_fract_y
_atom_site_fract_z
Si Si1 0.744090 0.557710 0.502721
Si Si2 0.500000 0.835884 0.250000
Si Si3 0.059945 0.811217 0.978065
Si Si4 0.857536 0.698477 0.348531
Si Si5 0.566639 0.906670 0.035744
Si Si6 0.231540 0.682789 0.814036
O O1 0.500000 0.500000 0.500000
O O2 0.712454 0.620980 0.406550
O O3 0.710009 0.610394 0.606309
O O4 0.000000 0.500000 0.500000
O O5 0.702556 0.774683 0.299377
O O6 0.612717 0.898121 0.157897
O O7 0.113371 0.767659 0.868142
O O8 0.965634 0.742270 0.066586
O O9 0.333481 0.847419 0.007188
O O10 0.832737 0.880185 0.971863
O O11 0.000000 0.653983 0.250000
O O12 0.500000 0.000000 0.000000
O O13 0.500000 0.704593 0.750000
O O14 0.000000 0.646906 0.750000
#
# Coordination Sequence:
#
# PCOD8120460 Si02
#       6
#     4   2   4   4   4   4
#     4  11  26  42  61  97 134 164 217 285 338 381
#     4  10  22  40  66  96 126 170 228 248 322 414
#     4  10  22  41  64  92 126 166 222 264 314 397
#     4  10  21  39  68  89 123 171 222 264 317 392
#     4  11  22  40  64  96 136 162 204 278 329 372
#     4  11  23  43  67  89 128 181 222 265 328 407
#
# _framework density 20.751097000000001
#
# number of rings (size 3 to 8) (size 9 to 14) (size 15 to 20)
#    0.000    1.455    1.818    2.727    2.545    5.091 
#    4.909    0.000    0.000    0.000    0.000    0.000 
#    0.000    0.000    0.000    0.000    0.000    0.000 
#
# Total GULP energy -272626.519472 kJ/mol
# GULP energy per Si atom -12392.114521 kJ/mol
# Density = 2.070387 g / cm^3
# Si number density = 20.751097 Si / 1000 Ang^3
#
#
#
# Elastic Constant Matrix: (Units=GPa)
#
#
# Indices 1 2 3 4 5 6 
#
# 1 125.0375 33.7615 56.0050 0.0000 -5.8348 0.0000
# 2 33.7615 108.8046 73.8114 0.0000 -1.5076 0.0000
# 3 56.0050 73.8114 158.7176 0.0000 -12.1002 0.0000
# 4 0.0000 0.0000 0.0000 18.9634 0.0000 -0.0186
# 5 -5.8348 -1.5076 -12.1002 0.0000 28.0986 0.0000
# 6 0.0000 0.0000 0.0000 -0.0186 0.0000 42.3356
#
#
#
# Elastic Compliance Matrix: (Units=1/GPa)
#
#
# Indices 1 2 3 4 5 6 
#
# 1 0.009585 -0.001032 -0.002848 0.000000 0.000709 0.000000
# 2 -0.001032 0.013651 -0.006147 0.000000 -0.002129 0.000000
# 3 -0.002848 -0.006147 0.010436 0.000000 0.003573 0.000000
# 4 0.000000 0.000000 0.000000 0.052733 0.000000 0.000023
# 5 0.000709 -0.002129 0.003573 0.000000 0.037161 0.000000
# 6 0.000000 0.000000 0.000000 0.000023 0.000000 0.023621
#
#
# Mechanical properties :
#
#
# Convention : Reuss Voigt Hill
#
# Bulk Modulus (GPa) = 73.42778 79.96839 76.69809
# Shear Modulus (GPa) = 29.10685 33.14498 31.12592
#
# Velocity S-wave (km/s) = 3.74928 4.00091 3.87714
# Velocity P-wave (km/s) = 7.36238 7.74362 7.55541
#
# Compressibility (1/GPa) = 0.01361882
#
# Stress axis : x y z
#
# Youngs Moduli (GPa) = 104.32891 73.25283 95.81904
#
# Poissons Ratio (x) = 0.07562 0.27290
# Poissons Ratio (y) = 0.10770 0.58896
# Poissons Ratio (z) = 0.29714 0.45026
#
# Static dielectric constant tensor:
#      x y z
#    x 3.138160 0.000000 0.160260 
#    y 0.000000 4.329550 0.000000 
#    z 0.160260 0.000000 4.490170 
# 
# 
# High freq. dielectric constant tensor:
#      x y z
#    x 1.811070 0.000000 -0.000620 
#    y 0.000000 1.806550 0.000000 
#    z -0.000620 0.000000 1.830030 
# 
# From -- ./inp_files/26178.got.cif
#   From: 2010.06.25/outbox.cif.g09.slc.cpg/sg13_14_cif.got.tgz:26178.got - 2010.06.28 04:50:58.
