data_PCOD8120346
_publ_section_title
;
Structure prediction by ZEFSAII (Michael W. Deem and Ramdas Pophale) SiO2 
 PCOD8120346
Probable space group: P 2/C
;
_chemical_formula_sum "Si O2"
_cell_formula_units_Z 32
_cell_length_a 17.035152
_cell_length_b 11.162200
_cell_length_c 9.307245
_cell_angle_alpha 90.000000
_cell_angle_beta 82.094873
_cell_angle_gamma 90.000000
_cell_volume 1752.952684
_symmetry_space_group_name_H-M "P 2/C"
_symmetry_group_IT_number 13
_symmetry_cell_setting 'monoclinic'
loop_
_space_group_symop_operation_xyz
x,y,z
-x,y,1/2-z
-x,-y,-z
x,-y,1/2+z
loop_
_atom_site_type_symbol
_atom_site_label
_atom_site_fract_x
_atom_site_fract_y
_atom_site_fract_z
Si Si1 0.187485 0.832975 0.736132
Si Si2 0.580113 0.214707 0.815115
Si Si3 0.701813 0.624086 0.121795
Si Si4 0.812173 0.832293 0.079279
Si Si5 0.580116 0.785680 0.644580
Si Si6 0.681704 0.000237 0.704209
Si Si7 0.939556 0.999001 0.140232
Si Si8 0.298025 0.375298 0.223635
O O1 0.150016 0.822078 0.587795
O O2 0.220356 0.704717 0.779912
O O3 0.262150 0.923184 0.705438
O O4 0.117057 0.883150 0.854383
O O5 0.500000 0.189531 0.750000
O O6 0.624914 0.318364 0.715570
O O7 0.628310 0.090491 0.810536
O O8 0.564753 0.256250 0.983786
O O9 0.779476 0.703903 0.139209
O O10 0.718821 0.499563 0.194456
O O11 0.689216 0.612665 0.952217
O O12 0.737369 0.922227 0.085394
O O13 0.881908 0.882431 0.163613
O O14 0.500000 0.810884 0.750000
O O15 0.624999 0.682300 0.721769
O O16 0.628325 0.909878 0.624923
O O17 0.000000 0.995492 0.250000
O O18 0.000000 0.000000 0.000000
#
# Coordination Sequence:
#
# PCOD8120346 Si02
#       8
#     4   4   4   4   4   4   4   4
#     4   9  18  34  55  81 111 143 176 215 266 320
#     4  11  22  35  53  79 110 145 184 230 280 330
#     4  10  21  39  59  79 105 141 187 232 274 321
#     4   9  18  34  55  81 111 142 177 217 262 321
#     4  11  22  35  53  79 110 145 184 229 282 329
#     4   9  19  32  53  80 110 142 180 224 270 327
#     4  11  20  34  57  88 119 147 172 210 265 320
#     4  10  21  39  59  79 105 142 186 232 274 321
#
# _framework density 18.254913999999999
#
# number of rings (size 3 to 8) (size 9 to 14) (size 15 to 20)
#    0.000    2.000    1.250    2.625    0.000    4.500 
#    4.500    2.500    0.000    1.500    0.000    0.000 
#    0.000    0.000    0.000    0.000    0.000    0.000 
#
# Total GULP energy -396512.940647 kJ/mol
# GULP energy per Si atom -12391.029395 kJ/mol
# Density = 1.821337 g / cm^3
# Si number density = 18.254914 Si / 1000 Ang^3
#
#
#
# Elastic Constant Matrix: (Units=GPa)
#
#
# Indices 1 2 3 4 5 6 
#
# 1 121.2983 56.9231 50.0938 0.0000 -3.8880 0.0000
# 2 56.9231 131.2820 45.1480 0.0000 -1.8933 0.0000
# 3 50.0938 45.1480 119.3279 0.0000 -3.5183 0.0000
# 4 0.0000 0.0000 0.0000 24.2578 0.0000 0.2604
# 5 -3.8880 -1.8933 -3.5183 0.0000 27.3834 0.0000
# 6 0.0000 0.0000 0.0000 0.2604 0.0000 17.3972
#
#
#
# Elastic Compliance Matrix: (Units=1/GPa)
#
#
# Indices 1 2 3 4 5 6 
#
# 1 0.011433 -0.003797 -0.003336 0.000000 0.000932 0.000000
# 2 -0.003797 0.010018 -0.002200 0.000000 -0.000129 0.000000
# 3 -0.003336 -0.002200 0.010635 0.000000 0.000741 0.000000
# 4 0.000000 0.000000 0.000000 0.041230 0.000000 -0.000617
# 5 0.000932 -0.000129 0.000741 0.000000 0.036737 0.000000
# 6 0.000000 0.000000 0.000000 -0.000617 0.000000 0.057490
#
#
# Mechanical properties :
#
#
# Convention : Reuss Voigt Hill
#
# Bulk Modulus (GPa) = 74.51087 75.13754 74.82421
# Shear Modulus (GPa) = 26.22146 28.45722 27.33934
#
# Velocity S-wave (km/s) = 3.79411 3.95255 3.87414
# Velocity P-wave (km/s) = 7.75236 7.87907 7.81597
#
# Compressibility (1/GPa) = 0.01342086
#
# Stress axis : x y z
#
# Youngs Moduli (GPa) = 87.46304 99.81708 94.02968
#
# Poissons Ratio (x) = 0.37899 0.31365
# Poissons Ratio (y) = 0.33208 0.20690
# Poissons Ratio (z) = 0.29175 0.21963
#
# Static dielectric constant tensor:
#      x y z
#    x 3.466040 0.000000 -0.013470 
#    y 0.000000 3.381200 0.000000 
#    z -0.013470 0.000000 3.277680 
# 
# 
# High freq. dielectric constant tensor:
#      x y z
#    x 1.701640 0.000000 0.000600 
#    y 0.000000 1.697650 0.000000 
#    z 0.000600 0.000000 1.711350 
# 
# From -- ./inp_files/21575.got.cif
#   From: 2010.06.25/outbox.cif.g09.slc.cpg/sg13_11_cif.got.tgz:21575.got - 2010.06.28 04:50:58.
