data_PCOD8120383
_publ_section_title
;
Structure prediction by ZEFSAII (Michael W. Deem and Ramdas Pophale) SiO2 
 PCOD8120383
Probable space group: P 2/C
;
_chemical_formula_sum "Si O2"
_cell_formula_units_Z 16
_cell_length_a 17.124955
_cell_length_b 7.535334
_cell_length_c 13.804920
_cell_angle_alpha 90.000000
_cell_angle_beta 22.386387
_cell_angle_gamma 90.000000
_cell_volume 678.454300
_symmetry_space_group_name_H-M "P 2/C"
_symmetry_group_IT_number 13
_symmetry_cell_setting 'monoclinic'
loop_
_space_group_symop_operation_xyz
x,y,z
-x,y,1/2-z
-x,-y,-z
x,-y,1/2+z
loop_
_atom_site_type_symbol
_atom_site_label
_atom_site_fract_x
_atom_site_fract_y
_atom_site_fract_z
Si Si1 0.620573 0.291064 0.293161
Si Si2 0.760929 0.975089 0.014624
Si Si3 0.769328 0.661977 0.148984
Si Si4 0.853642 0.849651 0.709218
O O1 0.744936 0.470707 0.125173
O O2 0.379988 0.331167 0.585871
O O3 0.704418 0.212678 0.297250
O O4 0.639631 0.152360 0.183960
O O5 0.701623 0.811630 0.150869
O O6 0.711212 0.926021 0.959870
O O7 0.000000 0.019000 0.750000
O O8 0.004146 0.688984 0.913876
O O9 0.000000 0.000000 0.500000
#
# Coordination Sequence:
#
# PCOD8120383 Si02
#       4
#     4   4   4   4
#     4  11  22  43  65  87 131 162 198 262 306 359
#     4  10  21  39  62  93 121 161 207 249 303 366
#     4  10  23  41  63  93 123 163 206 251 307 368
#     4  11  22  41  64  92 121 165 205 248 313 361
#
# _framework density 23.583017999999999
#
# number of rings (size 3 to 8) (size 9 to 14) (size 15 to 20)
#    0.000    1.500    5.000    1.500    0.000    4.000 
#    4.500    0.000    0.000    0.000    0.000    0.000 
#    0.000    0.000    0.000    0.000    0.000    0.000 
#
# Total GULP energy -198456.084716 kJ/mol
# GULP energy per Si atom -12403.505295 kJ/mol
# Density = 2.352934 g / cm^3
# Si number density = 23.583018 Si / 1000 Ang^3
#
#
#
# Elastic Constant Matrix: (Units=GPa)
#
#
# Indices 1 2 3 4 5 6 
#
# 1 51.1007 27.9211 19.3461 0.0000 2.1171 0.0000
# 2 27.9211 147.2570 49.3176 0.0000 19.3991 0.0000
# 3 19.3461 49.3176 80.0743 0.0000 22.0020 0.0000
# 4 0.0000 0.0000 0.0000 38.7300 0.0000 -5.0999
# 5 2.1171 19.3991 22.0020 0.0000 28.3332 0.0000
# 6 0.0000 0.0000 0.0000 -5.0999 0.0000 6.6527
#
#
#
# Elastic Compliance Matrix: (Units=1/GPa)
#
#
# Indices 1 2 3 4 5 6 
#
# 1 0.022984 -0.003357 -0.004634 0.000000 0.004179 0.000000
# 2 -0.003357 0.009160 -0.004038 0.000000 -0.002885 0.000000
# 3 -0.004634 -0.004038 0.019374 0.000000 -0.011934 0.000000
# 4 0.000000 0.000000 0.000000 0.028719 0.000000 0.022016
# 5 0.004179 -0.002885 -0.011934 0.000000 0.046225 0.000000
# 6 0.000000 0.000000 0.000000 0.022016 0.000000 0.167193
#
#
# Mechanical properties :
#
#
# Convention : Reuss Voigt Hill
#
# Bulk Modulus (GPa) = 36.41504 52.40018 44.40761
# Shear Modulus (GPa) = 15.29681 26.86631 21.08156
#
# Velocity S-wave (km/s) = 2.54960 3.37890 2.99311
# Velocity P-wave (km/s) = 4.91345 6.12293 5.55123
#
# Compressibility (1/GPa) = 0.02746118
#
# Stress axis : x y z
#
# Youngs Moduli (GPa) = 43.50761 109.17483 51.61588
#
# Poissons Ratio (x) = 0.36646 0.23919
# Poissons Ratio (y) = 0.14604 0.20841
# Poissons Ratio (z) = 0.20162 0.44081
#
# Static dielectric constant tensor:
#      x y z
#    x 4.802220 0.000000 -0.406940 
#    y 0.000000 4.459520 0.000000 
#    z -0.406940 0.000000 4.877900 
# 
# 
# High freq. dielectric constant tensor:
#      x y z
#    x 1.917000 0.000000 -0.003380 
#    y 0.000000 1.936470 0.000000 
#    z -0.003380 0.000000 1.944390 
# 
# From -- ./inp_files/56830.got.cif
#   From: 2010.06.25/outbox.cif.g09.slc.cpg/sg13_29_cif.got.tgz:56830.got - 2010.06.28 04:50:58.
