data_PCOD8120658
_publ_section_title
;
Structure prediction by ZEFSAII (Michael W. Deem and Ramdas Pophale) SiO2 
 PCOD8120658
Probable space group: P 2/C
;
_chemical_formula_sum "Si O2"
_cell_formula_units_Z 24
_cell_length_a 14.159516
_cell_length_b 8.702199
_cell_length_c 14.684533
_cell_angle_alpha 90.000000
_cell_angle_beta 139.832128
_cell_angle_gamma 90.000000
_cell_volume 1167.123996
_symmetry_space_group_name_H-M "P 2/C"
_symmetry_group_IT_number 13
_symmetry_cell_setting 'monoclinic'
loop_
_space_group_symop_operation_xyz
x,y,z
-x,y,1/2-z
-x,-y,-z
x,-y,1/2+z
loop_
_atom_site_type_symbol
_atom_site_label
_atom_site_fract_x
_atom_site_fract_y
_atom_site_fract_z
Si Si1 0.333218 0.987268 0.130318
Si Si2 0.341888 0.661357 0.594754
Si Si3 0.154725 0.426229 0.114854
Si Si4 0.664880 0.513574 0.589007
Si Si5 0.854758 0.069854 0.349861
Si Si6 0.833230 0.811165 0.645479
O O1 0.500000 0.927101 0.250000
O O2 0.318722 0.157622 0.080323
O O3 0.280978 0.989394 0.197554
O O4 0.228050 0.880238 0.993376
O O5 0.500000 0.615143 0.750000
O O6 0.226722 0.563504 0.568754
O O7 0.314200 0.616591 0.470715
O O8 0.243475 0.526313 0.253632
O O9 0.145563 0.251006 0.136760
O O10 0.000000 0.500000 0.000000
O O11 0.500000 0.500000 0.500000
O O12 0.719573 0.677499 0.590127
O O13 0.839186 0.054539 0.228514
O O14 0.000000 0.000000 0.500000
O O15 0.000000 0.750900 0.750000
#
# Coordination Sequence:
#
# PCOD8120658 Si02
#       6
#     4   4   4   4   4   4
#     4  10  23  43  64  94 126 168 214 260 319 377
#     4  10  21  41  65  86 127 167 205 260 314 375
#     4  10  23  39  61  91 121 161 207 257 313 369
#     4  11  24  43  62  91 127 166 210 260 315 374
#     4  10  21  41  64  86 130 165 204 261 317 373
#     4  11  24  42  66  96 130 166 209 265 319 376
#
# _framework density 20.563367
#
# number of rings (size 3 to 8) (size 9 to 14) (size 15 to 20)
#    0.000    1.667    3.333    0.000    7.000    2.667 
#    3.000    0.000    0.000    0.000    0.000    0.000 
#    0.000    0.000    0.000    0.000    0.000    0.000 
#
# Total GULP energy -297478.834545 kJ/mol
# GULP energy per Si atom -12394.951439 kJ/mol
# Density = 2.051656 g / cm^3
# Si number density = 20.563367 Si / 1000 Ang^3
#
#
#
# Elastic Constant Matrix: (Units=GPa)
#
#
# Indices 1 2 3 4 5 6 
#
# 1 138.3061 25.9087 44.7770 0.0000 17.4511 0.0000
# 2 25.9087 30.5379 23.7502 0.0000 7.3459 0.0000
# 3 44.7770 23.7502 104.8164 0.0000 17.5246 0.0000
# 4 0.0000 0.0000 0.0000 31.7889 0.0000 3.5614
# 5 17.4511 7.3459 17.5246 0.0000 46.1337 0.0000
# 6 0.0000 0.0000 0.0000 3.5614 0.0000 31.7248
#
#
#
# Elastic Compliance Matrix: (Units=1/GPa)
#
#
# Indices 1 2 3 4 5 6 
#
# 1 0.009271 -0.005581 -0.002411 0.000000 -0.001702 0.000000
# 2 -0.005581 0.043532 -0.007126 0.000000 -0.002113 0.000000
# 3 -0.002411 -0.007126 0.012646 0.000000 -0.002757 0.000000
# 4 0.000000 0.000000 0.000000 0.031858 0.000000 -0.003576
# 5 -0.001702 -0.002113 -0.002757 0.000000 0.023704 0.000000
# 6 0.000000 0.000000 0.000000 -0.003576 0.000000 0.031923
#
#
# Mechanical properties :
#
#
# Convention : Reuss Voigt Hill
#
# Bulk Modulus (GPa) = 28.39929 51.39247 39.89588
# Shear Modulus (GPa) = 25.65299 33.87780 29.76540
#
# Velocity S-wave (km/s) = 3.53584 4.06332 3.80872
# Velocity P-wave (km/s) = 5.52360 6.86008 6.22779
#
# Compressibility (1/GPa) = 0.03521215
#
# Stress axis : x y z
#
# Youngs Moduli (GPa) = 107.85951 22.97164 79.07415
#
# Poissons Ratio (x) = 0.12820 0.19068
# Poissons Ratio (y) = 0.60196 0.56351
# Poissons Ratio (z) = 0.26010 0.16370
#
# Static dielectric constant tensor:
#      x y z
#    x 4.209540 0.000000 -0.120470 
#    y 0.000000 3.460430 0.000000 
#    z -0.120470 0.000000 3.691500 
# 
# 
# High freq. dielectric constant tensor:
#      x y z
#    x 1.831670 0.000000 -0.002260 
#    y 0.000000 1.780230 0.000000 
#    z -0.002260 0.000000 1.808200 
# 
# From -- ./inp_files/52864.got.cif
#   From: 2010.06.25/outbox.cif.g09.slc.cpg/sg13_27_cif.got.tgz:52864.got - 2010.06.28 04:50:58.
