data_PCOD8120056
_publ_section_title
;
Structure prediction by ZEFSAII (Michael W. Deem and Ramdas Pophale) SiO2 
 PCOD8120056
Probable space group: P 2/C
;
_chemical_formula_sum "Si O2"
_cell_formula_units_Z 32
_cell_length_a 11.041524
_cell_length_b 17.166378
_cell_length_c 22.036162
_cell_angle_alpha 90.000000
_cell_angle_beta 155.329160
_cell_angle_gamma 90.000000
_cell_volume 1743.415596
_symmetry_space_group_name_H-M "P 2/C"
_symmetry_group_IT_number 13
_symmetry_cell_setting 'monoclinic'
loop_
_space_group_symop_operation_xyz
x,y,z
-x,y,1/2-z
-x,-y,-z
x,-y,1/2+z
loop_
_atom_site_type_symbol
_atom_site_label
_atom_site_fract_x
_atom_site_fract_y
_atom_site_fract_z
Si Si1 0.420703 0.964907 0.529033
Si Si2 0.161687 0.803428 0.606444
Si Si3 0.810797 0.575727 0.410551
Si Si4 0.756641 0.760730 0.597540
Si Si5 0.821743 0.803329 0.107417
Si Si6 0.870368 0.269170 0.864334
Si Si7 0.726747 0.304432 0.962504
Si Si8 0.987502 0.908240 0.857333
O O1 0.199568 0.892111 0.424778
O O2 0.715182 0.944128 0.697901
O O3 0.500000 0.000000 0.500000
O O4 0.240499 0.029263 0.483869
O O5 0.500000 0.787596 0.750000
O O6 0.114796 0.884003 0.621434
O O7 0.981686 0.797984 0.461319
O O8 0.034269 0.738237 0.593427
O O9 0.500000 0.544819 0.250000
O O10 0.933939 0.644884 0.422370
O O11 0.774195 0.607505 0.462602
O O12 0.000000 0.500000 0.500000
O O13 0.502995 0.776857 0.528797
O O14 0.647256 0.699210 0.497157
O O15 0.000000 0.721076 0.750000
O O16 0.872326 0.839438 0.618851
O O17 0.000000 0.798981 0.250000
O O18 0.960342 0.744837 0.121316
O O19 0.524817 0.263476 0.693551
#
# Coordination Sequence:
#
# PCOD8120056 Si02
#       8
#     4   4   4   4   4   4   4   4
#     4  12  22  37  55  82 112 152 198 245 295 352
#     4  10  21  37  57  81 111 147 192 245 294 336
#     4   9  19  38  61  87 117 152 189 232 279 342
#     4  11  20  37  57  86 118 147 186 246 296 331
#     4  12  22  35  61  89 112 151 200 238 293 356
#     4  10  21  39  60  89 117 152 193 238 287 350
#     4   9  20  37  60  86 120 148 188 240 284 343
#     4  11  23  38  54  79 113 148 195 249 295 342
#
# _framework density 18.354773999999999
#
# number of rings (size 3 to 8) (size 9 to 14) (size 15 to 20)
#    0.000    1.500    3.750    3.000    1.750    2.000 
#    0.000    3.750    0.000    3.000    0.000    0.000 
#    0.000    0.000    0.000    0.000    0.000    0.000 
#
# Total GULP energy -396554.487076 kJ/mol
# GULP energy per Si atom -12392.327721 kJ/mol
# Density = 1.831300 g / cm^3
# Si number density = 18.354774 Si / 1000 Ang^3
#
#
#
# Elastic Constant Matrix: (Units=GPa)
#
#
# Indices 1 2 3 4 5 6 
#
# 1 94.2945 54.2958 48.8476 0.0000 2.3466 0.0000
# 2 54.2958 97.1942 57.0941 0.0000 -2.3926 0.0000
# 3 48.8476 57.0941 110.3032 0.0000 5.1307 0.0000
# 4 0.0000 0.0000 0.0000 26.5682 0.0000 6.3877
# 5 2.3466 -2.3926 5.1307 0.0000 30.1053 0.0000
# 6 0.0000 0.0000 0.0000 6.3877 0.0000 19.7610
#
#
#
# Elastic Compliance Matrix: (Units=1/GPa)
#
#
# Indices 1 2 3 4 5 6 
#
# 1 0.016653 -0.007237 -0.003570 0.000000 -0.001265 0.000000
# 2 -0.007237 0.018118 -0.006316 0.000000 0.003080 0.000000
# 3 -0.003570 -0.006316 0.014038 0.000000 -0.002616 0.000000
# 4 0.000000 0.000000 0.000000 0.040811 0.000000 -0.013192
# 5 -0.001265 0.003080 -0.002616 0.000000 0.034006 0.000000
# 6 0.000000 0.000000 0.000000 -0.013192 0.000000 0.054869
#
#
# Mechanical properties :
#
#
# Convention : Reuss Voigt Hill
#
# Bulk Modulus (GPa) = 68.67132 69.14077 68.90605
# Shear Modulus (GPa) = 22.97849 24.72386 23.85118
#
# Velocity S-wave (km/s) = 3.54207 3.67413 3.60870
# Velocity P-wave (km/s) = 7.36362 7.46658 7.41528
#
# Compressibility (1/GPa) = 0.01456212
#
# Stress axis : x y z
#
# Youngs Moduli (GPa) = 60.04905 55.19482 71.23532
#
# Poissons Ratio (x) = 0.39944 0.25431
# Poissons Ratio (y) = 0.43457 0.44994
# Poissons Ratio (z) = 0.21438 0.34863
#
# Static dielectric constant tensor:
#      x y z
#    x 3.697920 0.000000 0.028160 
#    y 0.000000 3.169100 0.000000 
#    z 0.028160 0.000000 3.602720 
# 
# 
# High freq. dielectric constant tensor:
#      x y z
#    x 1.716190 0.000000 0.002070 
#    y 0.000000 1.673350 0.000000 
#    z 0.002070 0.000000 1.729080 
# 
# From -- ./inp_files/86676.got.cif
#   From: 2010.06.25/outbox.cif.g09.slc.cpg/sg13_44_cif.got.tgz:86676.got - 2010.06.28 04:50:58.
