data_PCOD8120127
_publ_section_title
;
Structure prediction by ZEFSAII (Michael W. Deem and Ramdas Pophale) SiO2 
 PCOD8120127
Probable space group: P 2/C
;
_chemical_formula_sum "Si O2"
_cell_formula_units_Z 24
_cell_length_a 14.620294
_cell_length_b 5.714007
_cell_length_c 26.566619
_cell_angle_alpha 90.000000
_cell_angle_beta 151.977260
_cell_angle_gamma 90.000000
_cell_volume 1042.717041
_symmetry_space_group_name_H-M "P 2/C"
_symmetry_group_IT_number 13
_symmetry_cell_setting 'monoclinic'
loop_
_space_group_symop_operation_xyz
x,y,z
-x,y,1/2-z
-x,-y,-z
x,-y,1/2+z
loop_
_atom_site_type_symbol
_atom_site_label
_atom_site_fract_x
_atom_site_fract_y
_atom_site_fract_z
Si Si1 0.311694 0.852319 0.306831
Si Si2 0.207322 0.545866 0.340218
Si Si3 0.840883 0.309843 0.937483
Si Si4 0.509536 0.463482 0.173731
Si Si5 0.183167 0.090757 0.153215
Si Si6 0.544596 0.242855 0.456327
O O1 0.170049 0.731357 0.277558
O O2 0.382085 0.682092 0.297391
O O3 0.193175 0.047353 0.218256
O O4 0.493522 0.966314 0.426738
O O5 0.360102 0.358474 0.394746
O O6 0.270334 0.691977 0.420385
O O7 0.000000 0.422744 0.250000
O O8 0.656692 0.443094 0.870291
O O9 0.766167 0.137750 0.856495
O O10 0.000000 0.500000 0.000000
O O11 0.956921 0.153114 0.034503
O O12 0.661195 0.303834 0.280362
O O13 0.414962 0.324192 0.081142
#
# Coordination Sequence:
#
# PCOD8120127 Si02
#       6
#     4   4   4   4   4   4
#     4  10  21  39  62  89 126 169 211 262 325 391
#     4  10  21  37  61  90 124 165 210 265 324 388
#     4  11  25  42  65  95 128 169 218 270 327 390
#     4  10  23  42  65  91 128 170 211 266 328 393
#     4  10  24  42  63  94 128 166 218 270 324 392
#     4   9  21  39  59  90 126 162 212 264 319 387
#
# _framework density 23.016791000000001
#
# number of rings (size 3 to 8) (size 9 to 14) (size 15 to 20)
#    0.000    2.000    0.000    1.500    0.000   16.667 
#    0.000    0.000    0.000    0.000    0.000    0.000 
#    0.000    0.000    0.000    0.000    0.000    0.000 
#
# Total GULP energy -297369.856441 kJ/mol
# GULP energy per Si atom -12390.410685 kJ/mol
# Density = 2.296440 g / cm^3
# Si number density = 23.016791 Si / 1000 Ang^3
#
#
#
# Elastic Constant Matrix: (Units=GPa)
#
#
# Indices 1 2 3 4 5 6 
#
# 1 85.4656 34.6667 60.3092 0.0000 1.9497 0.0000
# 2 34.6667 103.0964 31.4696 0.0000 -0.8112 0.0000
# 3 60.3092 31.4696 116.2693 0.0000 -1.4866 0.0000
# 4 0.0000 0.0000 0.0000 42.4377 0.0000 -9.5552
# 5 1.9497 -0.8112 -1.4866 0.0000 29.6224 0.0000
# 6 0.0000 0.0000 0.0000 -9.5552 0.0000 12.5855
#
#
#
# Elastic Compliance Matrix: (Units=1/GPa)
#
#
# Indices 1 2 3 4 5 6 
#
# 1 0.019857 -0.003859 -0.009279 0.000000 -0.001878 0.000000
# 2 -0.003859 0.011324 -0.001057 0.000000 0.000511 0.000000
# 3 -0.009279 -0.001057 0.013716 0.000000 0.001270 0.000000
# 4 0.000000 0.000000 0.000000 0.028423 0.000000 0.021579
# 5 -0.001878 0.000511 0.001270 0.000000 0.033960 0.000000
# 6 0.000000 0.000000 0.000000 0.021579 0.000000 0.095840
#
#
# Mechanical properties :
#
#
# Convention : Reuss Voigt Hill
#
# Bulk Modulus (GPa) = 60.58185 61.96914 61.27550
# Shear Modulus (GPa) = 21.09606 28.82152 24.95879
#
# Velocity S-wave (km/s) = 3.03074 3.54248 3.29655
# Velocity P-wave (km/s) = 6.21491 6.61166 6.41635
#
# Compressibility (1/GPa) = 0.01650659
#
# Stress axis : x y z
#
# Youngs Moduli (GPa) = 50.36054 88.30873 72.90700
#
# Poissons Ratio (x) = 0.34081 0.67652
# Poissons Ratio (y) = 0.19436 0.07703
# Poissons Ratio (z) = 0.46731 0.09331
#
# Static dielectric constant tensor:
#      x y z
#    x 4.094250 0.000000 -0.275840 
#    y 0.000000 4.436390 0.000000 
#    z -0.275840 0.000000 4.562520 
# 
# 
# High freq. dielectric constant tensor:
#      x y z
#    x 1.900140 0.000000 -0.029050 
#    y 0.000000 1.916870 0.000000 
#    z -0.029050 0.000000 1.913190 
# 
# From -- ./inp_files/92691.got.cif
#   From: 2010.06.25/outbox.cif.g09.slc.cpg/sg13_47_cif.got.tgz:92691.got - 2010.06.28 04:50:58.
