data_PCOD8120300
_publ_section_title
;
Structure prediction by ZEFSAII (Michael W. Deem and Ramdas Pophale) SiO2 
 PCOD8120300
Probable space group: P 2/C
;
_chemical_formula_sum "Si O2"
_cell_formula_units_Z 28
_cell_length_a 9.240561
_cell_length_b 15.791322
_cell_length_c 10.996422
_cell_angle_alpha 90.000000
_cell_angle_beta 57.883702
_cell_angle_gamma 90.000000
_cell_volume 1359.053731
_symmetry_space_group_name_H-M "P 2/C"
_symmetry_group_IT_number 13
_symmetry_cell_setting 'monoclinic'
loop_
_space_group_symop_operation_xyz
x,y,z
-x,y,1/2-z
-x,-y,-z
x,-y,1/2+z
loop_
_atom_site_type_symbol
_atom_site_label
_atom_site_fract_x
_atom_site_fract_y
_atom_site_fract_z
Si Si1 0.229335 0.825483 0.506262
Si Si2 0.500000 0.056710 0.250000
Si Si3 0.601202 0.499738 0.081592
Si Si4 0.813804 0.357051 0.388795
Si Si5 0.000000 0.058351 0.250000
Si Si6 0.428982 0.152346 0.526497
Si Si7 0.525772 0.681688 0.607594
Si Si8 0.205257 0.940603 0.306733
O O1 0.172229 0.727871 0.537051
O O2 0.431994 0.838770 0.427789
O O3 0.155257 0.860432 0.412073
O O4 0.156320 0.880235 0.650369
O O5 0.503307 0.111207 0.371259
O O6 0.335127 0.997364 0.325361
O O7 0.500000 0.528000 0.250000
O O8 0.648664 0.400245 0.072357
O O9 0.500000 0.500000 0.000000
O O10 0.763183 0.562569 0.996730
O O11 0.663546 0.342872 0.357352
O O12 0.000000 0.376951 0.250000
O O13 0.043502 0.998885 0.346092
O O14 0.376849 0.249721 0.519802
O O15 0.276631 0.095689 0.646672
O O16 0.500000 0.724936 0.750000
#
# Coordination Sequence:
#
# PCOD8120300 Si02
#       8
#     4   2   4   4   2   4   4   4
#     4  11  22  39  59  87 120 159 201 256 303 364
#     4  12  20  36  60  84 116 154 210 252 290 362
#     4   9  19  38  65  93 124 160 202 251 308 377
#     4  10  21  38  64  95 123 158 207 253 310 366
#     4  12  24  40  54  84 122 160 202 252 318 350
#     4  11  21  37  63  87 114 161 209 246 298 362
#     4   9  19  38  61  89 120 159 200 242 300 369
#     4  12  24  39  58  86 120 157 209 256 299 357
#
# _framework density 20.602568999999999
#
# number of rings (size 3 to 8) (size 9 to 14) (size 15 to 20)
#    0.000    1.429    4.286    1.714    0.000    3.429 
#    2.571    6.429    1.571    0.000    0.000    0.000 
#    0.000    0.000    0.000    0.000    0.000    0.000 
#
# Total GULP energy -346972.945309 kJ/mol
# GULP energy per Si atom -12391.890904 kJ/mol
# Density = 2.055568 g / cm^3
# Si number density = 20.602569 Si / 1000 Ang^3
#
#
#
# Elastic Constant Matrix: (Units=GPa)
#
#
# Indices 1 2 3 4 5 6 
#
# 1 51.9821 33.4113 10.8919 0.0000 2.1928 0.0000
# 2 33.4113 144.4737 41.6072 0.0000 -5.5238 0.0000
# 3 10.8919 41.6072 78.7373 0.0000 9.4178 0.0000
# 4 0.0000 0.0000 0.0000 25.0230 0.0000 3.8946
# 5 2.1928 -5.5238 9.4178 0.0000 30.4538 0.0000
# 6 0.0000 0.0000 0.0000 3.8946 0.0000 26.4540
#
#
#
# Elastic Compliance Matrix: (Units=1/GPa)
#
#
# Indices 1 2 3 4 5 6 
#
# 1 0.022801 -0.005372 -0.000002 0.000000 -0.002616 0.000000
# 2 -0.005372 0.009688 -0.004811 0.000000 0.003632 0.000000
# 3 -0.000002 -0.004811 0.015937 0.000000 -0.005801 0.000000
# 4 0.000000 0.000000 0.000000 0.040900 0.000000 -0.006021
# 5 -0.002616 0.003632 -0.005801 0.000000 0.035478 0.000000
# 6 0.000000 0.000000 0.000000 -0.006021 0.000000 0.038688
#
#
# Mechanical properties :
#
#
# Convention : Reuss Voigt Hill
#
# Bulk Modulus (GPa) = 35.64396 49.66823 42.65609
# Shear Modulus (GPa) = 25.87780 29.00500 27.44140
#
# Velocity S-wave (km/s) = 3.54792 3.75618 3.65354
# Velocity P-wave (km/s) = 5.84140 6.55530 6.20862
#
# Compressibility (1/GPa) = 0.02805524
#
# Stress axis : x y z
#
# Youngs Moduli (GPa) = 43.85717 103.21549 62.74756
#
# Poissons Ratio (x) = 0.55451 0.00015
# Poissons Ratio (y) = 0.23562 0.30187
# Poissons Ratio (z) = 0.00010 0.49656
#
# Static dielectric constant tensor:
#      x y z
#    x 3.494600 0.000000 0.191210 
#    y 0.000000 4.213070 0.000000 
#    z 0.191210 0.000000 3.675790 
# 
# 
# High freq. dielectric constant tensor:
#      x y z
#    x 1.778720 0.000000 0.021270 
#    y 0.000000 1.824620 0.000000 
#    z 0.021270 0.000000 1.796260 
# 
# From -- ./inp_files/30353.got.cif
#   From: 2010.06.25/outbox.cif.g09.slc.cpg/sg13_16_cif.got.tgz:30353.got - 2010.06.28 04:50:58.
