data_PCOD8120583
_publ_section_title
;
Structure prediction by ZEFSAII (Michael W. Deem and Ramdas Pophale) SiO2 
 PCOD8120583
Probable space group: P 2/C
;
_chemical_formula_sum "Si O2"
_cell_formula_units_Z 28
_cell_length_a 9.049629
_cell_length_b 12.132509
_cell_length_c 13.932500
_cell_angle_alpha 90.000000
_cell_angle_beta 124.953853
_cell_angle_gamma 90.000000
_cell_volume 1253.775223
_symmetry_space_group_name_H-M "P 2/C"
_symmetry_group_IT_number 13
_symmetry_cell_setting 'monoclinic'
loop_
_space_group_symop_operation_xyz
x,y,z
-x,y,1/2-z
-x,-y,-z
x,-y,1/2+z
loop_
_atom_site_type_symbol
_atom_site_label
_atom_site_fract_x
_atom_site_fract_y
_atom_site_fract_z
Si Si1 0.524827 0.679826 0.866883
Si Si2 0.896625 0.780802 0.331573
Si Si3 0.898000 0.001673 0.119378
Si Si4 0.634070 0.161307 0.576794
Si Si5 0.721331 0.807180 0.455310
Si Si6 0.117088 0.565307 0.464911
Si Si7 0.185353 0.627935 0.858811
O O1 0.500000 0.727941 0.750000
O O2 0.338882 0.623764 0.833831
O O3 0.575253 0.777786 0.958016
O O4 0.683175 0.589286 0.919681
O O5 0.807333 0.776448 0.191733
O O6 0.735210 0.777793 0.348932
O O7 0.001352 0.895906 0.387564
O O8 0.026072 0.679148 0.400472
O O9 0.697206 0.962180 0.075361
O O10 0.000000 0.050051 0.250000
O O11 0.874318 0.101623 0.036685
O O12 0.477216 0.148822 0.596037
O O13 0.750308 0.696821 0.526345
O O14 0.142076 0.495248 0.377640
O O15 0.000000 0.500000 0.500000
O O16 0.000000 0.680408 0.750000
#
# Coordination Sequence:
#
# PCOD8120583 Si02
#       7
#     4   4   4   4   4   4   4
#     4  11  25  46  65  98 135 175 231 277 338 404
#     4  11  23  42  69  99 135 176 224 275 340 404
#     4  10  21  40  67  96 132 180 222 273 334 403
#     4  10  23  43  68  99 135 174 223 281 336 402
#     4  11  22  42  65  99 137 172 226 273 340 399
#     4  12  24  45  68 101 136 178 227 278 342 408
#     4  11  25  42  67  99 135 181 222 281 339 403
#
# _framework density 22.332553000000001
#
# number of rings (size 3 to 8) (size 9 to 14) (size 15 to 20)
#    0.000    1.143    2.857    3.000    2.000    0.000 
#    5.143    4.286    0.000    0.000    0.000    0.000 
#    0.000    0.000    0.000    0.000    0.000    0.000 
#
# Total GULP energy -347188.037283 kJ/mol
# GULP energy per Si atom -12399.572760 kJ/mol
# Density = 2.228172 g / cm^3
# Si number density = 22.332553 Si / 1000 Ang^3
#
#
#
# Elastic Constant Matrix: (Units=GPa)
#
#
# Indices 1 2 3 4 5 6 
#
# 1 120.7099 23.3042 33.7386 0.0000 0.9351 0.0000
# 2 23.3042 72.1288 21.5449 0.0000 -6.5199 0.0000
# 3 33.7386 21.5449 94.8158 0.0000 -3.1152 0.0000
# 4 0.0000 0.0000 0.0000 31.6866 0.0000 -1.7508
# 5 0.9351 -6.5199 -3.1152 0.0000 39.8600 0.0000
# 6 0.0000 0.0000 0.0000 -1.7508 0.0000 28.0596
#
#
#
# Elastic Compliance Matrix: (Units=1/GPa)
#
#
# Indices 1 2 3 4 5 6 
#
# 1 0.009544 -0.002291 -0.002903 0.000000 -0.000826 0.000000
# 2 -0.002291 0.015614 -0.002654 0.000000 0.002400 0.000000
# 3 -0.002903 -0.002654 0.012202 0.000000 0.000588 0.000000
# 4 0.000000 0.000000 0.000000 0.031668 0.000000 0.001976
# 5 -0.000826 0.002400 0.000588 0.000000 0.025546 0.000000
# 6 0.000000 0.000000 0.000000 0.001976 0.000000 0.035762
#
#
# Mechanical properties :
#
#
# Convention : Reuss Voigt Hill
#
# Bulk Modulus (GPa) = 46.15770 49.42554 47.79162
# Shear Modulus (GPa) = 32.62575 33.85903 33.24239
#
# Velocity S-wave (km/s) = 3.82633 3.89797 3.86232
# Velocity P-wave (km/s) = 6.34305 6.51449 6.42934
#
# Compressibility (1/GPa) = 0.02166486
#
# Stress axis : x y z
#
# Youngs Moduli (GPa) = 104.77372 64.04492 81.95410
#
# Poissons Ratio (x) = 0.14675 0.23789
# Poissons Ratio (y) = 0.24007 0.21749
# Poissons Ratio (z) = 0.30412 0.16996
#
# Static dielectric constant tensor:
#      x y z
#    x 4.446320 0.000000 0.102950 
#    y 0.000000 3.749300 0.000000 
#    z 0.102950 0.000000 3.965760 
# 
# 
# High freq. dielectric constant tensor:
#      x y z
#    x 1.901200 0.000000 0.002520 
#    y 0.000000 1.867110 0.000000 
#    z 0.002520 0.000000 1.880000 
# 
# From -- ./inp_files/47339.got.cif
#   From: 2010.06.25/outbox.cif.g09.slc.cpg/sg13_24_cif.got.tgz:47339.got - 2010.06.28 04:50:58.
