data_PCOD8120321
_publ_section_title
;
Structure prediction by ZEFSAII (Michael W. Deem and Ramdas Pophale) SiO2 
 PCOD8120321
Probable space group: P 2/C
;
_chemical_formula_sum "Si O2"
_cell_formula_units_Z 32
_cell_length_a 14.268215
_cell_length_b 10.129451
_cell_length_c 14.391675
_cell_angle_alpha 90.000000
_cell_angle_beta 45.726715
_cell_angle_gamma 90.000000
_cell_volume 1489.330280
_symmetry_space_group_name_H-M "P 2/C"
_symmetry_group_IT_number 13
_symmetry_cell_setting 'monoclinic'
loop_
_space_group_symop_operation_xyz
x,y,z
-x,y,1/2-z
-x,-y,-z
x,-y,1/2+z
loop_
_atom_site_type_symbol
_atom_site_label
_atom_site_fract_x
_atom_site_fract_y
_atom_site_fract_z
Si Si1 0.545624 0.900812 0.892029
Si Si2 0.462424 0.504156 0.872661
Si Si3 0.344475 0.630633 0.621528
Si Si4 0.797605 0.063824 0.102079
Si Si5 0.091215 0.291077 0.768129
Si Si6 0.950608 0.816269 0.005945
Si Si7 0.309665 0.239115 0.479346
Si Si8 0.954063 0.405989 0.180418
O O1 0.592042 0.772234 0.913776
O O2 0.659141 0.957698 0.748019
O O3 0.417129 0.873125 0.920756
O O4 0.500000 0.000000 0.000000
O O5 0.500000 0.429943 0.750000
O O6 0.590183 0.534451 0.847054
O O7 0.384325 0.632700 0.889232
O O8 0.365877 0.415869 0.000892
O O9 0.191145 0.639145 0.745183
O O10 0.788844 0.175408 0.027455
O O11 0.905018 0.119089 0.100364
O O12 0.847495 0.919935 0.031054
O O13 0.237556 0.288120 0.623874
O O14 0.037491 0.435832 0.834988
O O15 0.000000 0.232266 0.750000
O O16 0.090951 0.198814 0.857822
O O17 0.949047 0.673690 0.956103
O O18 0.000000 0.361224 0.250000
#
# Coordination Sequence:
#
# PCOD8120321 Si02
#       8
#     4   4   4   4   4   4   4   4
#     4  11  23  41  67  90 131 177 219 281 342 394
#     4  10  21  38  67  98 127 172 219 282 350 397
#     4  10  21  42  63  95 133 166 226 281 331 416
#     4  11  23  42  64  95 130 173 232 272 330 409
#     4  11  22  41  68  99 133 175 233 277 339 419
#     4  11  24  43  64  96 133 180 222 279 336 401
#     4  11  21  40  68  97 128 173 226 276 341 409
#     4  11  24  44  64  96 139 178 221 280 351 400
#
# _framework density 21.486166999999998
#
# number of rings (size 3 to 8) (size 9 to 14) (size 15 to 20)
#    0.000    1.250    3.750    3.000    0.000    1.000 
#    6.750    1.250    0.000    0.000    0.000    0.000 
#    0.000    0.000    0.000    0.000    0.000    0.000 
#
# Total GULP energy -396755.741602 kJ/mol
# GULP energy per Si atom -12398.616925 kJ/mol
# Density = 2.143726 g / cm^3
# Si number density = 21.486167 Si / 1000 Ang^3
#
#
#
# Elastic Constant Matrix: (Units=GPa)
#
#
# Indices 1 2 3 4 5 6 
#
# 1 76.1955 21.5794 21.5468 0.0000 1.6322 0.0000
# 2 21.5794 70.1953 21.6899 0.0000 5.6939 0.0000
# 3 21.5468 21.6899 104.4869 0.0000 10.1625 0.0000
# 4 0.0000 0.0000 0.0000 38.4595 0.0000 1.4512
# 5 1.6322 5.6939 10.1625 0.0000 37.0382 0.0000
# 6 0.0000 0.0000 0.0000 1.4512 0.0000 26.9173
#
#
#
# Elastic Compliance Matrix: (Units=1/GPa)
#
#
# Indices 1 2 3 4 5 6 
#
# 1 0.014871 -0.003904 -0.002313 0.000000 0.000579 0.000000
# 2 -0.003904 0.016330 -0.002422 0.000000 -0.001674 0.000000
# 3 -0.002313 -0.002422 0.010792 0.000000 -0.002487 0.000000
# 4 0.000000 0.000000 0.000000 0.026054 0.000000 -0.001405
# 5 0.000579 -0.001674 -0.002487 0.000000 0.027913 0.000000
# 6 0.000000 0.000000 0.000000 -0.001405 0.000000 0.037227
#
#
# Mechanical properties :
#
#
# Convention : Reuss Voigt Hill
#
# Bulk Modulus (GPa) = 40.45924 42.27889 41.36907
# Shear Modulus (GPa) = 31.50507 32.88708 32.19608
#
# Velocity S-wave (km/s) = 3.83338 3.91655 3.87519
# Velocity P-wave (km/s) = 6.20196 6.33818 6.27044
#
# Compressibility (1/GPa) = 0.02471623
#
# Stress axis : x y z
#
# Youngs Moduli (GPa) = 67.24313 61.23563 92.66013
#
# Poissons Ratio (x) = 0.23908 0.21429
# Poissons Ratio (y) = 0.26253 0.22443
# Poissons Ratio (z) = 0.15551 0.14832
#
# Static dielectric constant tensor:
#      x y z
#    x 3.841360 0.000000 -0.237980 
#    y 0.000000 3.888210 0.000000 
#    z -0.237980 0.000000 3.271870 
# 
# 
# High freq. dielectric constant tensor:
#      x y z
#    x 1.839170 0.000000 -0.008280 
#    y 0.000000 1.831530 0.000000 
#    z -0.008280 0.000000 1.850360 
# 
# From -- ./inp_files/53679.got.cif
#   From: 2010.06.25/outbox.cif.g09.slc.cpg/sg13_27_cif.got.tgz:53679.got - 2010.06.28 04:50:58.
