data_PCOD8120917
_publ_section_title
;
Structure prediction by ZEFSAII (Michael W. Deem and Ramdas Pophale) SiO2 
 PCOD8120917
Probable space group: P 2/C
;
_chemical_formula_sum "Si O2"
_cell_formula_units_Z 26
_cell_length_a 13.996738
_cell_length_b 8.540420
_cell_length_c 14.665306
_cell_angle_alpha 90.000000
_cell_angle_beta 139.672115
_cell_angle_gamma 90.000000
_cell_volume 1134.512930
_symmetry_space_group_name_H-M "P 2/C"
_symmetry_group_IT_number 13
_symmetry_cell_setting 'monoclinic'
loop_
_space_group_symop_operation_xyz
x,y,z
-x,y,1/2-z
-x,-y,-z
x,-y,1/2+z
loop_
_atom_site_type_symbol
_atom_site_label
_atom_site_fract_x
_atom_site_fract_y
_atom_site_fract_z
Si Si1 0.500000 0.379219 0.750000
Si Si2 0.695810 0.817090 0.263066
Si Si3 0.711497 0.827968 0.068478
Si Si4 0.239927 0.393570 0.048078
Si Si5 0.208685 0.179031 0.351982
Si Si6 0.373845 0.175229 0.297724
Si Si7 0.906109 0.694473 0.554660
O O1 0.441453 0.270137 0.789475
O O2 0.626770 0.491135 0.881561
O O3 0.703181 0.760346 0.164116
O O4 0.850990 0.772616 0.421674
O O5 0.684201 0.002412 0.263969
O O6 0.791499 0.994929 0.125776
O O7 0.803815 0.715552 0.069045
O O8 0.547735 0.828610 0.905068
O O9 0.283771 0.295603 0.169613
O O10 0.096310 0.505085 0.960902
O O11 0.345407 0.217536 0.384077
O O12 0.214095 0.267847 0.452152
O O13 0.062378 0.232323 0.191782
#
# Coordination Sequence:
#
# PCOD8120917 Si02
#       7
#     2   4   4   4   4   4   4
#     4  10  22  36  58  94 136 172 196 272 328 402
#     4  10  23  37  64  95 127 174 218 263 335 382
#     4  11  23  40  65 102 125 173 216 282 321 390
#     4  11  23  40  63  98 141 165 218 267 340 386
#     4  10  23  45  67  88 132 173 232 260 326 393
#     4  11  23  39  65 101 127 172 216 281 319 398
#     4  10  24  43  62  93 128 185 209 270 329 393
#
# _framework density 22.917324000000001
#
# number of rings (size 3 to 8) (size 9 to 14) (size 15 to 20)
#    0.000    1.538    1.538    2.769   10.769    6.154 
#    0.000    7.692    0.000    0.000    0.000    0.000 
#    0.000    0.000    0.000    0.000    0.000    0.000 
#
# Total GULP energy -322332.711594 kJ/mol
# GULP energy per Si atom -12397.411984 kJ/mol
# Density = 2.286516 g / cm^3
# Si number density = 22.917324 Si / 1000 Ang^3
#
#
#
# Elastic Constant Matrix: (Units=GPa)
#
#
# Indices 1 2 3 4 5 6 
#
# 1 41.4750 30.4650 12.8223 0.0000 -16.3009 0.0000
# 2 30.4650 129.3490 56.8158 0.0000 -12.6408 0.0000
# 3 12.8223 56.8158 96.2303 0.0000 -20.6333 0.0000
# 4 0.0000 0.0000 0.0000 39.2283 0.0000 5.6000
# 5 -16.3009 -12.6408 -20.6333 0.0000 41.0744 0.0000
# 6 0.0000 0.0000 0.0000 5.6000 0.0000 20.6732
#
#
#
# Elastic Compliance Matrix: (Units=1/GPa)
#
#
# Indices 1 2 3 4 5 6 
#
# 1 0.034054 -0.008078 0.002910 0.000000 0.012491 0.000000
# 2 -0.008078 0.012355 -0.006825 0.000000 -0.002832 0.000000
# 3 0.002910 -0.006825 0.015501 0.000000 0.006841 0.000000
# 4 0.000000 0.000000 0.000000 0.026517 0.000000 -0.007183
# 5 0.012491 -0.002832 0.006841 0.000000 0.031868 0.000000
# 6 0.000000 0.000000 0.000000 -0.007183 0.000000 0.050317
#
#
# Mechanical properties :
#
#
# Convention : Reuss Voigt Hill
#
# Bulk Modulus (GPa) = 26.36952 51.91782 39.14367
# Shear Modulus (GPa) = 24.12661 31.32527 27.72594
#
# Velocity S-wave (km/s) = 3.24816 3.70115 3.48203
# Velocity P-wave (km/s) = 5.05952 6.40064 5.76918
#
# Compressibility (1/GPa) = 0.03792257
#
# Stress axis : x y z
#
# Youngs Moduli (GPa) = 29.36504 80.93961 64.51347
#
# Poissons Ratio (x) = 0.65385 -0.18774
# Poissons Ratio (y) = 0.23722 0.44033
# Poissons Ratio (z) = -0.08546 0.55245
#
# Static dielectric constant tensor:
#      x y z
#    x 4.246010 0.000000 -0.151690 
#    y 0.000000 4.312730 0.000000 
#    z -0.151690 0.000000 4.028990 
# 
# 
# High freq. dielectric constant tensor:
#      x y z
#    x 1.894580 0.000000 -0.014650 
#    y 0.000000 1.914150 0.000000 
#    z -0.014650 0.000000 1.908240 
# 
# From -- ./inp_files/53362.got.cif
#   From: 2010.06.25/outbox.cif.g09.slc.cpg/sg13_27_cif.got.tgz:53362.got - 2010.06.28 04:50:58.
