data_PCOD8120170
_publ_section_title
;
Structure prediction by ZEFSAII (Michael W. Deem and Ramdas Pophale) SiO2 
 PCOD8120170
Probable space group: P 2/C
;
_chemical_formula_sum "Si O2"
_cell_formula_units_Z 30
_cell_length_a 13.975161
_cell_length_b 8.362463
_cell_length_c 23.586049
_cell_angle_alpha 90.000000
_cell_angle_beta 31.186510
_cell_angle_gamma 90.000000
_cell_volume 1427.347589
_symmetry_space_group_name_H-M "P 2/C"
_symmetry_group_IT_number 13
_symmetry_cell_setting 'monoclinic'
loop_
_space_group_symop_operation_xyz
x,y,z
-x,y,1/2-z
-x,-y,-z
x,-y,1/2+z
loop_
_atom_site_type_symbol
_atom_site_label
_atom_site_fract_x
_atom_site_fract_y
_atom_site_fract_z
Si Si1 0.342613 0.195939 0.986701
Si Si2 0.577020 0.668030 0.940911
Si Si3 0.075149 0.773167 0.791219
Si Si4 0.000000 0.945032 0.250000
Si Si5 0.184499 0.377593 0.470882
Si Si6 0.867724 0.380636 0.127960
Si Si7 0.722704 0.166888 0.976078
Si Si8 0.519356 0.590086 0.302403
O O1 0.462293 0.281830 0.878210
O O2 0.444906 0.210857 0.995173
O O3 0.140604 0.277434 0.098439
O O4 0.327407 0.010758 0.977716
O O5 0.792482 0.653879 0.812061
O O6 0.500000 0.500000 0.000000
O O7 0.460548 0.733479 0.946455
O O8 0.150343 0.765415 0.818063
O O9 0.092764 0.947314 0.753009
O O10 0.846331 0.834187 0.356498
O O11 0.141595 0.304283 0.430227
O O12 0.159195 0.246446 0.532893
O O13 0.396368 0.430866 0.366058
O O14 0.063977 0.536403 0.540842
O O15 0.724821 0.526366 0.209675
O O16 0.500000 0.671761 0.250000
#
# Coordination Sequence:
#
# PCOD8120170 Si02
#       8
#     4   4   4   2   4   4   4   4
#     4  11  22  42  61  89 134 165 207 263 325 388
#     4  12  24  39  65  96 119 169 221 260 319 382
#     4  11  20  40  63  90 128 174 198 261 329 370
#     4  10  24  40  60  90 134 172 198 258 320 390
#     4  10  21  41  63  96 124 163 216 270 310 378
#     4  10  21  37  69  92 126 162 218 265 318 367
#     4  11  24  42  63  89 133 165 211 262 322 381
#     4  10  21  42  66  93 124 164 214 268 315 374
#
# _framework density 21.018006
#
# number of rings (size 3 to 8) (size 9 to 14) (size 15 to 20)
#    0.000    1.333    4.000    2.800    0.000    2.133 
#    2.400    6.000    0.000    0.000    0.000    0.000 
#    0.000    0.000    0.000    0.000    0.000    0.000 
#
# Total GULP energy -371835.651902 kJ/mol
# GULP energy per Si atom -12394.521730 kJ/mol
# Density = 2.097017 g / cm^3
# Si number density = 21.018006 Si / 1000 Ang^3
#
#
#
# Elastic Constant Matrix: (Units=GPa)
#
#
# Indices 1 2 3 4 5 6 
#
# 1 153.7848 52.7690 33.1749 0.0000 28.1662 0.0000
# 2 52.7690 67.1846 22.5958 0.0000 10.4608 0.0000
# 3 33.1749 22.5958 100.3367 0.0000 10.8061 0.0000
# 4 0.0000 0.0000 0.0000 27.5845 0.0000 8.0858
# 5 28.1662 10.4608 10.8061 0.0000 36.0277 0.0000
# 6 0.0000 0.0000 0.0000 8.0858 0.0000 37.1592
#
#
#
# Elastic Compliance Matrix: (Units=1/GPa)
#
#
# Indices 1 2 3 4 5 6 
#
# 1 0.010061 -0.006619 -0.001236 0.000000 -0.005573 0.000000
# 2 -0.006619 0.020953 -0.002513 0.000000 -0.000155 0.000000
# 3 -0.001236 -0.002513 0.011118 0.000000 -0.001639 0.000000
# 4 0.000000 0.000000 0.000000 0.038722 0.000000 -0.008426
# 5 -0.005573 -0.000155 -0.001639 0.000000 0.032650 0.000000
# 6 0.000000 0.000000 0.000000 -0.008426 0.000000 0.028745
#
#
# Mechanical properties :
#
#
# Convention : Reuss Voigt Hill
#
# Bulk Modulus (GPa) = 46.73967 59.82063 53.28015
# Shear Modulus (GPa) = 29.39168 34.33869 31.86519
#
# Velocity S-wave (km/s) = 3.74358 4.04638 3.89792
# Velocity P-wave (km/s) = 6.40094 7.09608 6.75746
#
# Compressibility (1/GPa) = 0.02139510
#
# Stress axis : x y z
#
# Youngs Moduli (GPa) = 99.39235 47.72683 89.94814
#
# Poissons Ratio (x) = 0.31590 0.11115
# Poissons Ratio (y) = 0.65788 0.22607
# Poissons Ratio (z) = 0.12282 0.11995
#
# Static dielectric constant tensor:
#      x y z
#    x 4.118820 0.000000 0.087300 
#    y 0.000000 3.303870 0.000000 
#    z 0.087300 0.000000 4.061440 
# 
# 
# High freq. dielectric constant tensor:
#      x y z
#    x 1.837940 0.000000 0.006550 
#    y 0.000000 1.779330 0.000000 
#    z 0.006550 0.000000 1.838400 
# 
# From -- ./inp_files/92781.got.cif
#   From: 2010.06.25/outbox.cif.g09.slc.cpg/sg13_47_cif.got.tgz:92781.got - 2010.06.28 04:50:58.
