data_PCOD8120933
_publ_section_title
;
Structure prediction by ZEFSAII (Michael W. Deem and Ramdas Pophale) SiO2 
 PCOD8120933
Probable space group: P 2/C
;
_chemical_formula_sum "Si O2"
_cell_formula_units_Z 16
_cell_length_a 16.519921
_cell_length_b 8.956441
_cell_length_c 9.466598
_cell_angle_alpha 90.000000
_cell_angle_beta 30.721191
_cell_angle_gamma 90.000000
_cell_volume 715.550083
_symmetry_space_group_name_H-M "P 2/C"
_symmetry_group_IT_number 13
_symmetry_cell_setting 'monoclinic'
loop_
_space_group_symop_operation_xyz
x,y,z
-x,y,1/2-z
-x,-y,-z
x,-y,1/2+z
loop_
_atom_site_type_symbol
_atom_site_label
_atom_site_fract_x
_atom_site_fract_y
_atom_site_fract_z
Si Si1 0.000000 0.000028 0.250000
Si Si2 0.500088 0.157163 0.580701
Si Si3 0.779761 0.249434 0.678105
Si Si4 0.220018 0.249360 0.517806
Si Si5 0.000000 0.500015 0.250000
O O1 0.110188 0.897043 0.181761
O O2 0.889465 0.102964 0.512586
O O3 0.500000 0.138011 0.750000
O O4 0.345121 0.248762 0.763782
O O5 0.500000 0.000000 0.500000
O O6 0.655236 0.248558 0.298679
O O7 0.691669 0.248771 0.962519
O O8 0.887983 0.396221 0.512657
O O9 0.111827 0.396179 0.677028
#
# Coordination Sequence:
#
# PCOD8120933 Si02
#       5
#     2   4   4   4   2
#     4  10  22  36  68 100 134 168 230 278 334 392
#     4  12  26  43  68 101 136 176 226 280 336 399
#     4  11  23  43  69  99 137 178 224 278 334 397
#     4  11  23  43  69  99 137 178 224 278 334 397
#     4  10  26  44  68 104 138 176 228 272 338 400
#
# _framework density 22.360420000000001
#
# number of rings (size 3 to 8) (size 9 to 14) (size 15 to 20)
#    0.000    1.000    2.500    3.750    0.000   11.000 
#    0.000    0.000    0.000    0.000    0.000    0.000 
#    0.000    0.000    0.000    0.000    0.000    0.000 
#
# Total GULP energy -198356.019539 kJ/mol
# GULP energy per Si atom -12397.251221 kJ/mol
# Density = 2.230953 g / cm^3
# Si number density = 22.360420 Si / 1000 Ang^3
#
#
#
# Elastic Constant Matrix: (Units=GPa)
#
#
# Indices 1 2 3 4 5 6 
#
# 1 143.1007 47.5714 99.4885 0.0000 27.5143 0.0000
# 2 47.5714 139.9579 49.6172 0.0000 -3.8325 0.0000
# 3 99.4885 49.6172 122.3941 0.0000 6.5399 0.0000
# 4 0.0000 0.0000 0.0000 -11.6380 0.0000 15.0277
# 5 27.5143 -3.8325 6.5399 0.0000 49.9351 0.0000
# 6 0.0000 0.0000 0.0000 15.0277 0.0000 -2.9930
#
#
#
# Elastic Compliance Matrix: (Units=1/GPa)
#
#
# Indices 1 2 3 4 5 6 
#
# 1 0.019444 -0.001657 -0.014657 0.000000 -0.008921 0.000000
# 2 -0.001657 0.008545 -0.002216 0.000000 0.001859 0.000000
# 3 -0.014657 -0.002216 0.020705 0.000000 0.005194 0.000000
# 4 0.000000 0.000000 0.000000 0.015670 0.000000 0.078679
# 5 -0.008921 0.001859 0.005194 0.000000 0.024404 0.000000
# 6 0.000000 0.000000 0.000000 0.078679 0.000000 0.060932
#
#
# Mechanical properties :
#
#
# Convention : Reuss Voigt Hill
#
# Bulk Modulus (GPa) = 85.95785 88.75633 87.35709
# Shear Modulus (GPa) = 26.22756 20.97919 23.60337
#
# Velocity S-wave (km/s) = 3.42855 3.06637 3.25250
# Velocity P-wave (km/s) = 7.36197 7.23302 7.29778
#
# Compressibility (1/GPa) = 0.01163361
#
# Stress axis : x y z
#
# Youngs Moduli (GPa) = 51.42895 117.02867 48.29737
#
# Poissons Ratio (x) = 0.19395 0.70789
# Poissons Ratio (y) = 0.08523 0.10704
# Poissons Ratio (z) = 0.75378 0.25936
#
# Static dielectric constant tensor:
#      x y z
#    x 3.901840 0.000000 -0.221610 
#    y 0.000000 4.200220 0.000000 
#    z -0.221610 0.000000 4.026490 
# 
# 
# High freq. dielectric constant tensor:
#      x y z
#    x 1.879750 0.000000 -0.003320 
#    y 0.000000 1.881980 0.000000 
#    z -0.003320 0.000000 1.881570 
# 
# From -- ./inp_files/10685.got.cif
#   From: 2010.06.25/outbox.cif.g09.slc.cpg/sg13_6_cif.got.tgz:10685.got - 2010.06.28 04:50:58.
