data_PCOD8120969
_publ_section_title
;
Structure prediction by ZEFSAII (Michael W. Deem and Ramdas Pophale) SiO2 
 PCOD8120969
Probable space group: P 2/C
;
_chemical_formula_sum "Si O2"
_cell_formula_units_Z 26
_cell_length_a 18.205351
_cell_length_b 8.905270
_cell_length_c 9.189897
_cell_angle_alpha 90.000000
_cell_angle_beta 52.508878
_cell_angle_gamma 90.000000
_cell_volume 1182.156773
_symmetry_space_group_name_H-M "P 2/C"
_symmetry_group_IT_number 13
_symmetry_cell_setting 'monoclinic'
loop_
_space_group_symop_operation_xyz
x,y,z
-x,y,1/2-z
-x,-y,-z
x,-y,1/2+z
loop_
_atom_site_type_symbol
_atom_site_label
_atom_site_fract_x
_atom_site_fract_y
_atom_site_fract_z
Si Si1 0.567580 0.140645 0.921612
Si Si2 0.268162 0.093292 0.973870
Si Si3 0.500000 0.649441 0.250000
Si Si4 0.182950 0.537916 0.238347
Si Si5 0.662906 0.325735 0.384441
Si Si6 0.104373 0.687366 0.608118
Si Si7 0.674088 0.769468 0.557999
O O1 0.671296 0.103433 0.744627
O O2 0.524320 0.259293 0.864945
O O3 0.584723 0.206434 0.062352
O O4 0.500000 0.000000 0.000000
O O5 0.320920 0.174552 0.042821
O O6 0.169122 0.170628 0.066157
O O7 0.260156 0.917191 0.016731
O O8 0.408804 0.568284 0.429188
O O9 0.242819 0.415960 0.255813
O O10 0.119930 0.631474 0.424769
O O11 0.119470 0.452582 0.198271
O O12 0.256457 0.640332 0.069648
O O13 0.626266 0.273539 0.270720
O O14 0.000000 0.745453 0.750000
#
# Coordination Sequence:
#
# PCOD8120969 Si02
#       7
#     4   4   2   4   4   4   4
#     4  11  21  37  63  94 131 174 223 264 322 391
#     4  10  22  39  64  94 134 170 215 274 330 381
#     4  10  22  38  56  94 130 170 224 268 310 386
#     4  11  23  44  69  97 132 174 218 268 339 396
#     4  10  23  40  63  92 132 176 217 271 325 385
#     4  11  23  45  72  99 130 170 219 274 337 404
#     4  12  22  40  68  95 130 176 220 272 328 383
#
# _framework density 21.993697999999998
#
# number of rings (size 3 to 8) (size 9 to 14) (size 15 to 20)
#    0.000    1.231    3.077    4.154    0.000    1.846 
#    0.000    6.923    0.000    0.000    0.000    0.000 
#    0.000    0.000    0.000    0.000    0.000    0.000 
#
# Total GULP energy -322209.706100 kJ/mol
# GULP energy per Si atom -12392.681004 kJ/mol
# Density = 2.194364 g / cm^3
# Si number density = 21.993698 Si / 1000 Ang^3
#
#
#
# Elastic Constant Matrix: (Units=GPa)
#
#
# Indices 1 2 3 4 5 6 
#
# 1 110.3854 13.5622 60.4582 0.0000 -0.4074 0.0000
# 2 13.5622 41.4554 15.2796 0.0000 3.3472 0.0000
# 3 60.4582 15.2796 139.4793 0.0000 3.1276 0.0000
# 4 0.0000 0.0000 0.0000 27.2173 0.0000 -5.2846
# 5 -0.4074 3.3472 3.1276 0.0000 41.6610 0.0000
# 6 0.0000 0.0000 0.0000 -5.2846 0.0000 26.5834
#
#
#
# Elastic Compliance Matrix: (Units=1/GPa)
#
#
# Indices 1 2 3 4 5 6 
#
# 1 0.012071 -0.002156 -0.005011 0.000000 0.000667 0.000000
# 2 -0.002156 0.025660 -0.001833 0.000000 -0.001945 0.000000
# 3 -0.005011 -0.001833 0.009556 0.000000 -0.000619 0.000000
# 4 0.000000 0.000000 0.000000 0.038216 0.000000 0.007597
# 5 0.000667 -0.001945 -0.000619 0.000000 0.024213 0.000000
# 6 0.000000 0.000000 0.000000 0.007597 0.000000 0.039128
#
#
# Mechanical properties :
#
#
# Convention : Reuss Voigt Hill
#
# Bulk Modulus (GPa) = 34.14397 52.21336 43.17866
# Shear Modulus (GPa) = 28.31149 32.56036 30.43593
#
# Velocity S-wave (km/s) = 3.59173 3.85182 3.72405
# Velocity P-wave (km/s) = 5.72353 6.60104 6.17789
#
# Compressibility (1/GPa) = 0.02928775
#
# Stress axis : x y z
#
# Youngs Moduli (GPa) = 82.84257 38.97074 104.64334
#
# Poissons Ratio (x) = 0.08402 0.52437
# Poissons Ratio (y) = 0.17861 0.19180
# Poissons Ratio (z) = 0.41513 0.07143
#
# Static dielectric constant tensor:
#      x y z
#    x 3.947520 0.000000 0.087760 
#    y 0.000000 3.859090 0.000000 
#    z 0.087760 0.000000 4.176650 
# 
# 
# High freq. dielectric constant tensor:
#      x y z
#    x 1.856720 0.000000 0.016920 
#    y 0.000000 1.853230 0.000000 
#    z 0.016920 0.000000 1.880700 
# 
# From -- ./inp_files/22849.got.cif
#   From: 2010.06.25/outbox.cif.g09.slc.cpg/sg13_12_cif.got.tgz:22849.got - 2010.06.28 04:50:58.
