data_PCOD8120243
_publ_section_title
;
Structure prediction by ZEFSAII (Michael W. Deem and Ramdas Pophale) SiO2 
 PCOD8120243
Probable space group: P 2/C
;
_chemical_formula_sum "Si O2"
_cell_formula_units_Z 32
_cell_length_a 13.031983
_cell_length_b 8.693979
_cell_length_c 13.422990
_cell_angle_alpha 90.000000
_cell_angle_beta 97.311423
_cell_angle_gamma 90.000000
_cell_volume 1508.456236
_symmetry_space_group_name_H-M "P 2/C"
_symmetry_group_IT_number 13
_symmetry_cell_setting 'monoclinic'
loop_
_space_group_symop_operation_xyz
x,y,z
-x,y,1/2-z
-x,-y,-z
x,-y,1/2+z
loop_
_atom_site_type_symbol
_atom_site_label
_atom_site_fract_x
_atom_site_fract_y
_atom_site_fract_z
Si Si1 0.053426 0.795525 0.151972
Si Si2 0.180384 0.504002 0.660018
Si Si3 0.449952 0.212934 0.928914
Si Si4 0.240682 0.037361 0.586605
Si Si5 0.544290 0.915631 0.857626
Si Si6 0.864942 0.253121 0.499561
Si Si7 0.726698 0.561555 0.125239
Si Si8 0.333423 0.339446 0.538770
O O1 0.090271 0.620570 0.154761
O O2 0.149043 0.914062 0.150978
O O3 0.000000 0.837382 0.250000
O O4 0.976439 0.809202 0.048326
O O5 0.132313 0.661446 0.608123
O O6 0.226439 0.525314 0.774697
O O7 0.279019 0.451437 0.609546
O O8 0.351145 0.295305 0.866066
O O9 0.461224 0.043288 0.883911
O O10 0.440807 0.204913 0.049316
O O11 0.550066 0.311600 0.911501
O O12 0.269095 0.180906 0.518914
O O13 0.344953 0.990219 0.658065
O O14 0.208254 0.895281 0.513693
O O15 0.500000 0.838996 0.750000
O O16 0.824010 0.375104 0.574969
O O17 0.663503 0.425568 0.065603
#
# Coordination Sequence:
#
# PCOD8120243 Si02
#       8
#     4   4   4   4   4   4   4   4
#     4  11  22  41  66  92 122 169 214 261 329 387
#     4  10  23  40  63  93 122 167 209 260 331 380
#     4  10  21  38  60  92 125 173 216 255 314 380
#     4  10  22  43  62  93 127 163 213 264 324 375
#     4  10  22  37  62  93 131 170 210 265 320 378
#     4  11  22  42  65  89 129 162 211 271 318 382
#     4  11  21  39  64  89 128 168 209 263 315 384
#     4   9  22  40  59  92 127 162 212 262 313 377
#
# _framework density 21.213740999999999
#
# number of rings (size 3 to 8) (size 9 to 14) (size 15 to 20)
#    0.000    1.750    2.500    1.125    5.250    1.000 
#    2.250    0.625    0.000    0.000    0.000    0.000 
#    0.000    0.000    0.000    0.000    0.000    0.000 
#
# Total GULP energy -396708.168875 kJ/mol
# GULP energy per Si atom -12397.130277 kJ/mol
# Density = 2.116546 g / cm^3
# Si number density = 21.213741 Si / 1000 Ang^3
#
#
#
# Elastic Constant Matrix: (Units=GPa)
#
#
# Indices 1 2 3 4 5 6 
#
# 1 93.3585 7.3777 26.7243 0.0000 -3.4017 0.0000
# 2 7.3777 50.4090 11.7488 0.0000 -2.2798 0.0000
# 3 26.7243 11.7488 88.5872 0.0000 6.1117 0.0000
# 4 0.0000 0.0000 0.0000 18.6266 0.0000 -0.2893
# 5 -3.4017 -2.2798 6.1117 0.0000 28.4434 0.0000
# 6 0.0000 0.0000 0.0000 -0.2893 0.0000 21.9558
#
#
#
# Elastic Compliance Matrix: (Units=1/GPa)
#
#
# Indices 1 2 3 4 5 6 
#
# 1 0.011891 -0.000798 -0.003629 0.000000 0.002138 0.000000
# 2 -0.000798 0.020668 -0.002647 0.000000 0.002130 0.000000
# 3 -0.003629 -0.002647 0.012971 0.000000 -0.003433 0.000000
# 4 0.000000 0.000000 0.000000 0.053698 0.000000 0.000707
# 5 0.002138 0.002130 -0.003433 0.000000 0.036322 0.000000
# 6 0.000000 0.000000 0.000000 0.000707 0.000000 0.045555
#
#
# Mechanical properties :
#
#
# Convention : Reuss Voigt Hill
#
# Bulk Modulus (GPa) = 31.86559 36.00626 33.93593
# Shear Modulus (GPa) = 24.30564 26.23874 25.27219
#
# Velocity S-wave (km/s) = 3.38856 3.52074 3.45528
# Velocity P-wave (km/s) = 5.51032 5.79115 5.65248
#
# Compressibility (1/GPa) = 0.03138181
#
# Stress axis : x y z
#
# Youngs Moduli (GPa) = 84.09629 48.38436 77.09493
#
# Poissons Ratio (x) = 0.03860 0.27977
# Poissons Ratio (y) = 0.06710 0.20409
# Poissons Ratio (z) = 0.30518 0.12809
#
# Static dielectric constant tensor:
#      x y z
#    x 3.952080 0.000000 -0.000450 
#    y 0.000000 3.771080 0.000000 
#    z -0.000450 0.000000 3.758280 
# 
# 
# High freq. dielectric constant tensor:
#      x y z
#    x 1.843140 0.000000 0.002190 
#    y 0.000000 1.821140 0.000000 
#    z 0.002190 0.000000 1.813360 
# 
# From -- ./inp_files/36452.got.cif
#   From: 2010.06.25/outbox.cif.g09.slc.cpg/sg13_19_cif.got.tgz:36452.got - 2010.06.28 04:50:58.
