data_PCOD8120807
_publ_section_title
;
Structure prediction by ZEFSAII (Michael W. Deem and Ramdas Pophale) SiO2 
 PCOD8120807
Probable space group: P 2/C
;
_chemical_formula_sum "Si O2"
_cell_formula_units_Z 28
_cell_length_a 25.366815
_cell_length_b 8.765928
_cell_length_c 8.729962
_cell_angle_alpha 90.000000
_cell_angle_beta 40.489954
_cell_angle_gamma 90.000000
_cell_volume 1260.466876
_symmetry_space_group_name_H-M "P 2/C"
_symmetry_group_IT_number 13
_symmetry_cell_setting 'monoclinic'
loop_
_space_group_symop_operation_xyz
x,y,z
-x,y,1/2-z
-x,-y,-z
x,-y,1/2+z
loop_
_atom_site_type_symbol
_atom_site_label
_atom_site_fract_x
_atom_site_fract_y
_atom_site_fract_z
Si Si1 0.572754 0.124640 0.486824
Si Si2 0.161634 0.170221 0.074437
Si Si3 0.012025 0.667523 0.040619
Si Si4 0.538239 0.788832 0.522472
Si Si5 0.135380 0.161360 0.769450
Si Si6 0.723652 0.330778 0.202013
Si Si7 0.300367 0.355939 0.902201
O O1 0.544652 0.169172 0.380450
O O2 0.659210 0.194975 0.335533
O O3 0.582084 0.943355 0.484682
O O4 0.500000 0.191326 0.750000
O O5 0.102435 0.282423 0.297703
O O6 0.157442 0.004142 0.157743
O O7 0.141100 0.162812 0.940308
O O8 0.251336 0.240344 0.900251
O O9 0.954298 0.790637 0.085180
O O10 0.000000 0.668496 0.250000
O O11 0.000000 0.500000 0.000000
O O12 0.606198 0.695902 0.280883
O O13 0.500000 0.695238 0.750000
O O14 0.194443 0.284979 0.564312
O O15 0.742842 0.364782 0.337296
O O16 0.690845 0.480410 0.193515
#
# Coordination Sequence:
#
# PCOD8120807 Si02
#       7
#     4   4   4   4   4   4   4
#     4  10  21  43  64  93 125 172 217 277 329 401
#     4  12  26  46  72 101 136 174 225 269 329 389
#     4  12  25  46  73 104 142 179 220 269 327 389
#     4  10  23  39  68  92 128 167 224 271 337 395
#     4  12  26  46  72 102 134 177 220 274 325 393
#     4  12  26  43  66  93 136 173 225 273 338 392
#     4  12  26  44  63  97 132 178 220 278 332 398
#
# _framework density 22.213991
#
# number of rings (size 3 to 8) (size 9 to 14) (size 15 to 20)
#    0.000    0.571    1.429    6.857    4.000    1.143 
#    0.000    0.000    0.000    0.000    0.000    0.000 
#    0.000    0.000    0.000    0.000    0.000    0.000 
#
# Total GULP energy -347229.416033 kJ/mol
# GULP energy per Si atom -12401.050573 kJ/mol
# Density = 2.216343 g / cm^3
# Si number density = 22.213991 Si / 1000 Ang^3
#
#
#
# Elastic Constant Matrix: (Units=GPa)
#
#
# Indices 1 2 3 4 5 6 
#
# 1 97.4572 14.7234 28.2121 0.0000 27.0370 0.0000
# 2 14.7234 88.6096 9.6900 0.0000 7.7881 0.0000
# 3 28.2121 9.6900 107.7755 0.0000 27.8146 0.0000
# 4 0.0000 0.0000 0.0000 29.1632 0.0000 2.7085
# 5 27.0370 7.7881 27.8146 0.0000 53.2979 0.0000
# 6 0.0000 0.0000 0.0000 2.7085 0.0000 29.4915
#
#
#
# Elastic Compliance Matrix: (Units=1/GPa)
#
#
# Indices 1 2 3 4 5 6 
#
# 1 0.012426 -0.001415 -0.001794 0.000000 -0.005160 0.000000
# 2 -0.001415 0.011638 -0.000488 0.000000 -0.000728 0.000000
# 3 -0.001794 -0.000488 0.011023 0.000000 -0.004772 0.000000
# 4 0.000000 0.000000 0.000000 0.034585 0.000000 -0.003176
# 5 -0.005160 -0.000728 -0.004772 0.000000 0.023977 0.000000
# 6 0.000000 0.000000 0.000000 -0.003176 0.000000 0.034200
#
#
# Mechanical properties :
#
#
# Convention : Reuss Voigt Hill
#
# Bulk Modulus (GPa) = 36.10930 44.34371 40.22651
# Shear Modulus (GPa) = 34.60864 38.47164 36.54014
#
# Velocity S-wave (km/s) = 3.95139 4.16608 4.06016
# Velocity P-wave (km/s) = 6.09167 6.56864 6.33465
#
# Compressibility (1/GPa) = 0.02769370
#
# Stress axis : x y z
#
# Youngs Moduli (GPa) = 80.47949 85.92590 90.71631
#
# Poissons Ratio (x) = 0.12158 0.16271
# Poissons Ratio (y) = 0.11387 0.04428
# Poissons Ratio (z) = 0.14435 0.04194
#
# Static dielectric constant tensor:
#      x y z
#    x 4.183770 0.000000 0.085570 
#    y 0.000000 3.957090 0.000000 
#    z 0.085570 0.000000 4.255890 
# 
# 
# High freq. dielectric constant tensor:
#      x y z
#    x 1.885430 0.000000 0.007110 
#    y 0.000000 1.874560 0.000000 
#    z 0.007110 0.000000 1.890030 
# 
# From -- ./inp_files/24519.got.cif
#   From: 2010.06.25/outbox.cif.g09.slc.cpg/sg13_13_cif.got.tgz:24519.got - 2010.06.28 04:50:58.
