data_PCOD8120224
_publ_section_title
;
Structure prediction by ZEFSAII (Michael W. Deem and Ramdas Pophale) SiO2 
 PCOD8120224
Probable space group: P 2/C
;
_chemical_formula_sum "Si O2"
_cell_formula_units_Z 20
_cell_length_a 5.100260
_cell_length_b 8.069741
_cell_length_c 25.271264
_cell_angle_alpha 90.000000
_cell_angle_beta 109.272934
_cell_angle_gamma 90.000000
_cell_volume 981.818200
_symmetry_space_group_name_H-M "P 2/C"
_symmetry_group_IT_number 13
_symmetry_cell_setting 'monoclinic'
loop_
_space_group_symop_operation_xyz
x,y,z
-x,y,1/2-z
-x,-y,-z
x,-y,1/2+z
loop_
_atom_site_type_symbol
_atom_site_label
_atom_site_fract_x
_atom_site_fract_y
_atom_site_fract_z
Si Si1 0.655504 0.234866 0.409105
Si Si2 0.096557 0.653048 0.472551
Si Si3 0.903613 0.742009 0.184783
Si Si4 0.127209 0.561503 0.881485
Si Si5 0.708381 0.861415 0.377311
O O1 0.710322 0.235977 0.476313
O O2 0.349696 0.304457 0.378383
O O3 0.865506 0.347149 0.389669
O O4 0.658591 0.049204 0.389768
O O5 0.254646 0.574031 0.432100
O O6 0.000000 0.500000 0.500000
O O7 0.837427 0.763284 0.435721
O O8 0.965655 0.548495 0.175070
O O9 0.577223 0.776400 0.158408
O O10 0.000000 0.780783 0.250000
O O11 0.077703 0.860293 0.157336
#
# Coordination Sequence:
#
# PCOD8120224 Si02
#       5
#     4   4   4   4   4
#     4  11  21  37  58  90 124 148 183 239 292 343
#     4   9  19  36  59  87 121 158 189 226 280 350
#     4  11  23  43  62  80 110 155 200 242 286 340
#     4  10  21  38  60  85 115 154 198 233 279 348
#     4  11  23  38  61  90 118 151 193 238 292 345
#
# _framework density 20.370369
#
# number of rings (size 3 to 8) (size 9 to 14) (size 15 to 20)
#    0.000    1.600    0.000    6.600    0.000    4.800 
#    0.000   16.000    0.000    0.000    0.000    0.000 
#    0.000    0.000    0.000    0.000    0.000    0.000 
#
# Total GULP energy -247955.056787 kJ/mol
# GULP energy per Si atom -12397.752839 kJ/mol
# Density = 2.032401 g / cm^3
# Si number density = 20.370369 Si / 1000 Ang^3
#
#
#
# Elastic Constant Matrix: (Units=GPa)
#
#
# Indices 1 2 3 4 5 6 
#
# 1 77.1037 7.1942 0.1231 0.0000 -4.6100 0.0000
# 2 7.1942 104.7744 26.4585 0.0000 -6.5155 0.0000
# 3 0.1231 26.4585 66.6636 0.0000 -7.7740 0.0000
# 4 0.0000 0.0000 0.0000 15.6772 0.0000 -1.6821
# 5 -4.6100 -6.5155 -7.7740 0.0000 21.0108 0.0000
# 6 0.0000 0.0000 0.0000 -1.6821 0.0000 41.2957
#
#
#
# Elastic Compliance Matrix: (Units=1/GPa)
#
#
# Indices 1 2 3 4 5 6 
#
# 1 0.013224 -0.000898 0.000667 0.000000 0.002870 0.000000
# 2 -0.000898 0.010735 -0.004069 0.000000 0.001626 0.000000
# 3 0.000667 -0.004069 0.017228 0.000000 0.005259 0.000000
# 4 0.000000 0.000000 0.000000 0.064067 0.000000 0.002610
# 5 0.002870 0.001626 0.005259 0.000000 0.050674 0.000000
# 6 0.000000 0.000000 0.000000 0.002610 0.000000 0.024322
#
#
# Mechanical properties :
#
#
# Convention : Reuss Voigt Hill
#
# Bulk Modulus (GPa) = 30.68877 35.12148 32.90513
# Shear Modulus (GPa) = 25.03603 29.91447 27.47525
#
# Velocity S-wave (km/s) = 3.50957 3.83630 3.67657
# Velocity P-wave (km/s) = 5.61435 6.07468 5.84905
#
# Compressibility (1/GPa) = 0.03258521
#
# Stress axis : x y z
#
# Youngs Moduli (GPa) = 75.62101 93.15583 58.04582
#
# Poissons Ratio (x) = 0.08364 -0.03869
# Poissons Ratio (y) = 0.06790 0.23620
# Poissons Ratio (z) = -0.05041 0.37907
#
# Static dielectric constant tensor:
#      x y z
#    x 3.733410 0.000000 -0.182210 
#    y 0.000000 3.784260 0.000000 
#    z -0.182210 0.000000 4.050790 
# 
# 
# High freq. dielectric constant tensor:
#      x y z
#    x 1.800460 0.000000 -0.006580 
#    y 0.000000 1.800510 0.000000 
#    z -0.006580 0.000000 1.784160 
# 
# From -- ./inp_files/83249.got.cif
#   From: 2010.06.25/outbox.cif.g09.slc.cpg/sg13_42_cif.got.tgz:83249.got - 2010.06.28 04:50:58.
