data_PCOD8120541
_publ_section_title
;
Structure prediction by ZEFSAII (Michael W. Deem and Ramdas Pophale) SiO2 
 PCOD8120541
Probable space group: P 2/C
;
_chemical_formula_sum "Si O2"
_cell_formula_units_Z 26
_cell_length_a 9.384190
_cell_length_b 9.164885
_cell_length_c 18.624796
_cell_angle_alpha 90.000000
_cell_angle_beta 50.351944
_cell_angle_gamma 90.000000
_cell_volume 1233.371322
_symmetry_space_group_name_H-M "P 2/C"
_symmetry_group_IT_number 13
_symmetry_cell_setting 'monoclinic'
loop_
_space_group_symop_operation_xyz
x,y,z
-x,y,1/2-z
-x,-y,-z
x,-y,1/2+z
loop_
_atom_site_type_symbol
_atom_site_label
_atom_site_fract_x
_atom_site_fract_y
_atom_site_fract_z
Si Si1 0.220271 0.776838 0.603297
Si Si2 0.772476 0.998036 0.143316
Si Si3 0.799700 0.944594 0.476750
Si Si4 0.500000 0.252893 0.750000
Si Si5 0.811505 0.266538 0.225741
Si Si6 0.382303 0.657694 0.020509
Si Si7 0.434155 0.474773 0.646604
O O1 0.196753 0.808943 0.694540
O O2 0.398455 0.677952 0.532016
O O3 0.028526 0.705159 0.634426
O O4 0.270606 0.929758 0.552079
O O5 0.673855 0.853300 0.203485
O O6 0.982879 0.951683 0.083043
O O7 0.722505 0.146333 0.201725
O O8 0.705783 0.033720 0.084204
O O9 0.740429 0.795393 0.458468
O O10 0.512280 0.351049 0.674367
O O11 0.696072 0.417535 0.263662
O O12 0.309964 0.588559 0.119258
O O13 0.387953 0.556892 0.946667
#
# Coordination Sequence:
#
# PCOD8120541 Si02
#       7
#     4   4   4   2   4   4   4
#     4   9  18  36  65  93 117 155 204 256 297 360
#     4  10  24  40  62  93 123 163 208 254 301 358
#     4  10  21  40  65  92 122 159 208 251 303 364
#     4  12  26  40  58  94 126 162 208 262 298 368
#     4   9  20  39  63  90 122 160 200 254 313 354
#     4  10  21  40  64  91 121 165 203 247 305 378
#     4  10  24  41  59  92 125 162 207 245 313 372
#
# _framework density 21.080431000000001
#
# number of rings (size 3 to 8) (size 9 to 14) (size 15 to 20)
#    0.000    2.154    0.000    1.385    8.615    0.000 
#   13.846    0.769    0.000    0.000    0.000    0.000 
#    0.000    0.000    0.000    0.000    0.000    0.000 
#
# Total GULP energy -322160.359365 kJ/mol
# GULP energy per Si atom -12390.783053 kJ/mol
# Density = 2.103245 g / cm^3
# Si number density = 21.080431 Si / 1000 Ang^3
#
#
#
# Elastic Constant Matrix: (Units=GPa)
#
#
# Indices 1 2 3 4 5 6 
#
# 1 52.4191 37.8658 19.2749 0.0000 5.0577 0.0000
# 2 37.8658 118.9667 41.5210 0.0000 3.4390 0.0000
# 3 19.2749 41.5210 63.6354 0.0000 0.6316 0.0000
# 4 0.0000 0.0000 0.0000 39.9643 0.0000 9.7442
# 5 5.0577 3.4390 0.6316 0.0000 18.6111 0.0000
# 6 0.0000 0.0000 0.0000 9.7442 0.0000 42.4090
#
#
#
# Elastic Compliance Matrix: (Units=1/GPa)
#
#
# Indices 1 2 3 4 5 6 
#
# 1 0.025813 -0.006920 -0.003248 0.000000 -0.005626 0.000000
# 2 -0.006920 0.012798 -0.006252 0.000000 -0.000272 0.000000
# 3 -0.003248 -0.006252 0.020764 0.000000 0.001333 0.000000
# 4 0.000000 0.000000 0.000000 0.026507 0.000000 -0.006091
# 5 -0.005626 -0.000272 0.001333 0.000000 0.055265 0.000000
# 6 0.000000 0.000000 0.000000 -0.006091 0.000000 0.024979
#
#
# Mechanical properties :
#
#
# Convention : Reuss Voigt Hill
#
# Bulk Modulus (GPa) = 37.68418 48.03830 42.86124
# Shear Modulus (GPa) = 24.06032 29.28750 26.67391
#
# Velocity S-wave (km/s) = 3.38206 3.73140 3.56102
# Velocity P-wave (km/s) = 5.75902 6.43444 6.10608
#
# Compressibility (1/GPa) = 0.02653634
#
# Stress axis : x y z
#
# Youngs Moduli (GPa) = 38.74071 78.13694 48.15972
#
# Poissons Ratio (x) = 0.54069 0.15641
# Poissons Ratio (y) = 0.26808 0.30109
# Poissons Ratio (z) = 0.12582 0.48850
#
# Static dielectric constant tensor:
#      x y z
#    x 3.722440 0.000000 0.147370 
#    y 0.000000 3.839110 0.000000 
#    z 0.147370 0.000000 4.085490 
# 
# 
# High freq. dielectric constant tensor:
#      x y z
#    x 1.813780 0.000000 0.011250 
#    y 0.000000 1.832510 0.000000 
#    z 0.011250 0.000000 1.827590 
# 
# From -- ./inp_files/77978.got.cif
#   From: 2010.06.25/outbox.cif.g09.slc.cpg/sg13_39_cif.got.tgz:77978.got - 2010.06.28 04:50:58.
