data_PCOD8120085
_publ_section_title
;
Structure prediction by ZEFSAII (Michael W. Deem and Ramdas Pophale) SiO2 
 PCOD8120085
Probable space group: P 2/C
;
_chemical_formula_sum "Si O2"
_cell_formula_units_Z 22
_cell_length_a 9.915663
_cell_length_b 8.910628
_cell_length_c 23.542672
_cell_angle_alpha 90.000000
_cell_angle_beta 34.149430
_cell_angle_gamma 90.000000
_cell_volume 1167.675049
_symmetry_space_group_name_H-M "P 2/C"
_symmetry_group_IT_number 13
_symmetry_cell_setting 'monoclinic'
loop_
_space_group_symop_operation_xyz
x,y,z
-x,y,1/2-z
-x,-y,-z
x,-y,1/2+z
loop_
_atom_site_type_symbol
_atom_site_label
_atom_site_fract_x
_atom_site_fract_y
_atom_site_fract_z
Si Si1 0.000000 0.887216 0.750000
Si Si2 0.734247 0.693924 0.933574
Si Si3 0.801795 0.647765 0.411267
Si Si4 0.948007 0.840886 0.456349
Si Si5 0.202100 0.865257 0.257304
Si Si6 0.258340 0.153441 0.952375
O O1 0.825079 0.784966 0.847940
O O2 0.830170 0.988294 0.769918
O O3 0.849078 0.528955 0.892641
O O4 0.446212 0.689772 0.032774
O O5 0.818962 0.774605 0.961234
O O6 0.800462 0.705050 0.477741
O O7 0.015390 0.733590 0.303205
O O8 0.146514 0.906053 0.342587
O O9 0.082401 0.779864 0.465432
O O10 0.764995 0.973254 0.536877
O O11 0.470239 0.803086 0.157923
#
# Coordination Sequence:
#
# PCOD8120085 Si02
#       6
#     2   4   4   4   4   4
#     4  12  22  34  60  84 116 142 202 234 290 330
#     4  11  22  38  57  86 113 156 187 246 277 353
#     4   9  22  39  56  84 119 148 195 226 303 330
#     4   9  21  39  59  90 112 154 186 241 280 349
#     4  10  21  37  59  86 114 153 185 244 277 351
#     4  11  20  37  65  84 117 148 200 229 294 330
#
# _framework density 18.840858000000001
#
# number of rings (size 3 to 8) (size 9 to 14) (size 15 to 20)
#    1.091    0.727    1.818    2.727    0.000    6.545 
#    0.000    0.000    0.000    2.182    0.000    0.000 
#    0.000    0.000    0.000    0.000    0.000    0.000 
#
# Total GULP energy -272752.009802 kJ/mol
# GULP energy per Si atom -12397.818627 kJ/mol
# Density = 1.879798 g / cm^3
# Si number density = 18.840858 Si / 1000 Ang^3
#
#
#
# Elastic Constant Matrix: (Units=GPa)
#
#
# Indices 1 2 3 4 5 6 
#
# 1 117.9767 54.2220 27.4244 0.0000 14.2612 0.0000
# 2 54.2220 108.3453 31.0859 0.0000 -7.7044 0.0000
# 3 27.4244 31.0859 80.2212 0.0000 1.0231 0.0000
# 4 0.0000 0.0000 0.0000 9.6674 0.0000 -11.0289
# 5 14.2612 -7.7044 1.0231 0.0000 28.4641 0.0000
# 6 0.0000 0.0000 0.0000 -11.0289 0.0000 11.5623
#
#
#
# Elastic Compliance Matrix: (Units=1/GPa)
#
#
# Indices 1 2 3 4 5 6 
#
# 1 0.012864 -0.006508 -0.001772 0.000000 -0.008143 0.000000
# 2 -0.006508 0.013932 -0.003265 0.000000 0.007149 0.000000
# 3 -0.001772 -0.003265 0.014343 0.000000 -0.000512 0.000000
# 4 0.000000 0.000000 0.000000 -1.172805 0.000000 -1.118697
# 5 -0.008143 0.007149 -0.000512 0.000000 0.041165 0.000000
# 6 0.000000 0.000000 0.000000 -1.118697 0.000000 -0.980598
#
#
# Mechanical properties :
#
#
# Convention : Reuss Voigt Hill
#
# Bulk Modulus (GPa) = 55.40604 59.11196 57.25900
# Shear Modulus (GPa) = -2.44859 22.85949 10.20545
#
# Velocity S-wave (km/s) = -1.14124 3.48702 2.32990
# Velocity P-wave (km/s) = 5.26637 6.90325 6.13960
#
# Compressibility (1/GPa) = 0.01804857
#
# Stress axis : x y z
#
# Youngs Moduli (GPa) = 77.73809 71.77691 69.72099
#
# Poissons Ratio (x) = 0.46715 0.12352
# Poissons Ratio (y) = 0.50595 0.22763
# Poissons Ratio (z) = 0.13773 0.23434
#
# Static dielectric constant tensor:
#      x y z
#    x 3.474740 0.000000 0.083860 
#    y 0.000000 3.277290 0.000000 
#    z 0.083860 0.000000 3.252130 
# 
# 
# High freq. dielectric constant tensor:
#      x y z
#    x 1.739300 0.000000 0.006930 
#    y 0.000000 1.716780 0.000000 
#    z 0.006930 0.000000 1.724470 
# 
# From -- ./inp_files/92003.got.cif
#   From: 2010.06.25/outbox.cif.g09.slc.cpg/sg13_47_cif.got.tgz:92003.got - 2010.06.28 04:50:58.
