data_PCOD8120982
_publ_section_title
;
Structure prediction by ZEFSAII (Michael W. Deem and Ramdas Pophale) SiO2 
 PCOD8120982
Probable space group: P 2/C
;
_chemical_formula_sum "Si O2"
_cell_formula_units_Z 20
_cell_length_a 8.876141
_cell_length_b 19.823476
_cell_length_c 5.097130
_cell_angle_alpha 90.000000
_cell_angle_beta 78.069375
_cell_angle_gamma 90.000000
_cell_volume 877.496811
_symmetry_space_group_name_H-M "P 2/C"
_symmetry_group_IT_number 13
_symmetry_cell_setting 'monoclinic'
loop_
_space_group_symop_operation_xyz
x,y,z
-x,y,1/2-z
-x,-y,-z
x,-y,1/2+z
loop_
_atom_site_type_symbol
_atom_site_label
_atom_site_fract_x
_atom_site_fract_y
_atom_site_fract_z
Si Si1 0.683122 0.961620 0.170083
Si Si2 0.000000 0.647148 0.750000
Si Si3 0.241702 0.271058 0.438976
Si Si4 0.677899 0.809338 0.107049
Si Si5 0.260171 0.545191 0.580055
Si Si6 0.500000 0.373583 0.250000
O O1 0.500000 0.963928 0.250000
O O2 0.738667 0.885905 0.091118
O O3 0.748864 0.989047 0.421032
O O4 0.922558 0.695278 0.561149
O O5 0.869847 0.601023 0.931021
O O6 0.222295 0.232120 0.718924
O O7 0.368046 0.329437 0.433368
O O8 0.297136 0.220241 0.190751
O O9 0.500000 0.804705 0.250000
O O10 0.240759 0.488277 0.371920
O O11 0.427392 0.581323 0.539227
#
# Coordination Sequence:
#
# PCOD8120982 Si02
#       6
#     4   2   4   4   4   2
#     4   9  17  29  49  81 119 153 186 234 293 344
#     4  10  26  42  62  86 120 158 198 238 290 354
#     4  11  23  38  58  87 120 157 195 242 293 346
#     4  11  20  35  59  87 121 155 196 244 293 344
#     4  11  24  41  63  86 116 149 193 240 295 348
#     4  10  22  38  60  88 116 150 190 242 294 354
#
# _framework density 22.792103000000001
#
# number of rings (size 3 to 8) (size 9 to 14) (size 15 to 20)
#    0.000    1.600    2.000    2.400    0.000   13.600 
#    0.000    0.000    0.000    0.000    0.000   14.000 
#    0.000    0.000    0.000    0.000    0.000    0.000 
#
# Total GULP energy -248031.150387 kJ/mol
# GULP energy per Si atom -12401.557519 kJ/mol
# Density = 2.274023 g / cm^3
# Si number density = 22.792103 Si / 1000 Ang^3
#
#
#
# Elastic Constant Matrix: (Units=GPa)
#
#
# Indices 1 2 3 4 5 6 
#
# 1 96.0560 39.4438 8.0613 0.0000 21.0678 0.0000
# 2 39.4438 133.4569 25.6403 0.0000 13.9613 0.0000
# 3 8.0613 25.6403 83.0026 0.0000 14.1955 0.0000
# 4 0.0000 0.0000 0.0000 21.4657 0.0000 18.1543
# 5 21.0678 13.9613 14.1955 0.0000 18.2702 0.0000
# 6 0.0000 0.0000 0.0000 18.1543 0.0000 15.5678
#
#
#
# Elastic Compliance Matrix: (Units=1/GPa)
#
#
# Indices 1 2 3 4 5 6 
#
# 1 0.015253 -0.003191 0.002416 0.000000 -0.017027 0.000000
# 2 -0.003191 0.009018 -0.002222 0.000000 -0.001486 0.000000
# 3 0.002416 -0.002222 0.014630 0.000000 -0.012455 0.000000
# 4 0.000000 0.000000 0.000000 3.386928 0.000000 -3.949636
# 5 -0.017027 -0.001486 -0.012455 0.000000 0.085181 0.000000
# 6 0.000000 0.000000 0.000000 -3.949636 0.000000 4.670068
#
#
# Mechanical properties :
#
#
# Convention : Reuss Voigt Hill
#
# Bulk Modulus (GPa) = 30.38781 50.97848 40.68314
# Shear Modulus (GPa) = 0.60990 27.01876 13.81433
#
# Velocity S-wave (km/s) = 0.51786 3.44676 2.46458
# Velocity P-wave (km/s) = 3.70393 6.18510 5.09778
#
# Compressibility (1/GPa) = 0.03290793
#
# Stress axis : x y z
#
# Youngs Moduli (GPa) = 65.56218 110.88363 68.35420
#
# Poissons Ratio (x) = 0.35383 -0.16518
# Poissons Ratio (y) = 0.20921 0.15188
# Poissons Ratio (z) = -0.15843 0.24637
#
# Static dielectric constant tensor:
#      x y z
#    x 4.007130 0.000000 0.299320 
#    y 0.000000 4.437830 0.000000 
#    z 0.299320 0.000000 3.898390 
# 
# 
# High freq. dielectric constant tensor:
#      x y z
#    x 1.874300 0.000000 0.018660 
#    y 0.000000 1.917650 0.000000 
#    z 0.018660 0.000000 1.891980 
# 
# From -- ./inp_files/1614.got.cif
#   From: 2010.06.25/outbox.cif.g09.slc.cpg/sg13_1_cif.got.tgz:1614.got - 2010.06.28 04:50:58.
