data_PCOD8120782
_publ_section_title
;
Structure prediction by ZEFSAII (Michael W. Deem and Ramdas Pophale) SiO2 
 PCOD8120782
Probable space group: P 2/C
;
_chemical_formula_sum "Si O2"
_cell_formula_units_Z 32
_cell_length_a 17.165898
_cell_length_b 15.412444
_cell_length_c 10.959057
_cell_angle_alpha 90.000000
_cell_angle_beta 148.394142
_cell_angle_gamma 90.000000
_cell_volume 1519.508025
_symmetry_space_group_name_H-M "P 2/C"
_symmetry_group_IT_number 13
_symmetry_cell_setting 'monoclinic'
loop_
_space_group_symop_operation_xyz
x,y,z
-x,y,1/2-z
-x,-y,-z
x,-y,1/2+z
loop_
_atom_site_type_symbol
_atom_site_label
_atom_site_fract_x
_atom_site_fract_y
_atom_site_fract_z
Si Si1 0.672941 0.485124 0.711185
Si Si2 0.842195 0.650231 0.995834
Si Si3 0.203116 0.210575 0.667270
Si Si4 0.665207 0.349110 0.501796
Si Si5 0.153293 0.358370 0.412533
Si Si6 0.321543 0.926021 0.996802
Si Si7 0.329735 0.027141 0.770461
Si Si8 0.119740 0.767564 0.669098
O O1 0.500000 0.500000 0.500000
O O2 0.723188 0.429714 0.660098
O O3 0.756548 0.575779 0.807223
O O4 0.719887 0.429754 0.894355
O O5 0.753770 0.669583 0.999195
O O6 0.000000 0.614248 0.250000
O O7 0.857051 0.741613 0.941863
O O8 0.322841 0.260430 0.908556
O O9 0.171754 0.266408 0.506032
O O10 0.293557 0.125317 0.754749
O O11 0.045716 0.194167 0.526823
O O12 0.500000 0.373383 0.250000
O O13 0.143571 0.328164 0.259959
O O14 0.000000 0.403284 0.250000
O O15 0.500000 0.913218 0.250000
O O16 0.270369 0.982320 0.049856
O O17 0.243609 0.832667 0.886909
O O18 0.261778 0.970515 0.791169
O O19 0.500000 0.000000 0.000000
#
# Coordination Sequence:
#
# PCOD8120782 Si02
#       8
#     4   4   4   4   4   4   4   4
#     4  11  24  41  65  95 133 181 230 292 348 411
#     4  12  26  43  65  98 141 173 236 297 347 418
#     4  10  21  42  69  91 132 175 226 273 342 418
#     4  11  24  43  65  97 135 180 230 288 356 410
#     4   9  20  40  65  94 121 177 232 270 337 408
#     4  10  23  41  66 100 135 174 231 277 355 422
#     4  10  22  42  66  99 136 176 225 285 345 425
#     4  11  23  41  68  97 131 179 229 286 341 417
#
# _framework density 21.059448
#
# number of rings (size 3 to 8) (size 9 to 14) (size 15 to 20)
#    0.000    1.500    3.750    0.375    1.750    6.500 
#    0.000    0.000    0.000    0.000    0.000    0.000 
#    0.000    0.000    0.000    0.000    0.000    0.000 
#
# Total GULP energy -396427.483607 kJ/mol
# GULP energy per Si atom -12388.358863 kJ/mol
# Density = 2.101152 g / cm^3
# Si number density = 21.059448 Si / 1000 Ang^3
#
#
#
# Elastic Constant Matrix: (Units=GPa)
#
#
# Indices 1 2 3 4 5 6 
#
# 1 112.7230 28.8535 22.6377 0.0000 -14.3604 0.0000
# 2 28.8535 75.8382 36.8546 0.0000 6.1253 0.0000
# 3 22.6377 36.8546 94.7258 0.0000 2.3768 0.0000
# 4 0.0000 0.0000 0.0000 44.4723 0.0000 -2.0850
# 5 -14.3604 6.1253 2.3768 0.0000 30.4418 0.0000
# 6 0.0000 0.0000 0.0000 -2.0850 0.0000 30.7663
#
#
#
# Elastic Compliance Matrix: (Units=1/GPa)
#
#
# Indices 1 2 3 4 5 6 
#
# 1 0.010923 -0.004073 -0.001178 0.000000 0.006064 0.000000
# 2 -0.004073 0.018018 -0.005909 0.000000 -0.005086 0.000000
# 3 -0.001178 -0.005909 0.013147 0.000000 -0.000393 0.000000
# 4 0.000000 0.000000 0.000000 0.022558 0.000000 0.001529
# 5 0.006064 -0.005086 -0.000393 0.000000 0.036764 0.000000
# 6 0.000000 0.000000 0.000000 0.001529 0.000000 0.032607
#
#
# Mechanical properties :
#
#
# Convention : Reuss Voigt Hill
#
# Bulk Modulus (GPa) = 50.58721 51.10874 50.84798
# Shear Modulus (GPa) = 30.68867 34.13216 32.41042
#
# Velocity S-wave (km/s) = 3.82152 4.03022 3.92726
# Velocity P-wave (km/s) = 6.59889 6.78074 6.69043
#
# Compressibility (1/GPa) = 0.01976784
#
# Stress axis : x y z
#
# Youngs Moduli (GPa) = 91.54980 55.49980 76.06184
#
# Poissons Ratio (x) = 0.22606 0.08959
# Poissons Ratio (y) = 0.37290 0.44947
# Poissons Ratio (z) = 0.10783 0.32796
#
# Static dielectric constant tensor:
#      x y z
#    x 4.230870 0.000000 -0.335720 
#    y 0.000000 3.634230 0.000000 
#    z -0.335720 0.000000 3.921920 
# 
# 
# High freq. dielectric constant tensor:
#      x y z
#    x 1.836000 0.000000 -0.012160 
#    y 0.000000 1.811190 0.000000 
#    z -0.012160 0.000000 1.827050 
# 
# From -- ./inp_files/39491.got.cif
#   From: 2010.06.25/outbox.cif.g09.slc.cpg/sg13_20_cif.got.tgz:39491.got - 2010.06.28 04:50:58.
