data_PCOD8120226
_publ_section_title
;
Structure prediction by ZEFSAII (Michael W. Deem and Ramdas Pophale) SiO2 
 PCOD8120226
Probable space group: P 2/C
;
_chemical_formula_sum "Si O2"
_cell_formula_units_Z 20
_cell_length_a 23.226588
_cell_length_b 5.028706
_cell_length_c 15.922729
_cell_angle_alpha 90.000000
_cell_angle_beta 148.773435
_cell_angle_gamma 90.000000
_cell_volume 964.148388
_symmetry_space_group_name_H-M "P 2/C"
_symmetry_group_IT_number 13
_symmetry_cell_setting 'monoclinic'
loop_
_space_group_symop_operation_xyz
x,y,z
-x,y,1/2-z
-x,-y,-z
x,-y,1/2+z
loop_
_atom_site_type_symbol
_atom_site_label
_atom_site_fract_x
_atom_site_fract_y
_atom_site_fract_z
Si Si1 0.746590 0.960495 0.499461
Si Si2 0.628001 0.451717 0.413329
Si Si3 0.825029 0.878610 0.914988
Si Si4 0.225799 0.394595 0.752028
Si Si5 0.942841 0.842395 0.354955
O O1 0.648017 0.166530 0.395945
O O2 0.788561 0.014560 0.458665
O O3 0.847733 0.988726 0.690281
O O4 0.699088 0.665007 0.449137
O O5 0.500000 0.530035 0.250000
O O6 0.663215 0.434652 0.554991
O O7 0.766734 0.605365 0.813791
O O8 0.787167 0.097049 0.799794
O O9 0.955804 0.794455 0.083074
O O10 0.117739 0.422060 0.680784
O O11 0.000000 0.000000 0.500000
#
# Coordination Sequence:
#
# PCOD8120226 Si02
#       5
#     4   4   4   4   4
#     4  11  23  38  60  90 116 147 195 242 287 339
#     4  11  23  43  62  80 110 156 201 242 285 340
#     4  11  21  37  58  91 124 148 182 240 290 339
#     4  10  21  38  60  85 117 158 195 226 280 354
#     4   9  19  36  60  86 119 157 185 220 280 352
#
# _framework density 20.743693
#
# number of rings (size 3 to 8) (size 9 to 14) (size 15 to 20)
#    0.000    1.600    0.000    6.600    0.000    4.800 
#    0.000   14.000    0.000    0.000    0.000    0.000 
#    0.000    0.000    0.000    0.000    0.000    0.000 
#
# Total GULP energy -247848.632412 kJ/mol
# GULP energy per Si atom -12392.431621 kJ/mol
# Density = 2.069648 g / cm^3
# Si number density = 20.743693 Si / 1000 Ang^3
#
#
#
# Elastic Constant Matrix: (Units=GPa)
#
#
# Indices 1 2 3 4 5 6 
#
# 1 90.4783 10.0323 53.4697 0.0000 -11.4361 0.0000
# 2 10.0323 83.8862 23.5687 0.0000 -9.5312 0.0000
# 3 53.4697 23.5687 132.2518 0.0000 -4.8571 0.0000
# 4 0.0000 0.0000 0.0000 22.9736 0.0000 -3.1011
# 5 -11.4361 -9.5312 -4.8571 0.0000 17.4324 0.0000
# 6 0.0000 0.0000 0.0000 -3.1011 0.0000 34.1835
#
#
#
# Elastic Compliance Matrix: (Units=1/GPa)
#
#
# Indices 1 2 3 4 5 6 
#
# 1 0.015768 0.000890 -0.006199 0.000000 0.009104 0.000000
# 2 0.000890 0.013325 -0.002471 0.000000 0.007181 0.000000
# 3 -0.006199 -0.002471 0.010416 0.000000 -0.002516 0.000000
# 4 0.000000 0.000000 0.000000 0.044068 0.000000 0.003998
# 5 0.009104 0.007181 -0.002516 0.000000 0.066562 0.000000
# 6 0.000000 0.000000 0.000000 0.003998 0.000000 0.029617
#
#
# Mechanical properties :
#
#
# Convention : Reuss Voigt Hill
#
# Bulk Modulus (GPa) = 41.75622 53.41754 47.58688
# Shear Modulus (GPa) = 24.59455 29.55424 27.07440
#
# Velocity S-wave (km/s) = 3.44705 3.77866 3.61666
# Velocity P-wave (km/s) = 6.00135 6.69663 6.35850
#
# Compressibility (1/GPa) = 0.02394853
#
# Stress axis : x y z
#
# Youngs Moduli (GPa) = 63.41990 75.04959 96.00907
#
# Poissons Ratio (x) = -0.06682 0.59519
# Poissons Ratio (y) = -0.05647 0.23722
# Poissons Ratio (z) = 0.39316 0.18543
#
# Static dielectric constant tensor:
#      x y z
#    x 3.900350 0.000000 0.097580 
#    y 0.000000 3.745120 0.000000 
#    z 0.097580 0.000000 3.865210 
# 
# 
# High freq. dielectric constant tensor:
#      x y z
#    x 1.802210 0.000000 -0.011070 
#    y 0.000000 1.814370 0.000000 
#    z -0.011070 0.000000 1.810160 
# 
# From -- ./inp_files/48821.got.cif
#   From: 2010.06.25/outbox.cif.g09.slc.cpg/sg13_25_cif.got.tgz:48821.got - 2010.06.28 04:50:58.
