data_PCOD8120249
_publ_section_title
;
Structure prediction by ZEFSAII (Michael W. Deem and Ramdas Pophale) SiO2 
 PCOD8120249
Probable space group: P 2/C
;
_chemical_formula_sum "Si O2"
_cell_formula_units_Z 20
_cell_length_a 9.591758
_cell_length_b 21.726306
_cell_length_c 4.963337
_cell_angle_alpha 90.000000
_cell_angle_beta 66.233874
_cell_angle_gamma 90.000000
_cell_volume 946.614110
_symmetry_space_group_name_H-M "P 2/C"
_symmetry_group_IT_number 13
_symmetry_cell_setting 'monoclinic'
loop_
_space_group_symop_operation_xyz
x,y,z
-x,y,1/2-z
-x,-y,-z
x,-y,1/2+z
loop_
_atom_site_type_symbol
_atom_site_label
_atom_site_fract_x
_atom_site_fract_y
_atom_site_fract_z
Si Si1 0.323575 0.039307 0.887859
Si Si2 0.178378 0.538004 0.132590
Si Si3 0.602636 0.644258 0.435657
Si Si4 0.823518 0.166680 0.448494
Si Si5 0.330200 0.779791 0.922894
O O1 0.500000 0.058749 0.750000
O O2 0.283759 0.016936 0.618981
O O3 0.224914 0.096685 0.065877
O O4 0.227403 0.482581 0.295538
O O5 0.253522 0.599390 0.196241
O O6 0.000000 0.551256 0.250000
O O7 0.500000 0.649603 0.250000
O O8 0.664604 0.710360 0.477202
O O9 0.500000 0.615363 0.750000
O O10 0.743116 0.215829 0.315091
O O11 0.000000 0.173562 0.250000
O O12 0.773875 0.181202 0.792596
O O13 0.500000 0.807310 0.750000
#
# Coordination Sequence:
#
# PCOD8120249 Si02
#       5
#     4   4   4   4   4
#     4  10  21  38  61  88 119 160 204 244 298 367
#     4  10  22  39  59  87 124 163 198 240 303 369
#     4  11  23  40  63  91 118 154 207 258 301 350
#     4  12  25  40  63  95 126 159 203 256 311 362
#     4  11  23  43  64  87 123 165 207 251 306 371
#
# _framework density 21.127935000000001
#
# number of rings (size 3 to 8) (size 9 to 14) (size 15 to 20)
#    0.000    1.200    0.000    7.200    0.000    6.400 
#    0.000    2.000    0.000    0.000    0.000    0.000 
#    0.000    0.000    0.000    0.000    0.000    0.000 
#
# Total GULP energy -247968.617022 kJ/mol
# GULP energy per Si atom -12398.430851 kJ/mol
# Density = 2.107985 g / cm^3
# Si number density = 21.127935 Si / 1000 Ang^3
#
#
#
# Elastic Constant Matrix: (Units=GPa)
#
#
# Indices 1 2 3 4 5 6 
#
# 1 102.7863 47.6097 34.2413 0.0000 -2.8357 0.0000
# 2 47.6097 93.2554 21.2095 0.0000 -5.7431 0.0000
# 3 34.2413 21.2095 109.7888 0.0000 -2.6836 0.0000
# 4 0.0000 0.0000 0.0000 36.5138 0.0000 22.2473
# 5 -2.8357 -5.7431 -2.6836 0.0000 39.2158 0.0000
# 6 0.0000 0.0000 0.0000 22.2473 0.0000 41.9805
#
#
#
# Elastic Compliance Matrix: (Units=1/GPa)
#
#
# Indices 1 2 3 4 5 6 
#
# 1 0.013651 -0.006285 -0.003047 0.000000 -0.000142 0.000000
# 2 -0.006285 0.014198 -0.000744 0.000000 0.001574 0.000000
# 3 -0.003047 -0.000744 0.010211 0.000000 0.000369 0.000000
# 4 0.000000 0.000000 0.000000 0.040447 0.000000 -0.021434
# 5 -0.000142 0.001574 0.000369 0.000000 0.025745 0.000000
# 6 0.000000 0.000000 0.000000 -0.021434 0.000000 0.035180
#
#
# Mechanical properties :
#
#
# Convention : Reuss Voigt Hill
#
# Bulk Modulus (GPa) = 55.83936 56.88350 56.36143
# Shear Modulus (GPa) = 30.20157 37.06001 33.63079
#
# Velocity S-wave (km/s) = 3.78492 4.19271 3.99403
# Velocity P-wave (km/s) = 6.75184 7.10072 6.92848
#
# Compressibility (1/GPa) = 0.01790852
#
# Stress axis : x y z
#
# Youngs Moduli (GPa) = 73.25335 70.43161 97.92914
#
# Poissons Ratio (x) = 0.44267 0.29838
# Poissons Ratio (y) = 0.46041 0.07287
# Poissons Ratio (z) = 0.22319 0.05241
#
# Static dielectric constant tensor:
#      x y z
#    x 3.868510 0.000000 0.054150 
#    y 0.000000 3.586630 0.000000 
#    z 0.054150 0.000000 4.061900 
# 
# 
# High freq. dielectric constant tensor:
#      x y z
#    x 1.827440 0.000000 0.011320 
#    y 0.000000 1.824160 0.000000 
#    z 0.011320 0.000000 1.843500 
# 
# From -- ./inp_files/1973.got.cif
#   From: 2010.06.25/outbox.cif.g09.slc.cpg/sg13_1_cif.got.tgz:1973.got - 2010.06.28 04:50:58.
