data_PCOD8120424
_publ_section_title
;
Structure prediction by ZEFSAII (Michael W. Deem and Ramdas Pophale) SiO2 
 PCOD8120424
Probable space group: P 2/C
;
_chemical_formula_sum "Si O2"
_cell_formula_units_Z 20
_cell_length_a 10.859251
_cell_length_b 16.215113
_cell_length_c 5.182779
_cell_angle_alpha 90.000000
_cell_angle_beta 94.674793
_cell_angle_gamma 90.000000
_cell_volume 909.568439
_symmetry_space_group_name_H-M "P 2/C"
_symmetry_group_IT_number 13
_symmetry_cell_setting 'monoclinic'
loop_
_space_group_symop_operation_xyz
x,y,z
-x,y,1/2-z
-x,-y,-z
x,-y,1/2+z
loop_
_atom_site_type_symbol
_atom_site_label
_atom_site_fract_x
_atom_site_fract_y
_atom_site_fract_z
Si Si1 0.137859 0.464633 0.566295
Si Si2 0.500000 0.555510 0.250000
Si Si3 0.641213 0.770101 0.760981
Si Si4 0.732375 0.943918 0.739545
Si Si5 0.000000 0.054608 0.250000
Si Si6 0.278053 0.318078 0.722091
O O1 0.204818 0.480872 0.302994
O O2 0.148331 0.367930 0.651357
O O3 0.000000 0.500000 0.500000
O O4 0.500000 0.500000 0.500000
O O5 0.619744 0.612050 0.274109
O O6 0.500000 0.738178 0.750000
O O7 0.637983 0.869470 0.770738
O O8 0.702922 0.747271 0.501117
O O9 0.720307 0.730591 0.007609
O O10 0.868627 0.898323 0.748040
O O11 0.711687 0.991757 0.468176
O O12 0.000000 0.000000 0.500000
#
# Coordination Sequence:
#
# PCOD8120424 Si02
#       6
#     4   2   4   4   2   4
#     4  10  21  40  64  88 120 162 204 258 315 368
#     4  12  22  36  62  86 110 156 212 250 296 368
#     4  12  24  41  60  91 136 169 204 268 326 373
#     4  10  21  39  65  91 120 166 217 261 313 383
#     4   8  16  34  58  84 112 142 198 264 298 350
#     4  12  23  41  60  90 127 165 209 259 323 372
#
# _framework density 21.98845
#
# number of rings (size 3 to 8) (size 9 to 14) (size 15 to 20)
#    0.000    1.200    2.000    4.800    0.000    0.800 
#    0.000    6.000    0.000    0.000    0.000    0.000 
#    0.000    0.000    0.000    0.000    0.000    0.000 
#
# Total GULP energy -247760.971683 kJ/mol
# GULP energy per Si atom -12388.048584 kJ/mol
# Density = 2.193840 g / cm^3
# Si number density = 21.988450 Si / 1000 Ang^3
#
#
#
# Elastic Constant Matrix: (Units=GPa)
#
#
# Indices 1 2 3 4 5 6 
#
# 1 59.3289 25.2484 13.3913 0.0000 8.6877 0.0000
# 2 25.2484 113.3523 47.7558 0.0000 6.4857 0.0000
# 3 13.3913 47.7558 187.2252 0.0000 -5.7238 0.0000
# 4 0.0000 0.0000 0.0000 43.7085 0.0000 -1.4531
# 5 8.6877 6.4857 -5.7238 0.0000 20.1714 0.0000
# 6 0.0000 0.0000 0.0000 -1.4531 0.0000 35.0950
#
#
#
# Elastic Compliance Matrix: (Units=1/GPa)
#
#
# Indices 1 2 3 4 5 6 
#
# 1 0.019667 -0.003656 -0.000703 0.000000 -0.007495 0.000000
# 2 -0.003656 0.010882 -0.002596 0.000000 -0.002661 0.000000
# 3 -0.000703 -0.002596 0.006142 0.000000 0.002880 0.000000
# 4 0.000000 0.000000 0.000000 0.022910 0.000000 0.000949
# 5 -0.007495 -0.002661 0.002880 0.000000 0.054476 0.000000
# 6 0.000000 0.000000 0.000000 0.000949 0.000000 0.028533
#
#
# Mechanical properties :
#
#
# Convention : Reuss Voigt Hill
#
# Bulk Modulus (GPa) = 43.89482 59.18860 51.54171
# Shear Modulus (GPa) = 30.46673 38.02903 34.24788
#
# Velocity S-wave (km/s) = 3.72637 4.16324 3.95085
# Velocity P-wave (km/s) = 6.20649 7.07718 6.65609
#
# Compressibility (1/GPa) = 0.02278173
#
# Stress axis : x y z
#
# Youngs Moduli (GPa) = 50.84632 91.89412 162.82432
#
# Poissons Ratio (x) = 0.33592 0.11453
# Poissons Ratio (y) = 0.18587 0.42263
# Poissons Ratio (z) = 0.03576 0.23852
#
# Static dielectric constant tensor:
#      x y z
#    x 3.977960 0.000000 0.987980 
#    y 0.000000 3.600670 0.000000 
#    z 0.987980 0.000000 2.697000 
# 
# 
# High freq. dielectric constant tensor:
#      x y z
#    x 1.854990 0.000000 -0.001520 
#    y 0.000000 1.844610 0.000000 
#    z -0.001520 0.000000 1.900130 
# 
# From -- ./inp_files/3230.got.cif
#   From: 2010.06.25/outbox.cif.g09.slc.cpg/sg13_2_cif.got.tgz:3230.got - 2010.06.28 04:50:58.
