data_PCOD8120277
_publ_section_title
;
Structure prediction by ZEFSAII (Michael W. Deem and Ramdas Pophale) SiO2 
 PCOD8120277
Probable space group: P 2/C
;
_chemical_formula_sum "Si O2"
_cell_formula_units_Z 28
_cell_length_a 7.899102
_cell_length_b 11.737240
_cell_length_c 14.244265
_cell_angle_alpha 90.000000
_cell_angle_beta 102.931453
_cell_angle_gamma 90.000000
_cell_volume 1287.144517
_symmetry_space_group_name_H-M "P 2/C"
_symmetry_group_IT_number 13
_symmetry_cell_setting 'monoclinic'
loop_
_space_group_symop_operation_xyz
x,y,z
-x,y,1/2-z
-x,-y,-z
x,-y,1/2+z
loop_
_atom_site_type_symbol
_atom_site_label
_atom_site_fract_x
_atom_site_fract_y
_atom_site_fract_z
Si Si1 0.261264 0.951247 0.966357
Si Si2 0.606524 0.340689 0.670521
Si Si3 0.201067 0.565370 0.793486
Si Si4 0.136219 0.949991 0.637721
Si Si5 0.656333 0.083392 0.697206
Si Si6 0.587231 0.703722 0.534741
Si Si7 0.345647 0.734452 0.671305
O O1 0.332416 0.824541 0.982702
O O2 0.065935 0.957223 0.904735
O O3 0.381370 0.024369 0.909069
O O4 0.259481 0.004131 0.069561
O O5 0.500000 0.363869 0.750000
O O6 0.760374 0.432562 0.685282
O O7 0.693867 0.215972 0.681653
O O8 0.472298 0.357869 0.567892
O O9 0.263358 0.632705 0.894124
O O10 0.301270 0.613966 0.714768
O O11 0.000000 0.583470 0.750000
O O12 0.180472 0.816867 0.656843
O O13 0.176101 0.023578 0.735671
O O14 0.500000 0.066372 0.750000
O O15 0.411472 0.713598 0.574289
O O16 0.500000 0.794973 0.750000
#
# Coordination Sequence:
#
# PCOD8120277 Si02
#       7
#     4   4   4   4   4   4   4
#     4  11  23  37  59  91 126 158 199 248 306 368
#     4  11  24  42  63  87 122 164 209 252 301 367
#     4  11  24  43  65  91 121 155 205 261 313 364
#     4  11  22  37  58  90 127 160 195 249 308 362
#     4  11  22  37  60  87 121 163 203 248 302 363
#     4  11  22  41  67  91 121 163 207 254 304 364
#     4  10  21  38  63  88 115 154 203 250 298 360
#
# _framework density 21.753579999999999
#
# number of rings (size 3 to 8) (size 9 to 14) (size 15 to 20)
#    0.000    1.143    0.000    8.571    0.000    2.857 
#    0.000    4.286    0.000    0.000    0.000    0.000 
#    0.000    0.000    0.000    0.000    0.000    0.000 
#
# Total GULP energy -347286.379019 kJ/mol
# GULP energy per Si atom -12403.084965 kJ/mol
# Density = 2.170407 g / cm^3
# Si number density = 21.753580 Si / 1000 Ang^3
#
#
#
# Elastic Constant Matrix: (Units=GPa)
#
#
# Indices 1 2 3 4 5 6 
#
# 1 57.2679 23.6112 22.8438 0.0000 -7.6113 0.0000
# 2 23.6112 119.3975 36.7351 0.0000 0.9622 0.0000
# 3 22.8438 36.7351 127.3504 0.0000 -13.8729 0.0000
# 4 0.0000 0.0000 0.0000 13.7264 0.0000 4.2691
# 5 -7.6113 0.9622 -13.8729 0.0000 32.6451 0.0000
# 6 0.0000 0.0000 0.0000 4.2691 0.0000 14.2668
#
#
#
# Elastic Compliance Matrix: (Units=1/GPa)
#
#
# Indices 1 2 3 4 5 6 
#
# 1 0.020251 -0.003345 -0.002247 0.000000 0.003865 0.000000
# 2 -0.003345 0.009811 -0.002460 0.000000 -0.002115 0.000000
# 3 -0.002247 -0.002460 0.009349 0.000000 0.003522 0.000000
# 4 0.000000 0.000000 0.000000 0.080328 0.000000 -0.024037
# 5 0.003865 -0.002115 0.003522 0.000000 0.033093 0.000000
# 6 0.000000 0.000000 0.000000 -0.024037 0.000000 0.077285
#
#
# Mechanical properties :
#
#
# Convention : Reuss Voigt Hill
#
# Bulk Modulus (GPa) = 42.90576 52.26621 47.58598
# Shear Modulus (GPa) = 19.68594 26.84937 23.26766
#
# Velocity S-wave (km/s) = 3.01151 3.51700 3.27402
# Velocity P-wave (km/s) = 5.64434 6.36954 6.01787
#
# Compressibility (1/GPa) = 0.02330689
#
# Stress axis : x y z
#
# Youngs Moduli (GPa) = 49.38114 101.92831 106.96681
#
# Poissons Ratio (x) = 0.34090 0.24032
# Poissons Ratio (y) = 0.16516 0.26318
# Poissons Ratio (z) = 0.11094 0.25079
#
# Static dielectric constant tensor:
#      x y z
#    x 3.827650 0.000000 -0.043820 
#    y 0.000000 3.917820 0.000000 
#    z -0.043820 0.000000 4.218100 
# 
# 
# High freq. dielectric constant tensor:
#      x y z
#    x 1.848260 0.000000 -0.000330 
#    y 0.000000 1.855360 0.000000 
#    z -0.000330 0.000000 1.873500 
# 
# From -- ./inp_files/46985.got.cif
#   From: 2010.06.25/outbox.cif.g09.slc.cpg/sg13_24_cif.got.tgz:46985.got - 2010.06.28 04:50:58.
