data_PCOD8120740
_publ_section_title
;
Structure prediction by ZEFSAII (Michael W. Deem and Ramdas Pophale) SiO2 
 PCOD8120740
Probable space group: P 2/C
;
_chemical_formula_sum "Si O2"
_cell_formula_units_Z 28
_cell_length_a 14.479822
_cell_length_b 11.867091
_cell_length_c 8.802673
_cell_angle_alpha 90.000000
_cell_angle_beta 54.285452
_cell_angle_gamma 90.000000
_cell_volume 1228.127641
_symmetry_space_group_name_H-M "P 2/C"
_symmetry_group_IT_number 13
_symmetry_cell_setting 'monoclinic'
loop_
_space_group_symop_operation_xyz
x,y,z
-x,y,1/2-z
-x,-y,-z
x,-y,1/2+z
loop_
_atom_site_type_symbol
_atom_site_label
_atom_site_fract_x
_atom_site_fract_y
_atom_site_fract_z
Si Si1 0.104439 0.047427 0.744597
Si Si2 0.651303 0.788600 0.243069
Si Si3 0.396363 0.242365 0.058336
Si Si4 0.231786 0.617206 0.877643
Si Si5 0.113593 0.476002 0.216764
Si Si6 0.739813 0.961356 0.671697
Si Si7 0.848894 0.715557 0.259040
O O1 0.221720 0.059687 0.537373
O O2 0.072845 0.173425 0.836864
O O3 0.000000 0.994347 0.750000
O O4 0.139882 0.965949 0.848942
O O5 0.531480 0.760595 0.436263
O O6 0.746053 0.714513 0.237059
O O7 0.674396 0.920320 0.242793
O O8 0.650565 0.753313 0.067977
O O9 0.357108 0.354261 0.190810
O O10 0.345718 0.132405 0.187575
O O11 0.152530 0.613188 0.804005
O O12 0.215176 0.502231 0.994461
O O13 0.195746 0.720276 0.022103
O O14 0.082050 0.597603 0.327657
O O15 0.000000 0.426452 0.250000
#
# Coordination Sequence:
#
# PCOD8120740 Si02
#       7
#     4   4   4   4   4   4   4
#     4  11  21  37  57  87 127 164 197 245 306 353
#     4  10  23  39  64  85 123 162 202 259 301 365
#     4  11  22  41  61  89 121 160 207 256 312 355
#     4  10  23  38  65  90 122 153 204 257 294 376
#     4  10  21  42  64  92 120 161 201 250 303 360
#     4  11  20  40  58  91 120 161 210 246 293 372
#     4   9  22  38  61  88 120 158 199 255 300 362
#
# _framework density 22.798933000000002
#
# number of rings (size 3 to 8) (size 9 to 14) (size 15 to 20)
#    0.857    0.857    2.857    1.714    2.000    0.571 
#    0.000    1.429    0.000    0.000    0.000    0.000 
#    0.000    0.000    0.000    0.000    0.000    0.000 
#
# Total GULP energy -346875.210564 kJ/mol
# GULP energy per Si atom -12388.400377 kJ/mol
# Density = 2.274704 g / cm^3
# Si number density = 22.798933 Si / 1000 Ang^3
#
#
#
# Elastic Constant Matrix: (Units=GPa)
#
#
# Indices 1 2 3 4 5 6 
#
# 1 82.4896 3.6540 0.1448 0.0000 14.6049 0.0000
# 2 3.6540 25.8406 12.2077 0.0000 4.5149 0.0000
# 3 0.1448 12.2077 70.4613 0.0000 4.7365 0.0000
# 4 0.0000 0.0000 0.0000 22.1015 0.0000 5.9347
# 5 14.6049 4.5149 4.7365 0.0000 25.6053 0.0000
# 6 0.0000 0.0000 0.0000 5.9347 0.0000 28.4588
#
#
#
# Elastic Compliance Matrix: (Units=1/GPa)
#
#
# Indices 1 2 3 4 5 6 
#
# 1 0.013519 -0.000873 0.000639 0.000000 -0.007676 0.000000
# 2 -0.000873 0.043186 -0.007090 0.000000 -0.005805 0.000000
# 3 0.000639 -0.007090 0.015553 0.000000 -0.001992 0.000000
# 4 0.000000 0.000000 0.000000 0.047930 0.000000 -0.009995
# 5 -0.007676 -0.005805 -0.001992 0.000000 0.044825 0.000000
# 6 0.000000 0.000000 0.000000 -0.009995 0.000000 0.037223
#
#
# Mechanical properties :
#
#
# Convention : Reuss Voigt Hill
#
# Bulk Modulus (GPa) = 17.35761 23.42272 20.39017
# Shear Modulus (GPa) = 21.17871 26.08546 23.63208
#
# Velocity S-wave (km/s) = 3.05115 3.38620 3.22303
# Velocity P-wave (km/s) = 4.47689 5.05810 4.77635
#
# Compressibility (1/GPa) = 0.05761161
#
# Stress axis : x y z
#
# Youngs Moduli (GPa) = 73.96862 23.15564 64.29578
#
# Poissons Ratio (x) = 0.02021 -0.04111
# Poissons Ratio (y) = 0.06455 0.45586
# Poissons Ratio (z) = -0.04729 0.16418
#
# Static dielectric constant tensor:
#      x y z
#    x 3.976580 0.000000 0.226990 
#    y 0.000000 3.803110 0.000000 
#    z 0.226990 0.000000 4.265490 
# 
# 
# High freq. dielectric constant tensor:
#      x y z
#    x 1.888260 0.000000 0.020020 
#    y 0.000000 1.880540 0.000000 
#    z 0.020020 0.000000 1.906510 
# 
# From -- ./inp_files/18936.got.cif
#   From: 2010.06.25/outbox.cif.g09.slc.cpg/sg13_10_cif.got.tgz:18936.got - 2010.06.28 04:50:58.
