data_PCOD8120959
_publ_section_title
;
Structure prediction by ZEFSAII (Michael W. Deem and Ramdas Pophale) SiO2 
 PCOD8120959
Probable space group: P 2/C
;
_chemical_formula_sum "Si O2"
_cell_formula_units_Z 24
_cell_length_a 14.579488
_cell_length_b 9.778299
_cell_length_c 22.910034
_cell_angle_alpha 90.000000
_cell_angle_beta 161.081880
_cell_angle_gamma 90.000000
_cell_volume 1058.928344
_symmetry_space_group_name_H-M "P 2/C"
_symmetry_group_IT_number 13
_symmetry_cell_setting 'monoclinic'
loop_
_space_group_symop_operation_xyz
x,y,z
-x,y,1/2-z
-x,-y,-z
x,-y,1/2+z
loop_
_atom_site_type_symbol
_atom_site_label
_atom_site_fract_x
_atom_site_fract_y
_atom_site_fract_z
Si Si1 0.544635 0.704099 0.489815
Si Si2 0.705771 0.151365 0.558242
Si Si3 0.816436 0.854489 0.944668
Si Si4 0.074058 0.631136 0.397279
Si Si5 0.853434 0.109783 0.335487
Si Si6 0.068185 0.667699 0.876333
O O1 0.454579 0.832610 0.476145
O O2 0.265775 0.616832 0.309210
O O3 0.692071 0.747242 0.517353
O O4 0.789510 0.622811 0.671824
O O5 0.482854 0.083731 0.379186
O O6 0.000000 0.068044 0.750000
O O7 0.803487 0.294887 0.586970
O O8 0.500000 0.909872 0.750000
O O9 0.926502 0.841922 0.944863
O O10 0.833247 0.711099 0.988464
O O11 0.999649 0.965552 0.090744
O O12 0.197085 0.477176 0.476059
O O13 0.981403 0.232417 0.375483
#
# Coordination Sequence:
#
# PCOD8120959 Si02
#       6
#     4   4   4   4   4   4
#     4   9  21  36  62  95 135 167 201 254 331 378
#     4   9  19  38  66  98 129 167 211 261 322 388
#     4  11  24  44  68  88 125 177 218 263 321 380
#     4  11  22  36  66  96 128 166 215 261 313 382
#     4  10  23  44  67  91 128 172 218 264 320 381
#     4  10  22  37  65  98 132 164 207 266 316 383
#
# _framework density 22.664424
#
# number of rings (size 3 to 8) (size 9 to 14) (size 15 to 20)
#    0.000    2.000    1.667    0.500   11.667    3.333 
#    0.000    8.333    7.333    0.000    0.000    0.000 
#    0.000    0.000    0.000    0.000    0.000    0.000 
#
# Total GULP energy -297380.125148 kJ/mol
# GULP energy per Si atom -12390.838548 kJ/mol
# Density = 2.261284 g / cm^3
# Si number density = 22.664424 Si / 1000 Ang^3
#
#
#
# Elastic Constant Matrix: (Units=GPa)
#
#
# Indices 1 2 3 4 5 6 
#
# 1 103.8315 35.1109 47.4426 0.0000 3.0073 0.0000
# 2 35.1109 78.0259 55.2602 0.0000 -5.2070 0.0000
# 3 47.4426 55.2602 139.5235 0.0000 10.2874 0.0000
# 4 0.0000 0.0000 0.0000 24.2971 0.0000 -6.1431
# 5 3.0073 -5.2070 10.2874 0.0000 36.0563 0.0000
# 6 0.0000 0.0000 0.0000 -6.1431 0.0000 17.1542
#
#
#
# Elastic Compliance Matrix: (Units=1/GPa)
#
#
# Indices 1 2 3 4 5 6 
#
# 1 0.012076 -0.003641 -0.002606 0.000000 -0.000790 0.000000
# 2 -0.003641 0.019720 -0.006951 0.000000 0.005135 0.000000
# 3 -0.002606 -0.006951 0.011098 0.000000 -0.003953 0.000000
# 4 0.000000 0.000000 0.000000 0.045255 0.000000 0.016206
# 5 -0.000790 0.005135 -0.003953 0.000000 0.029670 0.000000
# 6 0.000000 0.000000 0.000000 0.016206 0.000000 0.064098
#
#
# Mechanical properties :
#
#
# Convention : Reuss Voigt Hill
#
# Bulk Modulus (GPa) = 60.61355 66.33425 63.47390
# Shear Modulus (GPa) = 23.38510 27.73936 25.56223
#
# Velocity S-wave (km/s) = 3.21565 3.50225 3.36200
# Velocity P-wave (km/s) = 6.37096 6.75913 6.56791
#
# Compressibility (1/GPa) = 0.01649796
#
# Stress axis : x y z
#
# Youngs Moduli (GPa) = 82.81048 50.70926 90.10805
#
# Poissons Ratio (x) = 0.18464 0.23481
# Poissons Ratio (y) = 0.30152 0.62634
# Poissons Ratio (z) = 0.21579 0.35248
#
# Static dielectric constant tensor:
#      x y z
#    x 4.233600 0.000000 0.087440 
#    y 0.000000 3.481010 0.000000 
#    z 0.087440 0.000000 4.383270 
# 
# 
# High freq. dielectric constant tensor:
#      x y z
#    x 1.906470 0.000000 0.011050 
#    y 0.000000 1.853730 0.000000 
#    z 0.011050 0.000000 1.898670 
# 
# From -- ./inp_files/87518.got.cif
#   From: 2010.06.25/outbox.cif.g09.slc.cpg/sg13_44_cif.got.tgz:87518.got - 2010.06.28 04:50:58.
