data_PCOD8120635
_publ_section_title
;
Structure prediction by ZEFSAII (Michael W. Deem and Ramdas Pophale) SiO2 
 PCOD8120635
Probable space group: P 2/C
;
_chemical_formula_sum "Si O2"
_cell_formula_units_Z 22
_cell_length_a 12.436207
_cell_length_b 7.282820
_cell_length_c 17.983788
_cell_angle_alpha 90.000000
_cell_angle_beta 39.320936
_cell_angle_gamma 90.000000
_cell_volume 1032.113476
_symmetry_space_group_name_H-M "P 2/C"
_symmetry_group_IT_number 13
_symmetry_cell_setting 'monoclinic'
loop_
_space_group_symop_operation_xyz
x,y,z
-x,y,1/2-z
-x,-y,-z
x,-y,1/2+z
loop_
_atom_site_type_symbol
_atom_site_label
_atom_site_fract_x
_atom_site_fract_y
_atom_site_fract_z
Si Si1 0.301564 0.989187 0.610268
Si Si2 0.500000 0.869451 0.750000
Si Si3 0.075460 0.696568 0.478389
Si Si4 0.342868 0.157573 0.935187
Si Si5 0.720948 0.708734 0.269484
Si Si6 0.250092 0.282532 0.268850
O O1 0.241393 0.930523 0.560154
O O2 0.255615 0.830040 0.691143
O O3 0.500000 0.000000 0.500000
O O4 0.229929 0.185216 0.679823
O O5 0.588054 0.741591 0.764525
O O6 0.362367 0.994371 0.865469
O O7 0.222669 0.687233 0.462816
O O8 0.157702 0.788702 0.360842
O O9 0.000000 0.500000 0.500000
O O10 0.912529 0.798474 0.599575
O O11 0.524054 0.247849 0.857149
O O12 0.754852 0.492735 0.256356
#
# Coordination Sequence:
#
# PCOD8120635 Si02
#       6
#     4   2   4   4   4   4
#     4  10  21  41  62  92 126 169 215 262 329 383
#     4  12  22  38  64  96 120 176 224 258 332 384
#     4  10  22  39  64  98 127 170 216 271 325 381
#     4  11  21  41  66  89 132 170 217 265 326 393
#     4  10  21  41  66  90 129 169 213 272 317 388
#     4  11  24  39  64  95 130 164 223 267 321 387
#
# _framework density 21.315486
#
# number of rings (size 3 to 8) (size 9 to 14) (size 15 to 20)
#    0.000    1.455    5.455    0.000    5.091    6.545 
#    0.000    0.000    0.000    4.364    0.000    0.000 
#    0.000    0.000    0.000    0.000    0.000    0.000 
#
# Total GULP energy -272541.284503 kJ/mol
# GULP energy per Si atom -12388.240205 kJ/mol
# Density = 2.126697 g / cm^3
# Si number density = 21.315486 Si / 1000 Ang^3
#
#
#
# Elastic Constant Matrix: (Units=GPa)
#
#
# Indices 1 2 3 4 5 6 
#
# 1 87.0632 44.8673 55.3486 0.0000 23.0301 0.0000
# 2 44.8673 106.4709 52.7249 0.0000 11.9343 0.0000
# 3 55.3486 52.7249 143.6494 0.0000 18.1277 0.0000
# 4 0.0000 0.0000 0.0000 35.6002 0.0000 5.6405
# 5 23.0301 11.9343 18.1277 0.0000 34.1937 0.0000
# 6 0.0000 0.0000 0.0000 5.6405 0.0000 20.0142
#
#
#
# Elastic Compliance Matrix: (Units=1/GPa)
#
#
# Indices 1 2 3 4 5 6 
#
# 1 0.019191 -0.004872 -0.004490 0.000000 -0.008845 0.000000
# 2 -0.004872 0.012832 -0.002874 0.000000 0.000326 0.000000
# 3 -0.004490 -0.002874 0.009900 0.000000 -0.001222 0.000000
# 4 0.000000 0.000000 0.000000 0.029403 0.000000 -0.008286
# 5 -0.008845 0.000326 -0.001222 0.000000 0.035736 0.000000
# 6 0.000000 0.000000 0.000000 -0.008286 0.000000 0.052300
#
#
# Mechanical properties :
#
#
# Convention : Reuss Voigt Hill
#
# Bulk Modulus (GPa) = 57.30238 71.45169 64.37703
# Shear Modulus (GPa) = 26.36438 30.24447 28.30442
#
# Velocity S-wave (km/s) = 3.52072 3.77091 3.64796
# Velocity P-wave (km/s) = 6.59308 7.24938 6.92900
#
# Compressibility (1/GPa) = 0.01745128
#
# Stress axis : x y z
#
# Youngs Moduli (GPa) = 52.10877 77.93072 101.00761
#
# Poissons Ratio (x) = 0.37970 0.45350
# Poissons Ratio (y) = 0.25389 0.29027
# Poissons Ratio (z) = 0.23396 0.22395
#
# Static dielectric constant tensor:
#      x y z
#    x 4.061010 0.000000 0.014590 
#    y 0.000000 3.777100 0.000000 
#    z 0.014590 0.000000 5.323250 
# 
# 
# High freq. dielectric constant tensor:
#      x y z
#    x 1.816220 0.000000 0.014040 
#    y 0.000000 1.826930 0.000000 
#    z 0.014040 0.000000 1.859540 
# 
# From -- ./inp_files/65868.got.cif
#   From: 2010.06.25/outbox.cif.g09.slc.cpg/sg13_33_cif.got.tgz:65868.got - 2010.06.28 04:50:58.
