data_PCOD8120364
_publ_section_title
;
Structure prediction by ZEFSAII (Michael W. Deem and Ramdas Pophale) SiO2 
 PCOD8120364
Probable space group: P 2/C
;
_chemical_formula_sum "Si O2"
_cell_formula_units_Z 30
_cell_length_a 16.828505
_cell_length_b 6.403232
_cell_length_c 14.341717
_cell_angle_alpha 90.000000
_cell_angle_beta 64.786118
_cell_angle_gamma 90.000000
_cell_volume 1398.176404
_symmetry_space_group_name_H-M "P 2/C"
_symmetry_group_IT_number 13
_symmetry_cell_setting 'monoclinic'
loop_
_space_group_symop_operation_xyz
x,y,z
-x,y,1/2-z
-x,-y,-z
x,-y,1/2+z
loop_
_atom_site_type_symbol
_atom_site_label
_atom_site_fract_x
_atom_site_fract_y
_atom_site_fract_z
Si Si1 0.901620 0.319078 0.902743
Si Si2 0.168289 0.999853 0.415929
Si Si3 0.500000 0.999977 0.750000
Si Si4 0.901684 0.680736 0.195513
Si Si5 0.564222 0.313648 0.570832
Si Si6 0.435666 0.686376 0.635093
Si Si7 0.750278 0.378665 0.216294
Si Si8 0.750180 0.378948 0.533467
O O1 0.889689 0.220577 0.805088
O O2 0.999950 0.410602 0.865058
O O3 0.889970 0.145292 0.988024
O O4 0.834424 0.511054 0.945405
O O5 0.227860 0.139138 0.318187
O O6 0.110030 0.854307 0.378171
O O7 0.227926 0.860639 0.454056
O O8 0.438800 0.863590 0.712673
O O9 0.561180 0.136363 0.651472
O O10 0.834574 0.488558 0.220060
O O11 0.499870 0.499866 0.633895
O O12 0.535591 0.231921 0.482193
O O13 0.664987 0.389370 0.510342
O O14 0.334845 0.611088 0.675335
O O15 0.721026 0.499998 0.139533
#
# Coordination Sequence:
#
# PCOD8120364 Si02
#       8
#     4   4   2   4   4   4   4   4
#     4  10  22  39  60  88 121 158 200 246 297 352
#     4  10  22  38  62  90 118 156 200 246 294 352
#     4  12  22  40  64  90 122 156 196 246 294 348
#     4  10  22  39  60  88 121 158 200 246 297 352
#     4  11  24  41  63  90 120 157 199 243 294 352
#     4  11  24  41  63  90 120 157 199 243 294 352
#     4  10  21  39  61  87 120 157 196 244 297 351
#     4  10  21  39  61  87 120 157 196 244 297 351
#
# _framework density 21.456520000000001
#
# number of rings (size 3 to 8) (size 9 to 14) (size 15 to 20)
#    0.000    1.600    0.000    4.400    0.000   10.133 
#    0.000    2.667    0.000    0.000    0.000    0.000 
#    0.000    0.000    0.000    0.000    0.000    0.000 
#
# Total GULP energy -371925.356969 kJ/mol
# GULP energy per Si atom -12397.511899 kJ/mol
# Density = 2.140768 g / cm^3
# Si number density = 21.456520 Si / 1000 Ang^3
#
#
#
# Elastic Constant Matrix: (Units=GPa)
#
#
# Indices 1 2 3 4 5 6 
#
# 1 156.8931 61.8533 53.6511 0.0000 -14.2220 0.0000
# 2 61.8533 110.0482 48.9729 0.0000 -6.2807 0.0000
# 3 53.6511 48.9729 127.6760 0.0000 0.0337 0.0000
# 4 0.0000 0.0000 0.0000 25.5139 0.0000 4.7131
# 5 -14.2220 -6.2807 0.0337 0.0000 44.1356 0.0000
# 6 0.0000 0.0000 0.0000 4.7131 0.0000 16.0594
#
#
#
# Elastic Compliance Matrix: (Units=1/GPa)
#
#
# Indices 1 2 3 4 5 6 
#
# 1 0.008872 -0.003853 -0.002251 0.000000 0.002312 0.000000
# 2 -0.003853 0.012739 -0.003268 0.000000 0.000574 0.000000
# 3 -0.002251 -0.003268 0.010032 0.000000 -0.001198 0.000000
# 4 0.000000 0.000000 0.000000 0.041441 0.000000 -0.012162
# 5 0.002312 0.000574 -0.001198 0.000000 0.023485 0.000000
# 6 0.000000 0.000000 0.000000 -0.012162 0.000000 0.065838
#
#
# Mechanical properties :
#
#
# Convention : Reuss Voigt Hill
#
# Bulk Modulus (GPa) = 77.51648 80.39686 78.95667
# Shear Modulus (GPa) = 26.96135 32.48445 29.72290
#
# Velocity S-wave (km/s) = 3.54864 3.89519 3.72595
# Velocity P-wave (km/s) = 7.27984 7.60138 7.44235
#
# Compressibility (1/GPa) = 0.01290048
#
# Stress axis : x y z
#
# Youngs Moduli (GPa) = 112.71335 78.49686 99.68272
#
# Poissons Ratio (x) = 0.30245 0.22437
# Poissons Ratio (y) = 0.43428 0.32572
# Poissons Ratio (z) = 0.25370 0.25649
#
# Static dielectric constant tensor:
#      x y z
#    x 3.827410 0.000000 0.089140 
#    y 0.000000 3.738680 0.000000 
#    z 0.089140 0.000000 4.007780 
# 
# 
# High freq. dielectric constant tensor:
#      x y z
#    x 1.850030 0.000000 0.003680 
#    y 0.000000 1.824230 0.000000 
#    z 0.003680 0.000000 1.857520 
# 
# From -- ./inp_files/54645.got.cif
#   From: 2010.06.25/outbox.cif.g09.slc.cpg/sg13_28_cif.got.tgz:54645.got - 2010.06.28 04:50:58.
