data_PCOD8120961
_publ_section_title
;
Structure prediction by ZEFSAII (Michael W. Deem and Ramdas Pophale) SiO2 
 PCOD8120961
Probable space group: P 2/C
;
_chemical_formula_sum "Si O2"
_cell_formula_units_Z 22
_cell_length_a 11.611195
_cell_length_b 8.934958
_cell_length_c 11.075089
_cell_angle_alpha 90.000000
_cell_angle_beta 113.561580
_cell_angle_gamma 90.000000
_cell_volume 1053.200824
_symmetry_space_group_name_H-M "P 2/C"
_symmetry_group_IT_number 13
_symmetry_cell_setting 'monoclinic'
loop_
_space_group_symop_operation_xyz
x,y,z
-x,y,1/2-z
-x,-y,-z
x,-y,1/2+z
loop_
_atom_site_type_symbol
_atom_site_label
_atom_site_fract_x
_atom_site_fract_y
_atom_site_fract_z
Si Si1 0.565066 0.193971 0.656306
Si Si2 0.159225 0.282641 0.759846
Si Si3 0.976514 0.213637 0.039019
Si Si4 0.468642 0.870295 0.612296
Si Si5 0.000000 0.545512 0.750000
Si Si6 0.824371 0.937582 0.022020
O O1 0.500000 0.257460 0.750000
O O2 0.698393 0.272060 0.722542
O O3 0.507043 0.232258 0.497474
O O4 0.564390 0.012320 0.655139
O O5 0.069673 0.270600 0.608607
O O6 0.129916 0.151222 0.841501
O O7 0.125891 0.442526 0.806341
O O8 0.002763 0.354972 0.132293
O O9 0.871007 0.108440 0.057302
O O10 0.108204 0.126015 0.071103
O O11 0.500000 0.779463 0.750000
O O12 0.325631 0.930779 0.554226
#
# Coordination Sequence:
#
# PCOD8120961 Si02
#       6
#     4   4   4   4   2   4
#     4   9  18  34  59  90 116 166 204 252 314 368
#     4  11  22  42  64  86 136 166 208 258 315 382
#     4  11  23  39  61  95 128 161 214 260 318 378
#     4   9  17  34  58  93 126 150 203 266 323 361
#     4  12  26  40  60  92 128 180 204 248 322 392
#     4  10  22  37  66  95 124 160 208 271 319 366
#
# _framework density 20.888704000000001
#
# number of rings (size 3 to 8) (size 9 to 14) (size 15 to 20)
#    0.000    1.818    1.818    2.727    5.091    0.000 
#    3.273    0.000    0.000    5.455    0.000    0.000 
#    0.000    0.000    0.000    0.000    0.000    0.000 
#
# Total GULP energy -272567.536742 kJ/mol
# GULP energy per Si atom -12389.433488 kJ/mol
# Density = 2.084116 g / cm^3
# Si number density = 20.888704 Si / 1000 Ang^3
#
#
#
# Elastic Constant Matrix: (Units=GPa)
#
#
# Indices 1 2 3 4 5 6 
#
# 1 128.9078 34.6416 43.6465 0.0000 -13.7046 0.0000
# 2 34.6416 75.1516 16.9738 0.0000 -0.1831 0.0000
# 3 43.6465 16.9738 128.7152 0.0000 -18.1589 0.0000
# 4 0.0000 0.0000 0.0000 31.2688 0.0000 -7.4631
# 5 -13.7046 -0.1831 -18.1589 0.0000 31.9464 0.0000
# 6 0.0000 0.0000 0.0000 -7.4631 0.0000 14.8148
#
#
#
# Elastic Compliance Matrix: (Units=1/GPa)
#
#
# Indices 1 2 3 4 5 6 
#
# 1 0.009976 -0.004039 -0.002446 0.000000 0.002866 0.000000
# 2 -0.004039 0.015382 -0.000968 0.000000 -0.002195 0.000000
# 3 -0.002446 -0.000968 0.009325 0.000000 0.004246 0.000000
# 4 0.000000 0.000000 0.000000 0.036351 0.000000 0.018312
# 5 0.002866 -0.002195 0.004246 0.000000 0.034933 0.000000
# 6 0.000000 0.000000 0.000000 0.018312 0.000000 0.076725
#
#
# Mechanical properties :
#
#
# Convention : Reuss Voigt Hill
#
# Bulk Modulus (GPa) = 50.56608 58.14426 54.35517
# Shear Modulus (GPa) = 24.48699 31.44017 27.96358
#
# Velocity S-wave (km/s) = 3.42754 3.88381 3.66279
# Velocity P-wave (km/s) = 6.31854 6.92875 6.63067
#
# Compressibility (1/GPa) = 0.01977610
#
# Stress axis : x y z
#
# Youngs Moduli (GPa) = 100.24377 65.01265 107.23714
#
# Poissons Ratio (x) = 0.26258 0.26227
# Poissons Ratio (y) = 0.40488 0.10385
# Poissons Ratio (z) = 0.24517 0.06296
#
# Static dielectric constant tensor:
#      x y z
#    x 4.051540 0.000000 -0.330860 
#    y 0.000000 3.450140 0.000000 
#    z -0.330860 0.000000 4.260880 
# 
# 
# High freq. dielectric constant tensor:
#      x y z
#    x 1.827960 0.000000 -0.020960 
#    y 0.000000 1.767880 0.000000 
#    z -0.020960 0.000000 1.834710 
# 
# From -- ./inp_files/32686.got.cif
#   From: 2010.06.25/outbox.cif.g09.slc.cpg/sg13_17_cif.got.tgz:32686.got - 2010.06.28 04:50:58.
