data_PCOD8120528
_publ_section_title
;
Structure prediction by ZEFSAII (Michael W. Deem and Ramdas Pophale) SiO2 
 PCOD8120528
Probable space group: P 2/C
;
_chemical_formula_sum "Si O2"
_cell_formula_units_Z 22
_cell_length_a 12.642767
_cell_length_b 11.844835
_cell_length_c 16.271684
_cell_angle_alpha 90.000000
_cell_angle_beta 153.182460
_cell_angle_gamma 90.000000
_cell_volume 1099.323094
_symmetry_space_group_name_H-M "P 2/C"
_symmetry_group_IT_number 13
_symmetry_cell_setting 'monoclinic'
loop_
_space_group_symop_operation_xyz
x,y,z
-x,y,1/2-z
-x,-y,-z
x,-y,1/2+z
loop_
_atom_site_type_symbol
_atom_site_label
_atom_site_fract_x
_atom_site_fract_y
_atom_site_fract_z
Si Si1 0.000000 0.550833 0.250000
Si Si2 0.623872 0.385978 0.912373
Si Si3 0.443174 0.944742 0.333926
Si Si4 0.402319 0.374941 0.925436
Si Si5 0.628136 0.156583 0.123806
Si Si6 0.169369 0.848357 0.001093
O O1 0.865449 0.627111 0.225526
O O2 0.186318 0.471955 0.423130
O O3 0.500000 0.448788 0.750000
O O4 0.436832 0.345085 0.852591
O O5 0.743294 0.276888 0.955964
O O6 0.458431 0.886930 0.433610
O O7 0.689128 0.935056 0.457646
O O8 0.406148 0.079625 0.319204
O O9 0.226991 0.886028 0.134881
O O10 0.500000 0.500000 0.000000
O O11 0.554966 0.287440 0.086959
O O12 0.900068 0.147100 0.288858
#
# Coordination Sequence:
#
# PCOD8120528 Si02
#       6
#     2   4   4   4   4   4
#     4  10  24  40  60  92 132 166 200 272 320 360
#     4  11  20  37  67  92 118 159 219 259 300 377
#     4  10  22  35  57  93 113 154 213 246 306 373
#     4  10  21  40  63  91 122 163 213 250 312 376
#     4  11  21  38  59  86 122 162 199 259 313 360
#     4  11  19  37  61  87 119 157 206 258 295 372
#
# _framework density 20.012314
#
# number of rings (size 3 to 8) (size 9 to 14) (size 15 to 20)
#    0.000    1.455    3.636    3.273    0.000    0.727 
#    6.545    3.636   20.000    0.000    0.000    0.000 
#    0.000    0.000    0.000    0.000    0.000    0.000 
#
# Total GULP energy -272623.032515 kJ/mol
# GULP energy per Si atom -12391.956023 kJ/mol
# Density = 1.996677 g / cm^3
# Si number density = 20.012314 Si / 1000 Ang^3
#
#
#
# Elastic Constant Matrix: (Units=GPa)
#
#
# Indices 1 2 3 4 5 6 
#
# 1 88.1670 31.2005 49.0386 0.0000 11.6589 0.0000
# 2 31.2005 109.8635 34.4836 0.0000 2.2189 0.0000
# 3 49.0386 34.4836 87.0754 0.0000 1.7872 0.0000
# 4 0.0000 0.0000 0.0000 26.4768 0.0000 -5.3129
# 5 11.6589 2.2189 1.7872 0.0000 36.2996 0.0000
# 6 0.0000 0.0000 0.0000 -5.3129 0.0000 34.8250
#
#
#
# Elastic Compliance Matrix: (Units=1/GPa)
#
#
# Indices 1 2 3 4 5 6 
#
# 1 0.017830 -0.002102 -0.009103 0.000000 -0.005150 0.000000
# 2 -0.002102 0.010649 -0.003037 0.000000 0.000174 0.000000
# 3 -0.009103 -0.003037 0.017768 0.000000 0.002235 0.000000
# 4 0.000000 0.000000 0.000000 0.038962 0.000000 0.005944
# 5 -0.005150 0.000174 0.002235 0.000000 0.029082 0.000000
# 6 0.000000 0.000000 0.000000 0.005944 0.000000 0.029622
#
#
# Mechanical properties :
#
#
# Convention : Reuss Voigt Hill
#
# Bulk Modulus (GPa) = 56.29927 57.17237 56.73582
# Shear Modulus (GPa) = 28.03973 30.87915 29.45944
#
# Velocity S-wave (km/s) = 3.74722 3.93237 3.84091
# Velocity P-wave (km/s) = 6.84950 7.01774 6.93413
#
# Compressibility (1/GPa) = 0.01776222
#
# Stress axis : x y z
#
# Youngs Moduli (GPa) = 56.08385 93.90622 56.28155
#
# Poissons Ratio (x) = 0.19743 0.51235
# Poissons Ratio (y) = 0.11791 0.17091
# Poissons Ratio (z) = 0.51055 0.28517
#
# Static dielectric constant tensor:
#      x y z
#    x 4.121870 0.000000 0.015060 
#    y 0.000000 3.830110 0.000000 
#    z 0.015060 0.000000 3.650140 
# 
# 
# High freq. dielectric constant tensor:
#      x y z
#    x 1.777190 0.000000 -0.002860 
#    y 0.000000 1.780520 0.000000 
#    z -0.002860 0.000000 1.773040 
# 
# From -- ./inp_files/51249.got.cif
#   From: 2010.06.25/outbox.cif.g09.slc.cpg/sg13_26_cif.got.tgz:51249.got - 2010.06.28 04:50:58.
