data_PCOD8120926
_publ_section_title
;
Structure prediction by ZEFSAII (Michael W. Deem and Ramdas Pophale) SiO2 
 PCOD8120926
Probable space group: P 2/C
;
_chemical_formula_sum "Si O2"
_cell_formula_units_Z 26
_cell_length_a 20.804831
_cell_length_b 8.496737
_cell_length_c 8.517338
_cell_angle_alpha 90.000000
_cell_angle_beta 124.265805
_cell_angle_gamma 90.000000
_cell_volume 1244.310232
_symmetry_space_group_name_H-M "P 2/C"
_symmetry_group_IT_number 13
_symmetry_cell_setting 'monoclinic'
loop_
_space_group_symop_operation_xyz
x,y,z
-x,y,1/2-z
-x,-y,-z
x,-y,1/2+z
loop_
_atom_site_type_symbol
_atom_site_label
_atom_site_fract_x
_atom_site_fract_y
_atom_site_fract_z
Si Si1 0.500000 0.424169 0.750000
Si Si2 0.205794 0.995347 0.535523
Si Si3 0.719570 0.809938 0.115006
Si Si4 0.833991 0.305462 0.329475
Si Si5 0.050122 0.883285 0.673133
Si Si6 0.758296 0.504393 0.976605
Si Si7 0.603621 0.368112 0.619737
O O1 0.551862 0.319924 0.700859
O O2 0.444063 0.530265 0.568933
O O3 0.273850 0.947993 0.504799
O O4 0.202552 0.854481 0.655674
O O5 0.227457 0.152456 0.659762
O O6 0.124561 0.017885 0.334911
O O7 0.748403 0.644599 0.087120
O O8 0.632096 0.787550 0.064177
O O9 0.922509 0.265983 0.395618
O O10 0.786027 0.349722 0.106785
O O11 0.826650 0.443126 0.448637
O O12 0.000000 0.819593 0.750000
O O13 0.000000 0.000000 0.500000
O O14 0.677944 0.471515 0.776093
#
# Coordination Sequence:
#
# PCOD8120926 Si02
#       7
#     2   4   4   4   4   4   4
#     4  10  22  36  62  96 134 172 198 246 312 402
#     4  11  23  40  67  95 119 164 217 262 309 373
#     4  11  22  39  65  98 125 158 214 269 306 359
#     4  11  23  40  65  96 126 160 211 267 317 366
#     4  12  23  42  65  88 124 170 210 249 315 393
#     4  11  22  39  68  99 125 155 211 283 307 346
#     4  11  20  39  62 100 125 164 207 255 312 367
#
# _framework density 20.895111
#
# number of rings (size 3 to 8) (size 9 to 14) (size 15 to 20)
#    0.000    0.923    6.154    0.923    0.000    0.000 
#    0.000    0.769    0.000    2.769    0.000    0.000 
#    0.000    0.000    0.000    0.000    0.000    0.000 
#
# Total GULP energy -322179.317963 kJ/mol
# GULP energy per Si atom -12391.512229 kJ/mol
# Density = 2.084755 g / cm^3
# Si number density = 20.895111 Si / 1000 Ang^3
#
#
#
# Elastic Constant Matrix: (Units=GPa)
#
#
# Indices 1 2 3 4 5 6 
#
# 1 204.6408 39.2914 51.5614 0.0000 -23.0788 0.0000
# 2 39.2914 36.3100 45.0491 0.0000 -0.0945 0.0000
# 3 51.5614 45.0491 121.9431 0.0000 -2.4063 0.0000
# 4 0.0000 0.0000 0.0000 31.3765 0.0000 -9.4590
# 5 -23.0788 -0.0945 -2.4063 0.0000 31.3856 0.0000
# 6 0.0000 0.0000 0.0000 -9.4590 0.0000 45.3251
#
#
#
# Elastic Compliance Matrix: (Units=1/GPa)
#
#
# Indices 1 2 3 4 5 6 
#
# 1 0.006883 -0.007288 -0.000119 0.000000 0.005030 0.000000
# 2 -0.007288 0.058613 -0.018702 0.000000 -0.006616 0.000000
# 3 -0.000119 -0.018702 0.015180 0.000000 0.001020 0.000000
# 4 0.000000 0.000000 0.000000 0.034011 0.000000 0.007098
# 5 0.005030 -0.006616 0.001020 0.000000 0.035619 0.000000
# 6 0.000000 0.000000 0.000000 0.007098 0.000000 0.023544
#
#
# Mechanical properties :
#
#
# Convention : Reuss Voigt Hill
#
# Bulk Modulus (GPa) = 35.13895 70.52195 52.83045
# Shear Modulus (GPa) = 21.22654 36.75025 28.98840
#
# Velocity S-wave (km/s) = 3.19072 4.19835 3.72873
# Velocity P-wave (km/s) = 5.51612 7.57134 6.62393
#
# Compressibility (1/GPa) = 0.02845845
#
# Stress axis : x y z
#
# Youngs Moduli (GPa) = 145.28291 17.06103 65.87582
#
# Poissons Ratio (x) = 0.12434 0.00783
# Poissons Ratio (y) = 1.05879 1.23203
# Poissons Ratio (z) = 0.01727 0.31908
#
# Static dielectric constant tensor:
#      x y z
#    x 4.596910 0.000000 -0.444150 
#    y 0.000000 3.630740 0.000000 
#    z -0.444150 0.000000 3.818950 
# 
# 
# High freq. dielectric constant tensor:
#      x y z
#    x 1.837170 0.000000 -0.036690 
#    y 0.000000 1.791080 0.000000 
#    z -0.036690 0.000000 1.821680 
# 
# From -- ./inp_files/22739.got.cif
#   From: 2010.06.25/outbox.cif.g09.slc.cpg/sg13_12_cif.got.tgz:22739.got - 2010.06.28 04:50:58.
