data_PCOD8120262
_publ_section_title
;
Structure prediction by ZEFSAII (Michael W. Deem and Ramdas Pophale) SiO2 
 PCOD8120262
Probable space group: P 2/C
;
_chemical_formula_sum "Si O2"
_cell_formula_units_Z 20
_cell_length_a 11.688622
_cell_length_b 12.118105
_cell_length_c 9.850014
_cell_angle_alpha 90.000000
_cell_angle_beta 45.307847
_cell_angle_gamma 90.000000
_cell_volume 991.838181
_symmetry_space_group_name_H-M "P 2/C"
_symmetry_group_IT_number 13
_symmetry_cell_setting 'monoclinic'
loop_
_space_group_symop_operation_xyz
x,y,z
-x,y,1/2-z
-x,-y,-z
x,-y,1/2+z
loop_
_atom_site_type_symbol
_atom_site_label
_atom_site_fract_x
_atom_site_fract_y
_atom_site_fract_z
Si Si1 0.670139 0.115983 0.760459
Si Si2 0.179102 0.288657 0.249047
Si Si3 0.703230 0.067892 0.434643
Si Si4 0.390702 0.456376 0.209685
Si Si5 0.183990 0.661879 0.435909
O O1 0.744576 0.061631 0.560494
O O2 0.720274 0.243861 0.727595
O O3 0.736225 0.049793 0.836374
O O4 0.478820 0.109867 0.924910
O O5 0.186670 0.155705 0.238586
O O6 0.310828 0.338441 0.241857
O O7 0.003340 0.326699 0.442776
O O8 0.221032 0.329619 0.063718
O O9 0.500000 0.441903 0.250000
O O10 0.244105 0.541988 0.344053
O O11 0.500000 0.500000 0.000000
#
# Coordination Sequence:
#
# PCOD8120262 Si02
#       5
#     4   4   4   4   4
#     4   9  18  34  58  84 111 153 189 234 282 337
#     4  10  21  39  59  88 118 153 191 238 291 344
#     4   9  18  35  57  83 116 147 194 234 279 340
#     4  12  23  40  63  86 113 152 198 241 284 345
#     4  10  21  38  62  84 120 155 189 235 295 347
#
# _framework density 20.164579
#
# number of rings (size 3 to 8) (size 9 to 14) (size 15 to 20)
#    0.000    2.000    2.000    1.800    2.800    0.800 
#   10.800    0.000    0.000    0.000    0.000    0.000 
#    0.000    0.000    0.000    0.000    0.000    0.000 
#
# Total GULP energy -247989.534533 kJ/mol
# GULP energy per Si atom -12399.476727 kJ/mol
# Density = 2.011868 g / cm^3
# Si number density = 20.164579 Si / 1000 Ang^3
#
#
#
# Elastic Constant Matrix: (Units=GPa)
#
#
# Indices 1 2 3 4 5 6 
#
# 1 88.6973 18.6339 28.9422 0.0000 3.3527 0.0000
# 2 18.6339 60.5693 23.9081 0.0000 -1.6972 0.0000
# 3 28.9422 23.9081 65.3662 0.0000 -4.4171 0.0000
# 4 0.0000 0.0000 0.0000 35.2024 0.0000 0.7326
# 5 3.3527 -1.6972 -4.4171 0.0000 26.1066 0.0000
# 6 0.0000 0.0000 0.0000 0.7326 0.0000 30.5812
#
#
#
# Elastic Compliance Matrix: (Units=1/GPa)
#
#
# Indices 1 2 3 4 5 6 
#
# 1 0.013599 -0.002116 -0.005437 0.000000 -0.002804 0.000000
# 2 -0.002116 0.019625 -0.006207 0.000000 0.000497 0.000000
# 3 -0.005437 -0.006207 0.020227 0.000000 0.003717 0.000000
# 4 0.000000 0.000000 0.000000 0.028421 0.000000 -0.000681
# 5 -0.002804 0.000497 0.003717 0.000000 0.039326 0.000000
# 6 0.000000 0.000000 0.000000 -0.000681 0.000000 0.032716
#
#
# Mechanical properties :
#
#
# Convention : Reuss Voigt Hill
#
# Bulk Modulus (GPa) = 38.56433 39.73345 39.14889
# Shear Modulus (GPa) = 26.30489 27.92127 27.11308
#
# Velocity S-wave (km/s) = 3.61572 3.72515 3.67084
# Velocity P-wave (km/s) = 6.04959 6.18463 6.11748
#
# Compressibility (1/GPa) = 0.02593070
#
# Stress axis : x y z
#
# Youngs Moduli (GPa) = 73.53562 50.95482 49.43840
#
# Poissons Ratio (x) = 0.10783 0.26878
# Poissons Ratio (y) = 0.15562 0.30689
# Poissons Ratio (z) = 0.39978 0.31630
#
# Static dielectric constant tensor:
#      x y z
#    x 3.554900 0.000000 0.040300 
#    y 0.000000 3.877400 0.000000 
#    z 0.040300 0.000000 3.704060 
# 
# 
# High freq. dielectric constant tensor:
#      x y z
#    x 1.773170 0.000000 -0.007880 
#    y 0.000000 1.783590 0.000000 
#    z -0.007880 0.000000 1.787670 
# 
# From -- ./inp_files/11686.got.cif
#   From: 2010.06.25/outbox.cif.g09.slc.cpg/sg13_6_cif.got.tgz:11686.got - 2010.06.28 04:50:58.
