data_PCOD8120317
_publ_section_title
;
Structure prediction by ZEFSAII (Michael W. Deem and Ramdas Pophale) SiO2 
 PCOD8120317
Probable space group: P 2/C
;
_chemical_formula_sum "Si O2"
_cell_formula_units_Z 32
_cell_length_a 6.733701
_cell_length_b 14.493496
_cell_length_c 16.570461
_cell_angle_alpha 90.000000
_cell_angle_beta 99.326137
_cell_angle_gamma 90.000000
_cell_volume 1595.815747
_symmetry_space_group_name_H-M "P 2/C"
_symmetry_group_IT_number 13
_symmetry_cell_setting 'monoclinic'
loop_
_space_group_symop_operation_xyz
x,y,z
-x,y,1/2-z
-x,-y,-z
x,-y,1/2+z
loop_
_atom_site_type_symbol
_atom_site_label
_atom_site_fract_x
_atom_site_fract_y
_atom_site_fract_z
Si Si1 0.366070 0.578878 0.666318
Si Si2 0.798848 0.102315 0.915789
Si Si3 0.869442 0.430934 0.936497
Si Si4 0.875586 0.901822 0.937862
Si Si5 0.049176 0.736637 0.664986
Si Si6 0.642401 0.328836 0.054190
Si Si7 0.966687 0.262227 0.653591
Si Si8 0.597555 0.825036 0.049619
O O1 0.500000 0.550866 0.750000
O O2 0.239045 0.488285 0.639592
O O3 0.213017 0.657527 0.682498
O O4 0.506190 0.607606 0.601457
O O5 0.560527 0.117801 0.907500
O O6 0.884683 0.178534 0.860134
O O7 0.841356 0.997915 0.887704
O O8 0.899192 0.108465 0.011422
O O9 0.999269 0.351509 0.901120
O O10 0.695577 0.385515 0.978112
O O11 0.000000 0.500000 0.000000
O O12 0.841512 0.819124 0.874299
O O13 0.726261 0.896162 0.004614
O O14 0.000000 0.774300 0.750000
O O15 0.849228 0.700233 0.609669
O O16 0.515410 0.240658 0.020479
O O17 0.738079 0.231472 0.621058
O O18 0.000000 0.286300 0.750000
#
# Coordination Sequence:
#
# PCOD8120317 Si02
#       8
#     4   4   4   4   4   4   4   4
#     4  12  26  42  65  97 129 168 217 268 333 393
#     4  10  21  41  66  98 129 171 217 269 318 382
#     4  12  25  44  68  93 125 172 220 272 325 387
#     4  10  21  38  67 100 131 166 220 266 316 387
#     4  12  23  40  64  94 135 171 204 265 329 383
#     4  12  22  42  68  92 128 168 218 264 318 390
#     4  11  26  44  65  94 135 171 215 277 333 388
#     4  11  20  40  72  93 122 174 220 260 319 390
#
# _framework density 20.052441999999999
#
# number of rings (size 3 to 8) (size 9 to 14) (size 15 to 20)
#    0.000    0.750    6.250    2.250    0.000    3.500 
#    0.000    0.000    5.500    0.000    0.000    0.000 
#    0.000    0.000    0.000    0.000    0.000    0.000 
#
# Total GULP energy -396862.915042 kJ/mol
# GULP energy per Si atom -12401.966095 kJ/mol
# Density = 2.000680 g / cm^3
# Si number density = 20.052442 Si / 1000 Ang^3
#
#
#
# Elastic Constant Matrix: (Units=GPa)
#
#
# Indices 1 2 3 4 5 6 
#
# 1 112.6339 33.2642 32.4289 0.0000 6.3740 0.0000
# 2 33.2642 102.5107 29.6750 0.0000 8.3448 0.0000
# 3 32.4289 29.6750 84.1228 0.0000 6.9100 0.0000
# 4 0.0000 0.0000 0.0000 3.3866 0.0000 3.2848
# 5 6.3740 8.3448 6.9100 0.0000 34.8158 0.0000
# 6 0.0000 0.0000 0.0000 3.2848 0.0000 30.3831
#
#
#
# Elastic Compliance Matrix: (Units=1/GPa)
#
#
# Indices 1 2 3 4 5 6 
#
# 1 0.010548 -0.002455 -0.003141 0.000000 -0.000719 0.000000
# 2 -0.002455 0.011558 -0.002989 0.000000 -0.001728 0.000000
# 3 -0.003141 -0.002989 0.014279 0.000000 -0.001543 0.000000
# 4 0.000000 0.000000 0.000000 0.329871 0.000000 -0.035663
# 5 -0.000719 -0.001728 -0.001543 0.000000 0.029575 0.000000
# 6 0.000000 0.000000 0.000000 -0.035663 0.000000 0.036769
#
#
# Mechanical properties :
#
#
# Convention : Reuss Voigt Hill
#
# Bulk Modulus (GPa) = 52.04178 54.44484 53.24331
# Shear Modulus (GPa) = 10.96072 27.31038 19.13555
#
# Velocity S-wave (km/s) = 2.34049 3.69446 3.09249
# Velocity P-wave (km/s) = 5.77174 6.73861 6.27383
#
# Compressibility (1/GPa) = 0.01921533
#
# Stress axis : x y z
#
# Youngs Moduli (GPa) = 94.80030 86.52361 70.03128
#
# Poissons Ratio (x) = 0.21242 0.21999
# Poissons Ratio (y) = 0.23274 0.20930
# Poissons Ratio (z) = 0.29779 0.25859
#
# Static dielectric constant tensor:
#      x y z
#    x 3.918940 0.000000 -0.062120 
#    y 0.000000 3.754190 0.000000 
#    z -0.062120 0.000000 3.548310 
# 
# 
# High freq. dielectric constant tensor:
#      x y z
#    x 1.796800 0.000000 -0.000140 
#    y 0.000000 1.791930 0.000000 
#    z -0.000140 0.000000 1.768280 
# 
# From -- ./inp_files/61609.got.cif
#   From: 2010.06.25/outbox.cif.g09.slc.cpg/sg13_31_cif.got.tgz:61609.got - 2010.06.28 04:50:58.
