data_PCOD8120738
_publ_section_title
;
Structure prediction by ZEFSAII (Michael W. Deem and Ramdas Pophale) SiO2 
 PCOD8120738
Probable space group: P 2/C
;
_chemical_formula_sum "Si O2"
_cell_formula_units_Z 20
_cell_length_a 11.398453
_cell_length_b 6.363721
_cell_length_c 18.653783
_cell_angle_alpha 90.000000
_cell_angle_beta 130.446453
_cell_angle_gamma 90.000000
_cell_volume 1029.712074
_symmetry_space_group_name_H-M "P 2/C"
_symmetry_group_IT_number 13
_symmetry_cell_setting 'monoclinic'
loop_
_space_group_symop_operation_xyz
x,y,z
-x,y,1/2-z
-x,-y,-z
x,-y,1/2+z
loop_
_atom_site_type_symbol
_atom_site_label
_atom_site_fract_x
_atom_site_fract_y
_atom_site_fract_z
Si Si1 0.420903 0.794361 0.145686
Si Si2 0.298401 0.412255 0.012335
Si Si3 0.868290 0.979391 0.006654
Si Si4 0.853526 0.738541 0.643421
Si Si5 0.564896 0.909901 0.596912
O O1 0.500000 0.731934 0.250000
O O2 0.553441 0.902054 0.149907
O O3 0.336030 0.587127 0.085383
O O4 0.286239 0.965372 0.098226
O O5 0.156540 0.262425 0.979784
O O6 0.236993 0.527123 0.915971
O O7 0.460810 0.294057 0.069728
O O8 0.894241 0.122214 0.088549
O O9 0.000000 0.000000 0.000000
O O10 0.743827 0.859567 0.656026
O O11 0.000000 0.679827 0.750000
O O12 0.500000 0.000000 0.500000
#
# Coordination Sequence:
#
# PCOD8120738 Si02
#       5
#     4   4   4   4   4
#     4  10  23  39  62  94 117 160 209 244 300 362
#     4  10  21  42  64  85 126 157 206 250 302 364
#     4  10  23  43  62  83 129 165 193 248 310 358
#     4  11  24  39  61  97 120 158 207 252 309 359
#     4  11  20  42  66  85 123 162 201 255 309 362
#
# _framework density 19.422905
#
# number of rings (size 3 to 8) (size 9 to 14) (size 15 to 20)
#    0.000    1.600    6.000    0.600    2.800    7.200 
#    3.600    0.000    0.000    0.000    0.000    0.000 
#    0.000    0.000    0.000    0.000    0.000    0.000 
#
# Total GULP energy -247783.452982 kJ/mol
# GULP energy per Si atom -12389.172649 kJ/mol
# Density = 1.937870 g / cm^3
# Si number density = 19.422905 Si / 1000 Ang^3
#
#
#
# Elastic Constant Matrix: (Units=GPa)
#
#
# Indices 1 2 3 4 5 6 
#
# 1 116.0284 18.7395 12.0826 0.0000 -8.8329 0.0000
# 2 18.7395 90.8510 21.8805 0.0000 -11.4334 0.0000
# 3 12.0826 21.8805 124.8010 0.0000 -1.3872 0.0000
# 4 0.0000 0.0000 0.0000 8.7137 0.0000 4.7918
# 5 -8.8329 -11.4334 -1.3872 0.0000 21.7848 0.0000
# 6 0.0000 0.0000 0.0000 4.7918 0.0000 24.3288
#
#
#
# Elastic Compliance Matrix: (Units=1/GPa)
#
#
# Indices 1 2 3 4 5 6 
#
# 1 0.009127 -0.001365 -0.000612 0.000000 0.002945 0.000000
# 2 -0.001365 0.012510 -0.001996 0.000000 0.005885 0.000000
# 3 -0.000612 -0.001996 0.008413 0.000000 -0.000760 0.000000
# 4 0.000000 0.000000 0.000000 0.128702 0.000000 -0.025349
# 5 0.002945 0.005885 -0.000760 0.000000 0.050138 0.000000
# 6 0.000000 0.000000 0.000000 -0.025349 0.000000 0.046096
#
#
# Mechanical properties :
#
#
# Convention : Reuss Voigt Hill
#
# Bulk Modulus (GPa) = 45.23611 48.56504 46.90058
# Shear Modulus (GPa) = 18.49802 29.56397 24.03100
#
# Velocity S-wave (km/s) = 3.08942 3.90567 3.52127
# Velocity P-wave (km/s) = 6.00555 6.73775 6.38216
#
# Compressibility (1/GPa) = 0.02210623
#
# Stress axis : x y z
#
# Youngs Moduli (GPa) = 109.56628 79.93740 118.85766
#
# Poissons Ratio (x) = 0.10908 0.07270
# Poissons Ratio (y) = 0.14951 0.23721
# Poissons Ratio (z) = 0.06701 0.15953
#
# Static dielectric constant tensor:
#      x y z
#    x 3.379120 0.000000 -0.068280 
#    y 0.000000 3.607480 0.000000 
#    z -0.068280 0.000000 3.368510 
# 
# 
# High freq. dielectric constant tensor:
#      x y z
#    x 1.755490 0.000000 0.000940 
#    y 0.000000 1.768100 0.000000 
#    z 0.000940 0.000000 1.746570 
# 
# From -- ./inp_files/65153.got.cif
#   From: 2010.06.25/outbox.cif.g09.slc.cpg/sg13_33_cif.got.tgz:65153.got - 2010.06.28 04:50:58.
