data_PCOD8120629
_publ_section_title
;
Structure prediction by ZEFSAII (Michael W. Deem and Ramdas Pophale) SiO2 
 PCOD8120629
Probable space group: P 2/C
;
_chemical_formula_sum "Si O2"
_cell_formula_units_Z 18
_cell_length_a 5.170298
_cell_length_b 9.641948
_cell_length_c 17.060220
_cell_angle_alpha 90.000000
_cell_angle_beta 70.092805
_cell_angle_gamma 90.000000
_cell_volume 799.661512
_symmetry_space_group_name_H-M "P 2/C"
_symmetry_group_IT_number 13
_symmetry_cell_setting 'monoclinic'
loop_
_space_group_symop_operation_xyz
x,y,z
-x,y,1/2-z
-x,-y,-z
x,-y,1/2+z
loop_
_atom_site_type_symbol
_atom_site_label
_atom_site_fract_x
_atom_site_fract_y
_atom_site_fract_z
Si Si1 0.500000 0.697951 0.250000
Si Si2 0.787148 0.096131 0.624646
Si Si3 0.000000 0.514251 0.250000
Si Si4 0.219965 0.177286 0.462806
Si Si5 0.791397 0.722227 0.879142
Si Si6 0.000000 0.057693 0.250000
O O1 0.448584 0.789648 0.334497
O O2 0.768906 0.606463 0.233934
O O3 0.061828 0.167606 0.561479
O O4 0.843984 0.037127 0.704773
O O5 0.688056 0.977748 0.574140
O O6 0.854404 0.423984 0.332617
O O7 0.487104 0.274180 0.448911
O O8 0.024134 0.246910 0.418656
O O9 0.778937 0.842494 0.814762
#
# Coordination Sequence:
#
# PCOD8120629 Si02
#       6
#     2   4   2   4   4   2
#     4  12  24  40  60  88 122 158 196 248 296 356
#     4  10  22  38  62  96 125 152 191 246 317 359
#     4  11  25  42  62  84 119 165 212 244 280 347
#     4  10  22  39  65  92 122 152 193 253 303 359
#     4  10  21  41  62  86 116 162 209 243 286 346
#     4   9  19  36  64  90 119 155 196 248 298 361
#
# _framework density 22.509525
#
# number of rings (size 3 to 8) (size 9 to 14) (size 15 to 20)
#    0.000    1.778    0.000    3.333    0.000   19.556 
#    0.000    6.667    0.000    0.000    0.000    0.000 
#    0.000    0.000    0.000    0.000    0.000    0.000 
#
# Total GULP energy -223206.411188 kJ/mol
# GULP energy per Si atom -12400.356177 kJ/mol
# Density = 2.245829 g / cm^3
# Si number density = 22.509525 Si / 1000 Ang^3
#
#
#
# Elastic Constant Matrix: (Units=GPa)
#
#
# Indices 1 2 3 4 5 6 
#
# 1 97.5910 37.6923 25.0989 0.0000 -29.1581 0.0000
# 2 37.6923 97.8639 53.7494 0.0000 -16.9071 0.0000
# 3 25.0989 53.7494 71.8367 0.0000 -21.7635 0.0000
# 4 0.0000 0.0000 0.0000 11.3859 0.0000 -5.7123
# 5 -29.1581 -16.9071 -21.7635 0.0000 39.8494 0.0000
# 6 0.0000 0.0000 0.0000 -5.7123 0.0000 17.3064
#
#
#
# Elastic Compliance Matrix: (Units=1/GPa)
#
#
# Indices 1 2 3 4 5 6 
#
# 1 0.014512 -0.004660 0.001240 0.000000 0.009318 0.000000
# 2 -0.004660 0.018847 -0.013281 0.000000 -0.002667 0.000000
# 3 0.001240 -0.013281 0.026353 0.000000 0.009664 0.000000
# 4 0.000000 0.000000 0.000000 0.105259 0.000000 0.034743
# 5 0.009318 -0.002667 0.009664 0.000000 0.036059 0.000000
# 6 0.000000 0.000000 0.000000 0.034743 0.000000 0.069250
#
#
# Mechanical properties :
#
#
# Convention : Reuss Voigt Hill
#
# Bulk Modulus (GPa) = 38.01199 55.59698 46.80448
# Shear Modulus (GPa) = 16.00245 23.75840 19.88042
#
# Velocity S-wave (km/s) = 2.66920 3.25234 2.97509
# Velocity P-wave (km/s) = 5.14035 6.23350 5.71313
#
# Compressibility (1/GPa) = 0.02630749
#
# Stress axis : x y z
#
# Youngs Moduli (GPa) = 68.90803 53.05923 37.94699
#
# Poissons Ratio (x) = 0.24727 -0.04704
# Poissons Ratio (y) = 0.32113 0.50399
# Poissons Ratio (z) = -0.08542 0.70470
#
# Static dielectric constant tensor:
#      x y z
#    x 3.617920 0.000000 -0.225420 
#    y 0.000000 4.096860 0.000000 
#    z -0.225420 0.000000 4.270740 
# 
# 
# High freq. dielectric constant tensor:
#      x y z
#    x 1.877180 0.000000 -0.017440 
#    y 0.000000 1.876270 0.000000 
#    z -0.017440 0.000000 1.899300 
# 
# From -- ./inp_files/60231.got.cif
#   From: 2010.06.25/outbox.cif.g09.slc.cpg/sg13_31_cif.got.tgz:60231.got - 2010.06.28 04:50:58.
