data_PCOD8120833
_publ_section_title
;
Structure prediction by ZEFSAII (Michael W. Deem and Ramdas Pophale) SiO2 
 PCOD8120833
Probable space group: P 2/C
;
_chemical_formula_sum "Si O2"
_cell_formula_units_Z 22
_cell_length_a 8.824352
_cell_length_b 7.846779
_cell_length_c 20.148168
_cell_angle_alpha 90.000000
_cell_angle_beta 132.742009
_cell_angle_gamma 90.000000
_cell_volume 1024.595944
_symmetry_space_group_name_H-M "P 2/C"
_symmetry_group_IT_number 13
_symmetry_cell_setting 'monoclinic'
loop_
_space_group_symop_operation_xyz
x,y,z
-x,y,1/2-z
-x,-y,-z
x,-y,1/2+z
loop_
_atom_site_type_symbol
_atom_site_label
_atom_site_fract_x
_atom_site_fract_y
_atom_site_fract_z
Si Si1 0.264513 0.537378 0.920179
Si Si2 0.168569 0.937610 0.102339
Si Si3 0.205112 0.598829 0.041207
Si Si4 0.948418 0.254219 0.808045
Si Si5 0.500000 0.185330 0.250000
Si Si6 0.640151 0.551880 0.692734
O O1 0.238347 0.614561 0.838157
O O2 0.143740 0.359915 0.891706
O O3 0.500000 0.500000 0.000000
O O4 0.186893 0.657198 0.957839
O O5 0.252760 0.758650 0.101123
O O6 0.083296 0.905287 0.151650
O O7 0.356568 0.070391 0.160095
O O8 0.000000 0.000000 0.000000
O O9 0.397916 0.472749 0.106919
O O10 0.000000 0.500000 0.000000
O O11 0.747352 0.377627 0.749126
O O12 0.000000 0.181718 0.750000
O O13 0.344420 0.300968 0.247597
#
# Coordination Sequence:
#
# PCOD8120833 Si02
#       6
#     4   4   4   4   2   4
#     4   9  20  37  69  96 118 157 231 275 312 374
#     4  12  26  40  62  98 140 172 210 272 341 395
#     4  11  20  40  69  92 124 173 229 267 313 394
#     4  10  21  43  68  93 127 175 229 272 321 388
#     4  12  26  42  60 102 138 172 216 268 344 402
#     4  10  22  41  69  92 126 171 225 275 316 389
#
# _framework density 21.471879000000001
#
# number of rings (size 3 to 8) (size 9 to 14) (size 15 to 20)
#    0.000    1.455    1.818    3.273    5.091    0.000 
#    3.273    0.909    0.000    0.000    0.000    0.000 
#    0.000    0.000    0.000    0.000    0.000    0.000 
#
# Total GULP energy -272668.390318 kJ/mol
# GULP energy per Si atom -12394.017742 kJ/mol
# Density = 2.142301 g / cm^3
# Si number density = 21.471879 Si / 1000 Ang^3
#
#
#
# Elastic Constant Matrix: (Units=GPa)
#
#
# Indices 1 2 3 4 5 6 
#
# 1 140.0778 45.6333 48.6733 0.0000 -25.6721 0.0000
# 2 45.6333 72.2772 27.3940 0.0000 -14.4383 0.0000
# 3 48.6733 27.3940 111.6710 0.0000 1.3088 0.0000
# 4 0.0000 0.0000 0.0000 40.8436 0.0000 -9.6402
# 5 -25.6721 -14.4383 1.3088 0.0000 54.1037 0.0000
# 6 0.0000 0.0000 0.0000 -9.6402 0.0000 24.1017
#
#
#
# Elastic Compliance Matrix: (Units=1/GPa)
#
#
# Indices 1 2 3 4 5 6 
#
# 1 0.010561 -0.004554 -0.003531 0.000000 0.003881 0.000000
# 2 -0.004554 0.018216 -0.002516 0.000000 0.002761 0.000000
# 3 -0.003531 -0.002516 0.011142 0.000000 -0.002617 0.000000
# 4 0.000000 0.000000 0.000000 0.027036 0.000000 0.010814
# 5 0.003881 0.002761 -0.002617 0.000000 0.021125 0.000000
# 6 0.000000 0.000000 0.000000 0.010814 0.000000 0.045816
#
#
# Mechanical properties :
#
#
# Convention : Reuss Voigt Hill
#
# Bulk Modulus (GPa) = 53.43024 63.04746 58.23885
# Shear Modulus (GPa) = 30.99096 37.29816 34.14456
#
# Velocity S-wave (km/s) = 3.80324 4.17234 3.99206
# Velocity P-wave (km/s) = 6.65011 7.25519 6.95923
#
# Compressibility (1/GPa) = 0.01871599
#
# Stress axis : x y z
#
# Youngs Moduli (GPa) = 94.68956 54.89670 89.75064
#
# Poissons Ratio (x) = 0.25000 0.31695
# Poissons Ratio (y) = 0.43121 0.22582
# Poissons Ratio (z) = 0.33439 0.13812
#
# Static dielectric constant tensor:
#      x y z
#    x 4.715370 0.000000 -0.622680 
#    y 0.000000 3.495380 0.000000 
#    z -0.622680 0.000000 4.722110 
# 
# 
# High freq. dielectric constant tensor:
#      x y z
#    x 1.864250 0.000000 -0.009770 
#    y 0.000000 1.795880 0.000000 
#    z -0.009770 0.000000 1.864250 
# 
# From -- ./inp_files/75868.got.cif
#   From: 2010.06.25/outbox.cif.g09.slc.cpg/sg13_38_cif.got.tgz:75868.got - 2010.06.28 04:50:58.
