data_PCOD8120686
_publ_section_title
;
Structure prediction by ZEFSAII (Michael W. Deem and Ramdas Pophale) SiO2 
 PCOD8120686
Probable space group: P 2/C
;
_chemical_formula_sum "Si O2"
_cell_formula_units_Z 18
_cell_length_a 7.078890
_cell_length_b 6.890419
_cell_length_c 16.698147
_cell_angle_alpha 90.000000
_cell_angle_beta 83.877339
_cell_angle_gamma 90.000000
_cell_volume 809.831559
_symmetry_space_group_name_H-M "P 2/C"
_symmetry_group_IT_number 13
_symmetry_cell_setting 'monoclinic'
loop_
_space_group_symop_operation_xyz
x,y,z
-x,y,1/2-z
-x,-y,-z
x,-y,1/2+z
loop_
_atom_site_type_symbol
_atom_site_label
_atom_site_fract_x
_atom_site_fract_y
_atom_site_fract_z
Si Si1 0.716487 0.675919 0.933879
Si Si2 0.057017 0.515398 0.833410
Si Si3 0.578563 0.370802 0.611433
Si Si4 0.614526 0.989790 0.815054
Si Si5 0.000000 0.849930 0.250000
O O1 0.603597 0.490059 0.907705
O O2 0.938707 0.632403 0.905818
O O3 0.635438 0.867827 0.895041
O O4 0.696048 0.706119 0.029369
O O5 0.282793 0.513383 0.843190
O O6 0.000000 0.612877 0.750000
O O7 0.004762 0.285770 0.829743
O O8 0.500202 0.189402 0.664635
O O9 0.500000 0.876580 0.750000
O O10 0.818348 0.016612 0.765665
#
# Coordination Sequence:
#
# PCOD8120686 Si02
#       5
#     4   4   4   4   2
#     4  11  26  39  69  98 129 171 222 267 335 395
#     4  10  21  41  67  91 130 171 209 267 321 384
#     4  11  23  47  63  95 135 171 212 279 331 388
#     4  12  24  41  67  96 130 175 222 272 326 391
#     4  10  22  38  64  90 126 164 216 270 316 376
#
# _framework density 22.226845000000001
#
# number of rings (size 3 to 8) (size 9 to 14) (size 15 to 20)
#    0.667    0.444    4.444    1.333    4.667    0.000 
#    0.000    1.111    0.000    0.000    0.000    0.000 
#    0.000    0.000    0.000    0.000    0.000    0.000 
#
# Total GULP energy -223103.067830 kJ/mol
# GULP energy per Si atom -12394.614879 kJ/mol
# Density = 2.217626 g / cm^3
# Si number density = 22.226845 Si / 1000 Ang^3
#
#
#
# Elastic Constant Matrix: (Units=GPa)
#
#
# Indices 1 2 3 4 5 6 
#
# 1 109.2684 16.6348 39.5232 0.0000 -11.8663 0.0000
# 2 16.6348 50.0146 17.4758 0.0000 -8.3598 0.0000
# 3 39.5232 17.4758 97.4751 0.0000 -6.1689 0.0000
# 4 0.0000 0.0000 0.0000 23.6052 0.0000 1.5402
# 5 -11.8663 -8.3598 -6.1689 0.0000 38.2092 0.0000
# 6 0.0000 0.0000 0.0000 1.5402 0.0000 16.9144
#
#
#
# Elastic Compliance Matrix: (Units=1/GPa)
#
#
# Indices 1 2 3 4 5 6 
#
# 1 0.011160 -0.001902 -0.004032 0.000000 0.002399 0.000000
# 2 -0.001902 0.022307 -0.002987 0.000000 0.003808 0.000000
# 3 -0.004032 -0.002987 0.012436 0.000000 0.000102 0.000000
# 4 0.000000 0.000000 0.000000 0.042617 0.000000 -0.003881
# 5 0.002399 0.003808 0.000102 0.000000 0.027766 0.000000
# 6 0.000000 0.000000 0.000000 -0.003881 0.000000 0.059475
#
#
# Mechanical properties :
#
#
# Convention : Reuss Voigt Hill
#
# Bulk Modulus (GPa) = 35.63748 44.89176 40.26462
# Shear Modulus (GPa) = 24.63569 27.95404 26.29487
#
# Velocity S-wave (km/s) = 3.33284 3.55021 3.44324
# Velocity P-wave (km/s) = 5.55687 6.08657 5.82774
#
# Compressibility (1/GPa) = 0.02806035
#
# Stress axis : x y z
#
# Youngs Moduli (GPa) = 89.60271 44.82903 80.41149
#
# Poissons Ratio (x) = 0.08526 0.32425
# Poissons Ratio (y) = 0.17042 0.24020
# Poissons Ratio (z) = 0.36131 0.13391
#
# Static dielectric constant tensor:
#      x y z
#    x 4.050680 0.000000 0.053260 
#    y 0.000000 3.672500 0.000000 
#    z 0.053260 0.000000 4.011850 
# 
# 
# High freq. dielectric constant tensor:
#      x y z
#    x 1.886930 0.000000 -0.000410 
#    y 0.000000 1.852870 0.000000 
#    z -0.000410 0.000000 1.869920 
# 
# From -- ./inp_files/60655.got.cif
#   From: 2010.06.25/outbox.cif.g09.slc.cpg/sg13_31_cif.got.tgz:60655.got - 2010.06.28 04:50:58.
