data_PCOD8120251
_publ_section_title
;
Structure prediction by ZEFSAII (Michael W. Deem and Ramdas Pophale) SiO2 
 PCOD8120251
Probable space group: P 2/C
;
_chemical_formula_sum "Si O2"
_cell_formula_units_Z 20
_cell_length_a 9.438180
_cell_length_b 20.546249
_cell_length_c 5.222452
_cell_angle_alpha 90.000000
_cell_angle_beta 84.039054
_cell_angle_gamma 90.000000
_cell_volume 1007.257756
_symmetry_space_group_name_H-M "P 2/C"
_symmetry_group_IT_number 13
_symmetry_cell_setting 'monoclinic'
loop_
_space_group_symop_operation_xyz
x,y,z
-x,y,1/2-z
-x,-y,-z
x,-y,1/2+z
loop_
_atom_site_type_symbol
_atom_site_label
_atom_site_fract_x
_atom_site_fract_y
_atom_site_fract_z
Si Si1 0.500000 0.258275 0.750000
Si Si2 0.500000 0.956325 0.250000
Si Si3 0.164880 0.790850 0.746760
Si Si4 0.705109 0.842676 0.304960
Si Si5 0.837161 0.541096 0.765682
Si Si6 0.342144 0.330212 0.166040
O O1 0.420437 0.207184 0.574479
O O2 0.626799 0.303984 0.623884
O O3 0.642565 0.913318 0.252474
O O4 0.500000 0.000000 0.500000
O O5 0.223054 0.817884 0.469054
O O6 0.239542 0.722688 0.818330
O O7 0.000000 0.775626 0.750000
O O8 0.187132 0.843465 0.973045
O O9 0.805976 0.511036 0.493611
O O10 0.731310 0.600375 0.827053
O O11 0.000000 0.565637 0.750000
O O12 0.500000 0.334954 0.250000
#
# Coordination Sequence:
#
# PCOD8120251 Si02
#       6
#     2   2   4   4   4   4
#     4   9  20  36  56  90 120 149 184 254 314 345
#     4  11  22  38  66  96 124 163 210 246 288 347
#     4  11  22  38  62  91 122 161 197 243 309 365
#     4  10  21  38  61  88 128 155 198 249 294 348
#     4  10  24  43  59  79 113 158 202 244 295 363
#     4  11  22  37  61  87 120 149 198 252 306 357
#
# _framework density 19.855891
#
# number of rings (size 3 to 8) (size 9 to 14) (size 15 to 20)
#    0.000    1.600    2.000    2.400    2.800    0.800 
#    0.000    4.000    0.000   12.000    0.000    0.000 
#    0.000    0.000    0.000    0.000    0.000    0.000 
#
# Total GULP energy -247779.027555 kJ/mol
# GULP energy per Si atom -12388.951378 kJ/mol
# Density = 1.981070 g / cm^3
# Si number density = 19.855891 Si / 1000 Ang^3
#
#
#
# Elastic Constant Matrix: (Units=GPa)
#
#
# Indices 1 2 3 4 5 6 
#
# 1 132.7207 79.1952 39.1634 0.0000 6.9013 0.0000
# 2 79.1952 116.1580 39.4848 0.0000 -6.4559 0.0000
# 3 39.1634 39.4848 107.5321 0.0000 5.2291 0.0000
# 4 0.0000 0.0000 0.0000 24.1895 0.0000 -2.9389
# 5 6.9013 -6.4559 5.2291 0.0000 29.3149 0.0000
# 6 0.0000 0.0000 0.0000 -2.9389 0.0000 8.2013
#
#
#
# Elastic Compliance Matrix: (Units=1/GPa)
#
#
# Indices 1 2 3 4 5 6 
#
# 1 0.013630 -0.009099 -0.001381 0.000000 -0.004966 0.000000
# 2 -0.009099 0.016151 -0.002919 0.000000 0.006220 0.000000
# 3 -0.001381 -0.002919 0.010985 0.000000 -0.002277 0.000000
# 4 0.000000 0.000000 0.000000 0.043222 0.000000 0.015488
# 5 -0.004966 0.006220 -0.002277 0.000000 0.037057 0.000000
# 6 0.000000 0.000000 0.000000 0.015488 0.000000 0.127483
#
#
# Mechanical properties :
#
#
# Convention : Reuss Voigt Hill
#
# Bulk Modulus (GPa) = 71.59842 74.67748 73.13795
# Shear Modulus (GPa) = 17.85827 25.57898 21.71862
#
# Velocity S-wave (km/s) = 3.00224 3.59309 3.31087
# Velocity P-wave (km/s) = 6.93940 7.40980 7.17845
#
# Compressibility (1/GPa) = 0.01396679
#
# Stress axis : x y z
#
# Youngs Moduli (GPa) = 73.36723 61.91733 91.03189
#
# Poissons Ratio (x) = 0.56340 0.12575
# Poissons Ratio (y) = 0.66759 0.26571
# Poissons Ratio (z) = 0.10135 0.18073
#
# Static dielectric constant tensor:
#      x y z
#    x 4.401160 0.000000 -0.604210 
#    y 0.000000 3.505150 0.000000 
#    z -0.604210 0.000000 4.253750 
# 
# 
# High freq. dielectric constant tensor:
#      x y z
#    x 1.777590 0.000000 0.004160 
#    y 0.000000 1.763730 0.000000 
#    z 0.004160 0.000000 1.780930 
# 
# From -- ./inp_files/1615.got.cif
#   From: 2010.06.25/outbox.cif.g09.slc.cpg/sg13_1_cif.got.tgz:1615.got - 2010.06.28 04:50:58.
