data_PCOD8120859
_publ_section_title
;
Structure prediction by ZEFSAII (Michael W. Deem and Ramdas Pophale) SiO2 
 PCOD8120859
Probable space group: P 2/C
;
_chemical_formula_sum "Si O2"
_cell_formula_units_Z 32
_cell_length_a 14.012440
_cell_length_b 9.152895
_cell_length_c 21.372104
_cell_angle_alpha 90.000000
_cell_angle_beta 146.915010
_cell_angle_gamma 90.000000
_cell_volume 1496.300023
_symmetry_space_group_name_H-M "P 2/C"
_symmetry_group_IT_number 13
_symmetry_cell_setting 'monoclinic'
loop_
_space_group_symop_operation_xyz
x,y,z
-x,y,1/2-z
-x,-y,-z
x,-y,1/2+z
loop_
_atom_site_type_symbol
_atom_site_label
_atom_site_fract_x
_atom_site_fract_y
_atom_site_fract_z
Si Si1 0.600609 0.808867 0.957475
Si Si2 0.982736 0.672153 0.497501
Si Si3 0.357752 0.157097 0.720627
Si Si4 0.926662 0.277799 0.109814
Si Si5 0.185632 0.453823 0.873883
Si Si6 0.314505 0.844143 0.634797
Si Si7 0.399635 0.877264 0.028639
Si Si8 0.301981 0.696528 0.859986
O O1 0.670314 0.872477 0.930521
O O2 0.408364 0.728652 0.854028
O O3 0.591960 0.957310 0.993004
O O4 0.730702 0.692215 0.056135
O O5 0.151938 0.741784 0.558603
O O6 0.000000 0.500000 0.500000
O O7 0.808964 0.735275 0.368792
O O8 0.984428 0.711914 0.570576
O O9 0.500000 0.221585 0.750000
O O10 0.440032 0.152473 0.835225
O O11 0.300195 0.995292 0.665805
O O12 0.832599 0.426400 0.080999
O O13 0.102437 0.245149 0.246551
O O14 0.788040 0.147893 0.040556
O O15 0.292062 0.524811 0.873524
O O16 0.000000 0.398568 0.750000
O O17 0.500000 0.763374 0.750000
O O18 0.413174 0.774431 0.975711
#
# Coordination Sequence:
#
# PCOD8120859 Si02
#       8
#     4   4   4   4   4   4   4   4
#     4  12  21  40  62  96 126 159 225 263 311 383
#     4  12  25  42  67 102 128 172 227 267 327 398
#     4  11  22  46  67  94 134 172 210 271 340 384
#     4  10  21  44  66  88 133 172 214 263 327 392
#     4   9  21  40  61  87 129 171 205 264 332 375
#     4  11  23  43  65  93 131 175 211 268 329 383
#     4  11  22  42  68  95 127 169 215 269 325 393
#     4  10  23  42  65  92 128 175 214 262 330 384
#
# _framework density 21.386085000000001
#
# number of rings (size 3 to 8) (size 9 to 14) (size 15 to 20)
#    0.000    1.250    3.750    3.750    0.000    1.500 
#   15.750    0.000    0.000    0.000    0.000    0.000 
#    0.000    0.000    0.000    0.000    0.000    0.000 
#
# Total GULP energy -396571.617093 kJ/mol
# GULP energy per Si atom -12392.863034 kJ/mol
# Density = 2.133741 g / cm^3
# Si number density = 21.386085 Si / 1000 Ang^3
#
#
#
# Elastic Constant Matrix: (Units=GPa)
#
#
# Indices 1 2 3 4 5 6 
#
# 1 70.7053 19.8864 32.3416 0.0000 13.3749 0.0000
# 2 19.8864 111.1491 80.5543 0.0000 7.9357 0.0000
# 3 32.3416 80.5543 147.5057 0.0000 13.3488 0.0000
# 4 0.0000 0.0000 0.0000 39.0607 0.0000 -7.7492
# 5 13.3749 7.9357 13.3488 0.0000 34.9852 0.0000
# 6 0.0000 0.0000 0.0000 -7.7492 0.0000 28.3607
#
#
#
# Elastic Compliance Matrix: (Units=1/GPa)
#
#
# Indices 1 2 3 4 5 6 
#
# 1 0.016578 -0.000500 -0.002899 0.000000 -0.005118 0.000000
# 2 -0.000500 0.014908 -0.008020 0.000000 -0.000130 0.000000
# 3 -0.002899 -0.008020 0.011942 0.000000 -0.001629 0.000000
# 4 0.000000 0.000000 0.000000 0.027068 0.000000 0.007396
# 5 -0.005118 -0.000130 -0.001629 0.000000 0.031192 0.000000
# 6 0.000000 0.000000 0.000000 0.007396 0.000000 0.037281
#
#
# Mechanical properties :
#
#
# Convention : Reuss Voigt Hill
#
# Bulk Modulus (GPa) = 48.56466 66.10275 57.33371
# Shear Modulus (GPa) = 29.64366 33.58650 31.61508
#
# Velocity S-wave (km/s) = 3.72710 3.96723 3.84904
# Velocity P-wave (km/s) = 6.42492 7.20844 6.82793
#
# Compressibility (1/GPa) = 0.02059110
#
# Stress axis : x y z
#
# Youngs Moduli (GPa) = 60.32133 67.07736 83.73635
#
# Poissons Ratio (x) = 0.03353 0.24272
# Poissons Ratio (y) = 0.03015 0.67157
# Poissons Ratio (z) = 0.17485 0.53797
#
# Static dielectric constant tensor:
#      x y z
#    x 4.295370 0.000000 -0.069700 
#    y 0.000000 3.738940 0.000000 
#    z -0.069700 0.000000 2.392720 
# 
# 
# High freq. dielectric constant tensor:
#      x y z
#    x 1.847170 0.000000 0.006860 
#    y 0.000000 1.828740 0.000000 
#    z 0.006860 0.000000 1.844280 
# 
# From -- ./inp_files/87417.got.cif
#   From: 2010.06.25/outbox.cif.g09.slc.cpg/sg13_44_cif.got.tgz:87417.got - 2010.06.28 04:50:58.
