data_PCOD8120435
_publ_section_title
;
Structure prediction by ZEFSAII (Michael W. Deem and Ramdas Pophale) SiO2 
 PCOD8120435
Probable space group: P 2/C
;
_chemical_formula_sum "Si O2"
_cell_formula_units_Z 30
_cell_length_a 11.350507
_cell_length_b 14.380196
_cell_length_c 10.793138
_cell_angle_alpha 90.000000
_cell_angle_beta 131.957291
_cell_angle_gamma 90.000000
_cell_volume 1310.064030
_symmetry_space_group_name_H-M "P 2/C"
_symmetry_group_IT_number 13
_symmetry_cell_setting 'monoclinic'
loop_
_space_group_symop_operation_xyz
x,y,z
-x,y,1/2-z
-x,-y,-z
x,-y,1/2+z
loop_
_atom_site_type_symbol
_atom_site_label
_atom_site_fract_x
_atom_site_fract_y
_atom_site_fract_z
Si Si1 0.920787 0.635940 0.897494
Si Si2 0.892531 0.913537 0.557008
Si Si3 0.160790 0.254212 0.923061
Si Si4 0.436558 0.334229 0.966976
Si Si5 0.500000 0.560587 0.750000
Si Si6 0.193212 0.097209 0.118950
Si Si7 0.762936 0.545474 0.344845
Si Si8 0.723839 0.215286 0.110924
O O1 0.850680 0.532996 0.823358
O O2 0.857810 0.712953 0.756768
O O3 0.874935 0.662491 0.006040
O O4 0.112677 0.623113 0.018635
O O5 0.783488 0.826012 0.521085
O O6 0.000000 0.948304 0.750000
O O7 0.009288 0.883668 0.527859
O O8 0.781854 0.994557 0.420423
O O9 0.277622 0.283270 0.896773
O O10 0.000000 0.218674 0.750000
O O11 0.243844 0.168048 0.048164
O O12 0.381803 0.413982 0.836535
O O13 0.530770 0.374585 0.151732
O O14 0.555372 0.265188 0.977680
O O15 0.337906 0.501597 0.613989
O O16 0.297370 0.125021 0.312818
#
# Coordination Sequence:
#
# PCOD8120435 Si02
#       8
#     4   4   4   4   2   4   4   4
#     4  10  21  40  62  94 129 169 230 275 314 386
#     4   9  18  38  64  97 127 159 210 264 326 392
#     4  11  20  38  64  88 123 166 215 264 317 391
#     4  12  23  41  63  92 132 175 215 266 332 388
#     4  12  22  40  60  86 130 174 226 264 322 384
#     4   9  19  36  65  95 123 162 209 261 322 390
#     4  11  23  40  61  91 130 180 226 266 325 382
#     4  10  21  39  65  99 132 164 213 268 332 393
#
# _framework density 22.899643000000001
#
# number of rings (size 3 to 8) (size 9 to 14) (size 15 to 20)
#    0.000    1.600    4.000    1.600    0.000    0.000 
#    9.600    0.667    0.000    3.200    3.467    0.000 
#    0.000    0.000    0.000    0.000    0.000    0.000 
#
# Total GULP energy -371837.719834 kJ/mol
# GULP energy per Si atom -12394.590661 kJ/mol
# Density = 2.284752 g / cm^3
# Si number density = 22.899643 Si / 1000 Ang^3
#
#
#
# Elastic Constant Matrix: (Units=GPa)
#
#
# Indices 1 2 3 4 5 6 
#
# 1 96.6311 40.1878 14.5745 0.0000 12.7777 0.0000
# 2 40.1878 105.2796 27.6343 0.0000 4.4090 0.0000
# 3 14.5745 27.6343 54.8091 0.0000 12.1650 0.0000
# 4 0.0000 0.0000 0.0000 32.3472 0.0000 -0.6850
# 5 12.7777 4.4090 12.1650 0.0000 30.9721 0.0000
# 6 0.0000 0.0000 0.0000 -0.6850 0.0000 41.2236
#
#
#
# Elastic Compliance Matrix: (Units=1/GPa)
#
#
# Indices 1 2 3 4 5 6 
#
# 1 0.012938 -0.004739 -0.000018 0.000000 -0.004656 0.000000
# 2 -0.004739 0.012696 -0.005668 0.000000 0.002374 0.000000
# 3 -0.000018 -0.005668 0.022925 0.000000 -0.008190 0.000000
# 4 0.000000 0.000000 0.000000 0.030925 0.000000 0.000514
# 5 -0.004656 0.002374 -0.008190 0.000000 0.037087 0.000000
# 6 0.000000 0.000000 0.000000 0.000514 0.000000 0.024267
#
#
# Mechanical properties :
#
#
# Convention : Reuss Voigt Hill
#
# Bulk Modulus (GPa) = 36.08787 46.83476 41.46132
# Shear Modulus (GPa) = 29.25278 32.53012 30.89145
#
# Velocity S-wave (km/s) = 3.57800 3.77311 3.67685
# Velocity P-wave (km/s) = 5.73261 6.28318 6.01420
#
# Compressibility (1/GPa) = 0.02771014
#
# Stress axis : x y z
#
# Youngs Moduli (GPa) = 77.29222 78.76582 43.61978
#
# Poissons Ratio (x) = 0.37328 0.00076
# Poissons Ratio (y) = 0.36630 0.24723
# Poissons Ratio (z) = 0.00135 0.44643
#
# Static dielectric constant tensor:
#      x y z
#    x 4.075560 0.000000 0.022550 
#    y 0.000000 4.192440 0.000000 
#    z 0.022550 0.000000 3.779870 
# 
# 
# High freq. dielectric constant tensor:
#      x y z
#    x 1.902240 0.000000 0.001320 
#    y 0.000000 1.901310 0.000000 
#    z 0.001320 0.000000 1.871910 
# 
# From -- ./inp_files/34601.got.cif
#   From: 2010.06.25/outbox.cif.g09.slc.cpg/sg13_18_cif.got.tgz:34601.got - 2010.06.28 04:50:58.
