data_PCOD8120898
_publ_section_title
;
Structure prediction by ZEFSAII (Michael W. Deem and Ramdas Pophale) SiO2 
 PCOD8120898
Probable space group: P 2/C
;
_chemical_formula_sum "Si O2"
_cell_formula_units_Z 28
_cell_length_a 13.867176
_cell_length_b 5.602064
_cell_length_c 18.381616
_cell_angle_alpha 90.000000
_cell_angle_beta 62.253032
_cell_angle_gamma 90.000000
_cell_volume 1263.773015
_symmetry_space_group_name_H-M "P 2/C"
_symmetry_group_IT_number 13
_symmetry_cell_setting 'monoclinic'
loop_
_space_group_symop_operation_xyz
x,y,z
-x,y,1/2-z
-x,-y,-z
x,-y,1/2+z
loop_
_atom_site_type_symbol
_atom_site_label
_atom_site_fract_x
_atom_site_fract_y
_atom_site_fract_z
Si Si1 0.758726 0.099650 0.336292
Si Si2 0.000000 0.809542 0.750000
Si Si3 0.651906 0.409373 0.107574
Si Si4 0.735934 0.387777 0.922284
Si Si5 0.500000 0.702299 0.250000
Si Si6 0.042810 0.529087 0.599026
Si Si7 0.859254 0.295670 0.571491
Si Si8 0.693764 0.023365 0.200378
O O1 0.888262 0.044025 0.297970
O O2 0.724668 0.347584 0.388823
O O3 0.706830 0.849484 0.384650
O O4 0.723365 0.149071 0.265777
O O5 0.978943 0.647772 0.687127
O O6 0.545918 0.563450 0.163597
O O7 0.765199 0.506465 0.100606
O O8 0.632176 0.170600 0.159773
O O9 0.654502 0.377091 0.019809
O O10 0.859687 0.362042 0.906413
O O11 0.603223 0.828362 0.250854
O O12 0.091389 0.733068 0.527214
O O13 0.956989 0.361947 0.589910
O O14 0.806546 0.058515 0.622746
#
# Coordination Sequence:
#
# PCOD8120898 Si02
#       8
#     4   2   4   4   2   4   4   4
#     4  11  26  42  65 102 139 183 222 274 332 405
#     4  10  22  34  64  88 144 182 224 260 330 388
#     4  10  22  43  69  94 130 174 225 283 340 402
#     4  10  25  43  67  95 145 180 221 268 341 400
#     4  10  24  44  72  98 124 162 238 290 348 402
#     4   9  19  38  58  95 135 181 226 269 324 393
#     4   9  20  37  62  92 130 173 230 272 323 391
#     4  11  24  40  74  94 129 173 230 284 344 401
#
# _framework density 22.155878999999999
#
# number of rings (size 3 to 8) (size 9 to 14) (size 15 to 20)
#    0.000    2.000    0.000    1.286   18.000    0.571 
#    0.000    4.286    0.000    0.000    0.000    0.000 
#    0.000    0.000    0.000    0.000    0.000    0.000 
#
# Total GULP energy -346874.834758 kJ/mol
# GULP energy per Si atom -12388.386956 kJ/mol
# Density = 2.210545 g / cm^3
# Si number density = 22.155879 Si / 1000 Ang^3
#
#
#
# Elastic Constant Matrix: (Units=GPa)
#
#
# Indices 1 2 3 4 5 6 
#
# 1 50.2876 22.9309 43.4993 0.0000 2.5104 0.0000
# 2 22.9309 114.3453 65.3165 0.0000 9.4385 0.0000
# 3 43.4993 65.3165 162.8272 0.0000 14.8824 0.0000
# 4 0.0000 0.0000 0.0000 26.4650 0.0000 8.2325
# 5 2.5104 9.4385 14.8824 0.0000 34.1323 0.0000
# 6 0.0000 0.0000 0.0000 8.2325 0.0000 9.1038
#
#
#
# Elastic Compliance Matrix: (Units=1/GPa)
#
#
# Indices 1 2 3 4 5 6 
#
# 1 0.026151 -0.001679 -0.006436 0.000000 0.001347 0.000000
# 2 -0.001679 0.011500 -0.004046 0.000000 -0.001292 0.000000
# 3 -0.006436 -0.004046 0.009726 0.000000 -0.002648 0.000000
# 4 0.000000 0.000000 0.000000 0.052575 0.000000 -0.047544
# 5 0.001347 -0.001292 -0.002648 0.000000 0.030711 0.000000
# 6 0.000000 0.000000 0.000000 -0.047544 0.000000 0.152837
#
#
# Mechanical properties :
#
#
# Convention : Reuss Voigt Hill
#
# Bulk Modulus (GPa) = 43.37568 65.66148 54.51858
# Shear Modulus (GPa) = 15.84742 26.98778 21.41760
#
# Velocity S-wave (km/s) = 2.67735 3.49390 3.11252
# Velocity P-wave (km/s) = 5.40163 6.78063 6.13003
#
# Compressibility (1/GPa) = 0.02305440
#
# Stress axis : x y z
#
# Youngs Moduli (GPa) = 38.23926 86.95407 102.81645
#
# Poissons Ratio (x) = 0.14602 0.66170
# Poissons Ratio (y) = 0.06422 0.41605
# Poissons Ratio (z) = 0.24610 0.35186
#
# Static dielectric constant tensor:
#      x y z
#    x 3.754260 0.000000 -0.054940 
#    y 0.000000 3.782800 0.000000 
#    z -0.054940 0.000000 4.326600 
# 
# 
# High freq. dielectric constant tensor:
#      x y z
#    x 1.858980 0.000000 -0.000520 
#    y 0.000000 1.853170 0.000000 
#    z -0.000520 0.000000 1.891570 
# 
# From -- ./inp_files/67290.got.cif
#   From: 2010.06.25/outbox.cif.g09.slc.cpg/sg13_34_cif.got.tgz:67290.got - 2010.06.28 04:50:58.
