data_PCOD8120542
_publ_section_title
;
Structure prediction by ZEFSAII (Michael W. Deem and Ramdas Pophale) SiO2 
 PCOD8120542
Probable space group: P 2/C
;
_chemical_formula_sum "Si O2"
_cell_formula_units_Z 30
_cell_length_a 14.612161
_cell_length_b 12.036126
_cell_length_c 8.939975
_cell_angle_alpha 90.000000
_cell_angle_beta 112.635773
_cell_angle_gamma 90.000000
_cell_volume 1451.192785
_symmetry_space_group_name_H-M "P 2/C"
_symmetry_group_IT_number 13
_symmetry_cell_setting 'monoclinic'
loop_
_space_group_symop_operation_xyz
x,y,z
-x,y,1/2-z
-x,-y,-z
x,-y,1/2+z
loop_
_atom_site_type_symbol
_atom_site_label
_atom_site_fract_x
_atom_site_fract_y
_atom_site_fract_z
Si Si1 0.143948 0.452016 0.094726
Si Si2 0.112255 0.118686 0.472109
Si Si3 0.226885 0.247144 0.030058
Si Si4 0.398935 0.083083 0.098446
Si Si5 0.604288 0.859387 0.250327
Si Si6 0.116912 0.083528 0.152531
Si Si7 0.000000 0.510138 0.750000
Si Si8 0.783306 0.698321 0.317060
O O1 0.230342 0.361201 0.127831
O O2 0.203884 0.568195 0.140721
O O3 0.081725 0.421496 0.205978
O O4 0.064459 0.439256 0.909150
O O5 0.166334 0.106151 0.344967
O O6 0.126657 0.243886 0.537420
O O7 0.999381 0.083001 0.391827
O O8 0.161308 0.034147 0.623174
O O9 0.328194 0.180739 0.113092
O O10 0.137453 0.175065 0.040055
O O11 0.201470 0.278628 0.846156
O O12 0.500000 0.103663 0.250000
O O13 0.357938 0.961013 0.120011
O O14 0.411232 0.092800 0.927251
O O15 0.500000 0.814897 0.250000
O O16 0.679852 0.754818 0.305737
#
# Coordination Sequence:
#
# PCOD8120542 Si02
#       8
#     4   4   4   4   4   4   2   4
#     4  11  24  42  61  90 122 162 213 250 305 346
#     4  10  22  36  54  81 115 153 194 239 296 357
#     4  11  24  39  59  86 120 154 200 251 298 358
#     4  10  21  40  64  92 120 154 194 244 304 365
#     4  10  21  40  64  92 120 154 194 244 304 365
#     4  10  22  36  54  81 115 153 194 239 296 357
#     4  10  24  42  64  82 120 170 212 254 290 354
#     4  11  24  39  59  86 120 154 200 251 298 358
#
# _framework density 20.672650999999998
#
# number of rings (size 3 to 8) (size 9 to 14) (size 15 to 20)
#    0.000    1.600    1.333    3.200    5.600    5.867 
#    0.000    0.667    0.000    3.200    0.000    0.000 
#    0.000    0.000    0.000    0.000    0.000    0.000 
#
# Total GULP energy -371752.610654 kJ/mol
# GULP energy per Si atom -12391.753688 kJ/mol
# Density = 2.062560 g / cm^3
# Si number density = 20.672651 Si / 1000 Ang^3
#
#
#
# Elastic Constant Matrix: (Units=GPa)
#
#
# Indices 1 2 3 4 5 6 
#
# 1 103.5569 56.1626 46.5504 0.0000 -26.9562 0.0000
# 2 56.1626 131.4127 35.9355 0.0000 -17.3090 0.0000
# 3 46.5504 35.9355 78.9987 0.0000 -15.8883 0.0000
# 4 0.0000 0.0000 0.0000 22.6962 0.0000 -7.3921
# 5 -26.9562 -17.3090 -15.8883 0.0000 31.0035 0.0000
# 6 0.0000 0.0000 0.0000 -7.3921 0.0000 26.6465
#
#
#
# Elastic Compliance Matrix: (Units=1/GPa)
#
#
# Indices 1 2 3 4 5 6 
#
# 1 0.017346 -0.004454 -0.006313 0.000000 0.009360 0.000000
# 2 -0.004454 0.010120 -0.001807 0.000000 0.000851 0.000000
# 3 -0.006313 -0.001807 0.017720 0.000000 0.002583 0.000000
# 4 0.000000 0.000000 0.000000 0.048437 0.000000 0.013437
# 5 0.009360 0.000851 0.002583 0.000000 0.042191 0.000000
# 6 0.000000 0.000000 0.000000 0.013437 0.000000 0.041256
#
#
# Mechanical properties :
#
#
# Convention : Reuss Voigt Hill
#
# Bulk Modulus (GPa) = 49.90786 65.69614 57.80200
# Shear Modulus (GPa) = 23.93514 27.75722 25.84618
#
# Velocity S-wave (km/s) = 3.40636 3.66827 3.53974
# Velocity P-wave (km/s) = 6.29805 7.05619 6.68787
#
# Compressibility (1/GPa) = 0.02003692
#
# Stress axis : x y z
#
# Youngs Moduli (GPa) = 57.64886 98.81832 56.43346
#
# Poissons Ratio (x) = 0.44017 0.35625
# Poissons Ratio (y) = 0.25679 0.10200
# Poissons Ratio (z) = 0.36392 0.17861
#
# Static dielectric constant tensor:
#      x y z
#    x 3.838390 0.000000 -0.401530 
#    y 0.000000 3.704440 0.000000 
#    z -0.401530 0.000000 4.131270 
# 
# 
# High freq. dielectric constant tensor:
#      x y z
#    x 1.806470 0.000000 -0.024430 
#    y 0.000000 1.795780 0.000000 
#    z -0.024430 0.000000 1.820180 
# 
# From -- ./inp_files/19065.got.cif
#   From: 2010.06.25/outbox.cif.g09.slc.cpg/sg13_10_cif.got.tgz:19065.got - 2010.06.28 04:50:58.
