data_PCOD8120002
_publ_section_title
;
Structure prediction by ZEFSAII (Michael W. Deem and Ramdas Pophale) SiO2 
 PCOD8120002
Probable space group: P 2/C
;
_chemical_formula_sum "Si O2"
_cell_formula_units_Z 18
_cell_length_a 6.335252
_cell_length_b 6.313144
_cell_length_c 24.287528
_cell_angle_alpha 90.000000
_cell_angle_beta 121.028953
_cell_angle_gamma 90.000000
_cell_volume 832.389435
_symmetry_space_group_name_H-M "P 2/C"
_symmetry_group_IT_number 13
_symmetry_cell_setting 'monoclinic'
loop_
_space_group_symop_operation_xyz
x,y,z
-x,y,1/2-z
-x,-y,-z
x,-y,1/2+z
loop_
_atom_site_type_symbol
_atom_site_label
_atom_site_fract_x
_atom_site_fract_y
_atom_site_fract_z
Si Si1 0.000000 0.395743 0.750000
Si Si2 0.231835 0.077984 0.701140
Si Si3 0.377568 0.385873 0.034184
Si Si4 0.124937 0.305558 0.360184
Si Si5 0.897371 0.367305 0.913563
O O1 0.807538 0.254604 0.757777
O O2 0.843432 0.539644 0.687511
O O3 0.500000 0.978860 0.750000
O O4 0.216906 0.182264 0.638800
O O5 0.027266 0.898249 0.678342
O O6 0.594876 0.232834 0.086677
O O7 0.309034 0.558095 0.071487
O O8 0.500000 0.500000 0.000000
O O9 0.130467 0.268641 0.979324
O O10 0.986798 0.428356 0.390863
#
# Coordination Sequence:
#
# PCOD8120002 Si02
#       5
#     2   4   4   4   4
#     4  10  22  40  58  82 118 156 192 238 294 346
#     4  11  23  37  58  88 119 155 197 239 290 349
#     4   9  18  38  61  82 114 153 193 238 294 346
#     4  10  21  36  59  87 115 151 194 242 289 343
#     4   9  20  38  59  84 117 154 190 240 293 344
#
# _framework density 21.624493000000001
#
# number of rings (size 3 to 8) (size 9 to 14) (size 15 to 20)
#    0.000    2.222    0.000    2.000    0.000    8.000 
#    0.000   10.000    0.000    0.000    0.000    0.000 
#    0.000    0.000    0.000    0.000    0.000    0.000 
#
# Total GULP energy -223111.560954 kJ/mol
# GULP energy per Si atom -12395.086720 kJ/mol
# Density = 2.157527 g / cm^3
# Si number density = 21.624493 Si / 1000 Ang^3
#
#
#
# Elastic Constant Matrix: (Units=GPa)
#
#
# Indices 1 2 3 4 5 6 
#
# 1 114.6404 36.2160 76.4994 0.0000 6.4920 0.0000
# 2 36.2160 82.8161 57.6926 0.0000 9.4411 0.0000
# 3 76.4994 57.6926 155.1846 0.0000 23.7355 0.0000
# 4 0.0000 0.0000 0.0000 14.1105 0.0000 9.5624
# 5 6.4920 9.4411 23.7355 0.0000 52.6243 0.0000
# 6 0.0000 0.0000 0.0000 9.5624 0.0000 18.5958
#
#
#
# Elastic Compliance Matrix: (Units=1/GPa)
#
#
# Indices 1 2 3 4 5 6 
#
# 1 0.013267 -0.001696 -0.006129 0.000000 0.001432 0.000000
# 2 -0.001696 0.016514 -0.005244 0.000000 -0.000388 0.000000
# 3 -0.006129 -0.005244 0.011982 0.000000 -0.003707 0.000000
# 4 0.000000 0.000000 0.000000 0.108775 0.000000 -0.055935
# 5 0.001432 -0.000388 -0.003707 0.000000 0.020568 0.000000
# 6 0.000000 0.000000 0.000000 -0.055935 0.000000 0.082539
#
#
# Mechanical properties :
#
#
# Convention : Reuss Voigt Hill
#
# Bulk Modulus (GPa) = 63.99593 77.05078 70.52336
# Shear Modulus (GPa) = 17.54446 29.21500 23.37973
#
# Velocity S-wave (km/s) = 2.85146 3.67960 3.29168
# Velocity P-wave (km/s) = 6.36393 7.33221 6.86516
#
# Compressibility (1/GPa) = 0.01562599
#
# Stress axis : x y z
#
# Youngs Moduli (GPa) = 75.37363 60.55499 83.45969
#
# Poissons Ratio (x) = 0.10267 0.51151
# Poissons Ratio (y) = 0.12780 0.43767
# Poissons Ratio (z) = 0.46195 0.31756
#
# Static dielectric constant tensor:
#      x y z
#    x 3.999730 0.000000 0.104100 
#    y 0.000000 3.411900 0.000000 
#    z 0.104100 0.000000 4.608870 
# 
# 
# High freq. dielectric constant tensor:
#      x y z
#    x 1.857800 0.000000 -0.002770 
#    y 0.000000 1.802240 0.000000 
#    z -0.002770 0.000000 1.880260 
# 
# From -- ./inp_files/82958.got.cif
#   From: 2010.06.25/outbox.cif.g09.slc.cpg/sg13_42_cif.got.tgz:82958.got - 2010.06.28 04:50:58.
