data_PCOD8120851
_publ_section_title
;
Structure prediction by ZEFSAII (Michael W. Deem and Ramdas Pophale) SiO2 
 PCOD8120851
Probable space group: P 2/C
;
_chemical_formula_sum "Si O2"
_cell_formula_units_Z 18
_cell_length_a 26.732670
_cell_length_b 6.235277
_cell_length_c 24.420476
_cell_angle_alpha 90.000000
_cell_angle_beta 169.836265
_cell_angle_gamma 90.000000
_cell_volume 718.294980
_symmetry_space_group_name_H-M "P 2/C"
_symmetry_group_IT_number 13
_symmetry_cell_setting 'monoclinic'
loop_
_space_group_symop_operation_xyz
x,y,z
-x,y,1/2-z
-x,-y,-z
x,-y,1/2+z
loop_
_atom_site_type_symbol
_atom_site_label
_atom_site_fract_x
_atom_site_fract_y
_atom_site_fract_z
Si Si1 0.000000 0.484768 0.750000
Si Si2 0.051419 0.132620 0.231915
Si Si3 0.436789 0.868263 0.752399
Si Si4 0.370959 0.640225 0.438156
Si Si5 0.860360 0.349437 0.925150
O O1 0.110794 0.627544 0.817980
O O2 0.716656 0.349091 0.432085
O O3 0.307927 0.956312 0.512358
O O4 0.962915 0.149354 0.072671
O O5 0.793652 0.056259 0.992516
O O6 0.564678 0.832540 0.950788
O O7 0.643054 0.490289 0.725788
O O8 0.282953 0.742638 0.284694
O O9 0.123557 0.497249 0.195461
#
# Coordination Sequence:
#
# PCOD8120851 Si02
#       5
#     2   4   4   4   4
#     4  12  30  54  70 104 160 194 242 336 340 440
#     4  12  28  48  76 109 140 196 249 294 372 435
#     4  12  28  48  76 109 140 196 249 294 372 435
#     4  10  21  43  74 106 145 187 229 296 372 430
#     4  10  21  43  74 106 145 187 229 296 372 430
#
# _framework density 25.059341
#
# number of rings (size 3 to 8) (size 9 to 14) (size 15 to 20)
#    0.000    0.889    2.222    3.333    0.000    7.111 
#    0.000    0.000    0.000    0.000    0.000    0.000 
#    0.000    0.000    0.000    0.000    0.000    0.000 
#
# Total GULP energy -223285.042318 kJ/mol
# GULP energy per Si atom -12404.724573 kJ/mol
# Density = 2.500231 g / cm^3
# Si number density = 25.059341 Si / 1000 Ang^3
#
#
#
# Elastic Constant Matrix: (Units=GPa)
#
#
# Indices 1 2 3 4 5 6 
#
# 1 118.1431 50.3806 55.1951 0.0000 14.4193 0.0000
# 2 50.3806 115.4561 58.8004 0.0000 -3.7687 0.0000
# 3 55.1951 58.8004 142.3037 0.0000 12.4229 0.0000
# 4 0.0000 0.0000 0.0000 38.3583 0.0000 -1.0467
# 5 14.4193 -3.7687 12.4229 0.0000 57.7447 0.0000
# 6 0.0000 0.0000 0.0000 -1.0467 0.0000 54.9096
#
#
#
# Elastic Compliance Matrix: (Units=1/GPa)
#
#
# Indices 1 2 3 4 5 6 
#
# 1 0.011671 -0.003781 -0.002740 0.000000 -0.002572 0.000000
# 2 -0.003781 0.012366 -0.003869 0.000000 0.002584 0.000000
# 3 -0.002740 -0.003869 0.009835 0.000000 -0.001684 0.000000
# 4 0.000000 0.000000 0.000000 0.026084 0.000000 0.000497
# 5 -0.002572 0.002584 -0.001684 0.000000 0.018491 0.000000
# 6 0.000000 0.000000 0.000000 0.000497 0.000000 0.018221
#
#
# Mechanical properties :
#
#
# Convention : Reuss Voigt Hill
#
# Bulk Modulus (GPa) = 76.37762 78.29503 77.33633
# Shear Modulus (GPa) = 41.04734 44.30429 42.67582
#
# Velocity S-wave (km/s) = 4.05162 4.20929 4.13121
# Velocity P-wave (km/s) = 7.24102 7.41187 7.32694
#
# Compressibility (1/GPa) = 0.01309284
#
# Stress axis : x y z
#
# Youngs Moduli (GPa) = 85.68539 80.86819 101.67345
#
# Poissons Ratio (x) = 0.30578 0.27856
# Poissons Ratio (y) = 0.32400 0.39333
# Poissons Ratio (z) = 0.23476 0.31284
#
# Static dielectric constant tensor:
#      x y z
#    x 4.915150 0.000000 -0.376340 
#    y 0.000000 4.110330 0.000000 
#    z -0.376340 0.000000 4.821740 
# 
# 
# High freq. dielectric constant tensor:
#      x y z
#    x 2.030660 0.000000 -0.012440 
#    y 0.000000 1.974950 0.000000 
#    z -0.012440 0.000000 2.022060 
# 
# From -- ./inp_files/82980.got.cif
#   From: 2010.06.25/outbox.cif.g09.slc.cpg/sg13_42_cif.got.tgz:82980.got - 2010.06.28 04:50:58.
