data_PCOD8120862
_publ_section_title
;
Structure prediction by ZEFSAII (Michael W. Deem and Ramdas Pophale) SiO2 
 PCOD8120862
Probable space group: P 2/C
;
_chemical_formula_sum "Si O2"
_cell_formula_units_Z 18
_cell_length_a 6.465422
_cell_length_b 8.419723
_cell_length_c 20.174536
_cell_angle_alpha 90.000000
_cell_angle_beta 47.276042
_cell_angle_gamma 90.000000
_cell_volume 806.802924
_symmetry_space_group_name_H-M "P 2/C"
_symmetry_group_IT_number 13
_symmetry_cell_setting 'monoclinic'
loop_
_space_group_symop_operation_xyz
x,y,z
-x,y,1/2-z
-x,-y,-z
x,-y,1/2+z
loop_
_atom_site_type_symbol
_atom_site_label
_atom_site_fract_x
_atom_site_fract_y
_atom_site_fract_z
Si Si1 0.206431 0.424424 0.902428
Si Si2 0.697173 0.779664 0.339509
Si Si3 0.392456 0.072907 0.366326
Si Si4 0.500000 0.339682 0.250000
Si Si5 0.882905 0.117473 0.937289
O O1 0.492767 0.373489 0.878925
O O2 0.253005 0.546774 0.831220
O O3 0.075436 0.271915 0.897706
O O4 0.000000 0.500000 0.000000
O O5 0.698924 0.863981 0.411132
O O6 0.000000 0.720486 0.250000
O O7 0.588870 0.918853 0.314443
O O8 0.564303 0.220252 0.297197
O O9 0.336517 0.114065 0.454818
O O10 0.089245 0.037396 0.396169
#
# Coordination Sequence:
#
# PCOD8120862 Si02
#       5
#     4   4   4   2   4
#     4  11  24  44  67  96 138 183 219 272 343 401
#     4  11  23  42  67  99 130 175 227 276 335 404
#     4  10  22  40  68  96 128 173 225 283 338 395
#     4  12  22  42  66  96 132 174 228 276 328 406
#     4  10  21  44  67  92 133 176 220 280 340 399
#
# _framework density 22.310283999999999
#
# number of rings (size 3 to 8) (size 9 to 14) (size 15 to 20)
#    0.000    1.333    2.222    3.333    0.000    4.444 
#    4.000    5.556    0.000    0.000    0.000    0.000 
#    0.000    0.000    0.000    0.000    0.000    0.000 
#
# Total GULP energy -223074.677008 kJ/mol
# GULP energy per Si atom -12393.037612 kJ/mol
# Density = 2.225950 g / cm^3
# Si number density = 22.310284 Si / 1000 Ang^3
#
#
#
# Elastic Constant Matrix: (Units=GPa)
#
#
# Indices 1 2 3 4 5 6 
#
# 1 85.5318 28.4609 36.3144 0.0000 -3.6871 0.0000
# 2 28.4609 122.6244 59.1185 0.0000 -9.0182 0.0000
# 3 36.3144 59.1185 157.4391 0.0000 -0.5207 0.0000
# 4 0.0000 0.0000 0.0000 51.0203 0.0000 5.2795
# 5 -3.6871 -9.0182 -0.5207 0.0000 32.7648 0.0000
# 6 0.0000 0.0000 0.0000 5.2795 0.0000 21.7907
#
#
#
# Elastic Compliance Matrix: (Units=1/GPa)
#
#
# Indices 1 2 3 4 5 6 
#
# 1 0.013368 -0.001890 -0.002370 0.000000 0.000946 0.000000
# 2 -0.001890 0.010466 -0.003485 0.000000 0.002613 0.000000
# 3 -0.002370 -0.003485 0.008204 0.000000 -0.001096 0.000000
# 4 0.000000 0.000000 0.000000 0.020104 0.000000 -0.004871
# 5 0.000946 0.002613 -0.001096 0.000000 0.031329 0.000000
# 6 0.000000 0.000000 0.000000 -0.004871 0.000000 0.047071
#
#
# Mechanical properties :
#
#
# Convention : Reuss Voigt Hill
#
# Bulk Modulus (GPa) = 60.43997 68.15363 64.29680
# Shear Modulus (GPa) = 32.99264 37.22860 35.11062
#
# Velocity S-wave (km/s) = 3.84970 4.08937 3.97134
# Velocity P-wave (km/s) = 6.84907 7.27404 7.06475
#
# Compressibility (1/GPa) = 0.01654534
#
# Stress axis : x y z
#
# Youngs Moduli (GPa) = 74.80686 95.54560 121.89788
#
# Poissons Ratio (x) = 0.18060 0.28895
# Poissons Ratio (y) = 0.14140 0.42487
# Poissons Ratio (z) = 0.17733 0.33302
#
# Static dielectric constant tensor:
#      x y z
#    x 4.147840 0.000000 0.103080 
#    y 0.000000 4.198890 0.000000 
#    z 0.103080 0.000000 4.138940 
# 
# 
# High freq. dielectric constant tensor:
#      x y z
#    x 1.850670 0.000000 0.008130 
#    y 0.000000 1.884530 0.000000 
#    z 0.008130 0.000000 1.895950 
# 
# From -- ./inp_files/60473.got.cif
#   From: 2010.06.25/outbox.cif.g09.slc.cpg/sg13_31_cif.got.tgz:60473.got - 2010.06.28 04:50:58.
