data_PCOD8120333
_publ_section_title
;
Structure prediction by ZEFSAII (Michael W. Deem and Ramdas Pophale) SiO2 
 PCOD8120333
Probable space group: P 2/C
;
_chemical_formula_sum "Si O2"
_cell_formula_units_Z 18
_cell_length_a 8.681061
_cell_length_b 17.910125
_cell_length_c 5.429912
_cell_angle_alpha 90.000000
_cell_angle_beta 81.251803
_cell_angle_gamma 90.000000
_cell_volume 834.415079
_symmetry_space_group_name_H-M "P 2/C"
_symmetry_group_IT_number 13
_symmetry_cell_setting 'monoclinic'
loop_
_space_group_symop_operation_xyz
x,y,z
-x,y,1/2-z
-x,-y,-z
x,-y,1/2+z
loop_
_atom_site_type_symbol
_atom_site_label
_atom_site_fract_x
_atom_site_fract_y
_atom_site_fract_z
Si Si1 0.000000 0.952700 0.250000
Si Si2 0.322224 0.467503 0.791962
Si Si3 0.500000 0.775682 0.750000
Si Si4 0.204556 0.823942 0.071657
Si Si5 0.707421 0.698692 0.068806
Si Si6 0.000000 0.744453 0.750000
O O1 0.841197 0.903081 0.296830
O O2 0.000000 0.000000 0.500000
O O3 0.500000 0.495930 0.750000
O O4 0.241788 0.500357 0.562412
O O5 0.313485 0.378212 0.782236
O O6 0.645108 0.829591 0.645675
O O7 0.450375 0.720187 0.539282
O O8 0.252225 0.765108 0.261943
O O9 0.049572 0.797569 0.964447
O O10 0.853962 0.691157 0.847715
#
# Coordination Sequence:
#
# PCOD8120333 Si02
#       6
#     2   4   2   4   4   2
#     4  12  27  46  74 103 136 178 218 266 343 420
#     4  10  23  38  59  91 135 179 222 278 342 394
#     4  10  24  36  72 100 132 166 244 276 328 374
#     4  11  22  44  68 101 131 177 224 278 327 403
#     4  11  22  40  67  98 128 179 229 283 326 398
#     4  10  21  38  70  93 130 168 234 272 333 386
#
# _framework density 21.571995000000001
#
# number of rings (size 3 to 8) (size 9 to 14) (size 15 to 20)
#    0.000    1.333    2.222    2.667   14.000    0.000 
#    0.000    2.222    0.000    0.000    0.000    0.000 
#    0.000    0.000    0.000    0.000    0.000    0.000 
#
# Total GULP energy -223172.450153 kJ/mol
# GULP energy per Si atom -12398.469453 kJ/mol
# Density = 2.152290 g / cm^3
# Si number density = 21.571995 Si / 1000 Ang^3
#
#
#
# Elastic Constant Matrix: (Units=GPa)
#
#
# Indices 1 2 3 4 5 6 
#
# 1 93.0606 34.6940 27.1008 0.0000 5.5687 0.0000
# 2 34.6940 141.1586 73.7463 0.0000 6.3430 0.0000
# 3 27.1008 73.7463 139.6077 0.0000 27.6566 0.0000
# 4 0.0000 0.0000 0.0000 47.5482 0.0000 -0.9223
# 5 5.5687 6.3430 27.6566 0.0000 44.4390 0.0000
# 6 0.0000 0.0000 0.0000 -0.9223 0.0000 28.4040
#
#
#
# Elastic Compliance Matrix: (Units=1/GPa)
#
#
# Indices 1 2 3 4 5 6 
#
# 1 0.011955 -0.002430 -0.000923 0.000000 -0.000577 0.000000
# 2 -0.002430 0.010449 -0.005490 0.000000 0.002230 0.000000
# 3 -0.000923 -0.005490 0.011479 0.000000 -0.006245 0.000000
# 4 0.000000 0.000000 0.000000 0.021045 0.000000 0.000683
# 5 -0.000577 0.002230 -0.006245 0.000000 0.026143 0.000000
# 6 0.000000 0.000000 0.000000 0.000683 0.000000 0.035229
#
#
# Mechanical properties :
#
#
# Convention : Reuss Voigt Hill
#
# Bulk Modulus (GPa) = 61.73572 71.65655 66.69614
# Shear Modulus (GPa) = 35.87206 39.96396 37.91801
#
# Velocity S-wave (km/s) = 4.08229 4.30884 4.19709
# Velocity P-wave (km/s) = 7.13447 7.61868 7.38055
#
# Compressibility (1/GPa) = 0.01619808
#
# Stress axis : x y z
#
# Youngs Moduli (GPa) = 83.64735 95.69942 87.11571
#
# Poissons Ratio (x) = 0.23259 0.08037
# Poissons Ratio (y) = 0.20329 0.47824
# Poissons Ratio (z) = 0.07717 0.52536
#
# Static dielectric constant tensor:
#      x y z
#    x 4.164300 0.000000 -0.353940 
#    y 0.000000 3.601740 0.000000 
#    z -0.353940 0.000000 4.538130 
# 
# 
# High freq. dielectric constant tensor:
#      x y z
#    x 1.836050 0.000000 -0.008860 
#    y 0.000000 1.817880 0.000000 
#    z -0.008860 0.000000 1.875800 
# 
# From -- ./inp_files/1315.got.cif
#   From: 2010.06.25/outbox.cif.g09.slc.cpg/sg13_1_cif.got.tgz:1315.got - 2010.06.28 04:50:58.
