data_PCOD8120914
_publ_section_title
;
Structure prediction by ZEFSAII (Michael W. Deem and Ramdas Pophale) SiO2 
 PCOD8120914
Probable space group: P 2/C
;
_chemical_formula_sum "Si O2"
_cell_formula_units_Z 28
_cell_length_a 17.573333
_cell_length_b 11.175697
_cell_length_c 20.609992
_cell_angle_alpha 90.000000
_cell_angle_beta 160.213210
_cell_angle_gamma 90.000000
_cell_volume 1370.225907
_symmetry_space_group_name_H-M "P 2/C"
_symmetry_group_IT_number 13
_symmetry_cell_setting 'monoclinic'
loop_
_space_group_symop_operation_xyz
x,y,z
-x,y,1/2-z
-x,-y,-z
x,-y,1/2+z
loop_
_atom_site_type_symbol
_atom_site_label
_atom_site_fract_x
_atom_site_fract_y
_atom_site_fract_z
Si Si1 0.650302 0.352990 0.062270
Si Si2 0.417163 0.754853 0.811146
Si Si3 0.500000 0.895609 0.750000
Si Si4 0.744210 0.128960 0.935412
Si Si5 0.564821 0.861518 0.053540
Si Si6 0.000000 0.733792 0.750000
Si Si7 0.747009 0.521294 0.771401
Si Si8 0.056613 0.136570 0.543396
O O1 0.761281 0.430895 0.208916
O O2 0.810798 0.354203 0.128068
O O3 0.632180 0.213810 0.069334
O O4 0.398356 0.399428 0.843336
O O5 0.500423 0.804977 0.810085
O O6 0.402430 0.610919 0.803083
O O7 0.166508 0.788286 0.630714
O O8 0.593090 0.810893 0.003565
O O9 0.719638 0.983084 0.923190
O O10 0.500000 0.188944 0.750000
O O11 0.819787 0.167251 0.924483
O O12 0.911768 0.179299 0.123084
O O13 0.794226 0.835618 0.274496
O O14 0.500000 0.000000 0.000000
O O15 0.000000 0.500000 0.000000
O O16 0.000000 0.000000 0.500000
#
# Coordination Sequence:
#
# PCOD8120914 Si02
#       8
#     4   4   2   4   4   2   4   4
#     4  10  24  41  64  98 124 164 224 264 317 401
#     4  11  23  40  64  89 122 169 210 263 321 379
#     4  10  22  42  54  94 134 160 210 258 316 406
#     4  10  22  36  56  90 139 161 197 258 319 395
#     4  11  21  35  64  92 127 163 202 258 318 383
#     4  12  24  38  64  96 138 170 198 266 346 388
#     4  10  22  47  69  86 121 170 227 277 314 369
#     4  12  20  35  60  92 122 165 215 246 310 401
#
# _framework density 20.434587000000001
#
# number of rings (size 3 to 8) (size 9 to 14) (size 15 to 20)
#    0.429    0.857    2.857    3.429    2.000    1.143 
#    2.571    0.000    0.000    0.000    0.000    0.000 
#    0.000    0.000    0.000    0.000    0.000    0.000 
#
# Total GULP energy -347072.332949 kJ/mol
# GULP energy per Si atom -12395.440462 kJ/mol
# Density = 2.038808 g / cm^3
# Si number density = 20.434587 Si / 1000 Ang^3
#
#
#
# Elastic Constant Matrix: (Units=GPa)
#
#
# Indices 1 2 3 4 5 6 
#
# 1 147.8487 37.9237 59.2305 0.0000 -11.8503 0.0000
# 2 37.9237 101.3654 26.3410 0.0000 -7.3978 0.0000
# 3 59.2305 26.3410 127.9937 0.0000 -26.7335 0.0000
# 4 0.0000 0.0000 0.0000 25.6596 0.0000 0.0666
# 5 -11.8503 -7.3978 -26.7335 0.0000 32.0307 0.0000
# 6 0.0000 0.0000 0.0000 0.0666 0.0000 22.4123
#
#
#
# Elastic Compliance Matrix: (Units=1/GPa)
#
#
# Indices 1 2 3 4 5 6 
#
# 1 0.008811 -0.002370 -0.003661 0.000000 -0.000343 0.000000
# 2 -0.002370 0.011075 -0.001007 0.000000 0.000841 0.000000
# 3 -0.003661 -0.001007 0.011364 0.000000 0.007897 0.000000
# 4 0.000000 0.000000 0.000000 0.038972 0.000000 -0.000116
# 5 -0.000343 0.000841 0.007897 0.000000 0.037878 0.000000
# 6 0.000000 0.000000 0.000000 -0.000116 0.000000 0.044619
#
#
# Mechanical properties :
#
#
# Convention : Reuss Voigt Hill
#
# Bulk Modulus (GPa) = 58.22980 69.35534 63.79257
# Shear Modulus (GPa) = 28.98217 32.93471 30.95844
#
# Velocity S-wave (km/s) = 3.77010 4.01897 3.89653
# Velocity P-wave (km/s) = 6.89269 7.45319 7.17841
#
# Compressibility (1/GPa) = 0.01717334
#
# Stress axis : x y z
#
# Youngs Moduli (GPa) = 113.49675 90.29349 87.99793
#
# Poissons Ratio (x) = 0.21400 0.32219
# Poissons Ratio (y) = 0.26899 0.08860
# Poissons Ratio (z) = 0.41554 0.09092
#
# Static dielectric constant tensor:
#      x y z
#    x 3.701470 0.000000 -0.238680 
#    y 0.000000 3.022010 0.000000 
#    z -0.238680 0.000000 3.896220 
# 
# 
# High freq. dielectric constant tensor:
#      x y z
#    x 1.793160 0.000000 -0.013960 
#    y 0.000000 1.798060 0.000000 
#    z -0.013960 0.000000 1.801530 
# 
# From -- ./inp_files/81107.got.cif
#   From: 2010.06.25/outbox.cif.g09.slc.cpg/sg13_41_cif.got.tgz:81107.got - 2010.06.28 04:50:58.
