data_PCOD8120492
_publ_section_title
;
Structure prediction by ZEFSAII (Michael W. Deem and Ramdas Pophale) SiO2 
 PCOD8120492
Probable space group: P 2/C
;
_chemical_formula_sum "Si O2"
_cell_formula_units_Z 20
_cell_length_a 15.709430
_cell_length_b 10.364044
_cell_length_c 8.825601
_cell_angle_alpha 90.000000
_cell_angle_beta 40.691082
_cell_angle_gamma 90.000000
_cell_volume 936.846634
_symmetry_space_group_name_H-M "P 2/C"
_symmetry_group_IT_number 13
_symmetry_cell_setting 'monoclinic'
loop_
_space_group_symop_operation_xyz
x,y,z
-x,y,1/2-z
-x,-y,-z
x,-y,1/2+z
loop_
_atom_site_type_symbol
_atom_site_label
_atom_site_fract_x
_atom_site_fract_y
_atom_site_fract_z
Si Si1 0.184501 0.507803 0.459371
Si Si2 0.353010 0.380701 0.984043
Si Si3 0.057484 0.325416 0.877045
Si Si4 0.202454 0.833373 0.773156
Si Si5 0.134746 0.929666 0.160060
O O1 0.257264 0.603807 0.471879
O O2 0.108529 0.397664 0.656878
O O3 0.078992 0.585966 0.497228
O O4 0.303772 0.458495 0.195788
O O5 0.500000 0.421754 0.750000
O O6 0.340069 0.227672 0.036932
O O7 0.134310 0.188132 0.782262
O O8 0.902768 0.287757 0.074133
O O9 0.153881 0.936440 0.716946
O O10 0.236865 0.900568 0.887762
O O11 0.000000 0.931522 0.250000
#
# Coordination Sequence:
#
# PCOD8120492 Si02
#       5
#     4   4   4   4   4
#     4  10  23  40  66  89 129 155 196 253 307 362
#     4  11  24  42  62  88 122 166 207 245 293 357
#     4  10  21  40  61  99 119 156 195 249 318 361
#     4  11  24  39  65  88 127 158 203 251 298 366
#     4  10  21  40  60  91 126 157 196 245 311 366
#
# _framework density 21.348210999999999
#
# number of rings (size 3 to 8) (size 9 to 14) (size 15 to 20)
#    0.000    1.600    2.000    3.000    5.600    4.800 
#    0.000    1.000    0.000    0.000    0.000    0.000 
#    0.000    0.000    0.000    0.000    0.000    0.000 
#
# Total GULP energy -247763.829027 kJ/mol
# GULP energy per Si atom -12388.191451 kJ/mol
# Density = 2.129962 g / cm^3
# Si number density = 21.348211 Si / 1000 Ang^3
#
#
#
# Elastic Constant Matrix: (Units=GPa)
#
#
# Indices 1 2 3 4 5 6 
#
# 1 51.2175 14.0653 32.3503 0.0000 12.8646 0.0000
# 2 14.0653 93.4916 42.1623 0.0000 11.6227 0.0000
# 3 32.3503 42.1623 104.2920 0.0000 16.4342 0.0000
# 4 0.0000 0.0000 0.0000 35.1107 0.0000 10.3894
# 5 12.8646 11.6227 16.4342 0.0000 31.6562 0.0000
# 6 0.0000 0.0000 0.0000 10.3894 0.0000 32.4614
#
#
#
# Elastic Compliance Matrix: (Units=1/GPa)
#
#
# Indices 1 2 3 4 5 6 
#
# 1 0.025572 0.000116 -0.006899 0.000000 -0.006853 0.000000
# 2 0.000116 0.013229 -0.005022 0.000000 -0.002297 0.000000
# 3 -0.006899 -0.005022 0.014187 0.000000 -0.002718 0.000000
# 4 0.000000 0.000000 0.000000 0.031461 0.000000 -0.010069
# 5 -0.006853 -0.002297 -0.002718 0.000000 0.036628 0.000000
# 6 0.000000 0.000000 0.000000 -0.010069 0.000000 0.034028
#
#
# Mechanical properties :
#
#
# Convention : Reuss Voigt Hill
#
# Bulk Modulus (GPa) = 34.03972 47.35077 40.69524
# Shear Modulus (GPa) = 26.52399 30.54055 28.53227
#
# Velocity S-wave (km/s) = 3.52866 3.78642 3.65981
# Velocity P-wave (km/s) = 5.70802 6.42995 6.07971
#
# Compressibility (1/GPa) = 0.02937745
#
# Stress axis : x y z
#
# Youngs Moduli (GPa) = 39.10578 75.59074 70.48672
#
# Poissons Ratio (x) = -0.00878 0.48630
# Poissons Ratio (y) = -0.00454 0.35400
# Poissons Ratio (z) = 0.26980 0.37963
#
# Static dielectric constant tensor:
#      x y z
#    x 3.584640 0.000000 0.462000 
#    y 0.000000 4.090090 0.000000 
#    z 0.462000 0.000000 4.398620 
# 
# 
# High freq. dielectric constant tensor:
#      x y z
#    x 1.804360 0.000000 0.039810 
#    y 0.000000 1.851310 0.000000 
#    z 0.039810 0.000000 1.846630 
# 
# From -- ./inp_files/21480.got.cif
#   From: 2010.06.25/outbox.cif.g09.slc.cpg/sg13_11_cif.got.tgz:21480.got - 2010.06.28 04:50:58.
