data_PCOD8120340
_publ_section_title
;
Structure prediction by ZEFSAII (Michael W. Deem and Ramdas Pophale) SiO2 
 PCOD8120340
Probable space group: P 2/C
;
_chemical_formula_sum "Si O2"
_cell_formula_units_Z 32
_cell_length_a 17.595098
_cell_length_b 16.998862
_cell_length_c 10.755280
_cell_angle_alpha 90.000000
_cell_angle_beta 151.385248
_cell_angle_gamma 90.000000
_cell_volume 1540.615725
_symmetry_space_group_name_H-M "P 2/C"
_symmetry_group_IT_number 13
_symmetry_cell_setting 'monoclinic'
loop_
_space_group_symop_operation_xyz
x,y,z
-x,y,1/2-z
-x,-y,-z
x,-y,1/2+z
loop_
_atom_site_type_symbol
_atom_site_label
_atom_site_fract_x
_atom_site_fract_y
_atom_site_fract_z
Si Si1 0.322118 0.527807 0.760781
Si Si2 0.167295 0.894576 0.225707
Si Si3 0.139280 0.721191 0.289567
Si Si4 0.844165 0.055902 0.179940
Si Si5 0.415790 0.082651 0.890736
Si Si6 0.208305 0.693271 0.664313
Si Si7 0.310507 0.428926 0.973787
Si Si8 0.638802 0.156109 0.044214
O O1 0.310690 0.614002 0.805419
O O2 0.243831 0.531263 0.508624
O O3 0.500000 0.500000 0.000000
O O4 0.241991 0.470886 0.750009
O O5 0.137423 0.806833 0.228241
O O6 0.344697 0.899264 0.423702
O O7 0.163244 0.960545 0.328436
O O8 0.027148 0.917085 0.926769
O O9 0.191848 0.732981 0.506341
O O10 0.258491 0.661956 0.390404
O O11 0.966727 0.679631 0.031143
O O12 0.737511 0.090428 0.917844
O O13 0.779660 0.093377 0.218630
O O14 0.556023 0.144618 0.060467
O O15 0.500000 0.000000 0.000000
O O16 0.300645 0.754924 0.883641
O O17 0.500000 0.433588 0.250000
O O18 0.500000 0.136935 0.750000
#
# Coordination Sequence:
#
# PCOD8120340 Si02
#       8
#     4   4   4   4   4   4   4   4
#     4   9  19  36  63  87 123 158 201 251 309 381
#     4  11  22  38  61  82 116 160 202 251 307 361
#     4  10  22  37  62  89 122 156 201 260 307 369
#     4  10  22  40  57  81 114 159 206 246 300 371
#     4  11  23  37  55  85 115 152 202 261 303 351
#     4  10  21  40  60  91 120 158 204 247 311 380
#     4   9  19  38  60  92 125 159 205 256 313 381
#     4  10  21  39  58  80 120 154 200 252 305 366
#
# _framework density 20.770914999999999
#
# number of rings (size 3 to 8) (size 9 to 14) (size 15 to 20)
#    0.000    2.000    2.500    0.375    1.750    5.000 
#    2.250    1.250    0.000    0.000    0.000    0.000 
#    0.000    0.000    0.000    0.000    0.000    0.000 
#
# Total GULP energy -396514.999605 kJ/mol
# GULP energy per Si atom -12391.093738 kJ/mol
# Density = 2.072364 g / cm^3
# Si number density = 20.770915 Si / 1000 Ang^3
#
#
#
# Elastic Constant Matrix: (Units=GPa)
#
#
# Indices 1 2 3 4 5 6 
#
# 1 84.6535 42.0714 8.8768 0.0000 12.8537 0.0000
# 2 42.0714 132.1548 19.6882 0.0000 3.7599 0.0000
# 3 8.8768 19.6882 41.4604 0.0000 13.4122 0.0000
# 4 0.0000 0.0000 0.0000 31.5174 0.0000 7.1957
# 5 12.8537 3.7599 13.4122 0.0000 25.7273 0.0000
# 6 0.0000 0.0000 0.0000 7.1957 0.0000 32.2391
#
#
#
# Elastic Compliance Matrix: (Units=1/GPa)
#
#
# Indices 1 2 3 4 5 6 
#
# 1 0.015237 -0.004861 0.001538 0.000000 -0.007704 0.000000
# 2 -0.004861 0.009715 -0.004690 0.000000 0.003454 0.000000
# 3 0.001538 -0.004690 0.031327 0.000000 -0.016415 0.000000
# 4 0.000000 0.000000 0.000000 0.033432 0.000000 -0.007462
# 5 -0.007704 0.003454 -0.016415 0.000000 0.050771 0.000000
# 6 0.000000 0.000000 0.000000 -0.007462 0.000000 0.032684
#
#
# Mechanical properties :
#
#
# Convention : Reuss Voigt Hill
#
# Bulk Modulus (GPa) = 24.84204 44.39348 34.61776
# Shear Modulus (GPa) = 24.67817 30.40556 27.54187
#
# Velocity S-wave (km/s) = 3.45064 3.83018 3.64535
# Velocity P-wave (km/s) = 5.27843 6.40154 5.86692
#
# Compressibility (1/GPa) = 0.04025434
#
# Stress axis : x y z
#
# Youngs Moduli (GPa) = 65.62959 102.93700 31.92121
#
# Poissons Ratio (x) = 0.50034 -0.04910
# Poissons Ratio (y) = 0.31900 0.14970
# Poissons Ratio (z) = -0.10095 0.48274
#
# Static dielectric constant tensor:
#      x y z
#    x 4.276220 0.000000 0.122830 
#    y 0.000000 3.563570 0.000000 
#    z 0.122830 0.000000 3.793300 
# 
# 
# High freq. dielectric constant tensor:
#      x y z
#    x 1.812440 0.000000 0.017550 
#    y 0.000000 1.803540 0.000000 
#    z 0.017550 0.000000 1.802780 
# 
# From -- ./inp_files/39470.got.cif
#   From: 2010.06.25/outbox.cif.g09.slc.cpg/sg13_20_cif.got.tgz:39470.got - 2010.06.28 04:50:58.
