data_PCOD8120416
_publ_section_title
;
Structure prediction by ZEFSAII (Michael W. Deem and Ramdas Pophale) SiO2 
 PCOD8120416
Probable space group: P 2/C
;
_chemical_formula_sum "Si O2"
_cell_formula_units_Z 32
_cell_length_a 17.844478
_cell_length_b 11.334634
_cell_length_c 14.858639
_cell_angle_alpha 90.000000
_cell_angle_beta 30.541527
_cell_angle_gamma 90.000000
_cell_volume 1527.190398
_symmetry_space_group_name_H-M "P 2/C"
_symmetry_group_IT_number 13
_symmetry_cell_setting 'monoclinic'
loop_
_space_group_symop_operation_xyz
x,y,z
-x,y,1/2-z
-x,-y,-z
x,-y,1/2+z
loop_
_atom_site_type_symbol
_atom_site_label
_atom_site_fract_x
_atom_site_fract_y
_atom_site_fract_z
Si Si1 0.796806 0.994636 0.829542
Si Si2 0.966455 0.241774 0.182163
Si Si3 0.528317 0.891936 0.034532
Si Si4 0.828525 0.784908 0.422974
Si Si5 0.768990 0.837648 0.201719
Si Si6 0.340244 0.347104 0.544825
Si Si7 0.845430 0.558050 0.688486
Si Si8 0.657986 0.288253 0.262230
O O1 0.815944 0.090135 0.887162
O O2 0.826064 0.045613 0.697339
O O3 0.909594 0.891089 0.733914
O O4 0.632407 0.937605 0.007448
O O5 0.862904 0.341635 0.246875
O O6 0.000000 0.276267 0.250000
O O7 0.112093 0.240844 0.970981
O O8 0.361624 0.858209 0.237373
O O9 0.609760 0.785329 0.899232
O O10 0.500000 0.000000 0.000000
O O11 0.735922 0.680137 0.471870
O O12 0.752472 0.797594 0.599181
O O13 0.000000 0.747633 0.250000
O O14 0.697600 0.762946 0.354513
O O15 0.273719 0.467708 0.649774
O O16 0.518834 0.350608 0.355876
O O17 0.772453 0.611192 0.674485
O O18 0.000000 0.500000 0.500000
#
# Coordination Sequence:
#
# PCOD8120416 Si02
#       8
#     4   4   4   4   4   4   4   4
#     4  10  21  39  64  92 134 172 212 268 329 401
#     4  12  25  41  60  96 132 169 214 276 336 390
#     4   9  19  37  64  92 124 174 211 264 325 398
#     4  11  24  40  66 104 133 166 221 278 333 389
#     4   9  20  40  65  90 128 168 224 258 331 397
#     4  10  22  43  67  97 128 173 221 279 325 395
#     4  12  24  43  71  93 131 178 227 275 333 395
#     4  11  23  42  70  97 128 172 230 272 328 402
#
# _framework density 20.953510000000001
#
# number of rings (size 3 to 8) (size 9 to 14) (size 15 to 20)
#    0.000    1.500    2.500    3.000    1.750    5.500 
#    0.000    4.375    0.000    0.000    0.000    0.000 
#    0.000    0.000    0.000    0.000    0.000    0.000 
#
# Total GULP energy -396599.107784 kJ/mol
# GULP energy per Si atom -12393.722118 kJ/mol
# Density = 2.090582 g / cm^3
# Si number density = 20.953510 Si / 1000 Ang^3
#
#
#
# Elastic Constant Matrix: (Units=GPa)
#
#
# Indices 1 2 3 4 5 6 
#
# 1 116.8053 32.6932 41.2143 0.0000 -23.3874 0.0000
# 2 32.6932 84.3351 31.6219 0.0000 -7.7588 0.0000
# 3 41.2143 31.6219 82.8219 0.0000 -24.7562 0.0000
# 4 0.0000 0.0000 0.0000 30.5253 0.0000 -6.7538
# 5 -23.3874 -7.7588 -24.7562 0.0000 32.8036 0.0000
# 6 0.0000 0.0000 0.0000 -6.7538 0.0000 32.8989
#
#
#
# Elastic Compliance Matrix: (Units=1/GPa)
#
#
# Indices 1 2 3 4 5 6 
#
# 1 0.011477 -0.002815 -0.003086 0.000000 0.005188 0.000000
# 2 -0.002815 0.014551 -0.004811 0.000000 -0.002196 0.000000
# 3 -0.003086 -0.004811 0.018658 0.000000 0.010743 0.000000
# 4 0.000000 0.000000 0.000000 0.034319 0.000000 0.007045
# 5 0.005188 -0.002196 0.010743 0.000000 0.041771 0.000000
# 6 0.000000 0.000000 0.000000 0.007045 0.000000 0.031842
#
#
# Mechanical properties :
#
#
# Convention : Reuss Voigt Hill
#
# Bulk Modulus (GPa) = 42.98957 55.00235 48.99596
# Shear Modulus (GPa) = 27.50367 31.14108 29.32238
#
# Velocity S-wave (km/s) = 3.62692 3.85931 3.74492
# Velocity P-wave (km/s) = 6.17257 6.79453 6.49100
#
# Compressibility (1/GPa) = 0.02326146
#
# Stress axis : x y z
#
# Youngs Moduli (GPa) = 87.13396 68.72573 53.59728
#
# Poissons Ratio (x) = 0.19344 0.16538
# Poissons Ratio (y) = 0.24526 0.25787
# Poissons Ratio (z) = 0.26887 0.33066
#
# Static dielectric constant tensor:
#      x y z
#    x 4.267070 0.000000 -0.581910 
#    y 0.000000 3.691400 0.000000 
#    z -0.581910 0.000000 3.879980 
# 
# 
# High freq. dielectric constant tensor:
#      x y z
#    x 1.823200 0.000000 -0.028760 
#    y 0.000000 1.819560 0.000000 
#    z -0.028760 0.000000 1.812720 
# 
# From -- ./inp_files/55804.got.cif
#   From: 2010.06.25/outbox.cif.g09.slc.cpg/sg13_28_cif.got.tgz:55804.got - 2010.06.28 04:50:58.
