data_PCOD8120273
_publ_section_title
;
Structure prediction by ZEFSAII (Michael W. Deem and Ramdas Pophale) SiO2 
 PCOD8120273
Probable space group: P 2/C
;
_chemical_formula_sum "Si O2"
_cell_formula_units_Z 30
_cell_length_a 18.684036
_cell_length_b 6.741845
_cell_length_c 21.093512
_cell_angle_alpha 90.000000
_cell_angle_beta 32.623444
_cell_angle_gamma 90.000000
_cell_volume 1432.452176
_symmetry_space_group_name_H-M "P 2/C"
_symmetry_group_IT_number 13
_symmetry_cell_setting 'monoclinic'
loop_
_space_group_symop_operation_xyz
x,y,z
-x,y,1/2-z
-x,-y,-z
x,-y,1/2+z
loop_
_atom_site_type_symbol
_atom_site_label
_atom_site_fract_x
_atom_site_fract_y
_atom_site_fract_z
Si Si1 0.764606 0.404054 0.495671
Si Si2 0.033287 0.908977 0.655369
Si Si3 0.787238 0.649031 0.226231
Si Si4 0.679847 0.322228 0.222660
Si Si5 0.500000 0.534716 0.750000
Si Si6 0.922885 0.720705 0.461323
Si Si7 0.642102 0.050056 0.368084
Si Si8 0.790481 0.353844 0.333267
O O1 0.818891 0.179865 0.462244
O O2 0.616278 0.399501 0.634110
O O3 0.856487 0.567073 0.461750
O O4 0.760693 0.448575 0.423757
O O5 0.000000 0.993319 0.750000
O O6 0.942403 0.714936 0.710581
O O7 0.019026 0.087036 0.617438
O O8 0.722017 0.545125 0.213135
O O9 0.748916 0.526781 0.317082
O O10 0.947194 0.640838 0.098984
O O11 0.726990 0.865938 0.279551
O O12 0.562255 0.328924 0.258802
O O13 0.626566 0.198951 0.321179
O O14 0.811676 0.218206 0.095513
O O15 0.709921 0.153712 0.377921
O O16 0.500000 0.000000 0.500000
#
# Coordination Sequence:
#
# PCOD8120273 Si02
#       8
#     4   4   4   4   2   4   4   4
#     4  10  23  40  66  96 133 175 218 266 331 387
#     4  10  21  38  63 101 131 166 224 265 320 383
#     4  11  23  41  71  94 130 171 215 274 331 383
#     4  10  26  46  64  98 129 171 226 264 327 402
#     4  10  24  48  66  90 132 178 210 272 332 392
#     4  11  22  41  67  97 132 175 214 277 328 379
#     4  11  26  44  66  99 130 176 220 267 336 391
#     4  10  22  41  65 100 130 168 222 274 312 394
#
# _framework density 20.943106
#
# number of rings (size 3 to 8) (size 9 to 14) (size 15 to 20)
#    0.000    1.600    2.667    0.400    5.600    3.733 
#    4.800    1.333    0.000    0.000    0.000    0.000 
#    0.000    0.000    0.000    0.000    0.000    0.000 
#
# Total GULP energy -371916.596949 kJ/mol
# GULP energy per Si atom -12397.219898 kJ/mol
# Density = 2.089544 g / cm^3
# Si number density = 20.943106 Si / 1000 Ang^3
#
#
#
# Elastic Constant Matrix: (Units=GPa)
#
#
# Indices 1 2 3 4 5 6 
#
# 1 117.0790 27.9623 44.0750 0.0000 -6.6664 0.0000
# 2 27.9623 67.4026 38.2502 0.0000 -0.4813 0.0000
# 3 44.0750 38.2502 148.7492 0.0000 -8.0285 0.0000
# 4 0.0000 0.0000 0.0000 24.4634 0.0000 2.6032
# 5 -6.6664 -0.4813 -8.0285 0.0000 32.7671 0.0000
# 6 0.0000 0.0000 0.0000 2.6032 0.0000 27.6459
#
#
#
# Elastic Compliance Matrix: (Units=1/GPa)
#
#
# Indices 1 2 3 4 5 6 
#
# 1 0.010150 -0.002973 -0.002163 0.000000 0.001492 0.000000
# 2 -0.002973 0.018265 -0.003885 0.000000 -0.001289 0.000000
# 3 -0.002163 -0.003885 0.008448 0.000000 0.001573 0.000000
# 4 0.000000 0.000000 0.000000 0.041291 0.000000 -0.003888
# 5 0.001492 -0.001289 0.001573 0.000000 0.031188 0.000000
# 6 0.000000 0.000000 0.000000 -0.003888 0.000000 0.036538
#
#
# Mechanical properties :
#
#
# Convention : Reuss Voigt Hill
#
# Bulk Modulus (GPa) = 53.13203 61.53398 57.33301
# Shear Modulus (GPa) = 29.37782 31.83816 30.60799
#
# Velocity S-wave (km/s) = 3.74939 3.90323 3.82708
# Velocity P-wave (km/s) = 6.64595 7.05400 6.85301
#
# Compressibility (1/GPa) = 0.01882104
#
# Stress axis : x y z
#
# Youngs Moduli (GPa) = 98.51883 54.74843 118.37774
#
# Poissons Ratio (x) = 0.16277 0.25600
# Poissons Ratio (y) = 0.29290 0.45996
# Poissons Ratio (z) = 0.21306 0.21272
#
# Static dielectric constant tensor:
#      x y z
#    x 4.047590 0.000000 -0.051620 
#    y 0.000000 3.587890 0.000000 
#    z -0.051620 0.000000 3.809400 
# 
# 
# High freq. dielectric constant tensor:
#      x y z
#    x 1.831090 0.000000 -0.000960 
#    y 0.000000 1.808360 0.000000 
#    z -0.000960 0.000000 1.825870 
# 
# From -- ./inp_files/88333.got.cif
#   From: 2010.06.25/outbox.cif.g09.slc.cpg/sg13_45_cif.got.tgz:88333.got - 2010.06.28 04:50:58.
