data_PCOD8120199
_publ_section_title
;
Structure prediction by ZEFSAII (Michael W. Deem and Ramdas Pophale) SiO2 
 PCOD8120199
Probable space group: P 2/C
;
_chemical_formula_sum "Si O2"
_cell_formula_units_Z 32
_cell_length_a 15.578774
_cell_length_b 9.314079
_cell_length_c 24.666940
_cell_angle_alpha 90.000000
_cell_angle_beta 152.967936
_cell_angle_gamma 90.000000
_cell_volume 1626.716611
_symmetry_space_group_name_H-M "P 2/C"
_symmetry_group_IT_number 13
_symmetry_cell_setting 'monoclinic'
loop_
_space_group_symop_operation_xyz
x,y,z
-x,y,1/2-z
-x,-y,-z
x,-y,1/2+z
loop_
_atom_site_type_symbol
_atom_site_label
_atom_site_fract_x
_atom_site_fract_y
_atom_site_fract_z
Si Si1 0.994603 0.724725 0.003360
Si Si2 0.176684 0.628515 0.939858
Si Si3 0.478102 0.165703 0.049529
Si Si4 0.109239 0.673363 0.364222
Si Si5 0.880958 0.151934 0.819984
Si Si6 0.532455 0.163687 0.955262
Si Si7 0.877075 0.170681 0.322029
Si Si8 0.280952 0.510576 0.112867
O O1 0.918098 0.810709 0.908604
O O2 0.820868 0.640910 0.933567
O O3 0.078925 0.836798 0.093605
O O4 0.171926 0.624693 0.088647
O O5 0.111437 0.499271 0.864472
O O6 0.990777 0.715807 0.850747
O O7 0.316971 0.734820 0.988413
O O8 0.273574 0.557247 0.046402
O O9 0.657019 0.197054 0.187920
O O10 0.405282 0.002260 0.014408
O O11 0.321406 0.271115 0.984072
O O12 0.521488 0.205984 0.011941
O O13 0.000000 0.730812 0.250000
O O14 0.007554 0.733535 0.359987
O O15 0.664928 0.188666 0.685688
O O16 0.930937 0.988776 0.831615
O O17 0.500000 0.499356 0.250000
#
# Coordination Sequence:
#
# PCOD8120199 Si02
#       8
#     4   4   4   4   4   4   4   4
#     4  10  21  38  62  90 120 157 204 247 300 361
#     4  11  24  40  59  92 121 161 202 248 304 364
#     4  10  23  42  61  91 120 161 201 253 303 358
#     4  12  25  40  60  91 125 159 202 249 306 360
#     4  11  21  43  64  90 120 161 203 253 299 361
#     4  10  22  41  65  86 121 161 206 245 305 355
#     4  10  24  40  64  90 123 157 203 251 304 360
#     4  10  21  38  58  88 126 160 195 248 307 356
#
# _framework density 19.671527000000001
#
# number of rings (size 3 to 8) (size 9 to 14) (size 15 to 20)
#    0.000    1.500    2.500    1.875    3.500    1.500 
#    0.000    0.000    0.000    6.000    0.000    0.000 
#    0.000    0.000    0.000    0.000    0.000    0.000 
#
# Total GULP energy -396903.260310 kJ/mol
# GULP energy per Si atom -12403.226885 kJ/mol
# Density = 1.962675 g / cm^3
# Si number density = 19.671527 Si / 1000 Ang^3
#
#
#
# Elastic Constant Matrix: (Units=GPa)
#
#
# Indices 1 2 3 4 5 6 
#
# 1 95.1926 44.6737 39.7088 0.0000 1.5256 0.0000
# 2 44.6737 104.0806 43.0663 0.0000 11.7126 0.0000
# 3 39.7088 43.0663 118.6903 0.0000 -0.6129 0.0000
# 4 0.0000 0.0000 0.0000 41.5028 0.0000 8.5858
# 5 1.5256 11.7126 -0.6129 0.0000 28.9185 0.0000
# 6 0.0000 0.0000 0.0000 8.5858 0.0000 43.1750
#
#
#
# Elastic Compliance Matrix: (Units=1/GPa)
#
#
# Indices 1 2 3 4 5 6 
#
# 1 0.014016 -0.004959 -0.002884 0.000000 0.001208 0.000000
# 2 -0.004959 0.013726 -0.003349 0.000000 -0.005369 0.000000
# 3 -0.002884 -0.003349 0.010614 0.000000 0.001734 0.000000
# 4 0.000000 0.000000 0.000000 0.025129 0.000000 -0.004997
# 5 0.001208 -0.005369 0.001734 0.000000 0.036728 0.000000
# 6 0.000000 0.000000 0.000000 -0.004997 0.000000 0.024155
#
#
# Mechanical properties :
#
#
# Convention : Reuss Voigt Hill
#
# Bulk Modulus (GPa) = 62.60493 63.65125 63.12809
# Shear Modulus (GPa) = 32.87856 35.42023 34.14939
#
# Velocity S-wave (km/s) = 4.09268 4.24793 4.17103
# Velocity P-wave (km/s) = 7.36394 7.51580 7.44026
#
# Compressibility (1/GPa) = 0.01597318
#
# Stress axis : x y z
#
# Youngs Moduli (GPa) = 71.34928 72.85277 94.21282
#
# Poissons Ratio (x) = 0.36124 0.27167
# Poissons Ratio (y) = 0.35379 0.31555
# Poissons Ratio (z) = 0.20574 0.24401
#
# Static dielectric constant tensor:
#      x y z
#    x 3.544720 0.000000 -0.095260 
#    y 0.000000 3.627280 0.000000 
#    z -0.095260 0.000000 3.601170 
# 
# 
# High freq. dielectric constant tensor:
#      x y z
#    x 1.768580 0.000000 -0.006240 
#    y 0.000000 1.771610 0.000000 
#    z -0.006240 0.000000 1.777600 
# 
# From -- ./inp_files/87432.got.cif
#   From: 2010.06.25/outbox.cif.g09.slc.cpg/sg13_44_cif.got.tgz:87432.got - 2010.06.28 04:50:58.
