data_PCOD8120702
_publ_section_title
;
Structure prediction by ZEFSAII (Michael W. Deem and Ramdas Pophale) SiO2 
 PCOD8120702
Probable space group: P 2/C
;
_chemical_formula_sum "Si O2"
_cell_formula_units_Z 26
_cell_length_a 9.028216
_cell_length_b 8.077719
_cell_length_c 28.338380
_cell_angle_alpha 90.000000
_cell_angle_beta 36.796871
_cell_angle_gamma 90.000000
_cell_volume 1237.878238
_symmetry_space_group_name_H-M "P 2/C"
_symmetry_group_IT_number 13
_symmetry_cell_setting 'monoclinic'
loop_
_space_group_symop_operation_xyz
x,y,z
-x,y,1/2-z
-x,-y,-z
x,-y,1/2+z
loop_
_atom_site_type_symbol
_atom_site_label
_atom_site_fract_x
_atom_site_fract_y
_atom_site_fract_z
Si Si1 0.008353 0.748453 0.365517
Si Si2 0.337609 0.975520 0.746850
Si Si3 0.777221 0.357137 0.833295
Si Si4 0.592524 0.646035 0.820807
Si Si5 0.348851 0.140640 0.909860
Si Si6 0.500000 0.448851 0.750000
Si Si7 0.183056 0.203752 0.486535
O O1 0.261167 0.664060 0.316275
O O2 0.859626 0.633021 0.366604
O O3 0.820815 0.758894 0.457006
O O4 0.082181 0.932621 0.327089
O O5 0.500000 0.913735 0.750000
O O6 0.275653 0.817972 0.728956
O O7 0.510618 0.104556 0.674816
O O8 0.770149 0.534778 0.808296
O O9 0.515690 0.264972 0.897677
O O10 0.000000 0.256537 0.750000
O O11 0.510384 0.555155 0.794498
O O12 0.350674 0.671705 0.914361
O O13 0.296503 0.978663 0.953622
O O14 0.089649 0.225890 0.964959
#
# Coordination Sequence:
#
# PCOD8120702 Si02
#       7
#     4   4   4   4   4   2   4
#     4  12  23  41  71  93 133 182 229 269 331 403
#     4  11  19  39  69 100 121 170 234 277 313 393
#     4  12  24  43  63  98 137 179 214 273 338 401
#     4  11  25  41  64 102 137 169 222 281 346 385
#     4  10  21  41  68  96 133 169 227 273 335 390
#     4  12  22  40  68  96 130 182 226 268 330 412
#     4  10  23  42  67 101 131 172 226 287 321 404
#
# _framework density 21.003679999999999
#
# number of rings (size 3 to 8) (size 9 to 14) (size 15 to 20)
#    0.000    0.923    6.154    0.923    0.000    3.692 
#    5.538    0.000    0.000    0.000    0.000    0.000 
#    0.000    0.000    0.000    0.000    0.000    0.000 
#
# Total GULP energy -322338.985681 kJ/mol
# GULP energy per Si atom -12397.653295 kJ/mol
# Density = 2.095587 g / cm^3
# Si number density = 21.003680 Si / 1000 Ang^3
#
#
#
# Elastic Constant Matrix: (Units=GPa)
#
#
# Indices 1 2 3 4 5 6 
#
# 1 100.8332 48.0868 38.2737 0.0000 11.6233 0.0000
# 2 48.0868 86.6795 36.9734 0.0000 2.7771 0.0000
# 3 38.2737 36.9734 125.4036 0.0000 23.2572 0.0000
# 4 0.0000 0.0000 0.0000 24.3610 0.0000 6.9079
# 5 11.6233 2.7771 23.2572 0.0000 39.5521 0.0000
# 6 0.0000 0.0000 0.0000 6.9079 0.0000 21.8917
#
#
#
# Elastic Compliance Matrix: (Units=1/GPa)
#
#
# Indices 1 2 3 4 5 6 
#
# 1 0.014272 -0.007074 -0.001778 0.000000 -0.002652 0.000000
# 2 -0.007074 0.016785 -0.003319 0.000000 0.002852 0.000000
# 3 -0.001778 -0.003319 0.010500 0.000000 -0.005419 0.000000
# 4 0.000000 0.000000 0.000000 0.045083 0.000000 -0.014226
# 5 -0.002652 0.002852 -0.005419 0.000000 0.029048 0.000000
# 6 0.000000 0.000000 0.000000 -0.014226 0.000000 0.050168
#
#
# Mechanical properties :
#
#
# Convention : Reuss Voigt Hill
#
# Bulk Modulus (GPa) = 58.08776 62.17603 60.13189
# Shear Modulus (GPa) = 25.51830 29.79978 27.65904
#
# Velocity S-wave (km/s) = 3.48939 3.77077 3.63280
# Velocity P-wave (km/s) = 6.62951 6.97316 6.80351
#
# Compressibility (1/GPa) = 0.01721533
#
# Stress axis : x y z
#
# Youngs Moduli (GPa) = 70.06964 59.57570 95.23374
#
# Poissons Ratio (x) = 0.42143 0.16936
# Poissons Ratio (y) = 0.49566 0.31607
# Poissons Ratio (z) = 0.12461 0.19772
#
# Static dielectric constant tensor:
#      x y z
#    x 3.735800 0.000000 0.074330 
#    y 0.000000 3.819070 0.000000 
#    z 0.074330 0.000000 3.974720 
# 
# 
# High freq. dielectric constant tensor:
#      x y z
#    x 1.817910 0.000000 0.009890 
#    y 0.000000 1.815660 0.000000 
#    z 0.009890 0.000000 1.828030 
# 
# From -- ./inp_files/76003.got.cif
#   From: 2010.06.25/outbox.cif.g09.slc.cpg/sg13_39_cif.got.tgz:76003.got - 2010.06.28 04:50:58.
