data_PCOD8120183
_publ_section_title
;
Structure prediction by ZEFSAII (Michael W. Deem and Ramdas Pophale) SiO2 
 PCOD8120183
Probable space group: P 2/C
;
_chemical_formula_sum "Si O2"
_cell_formula_units_Z 32
_cell_length_a 7.998793
_cell_length_b 6.576593
_cell_length_c 30.326144
_cell_angle_alpha 90.000000
_cell_angle_beta 92.027944
_cell_angle_gamma 90.000000
_cell_volume 1594.301766
_symmetry_space_group_name_H-M "P 2/C"
_symmetry_group_IT_number 13
_symmetry_cell_setting 'monoclinic'
loop_
_space_group_symop_operation_xyz
x,y,z
-x,y,1/2-z
-x,-y,-z
x,-y,1/2+z
loop_
_atom_site_type_symbol
_atom_site_label
_atom_site_fract_x
_atom_site_fract_y
_atom_site_fract_z
Si Si1 0.323972 0.166721 0.903537
Si Si2 0.825916 0.249436 0.076077
Si Si3 0.803050 0.402424 0.842626
Si Si4 0.177865 0.534965 0.342151
Si Si5 0.376113 0.012116 0.638931
Si Si6 0.686487 0.446951 0.512503
Si Si7 0.193138 0.696586 0.579251
Si Si8 0.497987 0.655417 0.801276
O O1 0.206235 0.238428 0.861878
O O2 0.509404 0.177476 0.884823
O O3 0.305832 0.291766 0.947553
O O4 0.291099 0.939103 0.917101
O O5 0.786563 0.397720 0.115502
O O6 0.783140 0.350088 0.028458
O O7 0.018066 0.185625 0.078380
O O8 0.770881 0.156646 0.841890
O O9 0.810400 0.486946 0.892846
O O10 0.654633 0.511017 0.814527
O O11 0.985262 0.461262 0.822242
O O12 0.319070 0.457009 0.309053
O O13 0.320003 0.854484 0.601281
O O14 0.476807 0.877494 0.675939
O O15 0.500000 0.500000 0.500000
O O16 0.770058 0.351674 0.470673
O O17 0.500000 0.700824 0.750000
#
# Coordination Sequence:
#
# PCOD8120183 Si02
#       8
#     4   4   4   4   4   4   4   4
#     4  11  21  36  62  86 119 166 206 253 307 365
#     4  10  21  38  57  83 120 164 208 253 309 357
#     4  10  22  41  66  90 123 164 206 247 312 373
#     4  10  21  41  65  90 123 161 201 253 307 376
#     4  11  21  39  64  91 122 160 209 250 307 380
#     4  11  23  34  53  85 122 160 214 259 303 355
#     4  10  22  37  57  86 123 163 208 259 300 362
#     4  11  24  42  67  93 123 156 199 256 316 375
#
# _framework density 20.071483000000001
#
# number of rings (size 3 to 8) (size 9 to 14) (size 15 to 20)
#    0.000    1.500    2.500    2.625    3.500    4.500 
#    0.000    0.000    0.000    0.000    0.000    0.000 
#    0.000    0.000    0.000    0.000    0.000    0.000 
#
# Total GULP energy -396551.451702 kJ/mol
# GULP energy per Si atom -12392.232866 kJ/mol
# Density = 2.002580 g / cm^3
# Si number density = 20.071483 Si / 1000 Ang^3
#
#
#
# Elastic Constant Matrix: (Units=GPa)
#
#
# Indices 1 2 3 4 5 6 
#
# 1 118.7023 25.8122 35.9246 0.0000 -4.8579 0.0000
# 2 25.8122 82.7886 13.3273 0.0000 1.8849 0.0000
# 3 35.9246 13.3273 92.7448 0.0000 -4.7482 0.0000
# 4 0.0000 0.0000 0.0000 12.7860 0.0000 -3.2035
# 5 -4.8579 1.8849 -4.7482 0.0000 21.0789 0.0000
# 6 0.0000 0.0000 0.0000 -3.2035 0.0000 32.3654
#
#
#
# Elastic Compliance Matrix: (Units=1/GPa)
#
#
# Indices 1 2 3 4 5 6 
#
# 1 0.010115 -0.002640 -0.003447 0.000000 0.001791 0.000000
# 2 -0.002640 0.013102 -0.000963 0.000000 -0.001997 0.000000
# 3 -0.003447 -0.000963 0.012362 0.000000 0.002076 0.000000
# 4 0.000000 0.000000 0.000000 0.080199 0.000000 0.007938
# 5 0.001791 -0.001997 0.002076 0.000000 0.048500 0.000000
# 6 0.000000 0.000000 0.000000 0.007938 0.000000 0.031683
#
#
# Mechanical properties :
#
#
# Convention : Reuss Voigt Hill
#
# Bulk Modulus (GPa) = 46.55267 49.37376 47.96322
# Shear Modulus (GPa) = 23.01812 27.85749 25.43780
#
# Velocity S-wave (km/s) = 3.39013 3.72951 3.56386
# Velocity P-wave (km/s) = 6.21029 6.57252 6.39397
#
# Compressibility (1/GPa) = 0.02148104
#
# Stress axis : x y z
#
# Youngs Moduli (GPa) = 98.86379 76.32222 80.89236
#
# Poissons Ratio (x) = 0.20146 0.27884
# Poissons Ratio (y) = 0.26096 0.07787
# Poissons Ratio (z) = 0.34079 0.07347
#
# Static dielectric constant tensor:
#      x y z
#    x 3.790500 0.000000 0.092580 
#    y 0.000000 3.679820 0.000000 
#    z 0.092580 0.000000 3.386330 
# 
# 
# High freq. dielectric constant tensor:
#      x y z
#    x 1.798770 0.000000 0.001490 
#    y 0.000000 1.785660 0.000000 
#    z 0.001490 0.000000 1.763860 
# 
# From -- ./inp_files/95673.got.cif
#   From: 2010.06.25/outbox.cif.g09.slc.cpg/sg13_48_cif.got.tgz:95673.got - 2010.06.28 04:50:58.
