data_PCOD8120380
_publ_section_title
;
Structure prediction by ZEFSAII (Michael W. Deem and Ramdas Pophale) SiO2 
 PCOD8120380
Probable space group: P 2/C
;
_chemical_formula_sum "Si O2"
_cell_formula_units_Z 28
_cell_length_a 11.743990
_cell_length_b 8.504069
_cell_length_c 14.420422
_cell_angle_alpha 90.000000
_cell_angle_beta 111.781695
_cell_angle_gamma 90.000000
_cell_volume 1337.368737
_symmetry_space_group_name_H-M "P 2/C"
_symmetry_group_IT_number 13
_symmetry_cell_setting 'monoclinic'
loop_
_space_group_symop_operation_xyz
x,y,z
-x,y,1/2-z
-x,-y,-z
x,-y,1/2+z
loop_
_atom_site_type_symbol
_atom_site_label
_atom_site_fract_x
_atom_site_fract_y
_atom_site_fract_z
Si Si1 0.375748 0.424107 0.102127
Si Si2 0.147532 0.362881 0.545469
Si Si3 0.322333 0.926763 0.264905
Si Si4 0.029582 0.561486 0.358687
Si Si5 0.500000 0.330558 0.750000
Si Si6 0.747778 0.218272 0.566217
Si Si7 0.147810 0.981916 0.051048
Si Si8 0.500000 0.167700 0.250000
O O1 0.249694 0.506301 0.092306
O O2 0.480305 0.556765 0.152424
O O3 0.396716 0.273869 0.172569
O O4 0.359125 0.346548 0.994536
O O5 0.059459 0.418774 0.436174
O O6 0.189440 0.189725 0.526173
O O7 0.080068 0.342993 0.624474
O O8 0.377939 0.771302 0.231162
O O9 0.292697 0.891319 0.362140
O O10 0.202940 0.990325 0.172909
O O11 0.428727 0.058302 0.302101
O O12 0.135283 0.684443 0.367529
O O13 0.000000 0.486250 0.250000
O O14 0.783074 0.111413 0.488838
O O15 0.000000 0.000000 0.000000
#
# Coordination Sequence:
#
# PCOD8120380 Si02
#       8
#     4   4   4   4   2   4   4   2
#     4  10  21  42  67  93 125 170 213 273 325 380
#     4  10  21  40  63  88 130 166 208 266 331 383
#     4  11  24  43  67  96 130 176 217 273 325 392
#     4  10  21  39  62  92 124 168 211 265 319 390
#     4  10  22  42  70  92 130 172 218 266 334 378
#     4  11  24  40  65  97 130 169 223 263 328 396
#     4  12  23  43  64  93 134 171 210 269 327 396
#     4  10  22  44  66  94 130 176 220 274 328 376
#
# _framework density 20.936634000000002
#
# number of rings (size 3 to 8) (size 9 to 14) (size 15 to 20)
#    0.000    1.429    4.286    0.857    0.000    1.143 
#    5.143    1.429    0.000    0.000    0.000    0.000 
#    0.000    0.000    0.000    0.000    0.000    0.000 
#
# Total GULP energy -346887.553076 kJ/mol
# GULP energy per Si atom -12388.841181 kJ/mol
# Density = 2.088898 g / cm^3
# Si number density = 20.936634 Si / 1000 Ang^3
#
#
#
# Elastic Constant Matrix: (Units=GPa)
#
#
# Indices 1 2 3 4 5 6 
#
# 1 67.6098 26.2355 48.7563 0.0000 9.7150 0.0000
# 2 26.2355 100.6411 43.5272 0.0000 8.1028 0.0000
# 3 48.7563 43.5272 133.6283 0.0000 4.9008 0.0000
# 4 0.0000 0.0000 0.0000 26.7100 0.0000 6.7028
# 5 9.7150 8.1028 4.9008 0.0000 29.6796 0.0000
# 6 0.0000 0.0000 0.0000 6.7028 0.0000 22.2482
#
#
#
# Elastic Compliance Matrix: (Units=1/GPa)
#
#
# Indices 1 2 3 4 5 6 
#
# 1 0.021359 -0.002162 -0.006896 0.000000 -0.005262 0.000000
# 2 -0.002162 0.011980 -0.003038 0.000000 -0.002061 0.000000
# 3 -0.006896 -0.003038 0.010942 0.000000 0.001280 0.000000
# 4 0.000000 0.000000 0.000000 0.040501 0.000000 -0.012202
# 5 -0.005262 -0.002061 0.001280 0.000000 0.035767 0.000000
# 6 0.000000 0.000000 0.000000 -0.012202 0.000000 0.048624
#
#
# Mechanical properties :
#
#
# Convention : Reuss Voigt Hill
#
# Bulk Modulus (GPa) = 49.77713 59.87971 54.82842
# Shear Modulus (GPa) = 24.99253 27.95157 26.47205
#
# Velocity S-wave (km/s) = 3.45878 3.65781 3.55968
# Velocity P-wave (km/s) = 6.30695 6.81923 6.56809
#
# Compressibility (1/GPa) = 0.02008955
#
# Stress axis : x y z
#
# Youngs Moduli (GPa) = 46.81933 83.47491 91.39002
#
# Poissons Ratio (x) = 0.18045 0.63022
# Poissons Ratio (y) = 0.10121 0.27763
# Poissons Ratio (z) = 0.32286 0.25358
#
# Static dielectric constant tensor:
#      x y z
#    x 3.614640 0.000000 0.351980 
#    y 0.000000 4.061740 0.000000 
#    z 0.351980 0.000000 3.847090 
# 
# 
# High freq. dielectric constant tensor:
#      x y z
#    x 1.798160 0.000000 0.029800 
#    y 0.000000 1.836060 0.000000 
#    z 0.029800 0.000000 1.819980 
# 
# From -- ./inp_files/50133.got.cif
#   From: 2010.06.25/outbox.cif.g09.slc.cpg/sg13_26_cif.got.tgz:50133.got - 2010.06.28 04:50:58.
