data_PCOD8120624
_publ_section_title
;
Structure prediction by ZEFSAII (Michael W. Deem and Ramdas Pophale) SiO2 
 PCOD8120624
Probable space group: P 2/C
;
_chemical_formula_sum "Si O2"
_cell_formula_units_Z 26
_cell_length_a 17.189663
_cell_length_b 6.527192
_cell_length_c 12.378494
_cell_angle_alpha 90.000000
_cell_angle_beta 119.359508
_cell_angle_gamma 90.000000
_cell_volume 1210.484164
_symmetry_space_group_name_H-M "P 2/C"
_symmetry_group_IT_number 13
_symmetry_cell_setting 'monoclinic'
loop_
_space_group_symop_operation_xyz
x,y,z
-x,y,1/2-z
-x,-y,-z
x,-y,1/2+z
loop_
_atom_site_type_symbol
_atom_site_label
_atom_site_fract_x
_atom_site_fract_y
_atom_site_fract_z
Si Si1 0.357330 0.294657 0.813176
Si Si2 0.352891 0.985741 0.508437
Si Si3 0.945596 0.191085 0.000302
Si Si4 0.500000 0.807297 0.250000
Si Si5 0.754286 0.676830 0.693707
Si Si6 0.938261 0.505967 0.299875
Si Si7 0.769810 0.980357 0.891311
O O1 0.442492 0.332919 0.793023
O O2 0.315090 0.511812 0.809409
O O3 0.384678 0.179940 0.942543
O O4 0.290156 0.150260 0.705230
O O5 0.439921 0.048292 0.633989
O O6 0.302135 0.182856 0.425246
O O7 0.281526 0.881204 0.541551
O O8 0.920089 0.334089 0.882139
O O9 0.856725 0.098838 0.993599
O O10 0.001524 0.313225 0.125983
O O11 0.000000 0.000000 0.000000
O O12 0.840239 0.571730 0.693912
O O13 0.793801 0.802473 0.822583
O O14 0.000000 0.613997 0.250000
#
# Coordination Sequence:
#
# PCOD8120624 Si02
#       7
#     4   4   4   2   4   4   4
#     4  10  22  41  65  91 126 158 206 255 309 379
#     4  10  23  40  67  91 121 163 205 255 312 378
#     4  11  22  40  61  90 126 168 211 254 301 360
#     4  10  22  44  66  94 124 160 200 260 324 374
#     4  11  22  41  62  92 126 164 208 252 313 368
#     4  11  24  39  61  93 128 165 213 259 298 361
#     4  10  21  41  61  89 128 168 204 253 308 362
#
# _framework density 21.479008
#
# number of rings (size 3 to 8) (size 9 to 14) (size 15 to 20)
#    0.000    1.538    3.077    1.385    0.000    4.923 
#    0.000    7.692    0.000    0.000    0.000    0.000 
#    0.000    0.000    0.000    0.000    0.000    0.000 
#
# Total GULP energy -322364.273505 kJ/mol
# GULP energy per Si atom -12398.625904 kJ/mol
# Density = 2.143012 g / cm^3
# Si number density = 21.479008 Si / 1000 Ang^3
#
#
#
# Elastic Constant Matrix: (Units=GPa)
#
#
# Indices 1 2 3 4 5 6 
#
# 1 148.6614 21.8791 34.9094 0.0000 6.0760 0.0000
# 2 21.8791 64.5618 20.3145 0.0000 10.1214 0.0000
# 3 34.9094 20.3145 89.8046 0.0000 9.0117 0.0000
# 4 0.0000 0.0000 0.0000 14.4836 0.0000 -0.0007
# 5 6.0760 10.1214 9.0117 0.0000 31.3667 0.0000
# 6 0.0000 0.0000 0.0000 -0.0007 0.0000 31.1755
#
#
#
# Elastic Compliance Matrix: (Units=1/GPa)
#
#
# Indices 1 2 3 4 5 6 
#
# 1 0.007586 -0.001745 -0.002536 0.000000 -0.000178 0.000000
# 2 -0.001745 0.017696 -0.002868 0.000000 -0.004548 0.000000
# 3 -0.002536 -0.002868 0.013003 0.000000 -0.002319 0.000000
# 4 0.000000 0.000000 0.000000 0.069044 0.000000 0.000002
# 5 -0.000178 -0.004548 -0.002319 0.000000 0.034049 0.000000
# 6 0.000000 0.000000 0.000000 0.000002 0.000000 0.032077
#
#
# Mechanical properties :
#
#
# Convention : Reuss Voigt Hill
#
# Bulk Modulus (GPa) = 41.69150 50.80376 46.24763
# Shear Modulus (GPa) = 25.54291 30.46680 28.00485
#
# Velocity S-wave (km/s) = 3.45222 3.77031 3.61477
# Velocity P-wave (km/s) = 5.94499 6.53129 6.24503
#
# Compressibility (1/GPa) = 0.02398570
#
# Stress axis : x y z
#
# Youngs Moduli (GPa) = 131.81488 56.51036 76.90654
#
# Poissons Ratio (x) = 0.09861 0.19507
# Poissons Ratio (y) = 0.23001 0.22059
# Poissons Ratio (z) = 0.33434 0.16209
#
# Static dielectric constant tensor:
#      x y z
#    x 4.939300 0.000000 -0.986220 
#    y 0.000000 2.793180 0.000000 
#    z -0.986220 0.000000 4.716030 
# 
# 
# High freq. dielectric constant tensor:
#      x y z
#    x 1.862680 0.000000 0.002720 
#    y 0.000000 1.829730 0.000000 
#    z 0.002720 0.000000 1.842760 
# 
# From -- ./inp_files/54511.got.cif
#   From: 2010.06.25/outbox.cif.g09.slc.cpg/sg13_28_cif.got.tgz:54511.got - 2010.06.28 04:50:58.
