data_PCOD8120401
_publ_section_title
;
Structure prediction by ZEFSAII (Michael W. Deem and Ramdas Pophale) SiO2 
 PCOD8120401
Probable space group: P 2/C
;
_chemical_formula_sum "Si O2"
_cell_formula_units_Z 26
_cell_length_a 8.634343
_cell_length_b 14.901330
_cell_length_c 19.418153
_cell_angle_alpha 90.000000
_cell_angle_beta 146.786805
_cell_angle_gamma 90.000000
_cell_volume 1368.514245
_symmetry_space_group_name_H-M "P 2/C"
_symmetry_group_IT_number 13
_symmetry_cell_setting 'monoclinic'
loop_
_space_group_symop_operation_xyz
x,y,z
-x,y,1/2-z
-x,-y,-z
x,-y,1/2+z
loop_
_atom_site_type_symbol
_atom_site_label
_atom_site_fract_x
_atom_site_fract_y
_atom_site_fract_z
Si Si1 0.500000 0.494177 0.250000
Si Si2 0.000000 0.250765 0.750000
Si Si3 0.045540 0.631315 0.632607
Si Si4 0.571469 0.611446 0.141376
Si Si5 0.355272 0.133758 0.987640
Si Si6 0.100844 0.955090 0.861087
Si Si7 0.000000 0.516527 0.750000
Si Si8 0.354137 0.816778 0.768034
O O1 0.771253 0.426763 0.354462
O O2 0.538193 0.559856 0.200531
O O3 0.209990 0.305946 0.777778
O O4 0.173395 0.195340 0.870321
O O5 0.003624 0.575758 0.684934
O O6 0.191153 0.723268 0.708731
O O7 0.734779 0.651039 0.489021
O O8 0.710889 0.542305 0.138510
O O9 0.192552 0.039780 0.941786
O O10 0.644616 0.114471 0.054936
O O11 0.420875 0.181814 0.085138
O O12 0.000000 0.993767 0.750000
O O13 0.851524 0.901675 0.804677
O O14 0.500000 0.828123 0.750000
#
# Coordination Sequence:
#
# PCOD8120401 Si02
#       8
#     2   2   4   4   4   4   2   4
#     4  10  22  42  58  86 120 172 194 242 314 364
#     4  11  22  38  61  94 120 154 209 260 302 345
#     4  11  21  39  60  86 120 158 201 252 295 363
#     4  10  22  38  59  87 120 156 204 251 298 367
#     4  10  21  39  64  88 121 157 202 256 299 364
#     4   9  19  39  65  88 117 159 205 248 307 359
#     4   9  22  36  57  88 112 154 205 250 310 337
#     4  11  24  38  59  95 122 161 203 247 308 366
#
# _framework density 18.998707
#
# number of rings (size 3 to 8) (size 9 to 14) (size 15 to 20)
#    0.000    1.846    1.538    1.846    5.385    1.846 
#    5.538    0.000    1.692    0.000    0.000    0.000 
#    0.000    0.000    0.000    0.000    0.000    0.000 
#
# Total GULP energy -322227.928142 kJ/mol
# GULP energy per Si atom -12393.381852 kJ/mol
# Density = 1.895547 g / cm^3
# Si number density = 18.998707 Si / 1000 Ang^3
#
#
#
# Elastic Constant Matrix: (Units=GPa)
#
#
# Indices 1 2 3 4 5 6 
#
# 1 106.3954 55.3196 55.2577 0.0000 5.4680 0.0000
# 2 55.3196 100.4655 63.1210 0.0000 -6.3302 0.0000
# 3 55.2577 63.1210 141.3469 0.0000 4.2659 0.0000
# 4 0.0000 0.0000 0.0000 35.2331 0.0000 2.3217
# 5 5.4680 -6.3302 4.2659 0.0000 20.7192 0.0000
# 6 0.0000 0.0000 0.0000 2.3217 0.0000 16.7535
#
#
#
# Elastic Compliance Matrix: (Units=1/GPa)
#
#
# Indices 1 2 3 4 5 6 
#
# 1 0.014473 -0.006748 -0.002482 0.000000 -0.005370 0.000000
# 2 -0.006748 0.017642 -0.005491 0.000000 0.008301 0.000000
# 3 -0.002482 -0.005491 0.010594 0.000000 -0.003204 0.000000
# 4 0.000000 0.000000 0.000000 0.028644 0.000000 -0.003969
# 5 -0.005370 0.008301 -0.003204 0.000000 0.052877 0.000000
# 6 0.000000 0.000000 0.000000 -0.003969 0.000000 0.060239
#
#
# Mechanical properties :
#
#
# Convention : Reuss Voigt Hill
#
# Bulk Modulus (GPa) = 75.37851 77.28938 76.33395
# Shear Modulus (GPa) = 22.90068 26.17514 24.53791
#
# Velocity S-wave (km/s) = 3.47563 3.71581 3.59772
# Velocity P-wave (km/s) = 7.47451 7.69281 7.58445
#
# Compressibility (1/GPa) = 0.01326638
#
# Stress axis : x y z
#
# Youngs Moduli (GPa) = 69.09590 56.68225 94.39204
#
# Poissons Ratio (x) = 0.38248 0.23433
# Poissons Ratio (y) = 0.46624 0.51831
# Poissons Ratio (z) = 0.17153 0.31125
#
# Static dielectric constant tensor:
#      x y z
#    x 3.263650 0.000000 0.260260 
#    y 0.000000 3.636300 0.000000 
#    z 0.260260 0.000000 3.847220 
# 
# 
# High freq. dielectric constant tensor:
#      x y z
#    x 1.732120 0.000000 0.015740 
#    y 0.000000 1.750220 0.000000 
#    z 0.015740 0.000000 1.742700 
# 
# From -- ./inp_files/29895.got.cif
#   From: 2010.06.25/outbox.cif.g09.slc.cpg/sg13_15_cif.got.tgz:29895.got - 2010.06.28 04:50:58.
