data_PCOD8120462
_publ_section_title
;
Structure prediction by ZEFSAII (Michael W. Deem and Ramdas Pophale) SiO2 
 PCOD8120462
Probable space group: P 2/C
;
_chemical_formula_sum "Si O2"
_cell_formula_units_Z 28
_cell_length_a 11.374039
_cell_length_b 5.980198
_cell_length_c 19.120450
_cell_angle_alpha 90.000000
_cell_angle_beta 74.080071
_cell_angle_gamma 90.000000
_cell_volume 1250.672491
_symmetry_space_group_name_H-M "P 2/C"
_symmetry_group_IT_number 13
_symmetry_cell_setting 'monoclinic'
loop_
_space_group_symop_operation_xyz
x,y,z
-x,y,1/2-z
-x,-y,-z
x,-y,1/2+z
loop_
_atom_site_type_symbol
_atom_site_label
_atom_site_fract_x
_atom_site_fract_y
_atom_site_fract_z
Si Si1 0.443769 0.069073 0.610766
Si Si2 0.596741 0.764819 0.680213
Si Si3 0.043975 0.021405 0.669262
Si Si4 0.211847 0.118512 0.838222
Si Si5 0.658718 0.373507 0.565150
Si Si6 0.774434 0.653897 0.302778
Si Si7 0.733791 0.267066 0.409292
O O1 0.520911 0.964792 0.659904
O O2 0.390247 0.884326 0.565457
O O3 0.527338 0.266164 0.565384
O O4 0.322516 0.160140 0.663894
O O5 0.500000 0.645740 0.750000
O O6 0.640252 0.596637 0.612767
O O7 0.713091 0.892260 0.696200
O O8 0.141491 0.873300 0.611468
O O9 0.000000 0.906144 0.750000
O O10 0.099396 0.264584 0.681845
O O11 0.930468 0.051282 0.635423
O O12 0.255914 0.200543 0.906578
O O13 0.222576 0.329898 0.782333
O O14 0.728340 0.421671 0.480131
O O15 0.733043 0.413600 0.338253
#
# Coordination Sequence:
#
# PCOD8120462 Si02
#       7
#     4   4   4   4   4   4   4
#     4  10  22  41  64  90 134 172 211 253 319 379
#     4  11  23  39  66  94 128 169 217 264 320 382
#     4   9  22  43  66  91 122 166 224 272 317 375
#     4  10  23  43  65  93 127 170 219 270 322 375
#     4  11  26  38  64 100 135 171 212 262 326 385
#     4  10  21  39  68  93 121 167 224 266 316 373
#     4  11  24  42  66  97 132 172 213 266 321 387
#
# _framework density 22.387957
#
# number of rings (size 3 to 8) (size 9 to 14) (size 15 to 20)
#    0.000    1.714    1.429    1.286    4.000   10.286 
#    0.000    1.429    0.000    0.000    0.000    0.000 
#    0.000    0.000    0.000    0.000    0.000    0.000 
#
# Total GULP energy -346937.691511 kJ/mol
# GULP energy per Si atom -12390.631840 kJ/mol
# Density = 2.233700 g / cm^3
# Si number density = 22.387957 Si / 1000 Ang^3
#
#
#
# Elastic Constant Matrix: (Units=GPa)
#
#
# Indices 1 2 3 4 5 6 
#
# 1 132.6551 29.1882 22.3167 0.0000 -3.3542 0.0000
# 2 29.1882 79.6491 22.4491 0.0000 -1.7553 0.0000
# 3 22.3167 22.4491 88.0799 0.0000 -4.3442 0.0000
# 4 0.0000 0.0000 0.0000 22.7367 0.0000 5.7016
# 5 -3.3542 -1.7553 -4.3442 0.0000 17.3994 0.0000
# 6 0.0000 0.0000 0.0000 5.7016 0.0000 14.1935
#
#
#
# Elastic Compliance Matrix: (Units=1/GPa)
#
#
# Indices 1 2 3 4 5 6 
#
# 1 0.008383 -0.002656 -0.001398 0.000000 0.000999 0.000000
# 2 -0.002656 0.014373 -0.002981 0.000000 0.000194 0.000000
# 3 -0.001398 -0.002981 0.012594 0.000000 0.002574 0.000000
# 4 0.000000 0.000000 0.000000 0.048908 0.000000 -0.019647
# 5 0.000999 0.000194 0.002574 0.000000 0.058328 0.000000
# 6 0.000000 0.000000 0.000000 -0.019647 0.000000 0.078347
#
#
# Mechanical properties :
#
#
# Convention : Reuss Voigt Hill
#
# Bulk Modulus (GPa) = 46.99042 49.81024 48.40033
# Shear Modulus (GPa) = 20.65289 25.96127 23.30708
#
# Velocity S-wave (km/s) = 3.04056 3.40900 3.23004
# Velocity P-wave (km/s) = 5.77593 6.14752 5.96462
#
# Compressibility (1/GPa) = 0.02128094
#
# Stress axis : x y z
#
# Youngs Moduli (GPa) = 119.28633 69.57583 79.40202
#
# Poissons Ratio (x) = 0.18480 0.11099
# Poissons Ratio (y) = 0.31684 0.23667
# Poissons Ratio (z) = 0.16674 0.20738
#
# Static dielectric constant tensor:
#      x y z
#    x 4.483210 0.000000 -0.086880 
#    y 0.000000 3.802220 0.000000 
#    z -0.086880 0.000000 3.837390 
# 
# 
# High freq. dielectric constant tensor:
#      x y z
#    x 1.893760 0.000000 -0.005550 
#    y 0.000000 1.864670 0.000000 
#    z -0.005550 0.000000 1.868770 
# 
# From -- ./inp_files/77471.got.cif
#   From: 2010.06.25/outbox.cif.g09.slc.cpg/sg13_39_cif.got.tgz:77471.got - 2010.06.28 04:50:58.
