data_PCOD8120047
_publ_section_title
;
Structure prediction by ZEFSAII (Michael W. Deem and Ramdas Pophale) SiO2 
 PCOD8120047
Probable space group: P 2/C
;
_chemical_formula_sum "Si O2"
_cell_formula_units_Z 20
_cell_length_a 8.967681
_cell_length_b 23.980868
_cell_length_c 5.278911
_cell_angle_alpha 90.000000
_cell_angle_beta 126.062513
_cell_angle_gamma 90.000000
_cell_volume 917.703470
_symmetry_space_group_name_H-M "P 2/C"
_symmetry_group_IT_number 13
_symmetry_cell_setting 'monoclinic'
loop_
_space_group_symop_operation_xyz
x,y,z
-x,y,1/2-z
-x,-y,-z
x,-y,1/2+z
loop_
_atom_site_type_symbol
_atom_site_label
_atom_site_fract_x
_atom_site_fract_y
_atom_site_fract_z
Si Si1 0.792926 0.023831 0.792926
Si Si2 0.119080 0.364255 0.619081
Si Si3 0.119026 0.238510 0.619026
Si Si4 0.379954 0.862639 0.379954
Si Si5 0.293717 0.476184 0.793717
O O1 0.783235 0.091064 0.783241
O O2 0.690728 0.000001 0.440724
O O3 0.000000 0.000000 0.000000
O O4 0.198610 0.301485 0.698603
O O5 0.287311 0.408643 0.787316
O O6 0.000000 0.374481 0.750000
O O7 0.000000 0.374484 0.250000
O O8 0.294039 0.198589 0.794046
O O9 0.000000 0.226835 0.750000
O O10 0.000000 0.226832 0.250000
O O11 0.500000 0.870709 0.250000
O O12 0.500000 0.870712 0.750000
O O13 0.191314 0.499999 0.441312
O O14 0.500000 0.500000 0.000000
#
# Coordination Sequence:
#
# PCOD8120047 Si02
#       5
#     4   4   4   4   4
#     4  10  23  40  65  95 124 176 213 251 318 384
#     4  10  21  39  62  92 121 161 216 261 299 368
#     4  10  23  43  70  92 127 178 218 259 317 388
#     4  12  26  43  66 103 136 163 214 275 322 373
#     4  10  21  37  55  88 122 163 198 253 319 374
#
# _framework density 21.793534000000001
#
# number of rings (size 3 to 8) (size 9 to 14) (size 15 to 20)
#    0.000    1.600    0.000    3.600    5.600    4.800 
#    7.200    0.000    0.000    0.000    0.000    0.000 
#    0.000    0.000    0.000    0.000    0.000    0.000 
#
# Total GULP energy -247892.916188 kJ/mol
# GULP energy per Si atom -12394.645809 kJ/mol
# Density = 2.174393 g / cm^3
# Si number density = 21.793534 Si / 1000 Ang^3
#
#
#
# Elastic Constant Matrix: (Units=GPa)
#
#
# Indices 1 2 3 4 5 6 
#
# 1 80.5189 70.1594 81.3627 0.0000 -18.1133 0.0000
# 2 70.1594 205.2352 63.8700 0.0000 8.9707 0.0000
# 3 81.3627 63.8700 130.6916 0.0000 -53.4887 0.0000
# 4 0.0000 0.0000 0.0000 46.2070 0.0000 1.7471
# 5 -18.1133 8.9707 -53.4887 0.0000 56.4016 0.0000
# 6 0.0000 0.0000 0.0000 1.7471 0.0000 47.4370
#
#
#
# Elastic Compliance Matrix: (Units=1/GPa)
#
#
# Indices 1 2 3 4 5 6 
#
# 1 0.046365 -0.005011 -0.032680 0.000000 -0.015305 0.000000
# 2 -0.005011 0.007772 -0.003013 0.000000 -0.005703 0.000000
# 3 -0.032680 -0.003013 0.041463 0.000000 0.029306 0.000000
# 4 0.000000 0.000000 0.000000 0.021672 0.000000 -0.000798
# 5 -0.015305 -0.005703 0.029306 0.000000 0.041514 0.000000
# 6 0.000000 0.000000 0.000000 -0.000798 0.000000 0.021110
#
#
# Mechanical properties :
#
#
# Convention : Reuss Voigt Hill
#
# Bulk Modulus (GPa) = 70.45550 94.13667 82.29608
# Shear Modulus (GPa) = 18.79457 43.41269 31.10363
#
# Velocity S-wave (km/s) = 2.93984 4.46802 3.78192
# Velocity P-wave (km/s) = 6.62739 8.36099 7.54415
#
# Compressibility (1/GPa) = 0.01419336
#
# Stress axis : x y z
#
# Youngs Moduli (GPa) = 21.56809 128.66351 24.11778
#
# Poissons Ratio (x) = 0.64469 0.78817
# Poissons Ratio (y) = 0.10807 0.07266
# Poissons Ratio (z) = 0.70484 0.38764
#
# Static dielectric constant tensor:
#      x y z
#    x 4.668310 0.000000 -1.618810 
#    y 0.000000 4.147830 0.000000 
#    z -1.618810 0.000000 5.802930 
# 
# 
# High freq. dielectric constant tensor:
#      x y z
#    x 1.845050 0.000000 -0.039610 
#    y 0.000000 1.870930 0.000000 
#    z -0.039610 0.000000 1.872810 
# 
# From -- ./inp_files/2220.got.cif
#   From: 2010.06.25/outbox.cif.g09.slc.cpg/sg13_2_cif.got.tgz:2220.got - 2010.06.28 04:50:58.
