data_PCOD8120498
_publ_section_title
;
Structure prediction by ZEFSAII (Michael W. Deem and Ramdas Pophale) SiO2 
 PCOD8120498
Probable space group: P 2/C
;
_chemical_formula_sum "Si O2"
_cell_formula_units_Z 30
_cell_length_a 16.398921
_cell_length_b 12.093322
_cell_length_c 13.145008
_cell_angle_alpha 90.000000
_cell_angle_beta 146.460120
_cell_angle_gamma 90.000000
_cell_volume 1440.348552
_symmetry_space_group_name_H-M "P 2/C"
_symmetry_group_IT_number 13
_symmetry_cell_setting 'monoclinic'
loop_
_space_group_symop_operation_xyz
x,y,z
-x,y,1/2-z
-x,-y,-z
x,-y,1/2+z
loop_
_atom_site_type_symbol
_atom_site_label
_atom_site_fract_x
_atom_site_fract_y
_atom_site_fract_z
Si Si1 0.044217 0.053775 0.904567
Si Si2 0.500000 0.799101 0.750000
Si Si3 0.635746 0.022431 0.275236
Si Si4 0.900146 0.842046 0.832976
Si Si5 0.002510 0.385772 0.133365
Si Si6 0.568300 0.846131 0.502288
Si Si7 0.246120 0.513666 0.742236
Si Si8 0.504617 0.653345 0.947688
O O1 0.000000 0.107385 0.750000
O O2 0.195910 0.983456 0.056274
O O3 0.062053 0.151665 0.006444
O O4 0.924254 0.962854 0.810501
O O5 0.368150 0.885531 0.638958
O O6 0.542863 0.722779 0.887860
O O7 0.585270 0.083051 0.121148
O O8 0.528991 0.915874 0.180191
O O9 0.001537 0.746234 0.890406
O O10 0.730206 0.815644 0.629082
O O11 0.148679 0.433314 0.230764
O O12 0.000000 0.411907 0.250000
O O13 0.855456 0.441194 0.936649
O O14 0.482419 0.732340 0.439637
O O15 0.335687 0.605940 0.769746
O O16 0.373009 0.440723 0.925363
#
# Coordination Sequence:
#
# PCOD8120498 Si02
#       8
#     4   2   4   4   4   4   4   4
#     4  10  22  37  60  91 130 168 219 262 312 398
#     4  10  22  36  68  94 126 160 216 272 324 370
#     4   9  20  35  55  90 119 160 203 251 317 378
#     4  10  21  40  61  89 130 176 208 264 324 384
#     4  11  24  44  66  91 133 169 211 272 328 390
#     4   9  18  38  60  80 127 163 197 254 317 374
#     4  10  24  43  66  97 124 168 224 269 327 372
#     4  10  21  42  67  93 128 167 215 275 319 379
#
# _framework density 20.828291
#
# number of rings (size 3 to 8) (size 9 to 14) (size 15 to 20)
#    0.000    2.133    1.333    0.400    5.600    1.067 
#    0.000    2.667    0.000    0.000    0.000    0.000 
#    0.000    0.000    0.000    0.000    0.000    0.000 
#
# Total GULP energy -371804.881912 kJ/mol
# GULP energy per Si atom -12393.496064 kJ/mol
# Density = 2.078088 g / cm^3
# Si number density = 20.828291 Si / 1000 Ang^3
#
#
#
# Elastic Constant Matrix: (Units=GPa)
#
#
# Indices 1 2 3 4 5 6 
#
# 1 96.0473 24.3714 38.2372 0.0000 -3.3153 0.0000
# 2 24.3714 74.5558 25.2017 0.0000 2.7836 0.0000
# 3 38.2372 25.2017 66.4055 0.0000 9.1823 0.0000
# 4 0.0000 0.0000 0.0000 25.4660 0.0000 -2.7999
# 5 -3.3153 2.7836 9.1823 0.0000 27.1880 0.0000
# 6 0.0000 0.0000 0.0000 -2.7999 0.0000 20.8600
#
#
#
# Elastic Compliance Matrix: (Units=1/GPa)
#
#
# Indices 1 2 3 4 5 6 
#
# 1 0.014337 -0.002124 -0.008099 0.000000 0.004701 0.000000
# 2 -0.002124 0.015706 -0.004699 0.000000 -0.000280 0.000000
# 3 -0.008099 -0.004699 0.022633 0.000000 -0.008151 0.000000
# 4 0.000000 0.000000 0.000000 0.039856 0.000000 0.005350
# 5 0.004701 -0.000280 -0.008151 0.000000 0.040136 0.000000
# 6 0.000000 0.000000 0.000000 0.005350 0.000000 0.048657
#
#
# Mechanical properties :
#
#
# Convention : Reuss Voigt Hill
#
# Bulk Modulus (GPa) = 43.79951 45.84769 44.82360
# Shear Modulus (GPa) = 22.85400 24.64936 23.75168
#
# Velocity S-wave (km/s) = 3.31608 3.44387 3.38058
# Velocity P-wave (km/s) = 5.97799 6.15416 6.06671
#
# Compressibility (1/GPa) = 0.02283130
#
# Stress axis : x y z
#
# Youngs Moduli (GPa) = 69.74786 63.67032 44.18327
#
# Poissons Ratio (x) = 0.13526 0.35786
# Poissons Ratio (y) = 0.14817 0.20760
# Poissons Ratio (z) = 0.56492 0.29916
#
# Static dielectric constant tensor:
#      x y z
#    x 3.945650 0.000000 0.154220 
#    y 0.000000 3.836760 0.000000 
#    z 0.154220 0.000000 3.644290 
# 
# 
# High freq. dielectric constant tensor:
#      x y z
#    x 1.821180 0.000000 0.014920 
#    y 0.000000 1.813530 0.000000 
#    z 0.014920 0.000000 1.798450 
# 
# From -- ./inp_files/55694.got.cif
#   From: 2010.06.25/outbox.cif.g09.slc.cpg/sg13_28_cif.got.tgz:55694.got - 2010.06.28 04:50:58.
