data_PCOD8120046
_publ_section_title
;
Structure prediction by ZEFSAII (Michael W. Deem and Ramdas Pophale) SiO2 
 PCOD8120046
Probable space group: P 2/C
;
_chemical_formula_sum "Si O2"
_cell_formula_units_Z 20
_cell_length_a 13.122425
_cell_length_b 11.603285
_cell_length_c 10.411340
_cell_angle_alpha 90.000000
_cell_angle_beta 42.977990
_cell_angle_gamma 90.000000
_cell_volume 1080.702219
_symmetry_space_group_name_H-M "P 2/C"
_symmetry_group_IT_number 13
_symmetry_cell_setting 'monoclinic'
loop_
_space_group_symop_operation_xyz
x,y,z
-x,y,1/2-z
-x,-y,-z
x,-y,1/2+z
loop_
_atom_site_type_symbol
_atom_site_label
_atom_site_fract_x
_atom_site_fract_y
_atom_site_fract_z
Si Si1 0.347995 0.936945 0.679927
Si Si2 0.382944 0.550065 0.244189
Si Si3 0.831364 0.040668 0.416055
Si Si4 0.375486 0.674130 0.627735
Si Si5 0.164355 0.697142 0.581033
O O1 0.236204 0.960038 0.664975
O O2 0.390018 0.803364 0.667348
O O3 0.500000 0.000000 0.500000
O O4 0.273472 0.976761 0.883011
O O5 0.500000 0.548882 0.250000
O O6 0.318463 0.420553 0.282380
O O7 0.237122 0.625921 0.400278
O O8 0.463137 0.617841 0.053785
O O9 0.841888 0.170584 0.457211
O O10 0.000000 0.987590 0.250000
O O11 0.259880 0.678437 0.619367
O O12 0.000000 0.646805 0.750000
#
# Coordination Sequence:
#
# PCOD8120046 Si02
#       5
#     4   4   4   4   4
#     4  11  21  35  56  81 106 137 181 221 256 309
#     4   9  17  32  51  71  98 130 164 206 256 303
#     4  10  21  37  55  77 109 143 173 214 268 316
#     4   9  19  33  50  73 100 130 166 210 256 301
#     4   9  18  33  52  72  97 132 169 205 252 308
#
# _framework density 18.506485000000001
#
# number of rings (size 3 to 8) (size 9 to 14) (size 15 to 20)
#    0.000    2.400    0.000    2.400    0.000    5.600 
#    0.000    3.000    0.000    0.000    0.000    0.000 
#    0.000    0.000    0.000    0.000    0.000    0.000 
#
# Total GULP energy -247783.068762 kJ/mol
# GULP energy per Si atom -12389.153438 kJ/mol
# Density = 1.846436 g / cm^3
# Si number density = 18.506485 Si / 1000 Ang^3
#
#
#
# Elastic Constant Matrix: (Units=GPa)
#
#
# Indices 1 2 3 4 5 6 
#
# 1 29.3418 24.4886 22.4296 0.0000 -3.1764 0.0000
# 2 24.4886 123.8069 57.5788 0.0000 -3.4609 0.0000
# 3 22.4296 57.5788 109.0915 0.0000 -10.0541 0.0000
# 4 0.0000 0.0000 0.0000 28.5330 0.0000 5.0201
# 5 -3.1764 -3.4609 -10.0541 0.0000 32.7389 0.0000
# 6 0.0000 0.0000 0.0000 5.0201 0.0000 29.2612
#
#
#
# Elastic Compliance Matrix: (Units=1/GPa)
#
#
# Indices 1 2 3 4 5 6 
#
# 1 0.043556 -0.005935 -0.005651 0.000000 0.001863 0.000000
# 2 -0.005935 0.011526 -0.004944 0.000000 -0.000876 0.000000
# 3 -0.005651 -0.004944 0.013213 0.000000 0.002987 0.000000
# 4 0.000000 0.000000 0.000000 0.036138 0.000000 -0.006200
# 5 0.001863 -0.000876 0.002987 0.000000 0.031550 0.000000
# 6 0.000000 0.000000 0.000000 -0.006200 0.000000 0.035239
#
#
# Mechanical properties :
#
#
# Convention : Reuss Voigt Hill
#
# Bulk Modulus (GPa) = 28.38075 52.35935 40.37005
# Shear Modulus (GPa) = 23.14533 28.62282 25.88408
#
# Velocity S-wave (km/s) = 3.54030 3.93700 3.74391
# Velocity P-wave (km/s) = 5.66397 7.00146 6.36793
#
# Compressibility (1/GPa) = 0.03523515
#
# Stress axis : x y z
#
# Youngs Moduli (GPa) = 22.95896 86.76243 75.68255
#
# Poissons Ratio (x) = 0.51494 0.42769
# Poissons Ratio (y) = 0.13626 0.37416
# Poissons Ratio (z) = 0.12974 0.42893
#
# Static dielectric constant tensor:
#      x y z
#    x 3.267310 0.000000 -0.060750 
#    y 0.000000 3.685690 0.000000 
#    z -0.060750 0.000000 3.663550 
# 
# 
# High freq. dielectric constant tensor:
#      x y z
#    x 1.707900 0.000000 -0.005890 
#    y 0.000000 1.724330 0.000000 
#    z -0.005890 0.000000 1.719600 
# 
# From -- ./inp_files/28681.got.cif
#   From: 2010.06.25/outbox.cif.g09.slc.cpg/sg13_15_cif.got.tgz:28681.got - 2010.06.28 04:50:58.
