data_PCOD8120984
_publ_section_title
;
Structure prediction by ZEFSAII (Michael W. Deem and Ramdas Pophale) SiO2 
 PCOD8120984
Probable space group: P 2/C
;
_chemical_formula_sum "Si O2"
_cell_formula_units_Z 32
_cell_length_a 8.911844
_cell_length_b 10.981062
_cell_length_c 20.006272
_cell_angle_alpha 90.000000
_cell_angle_beta 123.574518
_cell_angle_gamma 90.000000
_cell_volume 1631.211567
_symmetry_space_group_name_H-M "P 2/C"
_symmetry_group_IT_number 13
_symmetry_cell_setting 'monoclinic'
loop_
_space_group_symop_operation_xyz
x,y,z
-x,y,1/2-z
-x,-y,-z
x,-y,1/2+z
loop_
_atom_site_type_symbol
_atom_site_label
_atom_site_fract_x
_atom_site_fract_y
_atom_site_fract_z
Si Si1 0.052846 0.808618 0.967805
Si Si2 0.403120 0.688838 0.996426
Si Si3 0.643911 0.098156 0.561226
Si Si4 0.962373 0.066968 0.899657
Si Si5 0.806812 0.835233 0.235008
Si Si6 0.514436 0.464986 0.105400
Si Si7 0.849801 0.433096 0.420577
Si Si8 0.685662 0.417039 0.763197
O O1 0.239475 0.778925 0.975545
O O2 0.924198 0.697301 0.917735
O O3 0.945582 0.927061 0.916504
O O4 0.088651 0.834395 0.055355
O O5 0.372165 0.606802 0.922827
O O6 0.574917 0.770334 0.021832
O O7 0.452056 0.600497 0.069131
O O8 0.832278 0.083344 0.571499
O O9 0.666071 0.102251 0.648208
O O10 0.500000 0.000000 0.500000
O O11 0.817021 0.085258 0.805037
O O12 0.769140 0.696552 0.245349
O O13 0.000000 0.834519 0.250000
O O14 0.329287 0.400868 0.081791
O O15 0.648569 0.475872 0.200704
O O16 0.816648 0.522580 0.349858
O O17 0.000000 0.500000 0.500000
O O18 0.500000 0.371795 0.750000
#
# Coordination Sequence:
#
# PCOD8120984 Si02
#       8
#     4   4   4   4   4   4   4   4
#     4  11  22  40  62  88 120 161 207 246 301 363
#     4  11  21  37  65  89 120 157 204 245 306 361
#     4  11  21  40  63  88 121 159 203 250 303 361
#     4  10  23  40  62  87 122 159 206 252 297 360
#     4  10  22  38  60  89 119 154 199 254 302 353
#     4  10  22  39  59  91 123 155 199 250 302 369
#     4  11  21  37  62  88 122 159 195 248 309 357
#     4  10  22  39  62  90 122 157 202 253 305 362
#
# _framework density 19.617319999999999
#
# number of rings (size 3 to 8) (size 9 to 14) (size 15 to 20)
#    0.000    1.500    3.750    1.500    1.750    2.000 
#    2.250    0.000    0.000    0.000    0.000    0.000 
#    0.000    0.000    0.000    0.000    0.000    0.000 
#
# Total GULP energy -396649.255226 kJ/mol
# GULP energy per Si atom -12395.289226 kJ/mol
# Density = 1.957267 g / cm^3
# Si number density = 19.617320 Si / 1000 Ang^3
#
#
#
# Elastic Constant Matrix: (Units=GPa)
#
#
# Indices 1 2 3 4 5 6 
#
# 1 55.8094 24.7556 34.7115 0.0000 -11.4267 0.0000
# 2 24.7556 81.9529 51.8306 0.0000 0.5159 0.0000
# 3 34.7115 51.8306 146.2299 0.0000 -10.3722 0.0000
# 4 0.0000 0.0000 0.0000 16.8754 0.0000 -3.7888
# 5 -11.4267 0.5159 -10.3722 0.0000 26.2978 0.0000
# 6 0.0000 0.0000 0.0000 -3.7888 0.0000 40.6159
#
#
#
# Elastic Compliance Matrix: (Units=1/GPa)
#
#
# Indices 1 2 3 4 5 6 
#
# 1 0.024187 -0.005354 -0.003180 0.000000 0.009361 0.000000
# 2 -0.005354 0.017085 -0.005117 0.000000 -0.004680 0.000000
# 3 -0.003180 -0.005117 0.009584 0.000000 0.002499 0.000000
# 4 0.000000 0.000000 0.000000 0.060525 0.000000 0.005646
# 5 0.009361 -0.004680 0.002499 0.000000 0.043171 0.000000
# 6 0.000000 0.000000 0.000000 0.005646 0.000000 0.025148
#
#
# Mechanical properties :
#
#
# Convention : Reuss Voigt Hill
#
# Bulk Modulus (GPa) = 42.45352 56.28754 49.37053
# Shear Modulus (GPa) = 23.27172 28.27078 25.77125
#
# Velocity S-wave (km/s) = 3.44798 3.80032 3.62843
# Velocity P-wave (km/s) = 6.12693 6.92904 6.54029
#
# Compressibility (1/GPa) = 0.02355517
#
# Stress axis : x y z
#
# Youngs Moduli (GPa) = 41.34396 58.53102 104.33859
#
# Poissons Ratio (x) = 0.31339 0.33177
# Poissons Ratio (y) = 0.22136 0.53387
# Poissons Ratio (z) = 0.13146 0.29948
#
# Static dielectric constant tensor:
#      x y z
#    x 3.613430 0.000000 -0.153770 
#    y 0.000000 3.581380 0.000000 
#    z -0.153770 0.000000 3.829360 
# 
# 
# High freq. dielectric constant tensor:
#      x y z
#    x 1.766940 0.000000 -0.008180 
#    y 0.000000 1.764770 0.000000 
#    z -0.008180 0.000000 1.766460 
# 
# From -- ./inp_files/76478.got.cif
#   From: 2010.06.25/outbox.cif.g09.slc.cpg/sg13_39_cif.got.tgz:76478.got - 2010.06.28 04:50:58.
