data_PCOD8120372
_publ_section_title
;
Structure prediction by ZEFSAII (Michael W. Deem and Ramdas Pophale) SiO2 
 PCOD8120372
Probable space group: P 2/C
;
_chemical_formula_sum "Si O2"
_cell_formula_units_Z 30
_cell_length_a 12.756845
_cell_length_b 11.903196
_cell_length_c 21.169073
_cell_angle_alpha 90.000000
_cell_angle_beta 28.391647
_cell_angle_gamma 90.000000
_cell_volume 1528.465138
_symmetry_space_group_name_H-M "P 2/C"
_symmetry_group_IT_number 13
_symmetry_cell_setting 'monoclinic'
loop_
_space_group_symop_operation_xyz
x,y,z
-x,y,1/2-z
-x,-y,-z
x,-y,1/2+z
loop_
_atom_site_type_symbol
_atom_site_label
_atom_site_fract_x
_atom_site_fract_y
_atom_site_fract_z
Si Si1 0.763230 0.587160 0.893489
Si Si2 0.052967 0.118036 0.552806
Si Si3 0.588760 0.655603 0.507123
Si Si4 0.729215 0.807116 0.979609
Si Si5 0.255901 0.834753 0.174520
Si Si6 0.500236 0.779029 0.821817
Si Si7 0.020751 0.862340 0.930266
Si Si8 0.000000 0.029927 0.250000
O O1 0.644297 0.475065 0.977771
O O2 0.767727 0.676035 0.947286
O O3 0.000000 0.544127 0.750000
O O4 0.656338 0.656777 0.891959
O O5 0.319900 0.119577 0.419693
O O6 0.990710 0.173286 0.518957
O O7 0.936451 0.187108 0.671611
O O8 0.964925 0.992770 0.594467
O O9 0.738212 0.735489 0.381624
O O10 0.590074 0.689669 0.579536
O O11 0.800349 0.812979 0.014999
O O12 0.904866 0.889573 0.853773
O O13 0.483187 0.846165 0.092871
O O14 0.199447 0.952128 0.169997
O O15 0.500000 0.729714 0.750000
O O16 0.740158 0.816520 0.718765
#
# Coordination Sequence:
#
# PCOD8120372 Si02
#       8
#     4   4   4   4   4   4   4   2
#     4  10  21  39  62  86 114 155 196 249 307 350
#     4  10  22  37  56  90 123 165 198 235 297 356
#     4  10  23  39  63  88 116 151 200 253 299 351
#     4  11  23  38  59  88 120 162 196 244 302 357
#     4  11  24  36  58  93 123 153 197 248 303 351
#     4  10  22  40  62  85 118 163 206 243 293 361
#     4  10  22  38  60  83 124 166 202 236 290 362
#     4  12  22  36  54  92 126 154 192 244 294 364
#
# _framework density 19.627533
#
# number of rings (size 3 to 8) (size 9 to 14) (size 15 to 20)
#    0.000    1.600    2.000    2.000    6.533    0.533 
#    0.000    0.000    8.800    2.400    0.000    0.000 
#    0.000    0.000    0.000    0.000    0.000    0.000 
#
# Total GULP energy -371657.288764 kJ/mol
# GULP energy per Si atom -12388.576292 kJ/mol
# Density = 1.958286 g / cm^3
# Si number density = 19.627533 Si / 1000 Ang^3
#
#
#
# Elastic Constant Matrix: (Units=GPa)
#
#
# Indices 1 2 3 4 5 6 
#
# 1 118.0973 36.7970 50.3577 0.0000 3.4601 0.0000
# 2 36.7970 90.4071 27.7597 0.0000 8.1954 0.0000
# 3 50.3577 27.7597 86.1910 0.0000 9.4112 0.0000
# 4 0.0000 0.0000 0.0000 19.9589 0.0000 -3.0823
# 5 3.4601 8.1954 9.4112 0.0000 37.0212 0.0000
# 6 0.0000 0.0000 0.0000 -3.0823 0.0000 29.4931
#
#
#
# Elastic Compliance Matrix: (Units=1/GPa)
#
#
# Indices 1 2 3 4 5 6 
#
# 1 0.012024 -0.003109 -0.006147 0.000000 0.001127 0.000000
# 2 -0.003109 0.013191 -0.002206 0.000000 -0.002069 0.000000
# 3 -0.006147 -0.002206 0.016239 0.000000 -0.003065 0.000000
# 4 0.000000 0.000000 0.000000 0.050925 0.000000 0.005322
# 5 0.001127 -0.002069 -0.003065 0.000000 0.028143 0.000000
# 6 0.000000 0.000000 0.000000 0.005322 0.000000 0.034462
#
#
# Mechanical properties :
#
#
# Convention : Reuss Voigt Hill
#
# Bulk Modulus (GPa) = 53.96606 58.28046 56.12326
# Shear Modulus (GPa) = 27.16112 29.28006 28.22059
#
# Velocity S-wave (km/s) = 3.72402 3.86655 3.79596
# Velocity P-wave (km/s) = 6.78571 7.04921 6.91871
#
# Compressibility (1/GPa) = 0.01853017
#
# Stress axis : x y z
#
# Youngs Moduli (GPa) = 83.16418 75.80694 61.58030
#
# Poissons Ratio (x) = 0.23567 0.37854
# Poissons Ratio (y) = 0.25854 0.13587
# Poissons Ratio (z) = 0.51122 0.16726
#
# Static dielectric constant tensor:
#      x y z
#    x 4.247200 0.000000 -0.123860 
#    y 0.000000 3.333980 0.000000 
#    z -0.123860 0.000000 3.641740 
# 
# 
# High freq. dielectric constant tensor:
#      x y z
#    x 1.782860 0.000000 -0.011160 
#    y 0.000000 1.741590 0.000000 
#    z -0.011160 0.000000 1.762960 
# 
# From -- ./inp_files/33900.got.cif
#   From: 2010.06.25/outbox.cif.g09.slc.cpg/sg13_17_cif.got.tgz:33900.got - 2010.06.28 04:50:58.
