data_PCOD8120837
_publ_section_title
;
Structure prediction by ZEFSAII (Michael W. Deem and Ramdas Pophale) SiO2 
 PCOD8120837
Probable space group: P 2/C
;
_chemical_formula_sum "Si O2"
_cell_formula_units_Z 24
_cell_length_a 17.622748
_cell_length_b 5.627244
_cell_length_c 18.143411
_cell_angle_alpha 90.000000
_cell_angle_beta 146.264712
_cell_angle_gamma 90.000000
_cell_volume 999.218220
_symmetry_space_group_name_H-M "P 2/C"
_symmetry_group_IT_number 13
_symmetry_cell_setting 'monoclinic'
loop_
_space_group_symop_operation_xyz
x,y,z
-x,y,1/2-z
-x,-y,-z
x,-y,1/2+z
loop_
_atom_site_type_symbol
_atom_site_label
_atom_site_fract_x
_atom_site_fract_y
_atom_site_fract_z
Si Si1 0.376581 0.276934 0.915514
Si Si2 0.268366 0.405248 0.463188
Si Si3 0.000000 0.317299 0.750000
Si Si4 0.071560 0.748920 0.578070
Si Si5 0.621310 0.328511 0.198840
Si Si6 0.147504 0.033165 0.275196
Si Si7 0.500000 0.533369 0.750000
O O1 0.330119 0.462793 0.942032
O O2 0.388489 0.406871 0.846035
O O3 0.260254 0.081059 0.811931
O O4 0.523308 0.171545 0.064288
O O5 0.224853 0.136359 0.408772
O O6 0.376198 0.377242 0.616786
O O7 0.130954 0.532814 0.380656
O O8 0.033825 0.156044 0.706306
O O9 0.223852 0.756621 0.668431
O O10 0.079285 0.751406 0.673794
O O11 0.000000 0.500000 0.500000
O O12 0.000000 0.000000 0.500000
O O13 0.560298 0.310929 0.231859
#
# Coordination Sequence:
#
# PCOD8120837 Si02
#       7
#     4   4   2   4   4   4   2
#     4   9  20  43  73 100 136 193 254 305 373 459
#     4  10  21  43  69 103 143 192 251 302 387 449
#     4  10  24  40  74 100 144 194 244 312 368 470
#     4  12  28  46  74 111 149 196 254 312 376 450
#     4  10  21  45  72 105 145 190 247 313 379 455
#     4  11  23  44  71 103 139 199 248 311 378 456
#     4  10  24  42  72 104 150 188 238 330 378 446
#
# _framework density 24.018775999999999
#
# number of rings (size 3 to 8) (size 9 to 14) (size 15 to 20)
#    0.000    1.667    1.667    1.500    4.667    2.000 
#    6.000    7.500    0.000    0.000    0.000    0.000 
#    0.000    0.000    0.000    0.000    0.000    0.000 
#
# Total GULP energy -297364.474943 kJ/mol
# GULP energy per Si atom -12390.186456 kJ/mol
# Density = 2.396411 g / cm^3
# Si number density = 24.018776 Si / 1000 Ang^3
#
#
#
# Elastic Constant Matrix: (Units=GPa)
#
#
# Indices 1 2 3 4 5 6 
#
# 1 121.3173 28.5369 65.4775 0.0000 15.9299 0.0000
# 2 28.5369 87.0692 62.6929 0.0000 4.1552 0.0000
# 3 65.4775 62.6929 174.0582 0.0000 10.9814 0.0000
# 4 0.0000 0.0000 0.0000 31.7477 0.0000 -2.4131
# 5 15.9299 4.1552 10.9814 0.0000 45.9788 0.0000
# 6 0.0000 0.0000 0.0000 -2.4131 0.0000 26.4559
#
#
#
# Elastic Compliance Matrix: (Units=1/GPa)
#
#
# Indices 1 2 3 4 5 6 
#
# 1 0.010725 -0.000815 -0.003565 0.000000 -0.002791 0.000000
# 2 -0.000815 0.015569 -0.005310 0.000000 0.000144 0.000000
# 3 -0.003565 -0.005310 0.009027 0.000000 -0.000441 0.000000
# 4 0.000000 0.000000 0.000000 0.031718 0.000000 0.002893
# 5 -0.002791 0.000144 -0.000441 0.000000 0.022808 0.000000
# 6 0.000000 0.000000 0.000000 0.002893 0.000000 0.038063
#
#
# Mechanical properties :
#
#
# Convention : Reuss Voigt Hill
#
# Bulk Modulus (GPa) = 62.73361 77.31770 70.02566
# Shear Modulus (GPa) = 32.76463 35.88564 34.32514
#
# Velocity S-wave (km/s) = 3.69741 3.86951 3.78444
# Velocity P-wave (km/s) = 6.66357 7.22665 6.95081
#
# Compressibility (1/GPa) = 0.01594042
#
# Stress axis : x y z
#
# Youngs Moduli (GPa) = 93.23927 64.23080 110.78259
#
# Poissons Ratio (x) = 0.05235 0.39493
# Poissons Ratio (y) = 0.07600 0.58826
# Poissons Ratio (z) = 0.33239 0.34107
#
# Static dielectric constant tensor:
#      x y z
#    x 4.408240 0.000000 0.259360 
#    y 0.000000 4.066020 0.000000 
#    z 0.259360 0.000000 4.827570 
# 
# 
# High freq. dielectric constant tensor:
#      x y z
#    x 1.958330 0.000000 0.019690 
#    y 0.000000 1.931950 0.000000 
#    z 0.019690 0.000000 1.968730 
# 
# From -- ./inp_files/81317.got.cif
#   From: 2010.06.25/outbox.cif.g09.slc.cpg/sg13_41_cif.got.tgz:81317.got - 2010.06.28 04:50:58.
