data_PCOD8120524
_publ_section_title
;
Structure prediction by ZEFSAII (Michael W. Deem and Ramdas Pophale) SiO2 
 PCOD8120524
Probable space group: P 2/C
;
_chemical_formula_sum "Si O2"
_cell_formula_units_Z 20
_cell_length_a 7.163861
_cell_length_b 7.517667
_cell_length_c 17.220947
_cell_angle_alpha 90.000000
_cell_angle_beta 112.565839
_cell_angle_gamma 90.000000
_cell_volume 856.437276
_symmetry_space_group_name_H-M "P 2/C"
_symmetry_group_IT_number 13
_symmetry_cell_setting 'monoclinic'
loop_
_space_group_symop_operation_xyz
x,y,z
-x,y,1/2-z
-x,-y,-z
x,-y,1/2+z
loop_
_atom_site_type_symbol
_atom_site_label
_atom_site_fract_x
_atom_site_fract_y
_atom_site_fract_z
Si Si1 0.444865 0.165195 0.569747
Si Si2 0.124290 0.302706 0.629857
Si Si3 0.718614 0.202778 0.482550
Si Si4 0.717077 0.660517 0.809274
Si Si5 0.292416 0.020267 0.762456
O O1 0.324911 0.298160 0.607105
O O2 0.533896 0.269021 0.508921
O O3 0.286364 0.012634 0.518584
O O4 0.648434 0.075912 0.640765
O O5 0.122097 0.499345 0.667694
O O6 0.929581 0.277227 0.546392
O O7 0.129910 0.155641 0.699104
O O8 0.686934 0.264751 0.390548
O O9 0.500000 0.583494 0.750000
O O10 0.791167 0.818699 0.762586
O O11 0.500000 0.033128 0.750000
#
# Coordination Sequence:
#
# PCOD8120524 Si02
#       5
#     4   4   4   4   4
#     4  10  21  40  63  88 126 163 199 258 309 365
#     4  11  22  38  66  88 121 165 205 254 308 359
#     4  11  22  38  64  94 122 159 212 251 305 370
#     4  11  20  38  64  91 124 166 206 252 308 374
#     4   9  18  38  61  85 120 162 206 246 310 369
#
# _framework density 23.352556
#
# number of rings (size 3 to 8) (size 9 to 14) (size 15 to 20)
#    0.000    1.600    6.000    3.000    0.000    1.600 
#    0.000    0.000    0.000    6.000    0.000    0.000 
#    0.000    0.000    0.000    0.000    0.000    0.000 
#
# Total GULP energy -247910.472230 kJ/mol
# GULP energy per Si atom -12395.523611 kJ/mol
# Density = 2.329940 g / cm^3
# Si number density = 23.352556 Si / 1000 Ang^3
#
#
#
# Elastic Constant Matrix: (Units=GPa)
#
#
# Indices 1 2 3 4 5 6 
#
# 1 46.0534 22.3909 22.0894 0.0000 16.2100 0.0000
# 2 22.3909 98.3315 19.3131 0.0000 7.3363 0.0000
# 3 22.0894 19.3131 93.0020 0.0000 25.5039 0.0000
# 4 0.0000 0.0000 0.0000 20.1667 0.0000 -1.2067
# 5 16.2100 7.3363 25.5039 0.0000 24.9847 0.0000
# 6 0.0000 0.0000 0.0000 -1.2067 0.0000 -1.1415
#
#
#
# Elastic Compliance Matrix: (Units=1/GPa)
#
#
# Indices 1 2 3 4 5 6 
#
# 1 0.031123 -0.005508 -0.001603 0.000000 -0.016939 0.000000
# 2 -0.005508 0.011603 -0.001593 0.000000 0.001793 0.000000
# 3 -0.001603 -0.001593 0.015346 0.000000 -0.014157 0.000000
# 4 0.000000 0.000000 0.000000 0.046637 0.000000 -0.049298
# 5 -0.016939 0.001793 -0.014157 0.000000 0.064939 0.000000
# 6 0.000000 0.000000 0.000000 -0.049298 0.000000 -0.823898
#
#
# Mechanical properties :
#
#
# Convention : Reuss Voigt Hill
#
# Bulk Modulus (GPa) = 24.59197 40.55263 32.57230
# Shear Modulus (GPa) = -8.02201 20.37487 6.17643
#
# Velocity S-wave (km/s) = -1.85543 2.95700 1.62807
# Velocity P-wave (km/s) = 2.44201 5.39088 4.18479
#
# Compressibility (1/GPa) = 0.04066369
#
# Stress axis : x y z
#
# Youngs Moduli (GPa) = 32.13046 86.18410 65.16185
#
# Poissons Ratio (x) = 0.47473 0.10447
# Poissons Ratio (y) = 0.17699 0.10379
# Poissons Ratio (z) = 0.05151 0.13728
#
# Static dielectric constant tensor:
#      x y z
#    x 3.757780 0.000000 -0.035600 
#    y 0.000000 4.367530 0.000000 
#    z -0.035600 0.000000 4.803220 
# 
# 
# High freq. dielectric constant tensor:
#      x y z
#    x 1.888770 0.000000 0.002590 
#    y 0.000000 1.911850 0.000000 
#    z 0.002590 0.000000 1.943500 
# 
# From -- ./inp_files/63501.got.cif
#   From: 2010.06.25/outbox.cif.g09.slc.cpg/sg13_32_cif.got.tgz:63501.got - 2010.06.28 04:50:58.
