data_PCOD8120445
_publ_section_title
;
Structure prediction by ZEFSAII (Michael W. Deem and Ramdas Pophale) SiO2 
 PCOD8120445
Probable space group: P 2/C
;
_chemical_formula_sum "Si O2"
_cell_formula_units_Z 20
_cell_length_a 20.474917
_cell_length_b 9.128994
_cell_length_c 14.724083
_cell_angle_alpha 90.000000
_cell_angle_beta 18.902598
_cell_angle_gamma 90.000000
_cell_volume 891.589907
_symmetry_space_group_name_H-M "P 2/C"
_symmetry_group_IT_number 13
_symmetry_cell_setting 'monoclinic'
loop_
_space_group_symop_operation_xyz
x,y,z
-x,y,1/2-z
-x,-y,-z
x,-y,1/2+z
loop_
_atom_site_type_symbol
_atom_site_label
_atom_site_fract_x
_atom_site_fract_y
_atom_site_fract_z
Si Si1 0.675240 0.341429 0.143374
Si Si2 0.195525 0.702594 0.712182
Si Si3 0.577029 0.842401 0.928015
Si Si4 0.228475 0.635271 0.181981
Si Si5 0.231105 0.667929 0.461672
O O1 0.727311 0.222469 0.152491
O O2 0.442502 0.304023 0.429768
O O3 0.806401 0.329843 0.879223
O O4 0.720566 0.500141 0.124369
O O5 0.298926 0.826174 0.640151
O O6 0.234205 0.538100 0.697963
O O7 0.289436 0.714214 0.487911
O O8 0.951668 0.719662 0.029018
O O9 0.369574 0.752992 0.208926
O O10 0.500000 0.000000 0.000000
O O11 0.000000 0.706688 0.750000
#
# Coordination Sequence:
#
# PCOD8120445 Si02
#       5
#     4   4   4   4   4
#     4  10  21  39  66  96 130 165 228 280 336 395
#     4  10  21  39  67  96 130 165 221 281 345 385
#     4  12  26  43  61  96 142 185 220 271 347 428
#     4   9  19  38  67 100 120 163 224 289 329 386
#     4  11  23  42  69  97 129 175 232 292 345 394
#
# _framework density 22.431837999999999
#
# number of rings (size 3 to 8) (size 9 to 14) (size 15 to 20)
#    0.000    1.600    2.000    2.400    8.400    0.000 
#   10.800    2.000    0.000    0.000    0.000    0.000 
#    0.000    0.000    0.000    0.000    0.000    0.000 
#
# Total GULP energy -247879.945366 kJ/mol
# GULP energy per Si atom -12393.997268 kJ/mol
# Density = 2.238078 g / cm^3
# Si number density = 22.431838 Si / 1000 Ang^3
#
#
#
# Elastic Constant Matrix: (Units=GPa)
#
#
# Indices 1 2 3 4 5 6 
#
# 1 76.7177 30.1141 -11.8464 0.0000 10.7727 0.0000
# 2 30.1141 74.8155 -5.7734 0.0000 16.7978 0.0000
# 3 -11.8464 -5.7734 48.8714 0.0000 4.8724 0.0000
# 4 0.0000 0.0000 0.0000 5.6396 0.0000 -2.0362
# 5 10.7727 16.7978 4.8724 0.0000 45.4280 0.0000
# 6 0.0000 0.0000 0.0000 -2.0362 0.0000 35.4850
#
#
#
# Elastic Compliance Matrix: (Units=1/GPa)
#
#
# Indices 1 2 3 4 5 6 
#
# 1 0.016114 -0.005759 0.003431 0.000000 -0.002060 0.000000
# 2 -0.005759 0.016891 0.001098 0.000000 -0.004998 0.000000
# 3 0.003431 0.001098 0.021778 0.000000 -0.003555 0.000000
# 4 0.000000 0.000000 0.000000 0.181068 0.000000 0.010390
# 5 -0.002060 -0.004998 -0.003555 0.000000 0.024731 0.000000
# 6 0.000000 0.000000 0.000000 0.010390 0.000000 0.028777
#
#
# Mechanical properties :
#
#
# Convention : Reuss Voigt Hill
#
# Bulk Modulus (GPa) = 19.11200 25.04369 22.07785
# Shear Modulus (GPa) = 16.16761 29.83788 23.00275
#
# Velocity S-wave (km/s) = 2.68758 3.65109 3.20574
# Velocity P-wave (km/s) = 4.26255 5.38168 4.85447
#
# Compressibility (1/GPa) = 0.05232315
#
# Stress axis : x y z
#
# Youngs Moduli (GPa) = 62.05605 59.20273 45.91844
#
# Poissons Ratio (x) = 0.34095 -0.15755
# Poissons Ratio (y) = 0.35738 -0.05041
# Poissons Ratio (z) = -0.21293 -0.06499
#
# Static dielectric constant tensor:
#      x y z
#    x 4.176960 0.000000 0.159320 
#    y 0.000000 3.484700 0.000000 
#    z 0.159320 0.000000 4.304300 
# 
# 
# High freq. dielectric constant tensor:
#      x y z
#    x 1.898240 0.000000 0.010030 
#    y 0.000000 1.818400 0.000000 
#    z 0.010030 0.000000 1.900110 
# 
# From -- ./inp_files/57125.got.cif
#   From: 2010.06.25/outbox.cif.g09.slc.cpg/sg13_29_cif.got.tgz:57125.got - 2010.06.28 04:50:58.
