data_PCOD8120946
_publ_section_title
;
Structure prediction by ZEFSAII (Michael W. Deem and Ramdas Pophale) SiO2 
 PCOD8120946
Probable space group: P 2/C
;
_chemical_formula_sum "Si O2"
_cell_formula_units_Z 28
_cell_length_a 22.333656
_cell_length_b 11.260591
_cell_length_c 22.587104
_cell_angle_alpha 90.000000
_cell_angle_beta 13.010646
_cell_angle_gamma 90.000000
_cell_volume 1278.848131
_symmetry_space_group_name_H-M "P 2/C"
_symmetry_group_IT_number 13
_symmetry_cell_setting 'monoclinic'
loop_
_space_group_symop_operation_xyz
x,y,z
-x,y,1/2-z
-x,-y,-z
x,-y,1/2+z
loop_
_atom_site_type_symbol
_atom_site_label
_atom_site_fract_x
_atom_site_fract_y
_atom_site_fract_z
Si Si1 0.357535 0.345418 0.270212
Si Si2 0.500000 0.772377 0.750000
Si Si3 0.094073 0.252589 0.223827
Si Si4 0.000000 0.088684 0.750000
Si Si5 0.268962 0.934172 0.256039
Si Si6 0.408057 0.408589 0.774046
Si Si7 0.174378 0.775830 0.251598
Si Si8 0.033316 0.979749 0.597871
O O1 0.344222 0.301062 0.350581
O O2 0.398069 0.486721 0.235006
O O3 0.083838 0.306982 0.503058
O O4 0.591052 0.290836 0.006979
O O5 0.735333 0.838741 0.486519
O O6 0.000000 0.204455 0.250000
O O7 0.884295 0.352560 0.445092
O O8 0.125016 0.144178 0.240852
O O9 0.385351 0.308162 0.944150
O O10 0.126760 0.014409 0.573639
O O11 0.249942 0.798870 0.248366
O O12 0.285020 0.946785 0.312446
O O13 0.000000 0.000000 0.500000
O O14 0.500000 0.000000 0.000000
O O15 0.500000 0.457678 0.750000
O O16 0.138527 0.909118 0.259839
#
# Coordination Sequence:
#
# PCOD8120946 Si02
#       8
#     4   2   4   2   4   4   4   4
#     4  12  21  38  61  85 124 156 200 254 304 358
#     4  12  22  36  52  92 126 160 188 244 322 358
#     4  10  22  37  57  85 119 161 200 238 295 366
#     4  12  24  34  58  94 130 152 190 244 322 374
#     4  10  23  40  61  87 123 165 205 243 298 371
#     4  10  22  38  56  83 119 162 203 240 295 367
#     4  11  23  37  61  93 116 159 201 250 308 356
#     4  11  22  41  61  91 127 156 196 251 306 370
#
# _framework density 21.894704000000001
#
# number of rings (size 3 to 8) (size 9 to 14) (size 15 to 20)
#    0.000    1.143    4.286    2.571    0.000    4.571 
#    0.000    0.000    0.000    5.143    0.000    0.000 
#    0.000    0.000    0.000    0.000    0.000    0.000 
#
# Total GULP energy -346889.708684 kJ/mol
# GULP energy per Si atom -12388.918167 kJ/mol
# Density = 2.184487 g / cm^3
# Si number density = 21.894704 Si / 1000 Ang^3
#
#
#
# Elastic Constant Matrix: (Units=GPa)
#
#
# Indices 1 2 3 4 5 6 
#
# 1 57.0343 12.9684 16.8893 0.0000 27.1364 0.0000
# 2 12.9684 88.8946 13.3509 0.0000 12.7417 0.0000
# 3 16.8893 13.3509 124.6982 0.0000 20.0912 0.0000
# 4 0.0000 0.0000 0.0000 23.4416 0.0000 14.1665
# 5 27.1364 12.7417 20.0912 0.0000 40.1154 0.0000
# 6 0.0000 0.0000 0.0000 14.1665 0.0000 4.3524
#
#
#
# Elastic Compliance Matrix: (Units=1/GPa)
#
#
# Indices 1 2 3 4 5 6 
#
# 1 0.026056 -0.001280 -0.000672 0.000000 -0.016883 0.000000
# 2 -0.001280 0.011908 -0.000687 0.000000 -0.002572 0.000000
# 3 -0.000672 -0.000687 0.008784 0.000000 -0.003727 0.000000
# 4 0.000000 0.000000 0.000000 -0.044114 0.000000 0.143585
# 5 -0.016883 -0.002572 -0.003727 0.000000 0.039032 0.000000
# 6 0.000000 0.000000 0.000000 0.143585 0.000000 -0.237594
#
#
# Mechanical properties :
#
#
# Convention : Reuss Voigt Hill
#
# Bulk Modulus (GPa) = 24.11408 39.67159 31.89284
# Shear Modulus (GPa) = -28.27652 28.74313 0.23331
#
# Velocity S-wave (km/s) = -3.59761 3.62717 0.32679
# Velocity P-wave (km/s) = 2.49389 5.97499 3.83933
#
# Compressibility (1/GPa) = 0.04146954
#
# Stress axis : x y z
#
# Youngs Moduli (GPa) = 38.37890 83.97769 113.83838
#
# Poissons Ratio (x) = 0.10752 0.07648
# Poissons Ratio (y) = 0.04914 0.07822
# Poissons Ratio (z) = 0.02579 0.05770
#
# Static dielectric constant tensor:
#      x y z
#    x 4.718980 0.000000 0.668200 
#    y 0.000000 3.794550 0.000000 
#    z 0.668200 0.000000 3.787620 
# 
# 
# High freq. dielectric constant tensor:
#      x y z
#    x 1.848660 0.000000 0.015530 
#    y 0.000000 1.849820 0.000000 
#    z 0.015530 0.000000 1.869610 
# 
# From -- ./inp_files/94156.got.cif
#   From: 2010.06.25/outbox.cif.g09.slc.cpg/sg13_48_cif.got.tgz:94156.got - 2010.06.28 04:50:58.
