data_PCOD8120423
_publ_section_title
;
Structure prediction by ZEFSAII (Michael W. Deem and Ramdas Pophale) SiO2 
 PCOD8120423
Probable space group: P 2/C
;
_chemical_formula_sum "Si O2"
_cell_formula_units_Z 28
_cell_length_a 8.744767
_cell_length_b 5.576183
_cell_length_c 30.744109
_cell_angle_alpha 90.000000
_cell_angle_beta 113.087377
_cell_angle_gamma 90.000000
_cell_volume 1379.086559
_symmetry_space_group_name_H-M "P 2/C"
_symmetry_group_IT_number 13
_symmetry_cell_setting 'monoclinic'
loop_
_space_group_symop_operation_xyz
x,y,z
-x,y,1/2-z
-x,-y,-z
x,-y,1/2+z
loop_
_atom_site_type_symbol
_atom_site_label
_atom_site_fract_x
_atom_site_fract_y
_atom_site_fract_z
Si Si1 0.165713 0.833672 0.973992
Si Si2 0.149173 0.326511 0.931518
Si Si3 0.470197 0.943738 0.162791
Si Si4 0.000000 0.008969 0.750000
Si Si5 0.500000 0.650545 0.250000
Si Si6 0.790136 0.695303 0.162859
Si Si7 0.707546 0.679848 0.718960
Si Si8 0.844097 0.908427 0.430897
O O1 0.220347 0.580210 0.958207
O O2 0.239607 0.079647 0.959443
O O3 0.228833 0.824683 0.030753
O O4 0.963448 0.857940 0.950774
O O5 0.171637 0.337556 0.882873
O O6 0.953563 0.306923 0.921980
O O7 0.428776 0.802651 0.202202
O O8 0.610552 0.815735 0.149460
O O9 0.305482 0.980826 0.116814
O O10 0.534861 0.202424 0.184703
O O11 0.938266 0.158516 0.701875
O O12 0.844332 0.862949 0.752425
O O13 0.338678 0.503241 0.247944
O O14 0.789917 0.437448 0.185642
#
# Coordination Sequence:
#
# PCOD8120423 Si02
#       8
#     4   4   4   2   2   4   4   4
#     4   9  21  40  65  92 124 155 212 261 306 364
#     4  10  21  39  65  89 123 158 205 259 305 369
#     4  10  22  41  59  88 126 159 201 250 309 373
#     4  10  22  40  60  84 122 160 204 254 304 374
#     4  10  22  40  56  92 122 158 202 250 308 376
#     4  10  23  39  57  90 121 160 205 249 310 371
#     4  10  22  39  61  81 128 159 201 258 304 368
#     4   9  21  38  65  90 120 162 205 257 312 362
#
# _framework density 20.303294000000001
#
# number of rings (size 3 to 8) (size 9 to 14) (size 15 to 20)
#    0.857    1.429    0.000    1.286    4.000    8.000 
#    0.000    1.429    0.000    0.000    0.000    0.000 
#    0.000    0.000    0.000    0.000    0.000    0.000 
#
# Total GULP energy -346980.155925 kJ/mol
# GULP energy per Si atom -12392.148426 kJ/mol
# Density = 2.025708 g / cm^3
# Si number density = 20.303294 Si / 1000 Ang^3
#
#
#
# Elastic Constant Matrix: (Units=GPa)
#
#
# Indices 1 2 3 4 5 6 
#
# 1 50.3952 35.6560 58.7957 0.0000 -22.5335 0.0000
# 2 35.6560 129.7135 49.7445 0.0000 -17.0777 0.0000
# 3 58.7957 49.7445 139.8560 0.0000 -20.1547 0.0000
# 4 0.0000 0.0000 0.0000 2.7810 0.0000 2.0235
# 5 -22.5335 -17.0777 -20.1547 0.0000 49.6478 0.0000
# 6 0.0000 0.0000 0.0000 2.0235 0.0000 15.1686
#
#
#
# Elastic Compliance Matrix: (Units=1/GPa)
#
#
# Indices 1 2 3 4 5 6 
#
# 1 0.049531 -0.005300 -0.016953 0.000000 0.013775 0.000000
# 2 -0.005300 0.009665 -0.001144 0.000000 0.000454 0.000000
# 3 -0.016953 -0.001144 0.014358 0.000000 -0.002259 0.000000
# 4 0.000000 0.000000 0.000000 0.398240 0.000000 -0.053126
# 5 0.013775 0.000454 -0.002259 0.000000 0.025633 0.000000
# 6 0.000000 0.000000 0.000000 -0.053126 0.000000 0.073013
#
#
# Mechanical properties :
#
#
# Convention : Reuss Voigt Hill
#
# Bulk Modulus (GPa) = 37.36800 67.59523 52.48162
# Shear Modulus (GPa) = 7.98525 25.23737 16.61131
#
# Velocity S-wave (km/s) = 1.98533 3.52947 2.86345
# Velocity P-wave (km/s) = 4.86829 7.06927 6.06938
#
# Compressibility (1/GPa) = 0.02676086
#
# Stress axis : x y z
#
# Youngs Moduli (GPa) = 20.18923 103.46861 69.64548
#
# Poissons Ratio (x) = 0.54843 1.18067
# Poissons Ratio (y) = 0.10701 0.07966
# Poissons Ratio (z) = 0.34226 0.11835
#
# Static dielectric constant tensor:
#      x y z
#    x 3.484090 0.000000 -0.143900 
#    y 0.000000 3.832790 0.000000 
#    z -0.143900 0.000000 3.478390 
# 
# 
# High freq. dielectric constant tensor:
#      x y z
#    x 1.776180 0.000000 -0.016260 
#    y 0.000000 1.797650 0.000000 
#    z -0.016260 0.000000 1.784330 
# 
# From -- ./inp_files/95735.got.cif
#   From: 2010.06.25/outbox.cif.g09.slc.cpg/sg13_48_cif.got.tgz:95735.got - 2010.06.28 04:50:58.
