data_PCOD8120915
_publ_section_title
;
Structure prediction by ZEFSAII (Michael W. Deem and Ramdas Pophale) SiO2 
 PCOD8120915
Probable space group: P 2/C
;
_chemical_formula_sum "Si O2"
_cell_formula_units_Z 24
_cell_length_a 12.043492
_cell_length_b 11.102717
_cell_length_c 8.988794
_cell_angle_alpha 90.000000
_cell_angle_beta 88.084598
_cell_angle_gamma 90.000000
_cell_volume 1201.269371
_symmetry_space_group_name_H-M "P 2/C"
_symmetry_group_IT_number 13
_symmetry_cell_setting 'monoclinic'
loop_
_space_group_symop_operation_xyz
x,y,z
-x,y,1/2-z
-x,-y,-z
x,-y,1/2+z
loop_
_atom_site_type_symbol
_atom_site_label
_atom_site_fract_x
_atom_site_fract_y
_atom_site_fract_z
Si Si1 0.624585 0.543925 0.530329
Si Si2 0.409377 0.836509 0.456657
Si Si3 0.306866 0.346272 0.166569
Si Si4 0.773994 0.979042 0.498747
Si Si5 0.872109 0.843723 0.772943
Si Si6 0.645922 0.785571 0.357313
O O1 0.500000 0.500000 0.500000
O O2 0.708121 0.438115 0.471744
O O3 0.638617 0.576645 0.702622
O O4 0.658570 0.659284 0.435342
O O5 0.388728 0.761708 0.609594
O O6 0.539761 0.857891 0.428497
O O7 0.363960 0.759854 0.317514
O O8 0.345764 0.963306 0.458189
O O9 0.191199 0.284674 0.219444
O O10 0.830513 0.928085 0.642731
O O11 0.753105 0.868382 0.386390
O O12 0.853516 0.080987 0.425208
O O13 0.000000 0.810891 0.750000
#
# Coordination Sequence:
#
# PCOD8120915 Si02
#       6
#     4   4   4   4   4   4
#     4  12  23  37  62  90 127 169 204 244 306 379
#     4  10  22  36  58  94 128 169 198 246 311 388
#     4  11  24  41  61  90 128 163 214 256 301 366
#     4  11  21  41  63  93 127 158 207 266 316 371
#     4  11  24  44  68  90 120 166 217 268 317 360
#     4  11  21  37  59  91 133 164 207 242 310 380
#
# _framework density 19.978866
#
# number of rings (size 3 to 8) (size 9 to 14) (size 15 to 20)
#    0.000    1.000    5.000    2.500    2.333    0.000 
#    0.000    0.833    0.000    0.000    0.000    0.000 
#    0.000    0.000    0.000    0.000    0.000    0.000 
#
# Total GULP energy -297552.517221 kJ/mol
# GULP energy per Si atom -12398.021551 kJ/mol
# Density = 1.993339 g / cm^3
# Si number density = 19.978866 Si / 1000 Ang^3
#
#
#
# Elastic Constant Matrix: (Units=GPa)
#
#
# Indices 1 2 3 4 5 6 
#
# 1 85.3287 54.9100 29.6686 0.0000 -12.1345 0.0000
# 2 54.9100 83.9324 39.8183 0.0000 2.7483 0.0000
# 3 29.6686 39.8183 104.4161 0.0000 2.5242 0.0000
# 4 0.0000 0.0000 0.0000 43.7687 0.0000 0.4214
# 5 -12.1345 2.7483 2.5242 0.0000 20.4465 0.0000
# 6 0.0000 0.0000 0.0000 0.4214 0.0000 23.5698
#
#
#
# Elastic Compliance Matrix: (Units=1/GPa)
#
#
# Indices 1 2 3 4 5 6 
#
# 1 0.025228 -0.016449 -0.001315 0.000000 0.017346 0.000000
# 2 -0.016449 0.025304 -0.004671 0.000000 -0.012587 0.000000
# 3 -0.001315 -0.004671 0.011771 0.000000 -0.001606 0.000000
# 4 0.000000 0.000000 0.000000 0.022851 0.000000 -0.000409
# 5 0.017346 -0.012587 -0.001606 0.000000 0.061092 0.000000
# 6 0.000000 0.000000 0.000000 -0.000409 0.000000 0.042434
#
#
# Mechanical properties :
#
#
# Convention : Reuss Voigt Hill
#
# Bulk Modulus (GPa) = 57.36416 58.05235 57.70826
# Shear Modulus (GPa) = 20.88877 27.50902 24.19890
#
# Velocity S-wave (km/s) = 3.23699 3.71469 3.48404
# Velocity P-wave (km/s) = 6.53801 6.89337 6.71804
#
# Compressibility (1/GPa) = 0.01743249
#
# Stress axis : x y z
#
# Youngs Moduli (GPa) = 39.63776 39.51963 84.95523
#
# Poissons Ratio (x) = 0.65006 0.11171
# Poissons Ratio (y) = 0.65200 0.39686
# Poissons Ratio (z) = 0.05212 0.18461
#
# Static dielectric constant tensor:
#      x y z
#    x 3.327970 0.000000 -0.114150 
#    y 0.000000 3.734400 0.000000 
#    z -0.114150 0.000000 3.912960 
# 
# 
# High freq. dielectric constant tensor:
#      x y z
#    x 1.733450 0.000000 -0.007450 
#    y 0.000000 1.790730 0.000000 
#    z -0.007450 0.000000 1.795000 
# 
# From -- ./inp_files/15848.got.cif
#   From: 2010.06.25/outbox.cif.g09.slc.cpg/sg13_8_cif.got.tgz:15848.got - 2010.06.28 04:50:58.
