data_PCOD8120031
_publ_section_title
;
Structure prediction by ZEFSAII (Michael W. Deem and Ramdas Pophale) SiO2 
 PCOD8120031
Probable space group: P 2/C
;
_chemical_formula_sum "Si O2"
_cell_formula_units_Z 30
_cell_length_a 23.332216
_cell_length_b 11.270454
_cell_length_c 28.826289
_cell_angle_alpha 90.000000
_cell_angle_beta 10.632817
_cell_angle_gamma 90.000000
_cell_volume 1398.673000
_symmetry_space_group_name_H-M "P 2/C"
_symmetry_group_IT_number 13
_symmetry_cell_setting 'monoclinic'
loop_
_space_group_symop_operation_xyz
x,y,z
-x,y,1/2-z
-x,-y,-z
x,-y,1/2+z
loop_
_atom_site_type_symbol
_atom_site_label
_atom_site_fract_x
_atom_site_fract_y
_atom_site_fract_z
Si Si1 0.215606 0.621467 0.894547
Si Si2 0.816515 0.356133 0.800139
Si Si3 0.585065 0.068980 0.498647
Si Si4 0.802311 0.742242 0.152353
Si Si5 0.330168 0.807470 0.932275
Si Si6 0.000000 0.996248 0.750000
Si Si7 0.666908 0.550526 0.992930
Si Si8 0.689365 0.168573 0.318232
O O1 0.427387 0.737913 0.728936
O O2 0.433380 0.508212 0.715487
O O3 0.022280 0.594849 0.094445
O O4 0.004004 0.642810 0.018076
O O5 0.024114 0.272763 0.668132
O O6 0.686384 0.468930 0.931498
O O7 0.532328 0.283004 0.004531
O O8 0.273155 0.145605 0.754807
O O9 0.755767 0.117814 0.316754
O O10 0.814245 0.082980 0.360421
O O11 0.484022 0.932288 0.573875
O O12 0.471376 0.680885 0.405553
O O13 0.980690 0.791510 0.965322
O O14 0.500000 0.844704 0.750000
O O15 0.246687 0.925843 0.025602
O O16 0.000000 0.568225 0.750000
#
# Coordination Sequence:
#
# PCOD8120031 Si02
#       8
#     4   4   4   4   4   2   4   4
#     4  11  22  40  68 100 128 169 228 279 338 384
#     4  11  21  41  69 102 132 166 225 291 337 392
#     4  11  26  43  68  97 137 180 228 269 341 402
#     4  12  26  43  66  98 134 180 223 272 334 410
#     4  10  21  36  66 101 128 167 226 287 332 390
#     4  12  22  40  66  94 134 186 218 278 340 406
#     4  12  26  43  68  96 137 180 223 275 338 402
#     4  11  23  45  71 100 134 175 225 286 333 400
#
# _framework density 21.448902
#
# number of rings (size 3 to 8) (size 9 to 14) (size 15 to 20)
#    0.000    0.800    5.333    2.400    0.933    2.667 
#    0.000    0.000    0.000    0.000    0.000    0.000 
#    0.000    0.000    0.000    0.000    0.000    0.000 
#
# Total GULP energy -372134.649299 kJ/mol
# GULP energy per Si atom -12404.488310 kJ/mol
# Density = 2.140008 g / cm^3
# Si number density = 21.448902 Si / 1000 Ang^3
#
#
#
# Elastic Constant Matrix: (Units=GPa)
#
#
# Indices 1 2 3 4 5 6 
#
# 1 103.2908 38.1104 43.4388 0.0000 -1.5188 0.0000
# 2 38.1104 74.6209 48.7191 0.0000 9.7925 0.0000
# 3 43.4388 48.7191 98.8603 0.0000 13.6472 0.0000
# 4 0.0000 0.0000 0.0000 -74.9974 0.0000 -80.1705
# 5 -1.5188 9.7925 13.6472 0.0000 39.5181 0.0000
# 6 0.0000 0.0000 0.0000 -80.1705 0.0000 -38.4539
#
#
#
# Elastic Compliance Matrix: (Units=1/GPa)
#
#
# Indices 1 2 3 4 5 6 
#
# 1 0.013029 -0.004480 -0.003927 0.000000 0.002967 0.000000
# 2 -0.004480 0.021397 -0.008212 0.000000 -0.002638 0.000000
# 3 -0.003927 -0.008212 0.016410 0.000000 -0.003783 0.000000
# 4 0.000000 0.000000 0.000000 0.010852 0.000000 -0.022626
# 5 0.002967 -0.002638 -0.003783 0.000000 0.027379 0.000000
# 6 0.000000 0.000000 0.000000 -0.022626 0.000000 0.021166
#
#
# Mechanical properties :
#
#
# Convention : Reuss Voigt Hill
#
# Bulk Modulus (GPa) = 56.82242 59.70096 58.26169
# Shear Modulus (GPa) = 33.48145 -5.01974 14.23086
#
# Velocity S-wave (km/s) = 3.95522 -1.53147 2.57860
# Velocity P-wave (km/s) = 6.88534 4.97667 6.00729
#
# Compressibility (1/GPa) = 0.01759869
#
# Stress axis : x y z
#
# Youngs Moduli (GPa) = 76.74945 46.73626 60.93914
#
# Poissons Ratio (x) = 0.20937 0.23930
# Poissons Ratio (y) = 0.34383 0.50042
# Poissons Ratio (z) = 0.30139 0.38379
#
# Static dielectric constant tensor:
#      x y z
#    x 3.961430 0.000000 0.133060 
#    y 0.000000 3.718960 0.000000 
#    z 0.133060 0.000000 3.989020 
# 
# 
# High freq. dielectric constant tensor:
#      x y z
#    x 1.842170 0.000000 0.011200 
#    y 0.000000 1.833110 0.000000 
#    z 0.011200 0.000000 1.850300 
# 
# From -- ./inp_files/97734.got.cif
#   From: 2010.06.25/outbox.cif.g09.slc.cpg/sg13_49_cif.got.tgz:97734.got - 2010.06.28 04:50:58.
