data_PCOD8120409
_publ_section_title
;
Structure prediction by ZEFSAII (Michael W. Deem and Ramdas Pophale) SiO2 
 PCOD8120409
Probable space group: P 2/C
;
_chemical_formula_sum "Si O2"
_cell_formula_units_Z 32
_cell_length_a 14.444236
_cell_length_b 6.682991
_cell_length_c 29.208940
_cell_angle_alpha 90.000000
_cell_angle_beta 144.265799
_cell_angle_gamma 90.000000
_cell_volume 1646.695593
_symmetry_space_group_name_H-M "P 2/C"
_symmetry_group_IT_number 13
_symmetry_cell_setting 'monoclinic'
loop_
_space_group_symop_operation_xyz
x,y,z
-x,y,1/2-z
-x,-y,-z
x,-y,1/2+z
loop_
_atom_site_type_symbol
_atom_site_label
_atom_site_fract_x
_atom_site_fract_y
_atom_site_fract_z
Si Si1 0.959282 0.496944 0.930887
Si Si2 0.201133 0.230712 0.979130
Si Si3 0.062978 0.167234 0.403718
Si Si4 0.252842 0.955047 0.256701
Si Si5 0.537951 0.338881 0.151805
Si Si6 0.222535 0.403623 0.803976
Si Si7 0.117070 0.516970 0.363694
Si Si8 0.629010 0.372954 0.766206
O O1 0.772094 0.471280 0.851428
O O2 0.047010 0.308859 0.943715
O O3 0.010045 0.700219 0.925643
O O4 0.000000 0.500000 0.000000
O O5 0.196588 0.309458 0.925381
O O6 0.193239 0.989930 0.974481
O O7 0.355488 0.310237 0.066496
O O8 0.150812 0.301029 0.400160
O O9 0.916956 0.049195 0.322596
O O10 0.245487 0.832214 0.301967
O O11 0.307920 0.808238 0.238771
O O12 0.383580 0.123199 0.314511
O O13 0.622850 0.471052 0.147087
O O14 0.548354 0.452250 0.204094
O O15 0.190350 0.453130 0.843485
O O16 0.074162 0.470666 0.713109
O O17 0.500000 0.288783 0.750000
#
# Coordination Sequence:
#
# PCOD8120409 Si02
#       8
#     4   4   4   4   4   4   4   4
#     4  11  23  41  65  90 124 165 205 258 316 372
#     4  11  23  40  62  92 125 161 209 262 312 367
#     4  11  20  41  64  87 126 166 210 257 308 373
#     4  11  20  41  64  88 125 165 209 256 304 373
#     4  11  23  40  62  90 125 165 204 259 317 368
#     4  10  21  39  64  91 122 165 209 253 313 380
#     4  10  21  39  64  91 122 166 207 254 313 376
#     4  11  23  41  64  91 125 162 208 256 313 378
#
# _framework density 19.432856000000001
#
# number of rings (size 3 to 8) (size 9 to 14) (size 15 to 20)
#    0.000    1.250    5.000    2.250    0.000    7.500 
#    2.250    1.250    0.000    0.000    0.000    0.000 
#    0.000    0.000    0.000    0.000    0.000    0.000 
#
# Total GULP energy -396850.007846 kJ/mol
# GULP energy per Si atom -12401.562745 kJ/mol
# Density = 1.938863 g / cm^3
# Si number density = 19.432856 Si / 1000 Ang^3
#
#
#
# Elastic Constant Matrix: (Units=GPa)
#
#
# Indices 1 2 3 4 5 6 
#
# 1 106.3737 46.5185 39.4249 0.0000 -12.1456 0.0000
# 2 46.5185 125.2691 27.8823 0.0000 -15.2010 0.0000
# 3 39.4249 27.8823 102.6094 0.0000 -8.9617 0.0000
# 4 0.0000 0.0000 0.0000 31.0643 0.0000 4.7544
# 5 -12.1456 -15.2010 -8.9617 0.0000 30.0398 0.0000
# 6 0.0000 0.0000 0.0000 4.7544 0.0000 16.8151
#
#
#
# Elastic Compliance Matrix: (Units=1/GPa)
#
#
# Indices 1 2 3 4 5 6 
#
# 1 0.012579 -0.003591 -0.003667 0.000000 0.002175 0.000000
# 2 -0.003591 0.009944 -0.001037 0.000000 0.003271 0.000000
# 3 -0.003667 -0.001037 0.011562 0.000000 0.001442 0.000000
# 4 0.000000 0.000000 0.000000 0.033647 0.000000 -0.009514
# 5 0.002175 0.003271 0.001442 0.000000 0.036254 0.000000
# 6 0.000000 0.000000 0.000000 -0.009514 0.000000 0.062160
#
#
# Mechanical properties :
#
#
# Convention : Reuss Voigt Hill
#
# Bulk Modulus (GPa) = 57.15882 62.43374 59.79628
# Shear Modulus (GPa) = 26.51563 30.27893 28.39728
#
# Velocity S-wave (km/s) = 3.69789 3.95160 3.82685
# Velocity P-wave (km/s) = 6.90723 7.28134 7.09675
#
# Compressibility (1/GPa) = 0.01749511
#
# Stress axis : x y z
#
# Youngs Moduli (GPa) = 79.49968 100.56363 86.48716
#
# Poissons Ratio (x) = 0.36112 0.31718
# Poissons Ratio (y) = 0.28548 0.08966
# Poissons Ratio (z) = 0.29155 0.10426
#
# Static dielectric constant tensor:
#      x y z
#    x 3.491840 0.000000 -0.039080 
#    y 0.000000 3.748600 0.000000 
#    z -0.039080 0.000000 3.624830 
# 
# 
# High freq. dielectric constant tensor:
#      x y z
#    x 1.753360 0.000000 -0.001910 
#    y 0.000000 1.766210 0.000000 
#    z -0.001910 0.000000 1.757600 
# 
# From -- ./inp_files/96866.got.cif
#   From: 2010.06.25/outbox.cif.g09.slc.cpg/sg13_49_cif.got.tgz:96866.got - 2010.06.28 04:50:58.
