data_PCOD8120700
_publ_section_title
;
Structure prediction by ZEFSAII (Michael W. Deem and Ramdas Pophale) SiO2 
 PCOD8120700
Probable space group: P 2/C
;
_chemical_formula_sum "Si O2"
_cell_formula_units_Z 24
_cell_length_a 17.866344
_cell_length_b 9.242814
_cell_length_c 17.373859
_cell_angle_alpha 90.000000
_cell_angle_beta 156.264881
_cell_angle_gamma 90.000000
_cell_volume 1154.813198
_symmetry_space_group_name_H-M "P 2/C"
_symmetry_group_IT_number 13
_symmetry_cell_setting 'monoclinic'
loop_
_space_group_symop_operation_xyz
x,y,z
-x,y,1/2-z
-x,-y,-z
x,-y,1/2+z
loop_
_atom_site_type_symbol
_atom_site_label
_atom_site_fract_x
_atom_site_fract_y
_atom_site_fract_z
Si Si1 0.500000 0.517859 0.250000
Si Si2 0.160315 0.357137 0.342529
Si Si3 0.670402 0.724663 0.808569
Si Si4 0.500000 0.044495 0.250000
Si Si5 0.623086 0.813007 0.093961
Si Si6 0.356270 0.100186 0.467135
Si Si7 0.950831 0.403425 0.881337
O O1 0.650720 0.618153 0.432738
O O2 0.401312 0.423667 0.222528
O O3 0.197026 0.223655 0.318429
O O4 0.100237 0.500124 0.240322
O O5 0.000000 0.311149 0.250000
O O6 0.655937 0.853922 0.856862
O O7 0.549457 0.764053 0.620647
O O8 0.883436 0.704993 0.984611
O O9 0.603956 0.943572 0.408031
O O10 0.774502 0.689299 0.240094
O O11 0.714443 0.961077 0.147543
O O12 0.545264 0.838535 0.106422
O O13 0.000000 0.500000 0.000000
#
# Coordination Sequence:
#
# PCOD8120700 Si02
#       7
#     2   4   4   2   4   4   4
#     4  11  21  40  66  92 136 168 212 276 320 390
#     4  12  25  40  64 102 133 166 219 274 334 382
#     4  10  21  41  68  96 124 175 219 268 327 385
#     4   9  21  42  68  92 124 174 228 264 328 386
#     4  10  23  46  66  90 134 176 223 262 327 400
#     4  10  23  42  66  93 129 178 214 274 329 384
#     4  12  26  40  66 102 131 171 219 268 327 396
#
# _framework density 20.782582000000001
#
# number of rings (size 3 to 8) (size 9 to 14) (size 15 to 20)
#    0.000    1.333    3.333    1.500    2.333    4.000 
#    0.000   11.667    0.000    0.000    0.000    0.000 
#    0.000    0.000    0.000    0.000    0.000    0.000 
#
# Total GULP energy -297711.542417 kJ/mol
# GULP energy per Si atom -12404.647601 kJ/mol
# Density = 2.073528 g / cm^3
# Si number density = 20.782582 Si / 1000 Ang^3
#
#
#
# Elastic Constant Matrix: (Units=GPa)
#
#
# Indices 1 2 3 4 5 6 
#
# 1 113.2094 47.1849 46.4796 0.0000 7.2831 0.0000
# 2 47.1849 116.4881 48.5417 0.0000 11.1351 0.0000
# 3 46.4796 48.5417 106.2967 0.0000 4.1379 0.0000
# 4 0.0000 0.0000 0.0000 3.7048 0.0000 7.7641
# 5 7.2831 11.1351 4.1379 0.0000 25.4545 0.0000
# 6 0.0000 0.0000 0.0000 7.7641 0.0000 40.4484
#
#
#
# Elastic Compliance Matrix: (Units=1/GPa)
#
#
# Indices 1 2 3 4 5 6 
#
# 1 0.011711 -0.003085 -0.003657 0.000000 -0.001407 0.000000
# 2 -0.003085 0.011809 -0.003902 0.000000 -0.003649 0.000000
# 3 -0.003657 -0.003902 0.012762 0.000000 0.000679 0.000000
# 4 0.000000 0.000000 0.000000 0.451585 0.000000 -0.086683
# 5 -0.001407 -0.003649 0.000679 0.000000 0.041174 0.000000
# 6 0.000000 0.000000 0.000000 -0.086683 0.000000 0.041362
#
#
# Mechanical properties :
#
#
# Convention : Reuss Voigt Hill
#
# Bulk Modulus (GPa) = 66.69303 68.93406 67.81355
# Shear Modulus (GPa) = 8.37957 26.84074 17.61015
#
# Velocity S-wave (km/s) = 2.01017 3.59765 2.91409
# Velocity P-wave (km/s) = 6.12766 7.10623 6.63501
#
# Compressibility (1/GPa) = 0.01499407
#
# Stress axis : x y z
#
# Youngs Moduli (GPa) = 85.38909 84.68182 78.35742
#
# Poissons Ratio (x) = 0.26127 0.28656
# Poissons Ratio (y) = 0.26345 0.30572
# Poissons Ratio (z) = 0.31228 0.33039
#
# Static dielectric constant tensor:
#      x y z
#    x 3.966790 0.000000 0.114790 
#    y 0.000000 3.981480 0.000000 
#    z 0.114790 0.000000 4.003400 
# 
# 
# High freq. dielectric constant tensor:
#      x y z
#    x 1.831270 0.000000 0.000890 
#    y 0.000000 1.827560 0.000000 
#    z 0.000890 0.000000 1.792960 
# 
# From -- ./inp_files/81738.got.cif
#   From: 2010.06.25/outbox.cif.g09.slc.cpg/sg13_41_cif.got.tgz:81738.got - 2010.06.28 04:50:58.
