data_PCOD8120566
_publ_section_title
;
Structure prediction by ZEFSAII (Michael W. Deem and Ramdas Pophale) SiO2 
 PCOD8120566
Probable space group: P 2/C
;
_chemical_formula_sum "Si O2"
_cell_formula_units_Z 18
_cell_length_a 8.598359
_cell_length_b 19.465393
_cell_length_c 8.843347
_cell_angle_alpha 90.000000
_cell_angle_beta 147.054219
_cell_angle_gamma 90.000000
_cell_volume 804.953295
_symmetry_space_group_name_H-M "P 2/C"
_symmetry_group_IT_number 13
_symmetry_cell_setting 'monoclinic'
loop_
_space_group_symop_operation_xyz
x,y,z
-x,y,1/2-z
-x,-y,-z
x,-y,1/2+z
loop_
_atom_site_type_symbol
_atom_site_label
_atom_site_fract_x
_atom_site_fract_y
_atom_site_fract_z
Si Si1 0.161944 0.326479 0.225926
Si Si2 0.189297 0.047712 0.047453
Si Si3 0.500000 0.514466 0.750000
Si Si4 0.198171 0.200995 0.058084
Si Si5 0.273680 0.408410 0.799122
O O1 0.111834 0.248417 0.128846
O O2 0.488049 0.348281 0.520672
O O3 0.000000 0.336429 0.250000
O O4 0.032861 0.375561 0.989741
O O5 0.500000 0.016259 0.250000
O O6 0.230175 0.123494 0.152331
O O7 0.000000 0.060357 0.750000
O O8 0.000000 0.000000 0.000000
O O9 0.313763 0.468949 0.710854
O O10 0.279856 0.560940 0.473271
O O11 0.500000 0.229485 0.250000
O O12 0.000000 0.206678 0.750000
#
# Coordination Sequence:
#
# PCOD8120566 Si02
#       5
#     4   4   2   4   4
#     4  12  24  42  61  92 124 161 207 263 310 377
#     4  10  21  40  65  98 135 173 218 268 318 383
#     4  10  24  44  62  90 118 160 200 266 322 386
#     4  10  23  41  64  92 126 168 213 255 309 378
#     4  11  25  41  64  88 121 156 209 257 321 376
#
# _framework density 22.361547000000002
#
# number of rings (size 3 to 8) (size 9 to 14) (size 15 to 20)
#    0.000    1.333    2.222    2.000    4.667    6.222 
#    0.000    2.222    0.000    0.000    0.000    0.000 
#    0.000    0.000    0.000    0.000    0.000    0.000 
#
# Total GULP energy -223155.517037 kJ/mol
# GULP energy per Si atom -12397.528724 kJ/mol
# Density = 2.231065 g / cm^3
# Si number density = 22.361547 Si / 1000 Ang^3
#
#
#
# Elastic Constant Matrix: (Units=GPa)
#
#
# Indices 1 2 3 4 5 6 
#
# 1 86.0920 50.0506 29.3057 0.0000 -9.0347 0.0000
# 2 50.0506 106.9250 15.5954 0.0000 -13.4980 0.0000
# 3 29.3057 15.5954 101.6300 0.0000 5.6649 0.0000
# 4 0.0000 0.0000 0.0000 31.5691 0.0000 -15.5702
# 5 -9.0347 -13.4980 5.6649 0.0000 37.8991 0.0000
# 6 0.0000 0.0000 0.0000 -15.5702 0.0000 55.6492
#
#
#
# Elastic Compliance Matrix: (Units=1/GPa)
#
#
# Indices 1 2 3 4 5 6 
#
# 1 0.017469 -0.007316 -0.004035 0.000000 0.002162 0.000000
# 2 -0.007316 0.013161 -0.000075 0.000000 0.002954 0.000000
# 3 -0.004035 -0.000075 0.011163 0.000000 -0.002657 0.000000
# 4 0.000000 0.000000 0.000000 0.036748 0.000000 0.010282
# 5 0.002162 0.002954 -0.002657 0.000000 0.028351 0.000000
# 6 0.000000 0.000000 0.000000 0.010282 0.000000 0.020846
#
#
# Mechanical properties :
#
#
# Convention : Reuss Voigt Hill
#
# Bulk Modulus (GPa) = 52.79471 53.83894 53.31682
# Shear Modulus (GPa) = 31.86709 38.33649 35.10179
#
# Velocity S-wave (km/s) = 3.77912 4.14502 3.96629
# Velocity P-wave (km/s) = 6.53477 6.85836 6.69852
#
# Compressibility (1/GPa) = 0.01894129
#
# Stress axis : x y z
#
# Youngs Moduli (GPa) = 57.24446 75.98466 89.58353
#
# Poissons Ratio (x) = 0.55587 0.36149
# Poissons Ratio (y) = 0.41877 0.00669
# Poissons Ratio (z) = 0.23099 0.00568
#
# Static dielectric constant tensor:
#      x y z
#    x 3.773730 0.000000 -0.057260 
#    y 0.000000 4.264800 0.000000 
#    z -0.057260 0.000000 4.295300 
# 
# 
# High freq. dielectric constant tensor:
#      x y z
#    x 1.874390 0.000000 0.001920 
#    y 0.000000 1.878970 0.000000 
#    z 0.001920 0.000000 1.899490 
# 
# From -- ./inp_files/13599.got.cif
#   From: 2010.06.25/outbox.cif.g09.slc.cpg/sg13_7_cif.got.tgz:13599.got - 2010.06.28 04:50:58.
