data_PCOD8120874
_publ_section_title
;
Structure prediction by ZEFSAII (Michael W. Deem and Ramdas Pophale) SiO2 
 PCOD8120874
Probable space group: P 2/C
;
_chemical_formula_sum "Si O2"
_cell_formula_units_Z 20
_cell_length_a 11.426122
_cell_length_b 6.623751
_cell_length_c 21.229365
_cell_angle_alpha 90.000000
_cell_angle_beta 147.546932
_cell_angle_gamma 90.000000
_cell_volume 862.179079
_symmetry_space_group_name_H-M "P 2/C"
_symmetry_group_IT_number 13
_symmetry_cell_setting 'monoclinic'
loop_
_space_group_symop_operation_xyz
x,y,z
-x,y,1/2-z
-x,-y,-z
x,-y,1/2+z
loop_
_atom_site_type_symbol
_atom_site_label
_atom_site_fract_x
_atom_site_fract_y
_atom_site_fract_z
Si Si1 0.500000 0.912609 0.250000
Si Si2 0.338676 0.876888 0.568909
Si Si3 0.927214 0.188258 0.111764
Si Si4 0.965507 0.266298 0.990037
Si Si5 0.000000 0.903903 0.250000
Si Si6 0.298837 0.580922 0.446549
O O1 0.288096 0.775510 0.141503
O O2 0.465317 0.059253 0.295435
O O3 0.384435 0.668964 0.552692
O O4 0.295918 0.059331 0.500192
O O5 0.119782 0.859302 0.513218
O O6 0.874651 0.404041 0.119502
O O7 0.075208 0.052338 0.226661
O O8 0.038521 0.216417 0.094715
O O9 0.000000 0.500000 0.000000
O O10 0.802671 0.760609 0.140347
O O11 0.500000 0.500000 0.500000
#
# Coordination Sequence:
#
# PCOD8120874 Si02
#       6
#     2   4   4   4   2   4
#     4  10  22  42  68 106 140 190 222 286 372 396
#     4  10  23  46  68 105 141 178 235 290 344 419
#     4  10  21  45  67  96 139 177 227 287 344 408
#     4  11  22  46  72 105 145 176 234 294 345 424
#     4  10  24  44  68 100 132 188 230 278 358 398
#     4  11  24  48  67 101 139 183 237 283 334 419
#
# _framework density 23.197036000000001
#
# number of rings (size 3 to 8) (size 9 to 14) (size 15 to 20)
#    0.000    1.600    2.000    3.000    0.000    4.000 
#   39.600    0.000    0.000    0.000    0.000    0.000 
#    0.000    0.000    0.000    0.000    0.000    0.000 
#
# Total GULP energy -247834.620727 kJ/mol
# GULP energy per Si atom -12391.731036 kJ/mol
# Density = 2.314424 g / cm^3
# Si number density = 23.197036 Si / 1000 Ang^3
#
#
#
# Elastic Constant Matrix: (Units=GPa)
#
#
# Indices 1 2 3 4 5 6 
#
# 1 123.6739 53.8444 50.3672 0.0000 -22.4863 0.0000
# 2 53.8444 167.9256 69.2086 0.0000 -25.0447 0.0000
# 3 50.3672 69.2086 123.9771 0.0000 -28.6190 0.0000
# 4 0.0000 0.0000 0.0000 38.4028 0.0000 -16.8038
# 5 -22.4863 -25.0447 -28.6190 0.0000 37.1130 0.0000
# 6 0.0000 0.0000 0.0000 -16.8038 0.0000 43.3453
#
#
#
# Elastic Compliance Matrix: (Units=1/GPa)
#
#
# Indices 1 2 3 4 5 6 
#
# 1 0.010488 -0.001864 -0.002486 0.000000 0.003179 0.000000
# 2 -0.001864 0.008230 -0.003426 0.000000 0.001783 0.000000
# 3 -0.002486 -0.003426 0.012296 0.000000 0.005664 0.000000
# 4 0.000000 0.000000 0.000000 0.031359 0.000000 0.012157
# 5 0.003179 0.001783 0.005664 0.000000 0.034442 0.000000
# 6 0.000000 0.000000 0.000000 0.012157 0.000000 0.027784
#
#
# Mechanical properties :
#
#
# Convention : Reuss Voigt Hill
#
# Bulk Modulus (GPa) = 64.67400 84.71300 74.69350
# Shear Modulus (GPa) = 34.41039 39.91599 37.16319
#
# Velocity S-wave (km/s) = 3.85567 4.15268 4.00692
# Velocity P-wave (km/s) = 6.91103 7.71953 7.32644
#
# Compressibility (1/GPa) = 0.01546216
#
# Stress axis : x y z
#
# Youngs Moduli (GPa) = 95.34719 121.49948 81.32826
#
# Poissons Ratio (x) = 0.22648 0.20221
# Poissons Ratio (y) = 0.17773 0.27860
# Poissons Ratio (z) = 0.23707 0.41622
#
# Static dielectric constant tensor:
#      x y z
#    x 4.340400 0.000000 -0.596410 
#    y 0.000000 4.695440 0.000000 
#    z -0.596410 0.000000 4.233570 
# 
# 
# High freq. dielectric constant tensor:
#      x y z
#    x 1.900160 0.000000 -0.035760 
#    y 0.000000 1.945040 0.000000 
#    z -0.035760 0.000000 1.908120 
# 
# From -- ./inp_files/86910.got.cif
#   From: 2010.06.25/outbox.cif.g09.slc.cpg/sg13_44_cif.got.tgz:86910.got - 2010.06.28 04:50:58.
