data_PCOD8120505
_publ_section_title
;
Structure prediction by ZEFSAII (Michael W. Deem and Ramdas Pophale) SiO2 
 PCOD8120505
Probable space group: P 2/C
;
_chemical_formula_sum "Si O2"
_cell_formula_units_Z 26
_cell_length_a 23.524297
_cell_length_b 10.419154
_cell_length_c 16.196805
_cell_angle_alpha 90.000000
_cell_angle_beta 18.562022
_cell_angle_gamma 90.000000
_cell_volume 1263.739105
_symmetry_space_group_name_H-M "P 2/C"
_symmetry_group_IT_number 13
_symmetry_cell_setting 'monoclinic'
loop_
_space_group_symop_operation_xyz
x,y,z
-x,y,1/2-z
-x,-y,-z
x,-y,1/2+z
loop_
_atom_site_type_symbol
_atom_site_label
_atom_site_fract_x
_atom_site_fract_y
_atom_site_fract_z
Si Si1 0.080418 0.675354 0.445204
Si Si2 0.263012 0.195124 0.119666
Si Si3 0.710573 0.120577 0.234406
Si Si4 0.616867 0.143575 0.920229
Si Si5 0.500000 0.423329 0.750000
Si Si6 0.000000 0.278707 0.750000
Si Si7 0.835230 0.457097 0.842211
Si Si8 0.500000 0.013271 0.250000
O O1 0.249379 0.735885 0.259605
O O2 0.148428 0.611505 0.268160
O O3 0.948106 0.792521 0.603498
O O4 0.976311 0.575988 0.648723
O O5 0.324958 0.147435 0.122218
O O6 0.350641 0.335965 0.998577
O O7 0.337013 0.087259 0.953412
O O8 0.560061 0.185746 0.384635
O O9 0.709816 0.965302 0.234293
O O10 0.895239 0.183363 0.954006
O O11 0.553417 0.101719 0.099377
O O12 0.623855 0.506191 0.642382
O O13 0.124074 0.366547 0.636616
#
# Coordination Sequence:
#
# PCOD8120505 Si02
#       8
#     4   4   4   4   2   2   4   2
#     4  10  21  40  62  85 120 160 203 248 290 358
#     4   9  18  40  59  84 121 156 195 252 298 348
#     4  10  23  40  57  89 122 155 194 250 309 352
#     4  10  23  39  60  88 121 157 201 245 298 367
#     4   9  20  37  64  84 114 159 207 250 284 362
#     4  12  24  40  60  88 126 156 192 256 298 364
#     4  10  23  39  59  92 118 158 210 243 299 354
#     4   9  20  33  62  90 114 155 205 232 300 358
#
# _framework density 20.573867
#
# number of rings (size 3 to 8) (size 9 to 14) (size 15 to 20)
#    0.000    2.154    1.538    0.000    4.308    4.923 
#    0.000    5.385    0.000    0.000    0.000    0.000 
#    0.000    0.000    0.000    0.000    0.000    0.000 
#
# Total GULP energy -322154.346520 kJ/mol
# GULP energy per Si atom -12390.551789 kJ/mol
# Density = 2.052704 g / cm^3
# Si number density = 20.573867 Si / 1000 Ang^3
#
#
#
# Elastic Constant Matrix: (Units=GPa)
#
#
# Indices 1 2 3 4 5 6 
#
# 1 50.1524 15.6942 17.5244 0.0000 -8.8502 0.0000
# 2 15.6942 65.3692 31.3568 0.0000 -7.3371 0.0000
# 3 17.5244 31.3568 81.5180 0.0000 -11.2155 0.0000
# 4 0.0000 0.0000 0.0000 25.0087 0.0000 -8.9571
# 5 -8.8502 -7.3371 -11.2155 0.0000 26.8498 0.0000
# 6 0.0000 0.0000 0.0000 -8.9571 0.0000 27.1054
#
#
#
# Elastic Compliance Matrix: (Units=1/GPa)
#
#
# Indices 1 2 3 4 5 6 
#
# 1 0.022998 -0.003555 -0.002830 0.000000 0.005427 0.000000
# 2 -0.003555 0.019437 -0.006517 0.000000 0.001417 0.000000
# 3 -0.002830 -0.006517 0.015924 0.000000 0.003938 0.000000
# 4 0.000000 0.000000 0.000000 0.045354 0.000000 0.014987
# 5 0.005427 0.001417 0.003938 0.000000 0.041065 0.000000
# 6 0.000000 0.000000 0.000000 0.014987 0.000000 0.041846
#
#
# Mechanical properties :
#
#
# Convention : Reuss Voigt Hill
#
# Bulk Modulus (GPa) = 30.71737 36.24337 33.48037
# Shear Modulus (GPa) = 22.39342 24.62373 23.50857
#
# Velocity S-wave (km/s) = 3.30273 3.46330 3.38397
# Velocity P-wave (km/s) = 5.43201 5.80061 5.61933
#
# Compressibility (1/GPa) = 0.03255487
#
# Stress axis : x y z
#
# Youngs Moduli (GPa) = 43.48162 51.44951 62.79696
#
# Poissons Ratio (x) = 0.18290 0.17771
# Poissons Ratio (y) = 0.15457 0.40927
# Poissons Ratio (z) = 0.12305 0.33531
#
# Static dielectric constant tensor:
#      x y z
#    x 3.571880 0.000000 -0.120110 
#    y 0.000000 4.023210 0.000000 
#    z -0.120110 0.000000 3.958810 
# 
# 
# High freq. dielectric constant tensor:
#      x y z
#    x 1.784490 0.000000 -0.007970 
#    y 0.000000 1.809540 0.000000 
#    z -0.007970 0.000000 1.808820 
# 
# From -- ./inp_files/57706.got.cif
#   From: 2010.06.25/outbox.cif.g09.slc.cpg/sg13_29_cif.got.tgz:57706.got - 2010.06.28 04:50:58.
