data_PCOD8120232
_publ_section_title
;
Structure prediction by ZEFSAII (Michael W. Deem and Ramdas Pophale) SiO2 
 PCOD8120232
Probable space group: P 2/C
;
_chemical_formula_sum "Si O2"
_cell_formula_units_Z 28
_cell_length_a 21.570842
_cell_length_b 9.733180
_cell_length_c 8.637532
_cell_angle_alpha 90.000000
_cell_angle_beta 126.803442
_cell_angle_gamma 90.000000
_cell_volume 1452.040891
_symmetry_space_group_name_H-M "P 2/C"
_symmetry_group_IT_number 13
_symmetry_cell_setting 'monoclinic'
loop_
_space_group_symop_operation_xyz
x,y,z
-x,y,1/2-z
-x,-y,-z
x,-y,1/2+z
loop_
_atom_site_type_symbol
_atom_site_label
_atom_site_fract_x
_atom_site_fract_y
_atom_site_fract_z
Si Si1 0.579598 0.343530 0.803621
Si Si2 0.999225 0.347813 0.431679
Si Si3 0.878928 0.853219 0.247394
Si Si4 0.420268 0.642438 0.560989
Si Si5 0.121783 0.144641 0.113582
Si Si6 0.698634 0.150537 0.480268
Si Si7 0.698055 0.138966 0.119395
O O1 0.500000 0.278119 0.750000
O O2 0.594192 0.489552 0.902879
O O3 0.572604 0.359778 0.611204
O O4 0.651742 0.249550 0.952392
O O5 0.922241 0.268800 0.369899
O O6 0.000000 0.357611 0.250000
O O7 0.000000 0.500000 0.500000
O O8 0.075169 0.268513 0.602219
O O9 0.904687 0.999120 0.356064
O O10 0.899626 0.855783 0.098240
O O11 0.789094 0.822988 0.142929
O O12 0.500000 0.703541 0.750000
O O13 0.347141 0.729605 0.504310
O O14 0.212199 0.168381 0.278402
O O15 0.677191 0.147998 0.268088
O O16 0.673031 0.009174 0.520390
#
# Coordination Sequence:
#
# PCOD8120232 Si02
#       7
#     4   4   4   4   4   4   4
#     4  11  22  38  59  83 114 151 191 234 282 338
#     4  12  25  40  59  84 116 150 190 236 283 334
#     4  10  21  39  62  86 115 150 189 231 280 337
#     4  11  22  38  59  83 114 151 191 234 282 338
#     4  10  21  39  62  86 115 150 189 231 280 337
#     4  10  21  38  60  87 116 148 188 234 282 334
#     4  10  21  38  60  87 116 148 188 234 282 334
#
# _framework density 19.283204000000001
#
# number of rings (size 3 to 8) (size 9 to 14) (size 15 to 20)
#    0.000    1.429    0.000    6.857    0.000    5.143 
#    0.000    2.857    0.000    0.000    0.000    0.000 
#    0.000    0.000    0.000    0.000    0.000    0.000 
#
# Total GULP energy -347354.028431 kJ/mol
# GULP energy per Si atom -12405.501015 kJ/mol
# Density = 1.923931 g / cm^3
# Si number density = 19.283204 Si / 1000 Ang^3
#
#
#
# Elastic Constant Matrix: (Units=GPa)
#
#
# Indices 1 2 3 4 5 6 
#
# 1 84.6385 37.8562 43.8905 0.0000 -9.6746 0.0000
# 2 37.8562 107.9318 58.2805 0.0000 6.8549 0.0000
# 3 43.8905 58.2805 135.4859 0.0000 -16.6200 0.0000
# 4 0.0000 0.0000 0.0000 46.1969 0.0000 6.6754
# 5 -9.6746 6.8549 -16.6200 0.0000 35.0634 0.0000
# 6 0.0000 0.0000 0.0000 6.6754 0.0000 48.3260
#
#
#
# Elastic Compliance Matrix: (Units=1/GPa)
#
#
# Indices 1 2 3 4 5 6 
#
# 1 0.015566 -0.004208 -0.002766 0.000000 0.003807 0.000000
# 2 -0.004208 0.014138 -0.005521 0.000000 -0.006542 0.000000
# 3 -0.002766 -0.005521 0.011350 0.000000 0.005696 0.000000
# 4 0.000000 0.000000 0.000000 0.022087 0.000000 -0.003051
# 5 0.003807 -0.006542 0.005696 0.000000 0.033549 0.000000
# 6 0.000000 0.000000 0.000000 -0.003051 0.000000 0.021114
#
#
# Mechanical properties :
#
#
# Convention : Reuss Voigt Hill
#
# Bulk Modulus (GPa) = 62.24544 67.56784 64.90664
# Shear Modulus (GPa) = 33.74982 38.45253 36.10118
#
# Velocity S-wave (km/s) = 4.18810 4.47037 4.33154
# Velocity P-wave (km/s) = 7.46569 7.85885 7.66479
#
# Compressibility (1/GPa) = 0.01606543
#
# Stress axis : x y z
#
# Youngs Moduli (GPa) = 64.24079 70.73326 88.10391
#
# Poissons Ratio (x) = 0.29767 0.24365
# Poissons Ratio (y) = 0.27034 0.48639
# Poissons Ratio (z) = 0.17766 0.39049
#
# Static dielectric constant tensor:
#      x y z
#    x 3.662640 0.000000 -0.056210 
#    y 0.000000 3.508010 0.000000 
#    z -0.056210 0.000000 3.697400 
# 
# 
# High freq. dielectric constant tensor:
#      x y z
#    x 1.765620 0.000000 -0.006790 
#    y 0.000000 1.751130 0.000000 
#    z -0.006790 0.000000 1.768350 
# 
# From -- ./inp_files/22991.got.cif
#   From: 2010.06.25/outbox.cif.g09.slc.cpg/sg13_12_cif.got.tgz:22991.got - 2010.06.28 04:50:58.
