data_PCOD8120730
_publ_section_title
;
Structure prediction by ZEFSAII (Michael W. Deem and Ramdas Pophale) SiO2 
 PCOD8120730
Probable space group: P 2/C
;
_chemical_formula_sum "Si O2"
_cell_formula_units_Z 26
_cell_length_a 8.285114
_cell_length_b 14.175144
_cell_length_c 18.387344
_cell_angle_alpha 90.000000
_cell_angle_beta 145.440647
_cell_angle_gamma 90.000000
_cell_volume 1224.973973
_symmetry_space_group_name_H-M "P 2/C"
_symmetry_group_IT_number 13
_symmetry_cell_setting 'monoclinic'
loop_
_space_group_symop_operation_xyz
x,y,z
-x,y,1/2-z
-x,-y,-z
x,-y,1/2+z
loop_
_atom_site_type_symbol
_atom_site_label
_atom_site_fract_x
_atom_site_fract_y
_atom_site_fract_z
Si Si1 0.972469 0.865907 0.861286
Si Si2 0.527274 0.870382 0.144356
Si Si3 0.270414 0.671816 0.730552
Si Si4 0.500000 0.722479 0.250000
Si Si5 0.000000 0.018353 0.750000
Si Si6 0.332041 0.510130 0.862351
Si Si7 0.185025 0.414097 0.538280
Si Si8 0.500000 0.976625 0.750000
O O1 0.798542 0.776611 0.764399
O O2 0.057802 0.948667 0.837939
O O3 0.776210 0.911423 0.849728
O O4 0.256143 0.826390 0.003466
O O5 0.643257 0.788430 0.240749
O O6 0.441473 0.962664 0.157148
O O7 0.746733 0.907285 0.166119
O O8 0.500000 0.671540 0.750000
O O9 0.363743 0.613705 0.836920
O O10 0.979583 0.627652 0.591832
O O11 0.764747 0.661656 0.378973
O O12 0.493067 0.441413 0.865783
O O13 0.000000 0.482008 0.750000
O O14 0.500000 0.500000 0.000000
O O15 0.000000 0.500000 0.500000
#
# Coordination Sequence:
#
# PCOD8120730 Si02
#       8
#     4   4   4   2   2   4   4   2
#     4  11  21  40  64  97 135 173 226 285 349 410
#     4  10  21  42  62  95 136 174 232 275 346 421
#     4  12  24  43  71 105 137 185 243 297 353 436
#     4  11  24  42  69 100 132 184 237 298 338 425
#     4  10  24  40  66  98 138 188 220 284 360 426
#     4  12  27  46  70 103 145 190 237 302 367 426
#     4  12  24  45  71  99 140 189 243 292 364 431
#     4   9  20  36  65  92 126 172 219 272 342 409
#
# _framework density 21.224943
#
# number of rings (size 3 to 8) (size 9 to 14) (size 15 to 20)
#    0.000    0.923    5.385    1.846    1.077    0.000 
#    1.385    3.077    0.000    0.000    0.000    0.000 
#    0.000    0.000    0.000    0.000    0.000    0.000 
#
# Total GULP energy -322261.896486 kJ/mol
# GULP energy per Si atom -12394.688326 kJ/mol
# Density = 2.117663 g / cm^3
# Si number density = 21.224943 Si / 1000 Ang^3
#
#
#
# Elastic Constant Matrix: (Units=GPa)
#
#
# Indices 1 2 3 4 5 6 
#
# 1 123.4791 57.6623 55.1348 0.0000 19.1075 0.0000
# 2 57.6623 135.9496 53.0740 0.0000 3.7310 0.0000
# 3 55.1348 53.0740 118.6518 0.0000 2.3570 0.0000
# 4 0.0000 0.0000 0.0000 -33.1185 0.0000 -42.9787
# 5 19.1075 3.7310 2.3570 0.0000 38.6064 0.0000
# 6 0.0000 0.0000 0.0000 -42.9787 0.0000 -30.9202
#
#
#
# Elastic Compliance Matrix: (Units=1/GPa)
#
#
# Indices 1 2 3 4 5 6 
#
# 1 0.012431 -0.003523 -0.004090 0.000000 -0.005562 0.000000
# 2 -0.003523 0.009925 -0.002822 0.000000 0.000957 0.000000
# 3 -0.004090 -0.002822 0.011559 0.000000 0.001591 0.000000
# 4 0.000000 0.000000 0.000000 0.037564 0.000000 -0.052213
# 5 -0.005562 0.000957 0.001591 0.000000 0.028466 0.000000
# 6 0.000000 0.000000 0.000000 -0.052213 0.000000 0.040234
#
#
# Mechanical properties :
#
#
# Convention : Reuss Voigt Hill
#
# Bulk Modulus (GPa) = 76.65252 78.86918 77.76085
# Shear Modulus (GPa) = 30.23043 9.06082 19.64562
#
# Velocity S-wave (km/s) = 3.77807 2.06838 3.04565
# Velocity P-wave (km/s) = 7.43132 6.55314 7.00600
#
# Compressibility (1/GPa) = 0.01304589
#
# Stress axis : x y z
#
# Youngs Moduli (GPa) = 80.44665 100.75339 86.51289
#
# Poissons Ratio (x) = 0.35496 0.35382
# Poissons Ratio (y) = 0.28342 0.24410
# Poissons Ratio (z) = 0.32901 0.28428
#
# Static dielectric constant tensor:
#      x y z
#    x 4.168270 0.000000 0.105260 
#    y 0.000000 4.000970 0.000000 
#    z 0.105260 0.000000 3.753150 
# 
# 
# High freq. dielectric constant tensor:
#      x y z
#    x 1.832930 0.000000 0.003130 
#    y 0.000000 1.843410 0.000000 
#    z 0.003130 0.000000 1.823830 
# 
# From -- ./inp_files/76668.got.cif
#   From: 2010.06.25/outbox.cif.g09.slc.cpg/sg13_39_cif.got.tgz:76668.got - 2010.06.28 04:50:58.
