data_PCOD8120512
_publ_section_title
;
Structure prediction by ZEFSAII (Michael W. Deem and Ramdas Pophale) SiO2 
 PCOD8120512
Probable space group: P 2/C
;
_chemical_formula_sum "Si O2"
_cell_formula_units_Z 28
_cell_length_a 20.953591
_cell_length_b 8.251140
_cell_length_c 14.195620
_cell_angle_alpha 90.000000
_cell_angle_beta 147.718870
_cell_angle_gamma 90.000000
_cell_volume 1310.775062
_symmetry_space_group_name_H-M "P 2/C"
_symmetry_group_IT_number 13
_symmetry_cell_setting 'monoclinic'
loop_
_space_group_symop_operation_xyz
x,y,z
-x,y,1/2-z
-x,-y,-z
x,-y,1/2+z
loop_
_atom_site_type_symbol
_atom_site_label
_atom_site_fract_x
_atom_site_fract_y
_atom_site_fract_z
Si Si1 0.277857 0.800388 0.024827
Si Si2 0.858331 0.879988 0.175814
Si Si3 0.321807 0.674797 0.881877
Si Si4 0.117636 0.750898 0.492970
Si Si5 0.550334 0.167352 0.595661
Si Si6 0.747104 0.696774 0.210418
Si Si7 0.887973 0.619470 0.556665
O O1 0.377885 0.870532 0.219018
O O2 0.342057 0.745137 0.010388
O O3 0.221727 0.642917 0.007533
O O4 0.176125 0.931156 0.870167
O O5 0.780046 0.785185 0.155138
O O6 0.999584 0.854091 0.372552
O O7 0.824024 0.811662 0.030808
O O8 0.215251 0.772551 0.696544
O O9 0.283303 0.490030 0.843524
O O10 0.445928 0.699459 0.981410
O O11 0.082315 0.564562 0.432603
O O12 0.630428 0.225147 0.609237
O O13 0.500000 0.000000 0.500000
O O14 0.858139 0.713881 0.422345
O O15 0.000000 0.699290 0.750000
#
# Coordination Sequence:
#
# PCOD8120512 Si02
#       7
#     4   4   4   4   4   4   4
#     4  11  25  39  65  95 129 167 210 260 317 382
#     4  11  22  41  59  97 131 164 211 252 320 382
#     4  11  23  41  66  94 124 167 213 263 318 371
#     4  10  23  40  64  91 131 164 209 264 311 383
#     4  11  23  46  66  90 128 167 216 265 315 370
#     4  10  24  40  67  92 125 167 216 258 318 376
#     4  10  21  40  62  91 125 167 204 258 315 375
#
# _framework density 21.361407
#
# number of rings (size 3 to 8) (size 9 to 14) (size 15 to 20)
#    0.000    1.429    1.429    3.429    4.000    2.857 
#    0.000    6.429    0.000    0.000    0.000    0.000 
#    0.000    0.000    0.000    0.000    0.000    0.000 
#
# Total GULP energy -347151.803949 kJ/mol
# GULP energy per Si atom -12398.278712 kJ/mol
# Density = 2.131279 g / cm^3
# Si number density = 21.361407 Si / 1000 Ang^3
#
#
#
# Elastic Constant Matrix: (Units=GPa)
#
#
# Indices 1 2 3 4 5 6 
#
# 1 149.8005 32.3373 53.8034 0.0000 -4.6776 0.0000
# 2 32.3373 63.8916 39.0246 0.0000 4.4869 0.0000
# 3 53.8034 39.0246 126.5719 0.0000 2.3172 0.0000
# 4 0.0000 0.0000 0.0000 30.1733 0.0000 5.3004
# 5 -4.6776 4.4869 2.3172 0.0000 28.5592 0.0000
# 6 0.0000 0.0000 0.0000 5.3004 0.0000 30.5922
#
#
#
# Elastic Compliance Matrix: (Units=1/GPa)
#
#
# Indices 1 2 3 4 5 6 
#
# 1 0.008298 -0.002666 -0.002742 0.000000 0.002000 0.000000
# 2 -0.002666 0.020326 -0.005075 0.000000 -0.003218 0.000000
# 3 -0.002742 -0.005075 0.010640 0.000000 -0.000515 0.000000
# 4 0.000000 0.000000 0.000000 0.034182 0.000000 -0.005922
# 5 0.002000 -0.003218 -0.000515 0.000000 0.035890 0.000000
# 6 0.000000 0.000000 0.000000 -0.005922 0.000000 0.033714
#
#
# Mechanical properties :
#
#
# Convention : Reuss Voigt Hill
#
# Bulk Modulus (GPa) = 54.64606 65.62162 60.13384
# Shear Modulus (GPa) = 29.39147 32.20485 30.79816
#
# Velocity S-wave (km/s) = 3.71336 3.88702 3.80118
# Velocity P-wave (km/s) = 6.63495 7.13664 6.89036
#
# Compressibility (1/GPa) = 0.01829958
#
# Stress axis : x y z
#
# Youngs Moduli (GPa) = 120.50587 49.19695 93.98056
#
# Poissons Ratio (x) = 0.13114 0.25772
# Poissons Ratio (y) = 0.32122 0.47696
# Poissons Ratio (z) = 0.33046 0.24968
#
# Static dielectric constant tensor:
#      x y z
#    x 4.307840 0.000000 -0.006190 
#    y 0.000000 4.110170 0.000000 
#    z -0.006190 0.000000 4.121730 
# 
# 
# High freq. dielectric constant tensor:
#      x y z
#    x 1.845590 0.000000 -0.007450 
#    y 0.000000 1.833440 0.000000 
#    z -0.007450 0.000000 1.845250 
# 
# From -- ./inp_files/57515.got.cif
#   From: 2010.06.25/outbox.cif.g09.slc.cpg/sg13_29_cif.got.tgz:57515.got - 2010.06.28 04:50:58.
