data_PCOD8120891
_publ_section_title
;
Structure prediction by ZEFSAII (Michael W. Deem and Ramdas Pophale) SiO2 
 PCOD8120891
Probable space group: P 2/C
;
_chemical_formula_sum "Si O2"
_cell_formula_units_Z 26
_cell_length_a 25.618438
_cell_length_b 9.001023
_cell_length_c 26.164799
_cell_angle_alpha 90.000000
_cell_angle_beta 168.818921
_cell_angle_gamma 90.000000
_cell_volume 1169.938450
_symmetry_space_group_name_H-M "P 2/C"
_symmetry_group_IT_number 13
_symmetry_cell_setting 'monoclinic'
loop_
_space_group_symop_operation_xyz
x,y,z
-x,y,1/2-z
-x,-y,-z
x,-y,1/2+z
loop_
_atom_site_type_symbol
_atom_site_label
_atom_site_fract_x
_atom_site_fract_y
_atom_site_fract_z
Si Si1 0.338711 0.531128 0.203117
Si Si2 0.474463 0.255266 0.477820
Si Si3 0.249913 0.007362 0.203672
Si Si4 0.223924 0.514264 0.293686
Si Si5 0.500000 0.589845 0.250000
Si Si6 0.226170 0.149553 0.434494
Si Si7 0.783437 0.864187 0.429691
O O1 0.576063 0.471101 0.466434
O O2 0.386936 0.491648 0.189043
O O3 0.324927 0.708821 0.196667
O O4 0.069663 0.456300 0.965963
O O5 0.551512 0.127806 0.592045
O O6 0.246051 0.354844 0.286232
O O7 0.719024 0.360932 0.694751
O O8 0.374794 0.170927 0.330898
O O9 0.163574 0.988274 0.062086
O O10 0.000000 0.000000 0.000000
O O11 0.739870 0.693210 0.503047
O O12 0.527457 0.078143 0.718820
O O13 0.000000 0.056094 0.250000
O O14 0.073716 0.166925 0.233893
#
# Coordination Sequence:
#
# PCOD8120891 Si02
#       7
#     4   4   4   4   2   4   4
#     4  11  21  36  60  91 128 157 199 258 313 364
#     4  10  25  40  61  91 125 168 211 250 303 375
#     4  11  24  40  63  89 126 169 211 254 301 368
#     4  11  24  40  62  93 128 162 203 254 312 362
#     4  10  22  32  60  92 126 158 204 252 320 364
#     4  11  19  34  55  89 129 151 195 260 316 358
#     4  11  22  34  58  91 125 158 199 252 313 360
#
# _framework density 22.223390999999999
#
# number of rings (size 3 to 8) (size 9 to 14) (size 15 to 20)
#    0.000    1.231    4.615    2.769    6.462    1.231 
#    0.000    0.000    0.000    0.000    8.000    0.000 
#    0.000    0.000    0.000    0.000    0.000    0.000 
#
# Total GULP energy -322121.004965 kJ/mol
# GULP energy per Si atom -12389.269422 kJ/mol
# Density = 2.217281 g / cm^3
# Si number density = 22.223391 Si / 1000 Ang^3
#
#
#
# Elastic Constant Matrix: (Units=GPa)
#
#
# Indices 1 2 3 4 5 6 
#
# 1 108.1360 13.5841 20.8216 0.0000 11.7228 0.0000
# 2 13.5841 59.9996 8.0003 0.0000 -0.6510 0.0000
# 3 20.8216 8.0003 108.6171 0.0000 -1.4958 0.0000
# 4 0.0000 0.0000 0.0000 14.1301 0.0000 -2.9428
# 5 11.7228 -0.6510 -1.4958 0.0000 46.6123 0.0000
# 6 0.0000 0.0000 0.0000 -2.9428 0.0000 26.1719
#
#
#
# Elastic Compliance Matrix: (Units=1/GPa)
#
#
# Indices 1 2 3 4 5 6 
#
# 1 0.010147 -0.002082 -0.001828 0.000000 -0.002640 0.000000
# 2 -0.002082 0.017261 -0.000862 0.000000 0.000737 0.000000
# 3 -0.001828 -0.000862 0.009631 0.000000 0.000757 0.000000
# 4 0.000000 0.000000 0.000000 0.072468 0.000000 0.008148
# 5 -0.002640 0.000737 0.000757 0.000000 0.022152 0.000000
# 6 0.000000 0.000000 0.000000 0.008148 0.000000 0.039125
#
#
# Mechanical properties :
#
#
# Convention : Reuss Voigt Hill
#
# Bulk Modulus (GPa) = 36.37093 40.17385 38.27239
# Shear Modulus (GPa) = 26.38594 33.00596 29.69595
#
# Velocity S-wave (km/s) = 3.44947 3.85800 3.65944
# Velocity P-wave (km/s) = 5.68038 6.16133 5.92574
#
# Compressibility (1/GPa) = 0.02749448
#
# Stress axis : x y z
#
# Youngs Moduli (GPa) = 98.54755 57.93352 103.83097
#
# Poissons Ratio (x) = 0.12063 0.18982
# Poissons Ratio (y) = 0.20520 0.08951
# Poissons Ratio (z) = 0.18017 0.04994
#
# Static dielectric constant tensor:
#      x y z
#    x 4.413830 0.000000 0.090720 
#    y 0.000000 4.011600 0.000000 
#    z 0.090720 0.000000 3.954340 
# 
# 
# High freq. dielectric constant tensor:
#      x y z
#    x 1.893720 0.000000 0.003160 
#    y 0.000000 1.804800 0.000000 
#    z 0.003160 0.000000 1.888780 
# 
# From -- ./inp_files/98003.got.cif
#   From: 2010.06.25/outbox.cif.g09.slc.cpg/sg13_50_cif.got.tgz:98003.got - 2010.06.28 04:50:58.
