data_PCOD8120882
_publ_section_title
;
Structure prediction by ZEFSAII (Michael W. Deem and Ramdas Pophale) SiO2 
 PCOD8120882
Probable space group: P 2/C
;
_chemical_formula_sum "Si O2"
_cell_formula_units_Z 28
_cell_length_a 13.327875
_cell_length_b 13.949478
_cell_length_c 9.394330
_cell_angle_alpha 90.000000
_cell_angle_beta 50.835701
_cell_angle_gamma 90.000000
_cell_volume 1354.178255
_symmetry_space_group_name_H-M "P 2/C"
_symmetry_group_IT_number 13
_symmetry_cell_setting 'monoclinic'
loop_
_space_group_symop_operation_xyz
x,y,z
-x,y,1/2-z
-x,-y,-z
x,-y,1/2+z
loop_
_atom_site_type_symbol
_atom_site_label
_atom_site_fract_x
_atom_site_fract_y
_atom_site_fract_z
Si Si1 0.000438 0.903687 0.086150
Si Si2 0.891819 0.594013 0.453422
Si Si3 0.357497 0.718756 0.885971
Si Si4 0.241447 0.777602 0.280973
Si Si5 0.933050 0.621024 0.943013
Si Si6 0.723787 0.889805 0.716501
Si Si7 0.650007 0.072216 0.607765
O O1 0.879517 0.839271 0.158998
O O2 0.000000 0.931679 0.250000
O O3 0.130736 0.846792 0.925146
O O4 0.000000 0.000000 0.000000
O O5 0.752646 0.642547 0.555802
O O6 0.875348 0.480642 0.441785
O O7 0.000000 0.638579 0.250000
O O8 0.945688 0.609872 0.561430
O O9 0.500000 0.669803 0.750000
O O10 0.366801 0.806523 0.764665
O O11 0.334773 0.760103 0.064143
O O12 0.189425 0.676897 0.385680
O O13 0.320301 0.829704 0.335436
O O14 0.000000 0.675320 0.750000
O O15 0.722815 0.984112 0.617509
O O16 0.690164 0.918758 0.907324
O O17 0.500000 0.048550 0.750000
#
# Coordination Sequence:
#
# PCOD8120882 Si02
#       7
#     4   4   4   4   4   4   4
#     4  12  24  40  63  96 128 163 215 277 323 368
#     4  10  21  45  71  99 128 169 219 270 328 393
#     4  12  25  44  69  97 130 176 220 268 329 393
#     4  12  25  42  64  99 133 169 217 272 325 389
#     4  10  23  40  71  99 132 167 213 270 336 388
#     4  12  24  42  66  91 129 175 219 269 323 385
#     4  12  26  44  62  90 135 180 217 260 321 396
#
# _framework density 20.676746999999999
#
# number of rings (size 3 to 8) (size 9 to 14) (size 15 to 20)
#    0.000    0.571    4.286    4.286    4.000    0.000 
#    0.000    1.429    0.000    0.000    0.000    0.000 
#    0.000    0.000    0.000    0.000    0.000    0.000 
#
# Total GULP energy -347251.957593 kJ/mol
# GULP energy per Si atom -12401.855628 kJ/mol
# Density = 2.062969 g / cm^3
# Si number density = 20.676747 Si / 1000 Ang^3
#
#
#
# Elastic Constant Matrix: (Units=GPa)
#
#
# Indices 1 2 3 4 5 6 
#
# 1 95.3220 35.1067 65.9203 0.0000 -9.2774 0.0000
# 2 35.1067 83.0427 36.4176 0.0000 0.1447 0.0000
# 3 65.9203 36.4176 165.0759 0.0000 6.1876 0.0000
# 4 0.0000 0.0000 0.0000 8.0070 0.0000 -5.9219
# 5 -9.2774 0.1447 6.1876 0.0000 50.1141 0.0000
# 6 0.0000 0.0000 0.0000 -5.9219 0.0000 24.9819
#
#
#
# Elastic Compliance Matrix: (Units=1/GPa)
#
#
# Indices 1 2 3 4 5 6 
#
# 1 0.016462 -0.004452 -0.005733 0.000000 0.003768 0.000000
# 2 -0.004452 0.014541 -0.001404 0.000000 -0.000693 0.000000
# 3 -0.005733 -0.001404 0.008737 0.000000 -0.002136 0.000000
# 4 0.000000 0.000000 0.000000 0.151441 0.000000 0.035899
# 5 0.003768 -0.000693 -0.002136 0.000000 0.020918 0.000000
# 6 0.000000 0.000000 0.000000 0.035899 0.000000 0.048539
#
#
# Mechanical properties :
#
#
# Convention : Reuss Voigt Hill
#
# Bulk Modulus (GPa) = 60.37894 68.70333 64.54113
# Shear Modulus (GPa) = 17.28101 30.35366 23.81733
#
# Velocity S-wave (km/s) = 2.89411 3.83562 3.39763
# Velocity P-wave (km/s) = 6.35866 7.27430 6.83184
#
# Compressibility (1/GPa) = 0.01656207
#
# Stress axis : x y z
#
# Youngs Moduli (GPa) = 60.74740 68.77108 114.45607
#
# Poissons Ratio (x) = 0.30615 0.65616
# Poissons Ratio (y) = 0.27043 0.16072
# Poissons Ratio (z) = 0.34825 0.09657
#
# Static dielectric constant tensor:
#      x y z
#    x 4.035070 0.000000 -0.091350 
#    y 0.000000 3.546380 0.000000 
#    z -0.091350 0.000000 5.086600 
# 
# 
# High freq. dielectric constant tensor:
#      x y z
#    x 1.813640 0.000000 0.008430 
#    y 0.000000 1.800870 0.000000 
#    z 0.008430 0.000000 1.824860 
# 
# From -- ./inp_files/16650.got.cif
#   From: 2010.06.25/outbox.cif.g09.slc.cpg/sg13_9_cif.got.tgz:16650.got - 2010.06.28 04:50:58.
