data_PCOD8120071
_publ_section_title
;
Structure prediction by ZEFSAII (Michael W. Deem and Ramdas Pophale) SiO2 
 PCOD8120071
Probable space group: P 2/C
;
_chemical_formula_sum "Si O2"
_cell_formula_units_Z 20
_cell_length_a 12.235701
_cell_length_b 10.167031
_cell_length_c 14.750980
_cell_angle_alpha 90.000000
_cell_angle_beta 28.899566
_cell_angle_gamma 90.000000
_cell_volume 886.826951
_symmetry_space_group_name_H-M "P 2/C"
_symmetry_group_IT_number 13
_symmetry_cell_setting 'monoclinic'
loop_
_space_group_symop_operation_xyz
x,y,z
-x,y,1/2-z
-x,-y,-z
x,-y,1/2+z
loop_
_atom_site_type_symbol
_atom_site_label
_atom_site_fract_x
_atom_site_fract_y
_atom_site_fract_z
Si Si1 0.500000 0.612867 0.750000
Si Si2 0.500000 0.962054 0.250000
Si Si3 0.591766 0.178649 0.326685
Si Si4 0.672118 0.312540 0.839700
Si Si5 0.072501 0.860394 0.488075
Si Si6 0.249379 0.540061 0.578993
O O1 0.374252 0.702910 0.768389
O O2 0.689329 0.527909 0.561147
O O3 0.271836 0.873219 0.418407
O O4 0.523137 0.045010 0.325173
O O5 0.389214 0.199398 0.543560
O O6 0.832731 0.183494 0.204923
O O7 0.852361 0.247311 0.641591
O O8 0.768954 0.438016 0.823251
O O9 0.440850 0.351313 0.956602
O O10 0.000000 0.000000 0.500000
O O11 0.000000 0.604068 0.750000
#
# Coordination Sequence:
#
# PCOD8120071 Si02
#       6
#     2   2   4   4   4   4
#     4   9  18  35  60  84 114 151 192 231 286 364
#     4   9  20  35  54  80 106 143 196 237 286 344
#     4   9  19  38  57  78 111 152 189 236 291 345
#     4  10  22  37  57  85 115 148 195 236 285 357
#     4  10  21  38  57  80 111 148 189 241 290 337
#     4  10  21  37  58  87 117 151 189 238 295 348
#
# _framework density 22.552313999999999
#
# number of rings (size 3 to 8) (size 9 to 14) (size 15 to 20)
#    0.000    2.400    0.000    1.200    0.000    8.800 
#    0.000   10.000    0.000    0.000    0.000    0.000 
#    0.000    0.000    0.000    0.000    0.000    0.000 
#
# Total GULP energy -247776.008453 kJ/mol
# GULP energy per Si atom -12388.800423 kJ/mol
# Density = 2.250098 g / cm^3
# Si number density = 22.552314 Si / 1000 Ang^3
#
#
#
# Elastic Constant Matrix: (Units=GPa)
#
#
# Indices 1 2 3 4 5 6 
#
# 1 78.3515 3.4299 24.8770 0.0000 -23.2091 0.0000
# 2 3.4299 35.4447 5.4392 0.0000 4.6113 0.0000
# 3 24.8770 5.4392 62.5482 0.0000 -20.3963 0.0000
# 4 0.0000 0.0000 0.0000 19.9039 0.0000 1.0420
# 5 -23.2091 4.6113 -20.3963 0.0000 41.4249 0.0000
# 6 0.0000 0.0000 0.0000 1.0420 0.0000 5.3897
#
#
#
# Elastic Compliance Matrix: (Units=1/GPa)
#
#
# Indices 1 2 3 4 5 6 
#
# 1 0.016281 -0.001945 -0.003885 0.000000 0.007426 0.000000
# 2 -0.001945 0.029819 -0.003880 0.000000 -0.006320 0.000000
# 3 -0.003885 -0.003880 0.020610 0.000000 0.008403 0.000000
# 4 0.000000 0.000000 0.000000 0.050755 0.000000 -0.009813
# 5 0.007426 -0.006320 0.008403 0.000000 0.033141 0.000000
# 6 0.000000 0.000000 0.000000 -0.009813 0.000000 0.187437
#
#
# Mechanical properties :
#
#
# Convention : Reuss Voigt Hill
#
# Bulk Modulus (GPa) = 21.14626 27.09296 24.11961
# Shear Modulus (GPa) = 13.39665 22.85025 18.12345
#
# Velocity S-wave (km/s) = 2.43991 3.18655 2.83789
# Velocity P-wave (km/s) = 4.16346 5.05750 4.63210
#
# Compressibility (1/GPa) = 0.04728968
#
# Stress axis : x y z
#
# Youngs Moduli (GPa) = 61.42050 33.53587 48.51916
#
# Poissons Ratio (x) = 0.06524 0.18849
# Poissons Ratio (y) = 0.11949 0.18826
# Poissons Ratio (z) = 0.23861 0.13012
#
# Static dielectric constant tensor:
#      x y z
#    x 3.003740 0.000000 -0.884780 
#    y 0.000000 4.055790 0.000000 
#    z -0.884780 0.000000 3.863380 
# 
# 
# High freq. dielectric constant tensor:
#      x y z
#    x 1.881880 0.000000 -0.017700 
#    y 0.000000 1.883310 0.000000 
#    z -0.017700 0.000000 1.884640 
# 
# From -- ./inp_files/50762.got.cif
#   From: 2010.06.25/outbox.cif.g09.slc.cpg/sg13_26_cif.got.tgz:50762.got - 2010.06.28 04:50:58.
