data_PCOD8120436
_publ_section_title
;
Structure prediction by ZEFSAII (Michael W. Deem and Ramdas Pophale) SiO2 
 PCOD8120436
Probable space group: P 2/C
;
_chemical_formula_sum "Si O2"
_cell_formula_units_Z 16
_cell_length_a 7.431593
_cell_length_b 20.833490
_cell_length_c 5.221931
_cell_angle_alpha 90.000000
_cell_angle_beta 59.067209
_cell_angle_gamma 90.000000
_cell_volume 693.499836
_symmetry_space_group_name_H-M "P 2/C"
_symmetry_group_IT_number 13
_symmetry_cell_setting 'monoclinic'
loop_
_space_group_symop_operation_xyz
x,y,z
-x,y,1/2-z
-x,-y,-z
x,-y,1/2+z
loop_
_atom_site_type_symbol
_atom_site_label
_atom_site_fract_x
_atom_site_fract_y
_atom_site_fract_z
Si Si1 0.246914 0.035108 0.561109
Si Si2 0.500000 0.153609 0.250000
Si Si3 0.500000 0.234627 0.750000
Si Si4 0.138023 0.667237 0.396680
Si Si5 0.264969 0.472701 0.697925
O O1 0.306582 0.109493 0.483475
O O2 0.000000 0.029984 0.750000
O O3 0.340677 0.995841 0.250968
O O4 0.567453 0.194522 0.449291
O O5 0.699766 0.275920 0.682670
O O6 0.269283 0.602660 0.249170
O O7 0.000000 0.684640 0.250000
O O8 0.000000 0.657885 0.750000
O O9 0.500000 0.500000 0.500000
O O10 0.150067 0.487395 0.511106
#
# Coordination Sequence:
#
# PCOD8120436 Si02
#       5
#     4   2   2   4   4
#     4  10  21  39  65  99 136 170 211 271 335 393
#     4  12  24  41  70  97 132 180 226 272 328 388
#     4  12  28  47  66  97 136 182 232 282 320 382
#     4  12  27  47  70  96 134 181 225 275 339 402
#     4  10  21  39  66  96 128 162 207 274 338 400
#
# _framework density 23.071382
#
# number of rings (size 3 to 8) (size 9 to 14) (size 15 to 20)
#    0.000    1.000    0.000    6.750    0.000   10.000 
#    0.000    0.000    0.000    0.000    0.000    0.000 
#    0.000    0.000    0.000    0.000    0.000    0.000 
#
# Total GULP energy -198442.544235 kJ/mol
# GULP energy per Si atom -12402.659015 kJ/mol
# Density = 2.301887 g / cm^3
# Si number density = 23.071382 Si / 1000 Ang^3
#
#
#
# Elastic Constant Matrix: (Units=GPa)
#
#
# Indices 1 2 3 4 5 6 
#
# 1 134.0146 68.2688 82.5900 0.0000 38.9364 0.0000
# 2 68.2688 171.1265 73.7837 0.0000 23.1601 0.0000
# 3 82.5900 73.7837 179.4398 0.0000 40.4503 0.0000
# 4 0.0000 0.0000 0.0000 25.9266 0.0000 9.2065
# 5 38.9364 23.1601 40.4503 0.0000 47.9710 0.0000
# 6 0.0000 0.0000 0.0000 9.2065 0.0000 31.2179
#
#
#
# Elastic Compliance Matrix: (Units=1/GPa)
#
#
# Indices 1 2 3 4 5 6 
#
# 1 0.012732 -0.002816 -0.003308 0.000000 -0.006185 0.000000
# 2 -0.002816 0.007781 -0.001941 0.000000 0.000165 0.000000
# 3 -0.003308 -0.001941 0.008738 0.000000 -0.003746 0.000000
# 4 0.000000 0.000000 0.000000 0.043082 0.000000 -0.012705
# 5 -0.006185 0.000165 -0.003746 0.000000 0.028945 0.000000
# 6 0.000000 0.000000 0.000000 -0.012705 0.000000 0.035780
#
#
# Mechanical properties :
#
#
# Convention : Reuss Voigt Hill
#
# Bulk Modulus (GPa) = 76.20754 103.76287 89.98521
# Shear Modulus (GPa) = 31.73358 38.35233 35.04295
#
# Velocity S-wave (km/s) = 3.71273 4.08160 3.90153
# Velocity P-wave (km/s) = 7.17510 8.20274 7.70607
#
# Compressibility (1/GPa) = 0.01312206
#
# Stress axis : x y z
#
# Youngs Moduli (GPa) = 78.54240 128.51068 114.44349
#
# Poissons Ratio (x) = 0.36187 0.37857
# Poissons Ratio (y) = 0.22117 0.22212
# Poissons Ratio (z) = 0.25981 0.24942
#
# Static dielectric constant tensor:
#      x y z
#    x 4.207800 0.000000 0.009160 
#    y 0.000000 4.069700 0.000000 
#    z 0.009160 0.000000 4.400510 
# 
# 
# High freq. dielectric constant tensor:
#      x y z
#    x 1.941570 0.000000 0.007650 
#    y 0.000000 1.903580 0.000000 
#    z 0.007650 0.000000 1.949680 
# 
# From -- ./inp_files/1453.got.cif
#   From: 2010.06.25/outbox.cif.g09.slc.cpg/sg13_1_cif.got.tgz:1453.got - 2010.06.28 04:50:58.
