data_PCOD8120845
_publ_section_title
;
Structure prediction by ZEFSAII (Michael W. Deem and Ramdas Pophale) SiO2 
 PCOD8120845
Probable space group: P 2/C
;
_chemical_formula_sum "Si O2"
_cell_formula_units_Z 20
_cell_length_a 11.065360
_cell_length_b 18.001070
_cell_length_c 8.783170
_cell_angle_alpha 90.000000
_cell_angle_beta 150.815726
_cell_angle_gamma 90.000000
_cell_volume 853.093654
_symmetry_space_group_name_H-M "P 2/C"
_symmetry_group_IT_number 13
_symmetry_cell_setting 'monoclinic'
loop_
_space_group_symop_operation_xyz
x,y,z
-x,y,1/2-z
-x,-y,-z
x,-y,1/2+z
loop_
_atom_site_type_symbol
_atom_site_label
_atom_site_fract_x
_atom_site_fract_y
_atom_site_fract_z
Si Si1 0.560183 0.284023 0.139594
Si Si2 0.500000 0.025783 0.250000
Si Si3 0.314374 0.436713 0.842107
Si Si4 0.000000 0.222539 0.750000
Si Si5 0.291042 0.856773 0.323076
Si Si6 0.000000 0.067694 0.250000
Si Si7 0.000000 0.503264 0.250000
O O1 0.500000 0.280252 0.250000
O O2 0.860553 0.275053 0.469887
O O3 0.453931 0.360222 0.956743
O O4 0.440624 0.213827 0.917787
O O5 0.526443 0.074649 0.434433
O O6 0.752738 0.978504 0.516452
O O7 0.085437 0.446940 0.475756
O O8 0.215574 0.444345 0.909752
O O9 0.500000 0.500000 0.000000
O O10 0.185324 0.167647 0.869657
O O11 0.068779 0.879994 0.967526
#
# Coordination Sequence:
#
# PCOD8120845 Si02
#       7
#     4   2   4   2   4   2   2
#     4  10  22  40  69  95 134 181 230 283 344 422
#     4  12  24  46  72 100 140 188 232 288 362 434
#     4  11  23  42  67 103 133 181 236 283 353 423
#     4  10  21  43  72  91 137 180 230 278 346 418
#     4  11  24  44  67 101 134 181 235 282 352 430
#     4  12  29  41  73 105 142 178 232 306 357 415
#     4  10  24  42  67  92 145 172 230 292 353 415
#
# _framework density 23.444085000000001
#
# number of rings (size 3 to 8) (size 9 to 14) (size 15 to 20)
#    0.000    1.200    3.000    3.600    2.800   11.200 
#    0.000    2.000    0.000    0.000    0.000    0.000 
#    0.000    0.000    0.000    0.000    0.000    0.000 
#
# Total GULP energy -247822.565544 kJ/mol
# GULP energy per Si atom -12391.128277 kJ/mol
# Density = 2.339073 g / cm^3
# Si number density = 23.444085 Si / 1000 Ang^3
#
#
#
# Elastic Constant Matrix: (Units=GPa)
#
#
# Indices 1 2 3 4 5 6 
#
# 1 69.4426 28.6527 24.1140 0.0000 14.2103 0.0000
# 2 28.6527 172.3708 85.5793 0.0000 14.5484 0.0000
# 3 24.1140 85.5793 151.4576 0.0000 10.5968 0.0000
# 4 0.0000 0.0000 0.0000 41.7064 0.0000 -1.2020
# 5 14.2103 14.5484 10.5968 0.0000 41.8565 0.0000
# 6 0.0000 0.0000 0.0000 -1.2020 0.0000 19.1769
#
#
#
# Elastic Compliance Matrix: (Units=1/GPa)
#
#
# Indices 1 2 3 4 5 6 
#
# 1 0.016522 -0.001679 -0.001354 0.000000 -0.004683 0.000000
# 2 -0.001679 0.008352 -0.004366 0.000000 -0.001228 0.000000
# 3 -0.001354 -0.004366 0.009312 0.000000 -0.000380 0.000000
# 4 0.000000 0.000000 0.000000 0.024021 0.000000 0.001506
# 5 -0.004683 -0.001228 -0.000380 0.000000 0.026004 0.000000
# 6 0.000000 0.000000 0.000000 0.001506 0.000000 0.052241
#
#
# Mechanical properties :
#
#
# Convention : Reuss Voigt Hill
#
# Bulk Modulus (GPa) = 51.58056 74.44033 63.01045
# Shear Modulus (GPa) = 31.70379 37.54296 34.62337
#
# Velocity S-wave (km/s) = 3.68137 4.00607 3.84715
# Velocity P-wave (km/s) = 6.33398 7.29516 6.83149
#
# Compressibility (1/GPa) = 0.01938715
#
# Stress axis : x y z
#
# Youngs Moduli (GPa) = 60.52695 119.73634 107.39298
#
# Poissons Ratio (x) = 0.20101 0.14544
# Poissons Ratio (y) = 0.10161 0.46886
# Poissons Ratio (z) = 0.08197 0.52275
#
# Static dielectric constant tensor:
#      x y z
#    x 4.286940 0.000000 -0.413980 
#    y 0.000000 4.718840 0.000000 
#    z -0.413980 0.000000 13.082840 
# 
# 
# High freq. dielectric constant tensor:
#      x y z
#    x 1.888980 0.000000 0.016480 
#    y 0.000000 1.932260 0.000000 
#    z 0.016480 0.000000 1.952580 
# 
# From -- ./inp_files/9486.got.cif
#   From: 2010.06.25/outbox.cif.g09.slc.cpg/sg13_5_cif.got.tgz:9486.got - 2010.06.28 04:50:58.
