data_PCOD8120374
_publ_section_title
;
Structure prediction by ZEFSAII (Michael W. Deem and Ramdas Pophale) SiO2 
 PCOD8120374
Probable space group: P 2/C
;
_chemical_formula_sum "Si O2"
_cell_formula_units_Z 28
_cell_length_a 8.854514
_cell_length_b 15.935640
_cell_length_c 21.506379
_cell_angle_alpha 90.000000
_cell_angle_beta 26.781385
_cell_angle_gamma 90.000000
_cell_volume 1367.353148
_symmetry_space_group_name_H-M "P 2/C"
_symmetry_group_IT_number 13
_symmetry_cell_setting 'monoclinic'
loop_
_space_group_symop_operation_xyz
x,y,z
-x,y,1/2-z
-x,-y,-z
x,-y,1/2+z
loop_
_atom_site_type_symbol
_atom_site_label
_atom_site_fract_x
_atom_site_fract_y
_atom_site_fract_z
Si Si1 0.257908 0.666280 0.786310
Si Si2 0.525718 0.064052 0.892061
Si Si3 0.781647 0.249756 0.006209
Si Si4 0.219196 0.767974 0.459742
Si Si5 0.716112 0.630971 0.231255
Si Si6 0.821766 0.918376 0.419635
Si Si7 0.103934 0.478913 0.144940
O O1 0.500000 0.624955 0.750000
O O2 0.447493 0.712331 0.659895
O O3 0.981242 0.597463 0.869576
O O4 0.068516 0.741014 0.888472
O O5 0.317891 0.144898 0.952367
O O6 0.654913 0.073930 0.914194
O O7 0.792748 0.058690 0.737447
O O8 0.302829 0.979706 0.979023
O O9 0.728951 0.175060 0.976654
O O10 0.063402 0.215467 0.949562
O O11 0.930764 0.329750 0.916916
O O12 0.512748 0.698275 0.347651
O O13 0.500000 0.602935 0.250000
O O14 0.837086 0.552410 0.227321
O O15 0.000000 0.445873 0.250000
O O16 0.500000 0.500000 0.000000
#
# Coordination Sequence:
#
# PCOD8120374 Si02
#       7
#     4   4   4   4   4   4   4
#     4  10  23  42  61  87 125 165 202 248 308 365
#     4  10  22  39  59  87 123 160 199 241 303 363
#     4  10  21  39  63  88 118 156 209 250 295 357
#     4  10  21  39  62  89 116 158 207 250 295 359
#     4  10  21  40  64  85 119 164 201 246 307 368
#     4  10  22  39  59  87 123 161 197 244 301 363
#     4  12  25  40  61  94 125 154 204 258 301 358
#
# _framework density 20.477520999999999
#
# number of rings (size 3 to 8) (size 9 to 14) (size 15 to 20)
#    0.000    1.714    1.429    2.143    2.000    4.000 
#    0.000    5.714    0.000    0.000    0.000    0.000 
#    0.000    0.000    0.000    0.000    0.000    0.000 
#
# Total GULP energy -346935.361548 kJ/mol
# GULP energy per Si atom -12390.548627 kJ/mol
# Density = 2.043091 g / cm^3
# Si number density = 20.477521 Si / 1000 Ang^3
#
#
#
# Elastic Constant Matrix: (Units=GPa)
#
#
# Indices 1 2 3 4 5 6 
#
# 1 58.4551 32.4344 15.2885 0.0000 -7.1689 0.0000
# 2 32.4344 79.7844 15.2049 0.0000 -6.0511 0.0000
# 3 15.2885 15.2049 112.8535 0.0000 0.7223 0.0000
# 4 0.0000 0.0000 0.0000 -0.9157 0.0000 5.1158
# 5 -7.1689 -6.0511 0.7223 0.0000 30.6861 0.0000
# 6 0.0000 0.0000 0.0000 5.1158 0.0000 35.5474
#
#
#
# Elastic Compliance Matrix: (Units=1/GPa)
#
#
# Indices 1 2 3 4 5 6 
#
# 1 0.022867 -0.008644 -0.001957 0.000000 0.003684 0.000000
# 2 -0.008644 0.016339 -0.001038 0.000000 0.001227 0.000000
# 3 -0.001957 -0.001038 0.009272 0.000000 -0.000880 0.000000
# 4 0.000000 0.000000 0.000000 -0.605337 0.000000 0.087118
# 5 0.003684 0.001227 -0.000880 0.000000 0.033711 0.000000
# 6 0.000000 0.000000 0.000000 0.087118 0.000000 0.015594
#
#
# Mechanical properties :
#
#
# Convention : Reuss Voigt Hill
#
# Bulk Modulus (GPa) = 39.68305 41.88316 40.78310
# Shear Modulus (GPa) = -10.50689 25.60790 7.55051
#
# Velocity S-wave (km/s) = -2.26761 3.54013 1.92230
# Velocity P-wave (km/s) = 3.54469 6.09981 4.98861
#
# Compressibility (1/GPa) = 0.02519968
#
# Stress axis : x y z
#
# Youngs Moduli (GPa) = 43.73173 61.20503 107.85568
#
# Poissons Ratio (x) = 0.52903 0.21105
# Poissons Ratio (y) = 0.37800 0.11198
# Poissons Ratio (z) = 0.08557 0.06354
#
# Static dielectric constant tensor:
#      x y z
#    x 4.948230 0.000000 -0.217660 
#    y 0.000000 3.592520 0.000000 
#    z -0.217660 0.000000 4.076930 
# 
# 
# High freq. dielectric constant tensor:
#      x y z
#    x 1.795330 0.000000 0.004470 
#    y 0.000000 1.799420 0.000000 
#    z 0.004470 0.000000 1.816720 
# 
# From -- ./inp_files/76705.got.cif
#   From: 2010.06.25/outbox.cif.g09.slc.cpg/sg13_39_cif.got.tgz:76705.got - 2010.06.28 04:50:58.
