data_PCOD8120849
_publ_section_title
;
Structure prediction by ZEFSAII (Michael W. Deem and Ramdas Pophale) SiO2 
 PCOD8120849
Probable space group: P 2/C
;
_chemical_formula_sum "Si O2"
_cell_formula_units_Z 14
_cell_length_a 10.497750
_cell_length_b 9.295846
_cell_length_c 9.038173
_cell_angle_alpha 90.000000
_cell_angle_beta 144.684840
_cell_angle_gamma 90.000000
_cell_volume 509.857595
_symmetry_space_group_name_H-M "P 2/C"
_symmetry_group_IT_number 13
_symmetry_cell_setting 'monoclinic'
loop_
_space_group_symop_operation_xyz
x,y,z
-x,y,1/2-z
-x,-y,-z
x,-y,1/2+z
loop_
_atom_site_type_symbol
_atom_site_label
_atom_site_fract_x
_atom_site_fract_y
_atom_site_fract_z
Si Si1 0.377965 0.853356 0.913063
Si Si2 0.252939 0.652477 0.564500
Si Si3 0.777584 0.638117 0.297687
Si Si4 0.000000 0.191624 0.250000
O O1 0.240539 0.807777 0.635368
O O2 0.221109 0.891599 0.906525
O O3 0.543977 0.718978 0.101060
O O4 0.500000 0.000000 0.000000
O O5 0.500000 0.619808 0.750000
O O6 0.124823 0.650951 0.280577
O O7 0.213639 0.527163 0.647354
O O8 0.959359 0.714093 0.567876
#
# Coordination Sequence:
#
# PCOD8120849 Si02
#       4
#     4   4   4   2
#     4  11  26  48  71 102 145 190 241 297 357 430
#     4  10  21  43  73 103 144 188 233 300 361 420
#     4  11  24  44  71 106 143 186 240 297 361 424
#     4  12  26  44  76 106 142 192 240 300 364 428
#
# _framework density 27.458649999999999
#
# number of rings (size 3 to 8) (size 9 to 14) (size 15 to 20)
#    0.000    1.143    0.000    7.714    0.000   13.714 
#    0.000    0.000    0.000    1.714    0.000    0.000 
#    0.000    0.000    0.000    0.000    0.000    0.000 
#
# Total GULP energy -173503.005396 kJ/mol
# GULP energy per Si atom -12393.071814 kJ/mol
# Density = 2.739615 g / cm^3
# Si number density = 27.458650 Si / 1000 Ang^3
#
#
#
# Elastic Constant Matrix: (Units=GPa)
#
#
# Indices 1 2 3 4 5 6 
#
# 1 272.4750 85.7608 56.6600 0.0000 -13.2959 0.0000
# 2 85.7608 162.5973 73.6646 0.0000 -16.3802 0.0000
# 3 56.6600 73.6646 155.7286 0.0000 -40.9637 0.0000
# 4 0.0000 0.0000 0.0000 29.6334 0.0000 0.5443
# 5 -13.2959 -16.3802 -40.9637 0.0000 41.8326 0.0000
# 6 0.0000 0.0000 0.0000 0.5443 0.0000 36.8895
#
#
#
# Elastic Compliance Matrix: (Units=1/GPa)
#
#
# Indices 1 2 3 4 5 6 
#
# 1 0.004451 -0.002054 -0.000657 0.000000 -0.000032 0.000000
# 2 -0.002054 0.008793 -0.003607 0.000000 -0.000742 0.000000
# 3 -0.000657 -0.003607 0.010695 0.000000 0.008852 0.000000
# 4 0.000000 0.000000 0.000000 0.033755 0.000000 -0.000498
# 5 -0.000032 -0.000742 0.008852 0.000000 0.032272 0.000000
# 6 0.000000 0.000000 0.000000 -0.000498 0.000000 0.027115
#
#
# Mechanical properties :
#
#
# Convention : Reuss Voigt Hill
#
# Bulk Modulus (GPa) = 88.46283 113.66352 101.06318
# Shear Modulus (GPa) = 37.45742 46.65212 42.05477
#
# Velocity S-wave (km/s) = 3.69743 4.12636 3.91777
# Velocity P-wave (km/s) = 7.10737 8.01166 7.57303
#
# Compressibility (1/GPa) = 0.01130418
#
# Stress axis : x y z
#
# Youngs Moduli (GPa) = 224.64809 113.72851 93.50015
#
# Poissons Ratio (x) = 0.23355 0.06140
# Poissons Ratio (y) = 0.46134 0.33729
# Poissons Ratio (z) = 0.14752 0.41026
#
# Static dielectric constant tensor:
#      x y z
#    x 6.418010 0.000000 -0.373770 
#    y 0.000000 4.478420 0.000000 
#    z -0.373770 0.000000 6.610860 
# 
# 
# High freq. dielectric constant tensor:
#      x y z
#    x 2.169100 0.000000 0.012390 
#    y 0.000000 2.069760 0.000000 
#    z 0.012390 0.000000 2.138260 
# 
# From -- ./inp_files/14669.got.cif
#   From: 2010.06.25/outbox.cif.g09.slc.cpg/sg13_8_cif.got.tgz:14669.got - 2010.06.28 04:50:58.
