data_PCOD8120731
_publ_section_title
;
Structure prediction by ZEFSAII (Michael W. Deem and Ramdas Pophale) SiO2 
 PCOD8120731
Probable space group: P 2/C
;
_chemical_formula_sum "Si O2"
_cell_formula_units_Z 28
_cell_length_a 8.797348
_cell_length_b 12.713348
_cell_length_c 12.438754
_cell_angle_alpha 90.000000
_cell_angle_beta 77.020720
_cell_angle_gamma 90.000000
_cell_volume 1355.653650
_symmetry_space_group_name_H-M "P 2/C"
_symmetry_group_IT_number 13
_symmetry_cell_setting 'monoclinic'
loop_
_space_group_symop_operation_xyz
x,y,z
-x,y,1/2-z
-x,-y,-z
x,-y,1/2+z
loop_
_atom_site_type_symbol
_atom_site_label
_atom_site_fract_x
_atom_site_fract_y
_atom_site_fract_z
Si Si1 0.157607 0.352333 0.875508
Si Si2 0.172980 0.145042 0.757671
Si Si3 0.623293 0.143142 0.970155
Si Si4 0.162842 0.579086 0.770708
Si Si5 0.387165 0.959765 0.369916
Si Si6 0.185094 0.661202 0.993010
Si Si7 0.327752 0.546762 0.536049
O O1 0.214218 0.266980 0.778819
O O2 0.141837 0.460182 0.814032
O O3 0.991975 0.307435 0.947559
O O4 0.285246 0.366426 0.951462
O O5 0.267443 0.100944 0.641704
O O6 0.217883 0.078722 0.856542
O O7 0.000000 0.125717 0.750000
O O8 0.449351 0.126167 0.948403
O O9 0.677538 0.261878 0.987230
O O10 0.639202 0.073689 0.074184
O O11 0.299410 0.592345 0.659989
O O12 0.000000 0.619863 0.750000
O O13 0.207839 0.655266 0.861364
O O14 0.500000 0.968610 0.250000
O O15 0.204767 0.547152 0.042311
O O16 0.500000 0.500000 0.500000
#
# Coordination Sequence:
#
# PCOD8120731 Si02
#       7
#     4   4   4   4   4   4   4
#     4  11  21  37  61  90 121 164 206 251 310 371
#     4  11  21  37  65  95 117 150 208 257 310 374
#     4  10  21  42  63  86 120 157 206 249 317 377
#     4  11  19  38  61  82 127 172 202 247 312 367
#     4   9  22  43  64  87 120 164 198 260 325 379
#     4  11  21  37  63  87 116 166 208 249 307 378
#     4  11  24  38  57  90 130 164 210 258 301 363
#
# _framework density 20.654243000000001
#
# number of rings (size 3 to 8) (size 9 to 14) (size 15 to 20)
#    0.000    1.429    4.286    2.143    2.000    2.857 
#    5.143    2.143    0.000    0.000    0.000    0.000 
#    0.000    0.000    0.000    0.000    0.000    0.000 
#
# Total GULP energy -347027.337558 kJ/mol
# GULP energy per Si atom -12393.833484 kJ/mol
# Density = 2.060723 g / cm^3
# Si number density = 20.654243 Si / 1000 Ang^3
#
#
#
# Elastic Constant Matrix: (Units=GPa)
#
#
# Indices 1 2 3 4 5 6 
#
# 1 104.2489 19.8391 42.7624 0.0000 14.9985 0.0000
# 2 19.8391 53.6759 17.5808 0.0000 13.6208 0.0000
# 3 42.7624 17.5808 101.4493 0.0000 14.4803 0.0000
# 4 0.0000 0.0000 0.0000 34.8473 0.0000 7.0201
# 5 14.9985 13.6208 14.4803 0.0000 32.0841 0.0000
# 6 0.0000 0.0000 0.0000 7.0201 0.0000 29.6765
#
#
#
# Elastic Compliance Matrix: (Units=1/GPa)
#
#
# Indices 1 2 3 4 5 6 
#
# 1 0.012226 -0.002401 -0.004347 0.000000 -0.002734 0.000000
# 2 -0.002401 0.021970 -0.001736 0.000000 -0.007421 0.000000
# 3 -0.004347 -0.001736 0.012393 0.000000 -0.002824 0.000000
# 4 0.000000 0.000000 0.000000 0.030133 0.000000 -0.007128
# 5 -0.002734 -0.007421 -0.002824 0.000000 0.036871 0.000000
# 6 0.000000 0.000000 0.000000 -0.007128 0.000000 0.035383
#
#
# Mechanical properties :
#
#
# Convention : Reuss Voigt Hill
#
# Bulk Modulus (GPa) = 33.76031 46.63764 40.19897
# Shear Modulus (GPa) = 28.43863 31.26771 29.85317
#
# Velocity S-wave (km/s) = 3.71467 3.89506 3.80594
# Velocity P-wave (km/s) = 5.89740 6.54659 6.23046
#
# Compressibility (1/GPa) = 0.02962058
#
# Stress axis : x y z
#
# Youngs Moduli (GPa) = 81.79384 45.51760 80.68794
#
# Poissons Ratio (x) = 0.10930 0.35075
# Poissons Ratio (y) = 0.19641 0.14006
# Poissons Ratio (z) = 0.35556 0.07901
#
# Static dielectric constant tensor:
#      x y z
#    x 3.930150 0.000000 0.310490 
#    y 0.000000 3.437580 0.000000 
#    z 0.310490 0.000000 3.996080 
# 
# 
# High freq. dielectric constant tensor:
#      x y z
#    x 1.810910 0.000000 0.018620 
#    y 0.000000 1.773310 0.000000 
#    z 0.018620 0.000000 1.821060 
# 
# From -- ./inp_files/30060.got.cif
#   From: 2010.06.25/outbox.cif.g09.slc.cpg/sg13_16_cif.got.tgz:30060.got - 2010.06.28 04:50:58.
