data_PCOD8120154
_publ_section_title
;
Structure prediction by ZEFSAII (Michael W. Deem and Ramdas Pophale) SiO2 
 PCOD8120154
Probable space group: P 2/C
;
_chemical_formula_sum "Si O2"
_cell_formula_units_Z 22
_cell_length_a 8.543565
_cell_length_b 5.788266
_cell_length_c 27.115652
_cell_angle_alpha 90.000000
_cell_angle_beta 47.463363
_cell_angle_gamma 90.000000
_cell_volume 988.061353
_symmetry_space_group_name_H-M "P 2/C"
_symmetry_group_IT_number 13
_symmetry_cell_setting 'monoclinic'
loop_
_space_group_symop_operation_xyz
x,y,z
-x,y,1/2-z
-x,-y,-z
x,-y,1/2+z
loop_
_atom_site_type_symbol
_atom_site_label
_atom_site_fract_x
_atom_site_fract_y
_atom_site_fract_z
Si Si1 0.100490 0.340183 0.817405
Si Si2 0.043063 0.376145 0.066101
Si Si3 0.729739 0.999428 0.145310
Si Si4 0.683217 0.384764 0.580261
Si Si5 0.360732 0.688578 0.698616
Si Si6 0.000000 0.028592 0.750000
O O1 0.273320 0.182080 0.809015
O O2 0.225442 0.550872 0.767072
O O3 0.979453 0.190537 0.802345
O O4 0.934034 0.453185 0.891748
O O5 0.861404 0.462645 0.068107
O O6 0.266700 0.366113 0.989012
O O7 0.963296 0.119308 0.097837
O O8 0.686631 0.871544 0.102497
O O9 0.543106 0.185134 0.191332
O O10 0.457129 0.512048 0.637296
O O11 0.210617 0.873122 0.703586
#
# Coordination Sequence:
#
# PCOD8120154 Si02
#       6
#     4   4   4   4   4   2
#     4  11  24  40  61  89 121 158 202 249 298 355
#     4   9  19  36  60  92 125 155 193 243 298 358
#     4  10  21  37  64  94 121 155 196 246 303 357
#     4   9  19  36  60  92 125 155 193 243 298 358
#     4  11  24  40  61  89 121 158 202 249 298 355
#     4  12  26  42  58  82 120 166 206 250 300 348
#
# _framework density 22.265825
#
# number of rings (size 3 to 8) (size 9 to 14) (size 15 to 20)
#    0.000    1.818    0.000    3.273    0.000   18.909 
#    0.000    0.909    0.000   10.909    0.000    0.000 
#    0.000    0.000    0.000    0.000    0.000    0.000 
#
# Total GULP energy -272787.067304 kJ/mol
# GULP energy per Si atom -12399.412150 kJ/mol
# Density = 2.221515 g / cm^3
# Si number density = 22.265825 Si / 1000 Ang^3
#
#
#
# Elastic Constant Matrix: (Units=GPa)
#
#
# Indices 1 2 3 4 5 6 
#
# 1 62.1135 41.4114 57.7770 0.0000 18.8699 0.0000
# 2 41.4114 126.0961 53.4358 0.0000 21.1826 0.0000
# 3 57.7770 53.4358 138.4795 0.0000 28.0060 0.0000
# 4 0.0000 0.0000 0.0000 18.3620 0.0000 1.4382
# 5 18.8699 21.1826 28.0060 0.0000 14.9582 0.0000
# 6 0.0000 0.0000 0.0000 1.4382 0.0000 43.4456
#
#
#
# Elastic Compliance Matrix: (Units=1/GPa)
#
#
# Indices 1 2 3 4 5 6 
#
# 1 0.032111 -0.003795 -0.007770 0.000000 -0.020588 0.000000
# 2 -0.003795 0.011099 -0.000787 0.000000 -0.009457 0.000000
# 3 -0.007770 -0.000787 0.013775 0.000000 -0.014875 0.000000
# 4 0.000000 0.000000 0.000000 0.054602 0.000000 -0.001807
# 5 -0.020588 -0.009457 -0.014875 0.000000 0.134066 0.000000
# 6 0.000000 0.000000 0.000000 -0.001807 0.000000 0.023077
#
#
# Mechanical properties :
#
#
# Convention : Reuss Voigt Hill
#
# Bulk Modulus (GPa) = 30.97672 70.21526 50.59599
# Shear Modulus (GPa) = 16.43693 26.95750 21.69721
#
# Velocity S-wave (km/s) = 2.71996 3.48330 3.12502
# Velocity P-wave (km/s) = 4.87920 6.91240 5.98281
#
# Compressibility (1/GPa) = 0.03228231
#
# Stress axis : x y z
#
# Youngs Moduli (GPa) = 31.14178 90.09985 72.59596
#
# Poissons Ratio (x) = 0.34190 0.56404
# Poissons Ratio (y) = 0.11817 0.05713
# Poissons Ratio (z) = 0.24196 0.07091
#
# Static dielectric constant tensor:
#      x y z
#    x 3.577640 0.000000 0.065130 
#    y 0.000000 4.425680 0.000000 
#    z 0.065130 0.000000 4.371120 
# 
# 
# High freq. dielectric constant tensor:
#      x y z
#    x 1.827190 0.000000 0.009870 
#    y 0.000000 1.900040 0.000000 
#    z 0.009870 0.000000 1.878040 
# 
# From -- ./inp_files/90762.got.cif
#   From: 2010.06.25/outbox.cif.g09.slc.cpg/sg13_46_cif.got.tgz:90762.got - 2010.06.28 04:50:58.
