data_PCOD8120188
_publ_section_title
;
Structure prediction by ZEFSAII (Michael W. Deem and Ramdas Pophale) SiO2 
 PCOD8120188
Probable space group: P 2/C
;
_chemical_formula_sum "Si O2"
_cell_formula_units_Z 20
_cell_length_a 9.099337
_cell_length_b 23.613407
_cell_length_c 5.025498
_cell_angle_alpha 90.000000
_cell_angle_beta 62.677466
_cell_angle_gamma 90.000000
_cell_volume 959.343277
_symmetry_space_group_name_H-M "P 2/C"
_symmetry_group_IT_number 13
_symmetry_cell_setting 'monoclinic'
loop_
_space_group_symop_operation_xyz
x,y,z
-x,y,1/2-z
-x,-y,-z
x,-y,1/2+z
loop_
_atom_site_type_symbol
_atom_site_label
_atom_site_fract_x
_atom_site_fract_y
_atom_site_fract_z
Si Si1 0.893560 0.355590 0.083913
Si Si2 0.390013 0.142577 0.093330
Si Si3 0.696368 0.969605 0.038517
Si Si4 0.386277 0.732509 0.602178
Si Si5 0.309794 0.463460 0.420102
O O1 0.769080 0.308264 0.295038
O O2 0.802315 0.409975 0.043523
O O3 0.000000 0.374066 0.250000
O O4 0.000000 0.330307 0.750000
O O5 0.500000 0.119875 0.250000
O O6 0.311687 0.204004 0.223232
O O7 0.500000 0.155914 0.750000
O O8 0.260288 0.093126 0.114161
O O9 0.500000 0.973499 0.250000
O O10 0.770824 0.984605 0.265569
O O11 0.500000 0.712734 0.750000
O O12 0.500000 0.727893 0.250000
O O13 0.500000 0.443971 0.250000
O O14 0.270092 0.486234 0.746838
#
# Coordination Sequence:
#
# PCOD8120188 Si02
#       5
#     4   4   4   4   4
#     4  12  25  39  59  87 117 145 181 230 278 320
#     4   9  16  26  42  65  92 130 175 213 257 316
#     4   9  14  20  33  57  92 127 157 201 264 321
#     4  10  21  38  58  77 106 148 190 227 267 325
#     4  10  22  40  62  86 113 147 183 217 262 325
#
# _framework density 20.847594999999998
#
# number of rings (size 3 to 8) (size 9 to 14) (size 15 to 20)
#    0.000    2.000    0.000    6.000    0.000    4.800 
#    0.000    0.000    0.000    0.000    0.000    0.000 
#    0.000    4.800    0.000    0.000    0.000    4.400 
#
# Total GULP energy -247835.582240 kJ/mol
# GULP energy per Si atom -12391.779112 kJ/mol
# Density = 2.080015 g / cm^3
# Si number density = 20.847595 Si / 1000 Ang^3
#
#
#
# Elastic Constant Matrix: (Units=GPa)
#
#
# Indices 1 2 3 4 5 6 
#
# 1 70.5274 46.9611 36.6646 0.0000 13.3759 0.0000
# 2 46.9611 108.5800 18.1928 0.0000 -8.2502 0.0000
# 3 36.6646 18.1928 103.2263 0.0000 17.4255 0.0000
# 4 0.0000 0.0000 0.0000 17.9159 0.0000 12.4630
# 5 13.3759 -8.2502 17.4255 0.0000 30.3960 0.0000
# 6 0.0000 0.0000 0.0000 12.4630 0.0000 -2.7162
#
#
#
# Elastic Compliance Matrix: (Units=1/GPa)
#
#
# Indices 1 2 3 4 5 6 
#
# 1 0.027126 -0.011707 -0.005558 0.000000 -0.011928 0.000000
# 2 -0.011707 0.014983 -0.000043 0.000000 0.009243 0.000000
# 3 -0.005558 -0.000043 0.012464 0.000000 -0.004711 0.000000
# 4 0.000000 0.000000 0.000000 0.013315 0.000000 0.061096
# 5 -0.011928 0.009243 -0.004711 0.000000 0.043358 0.000000
# 6 0.000000 0.000000 0.000000 0.061096 0.000000 -0.087827
#
#
# Mechanical properties :
#
#
# Convention : Reuss Voigt Hill
#
# Bulk Modulus (GPa) = 50.10630 53.99676 52.05153
# Shear Modulus (GPa) = 77.29672 21.15349 49.22510
#
# Velocity S-wave (km/s) = 6.09570 3.18885 4.86448
# Velocity P-wave (km/s) = 8.58080 6.28612 7.52148
#
# Compressibility (1/GPa) = 0.01995757
#
# Stress axis : x y z
#
# Youngs Moduli (GPa) = 36.86559 66.74442 80.22870
#
# Poissons Ratio (x) = 0.78137 0.44590
# Poissons Ratio (y) = 0.43158 0.00342
# Poissons Ratio (z) = 0.20489 0.00285
#
# Static dielectric constant tensor:
#      x y z
#    x 3.412860 0.000000 0.316650 
#    y 0.000000 4.011170 0.000000 
#    z 0.316650 0.000000 3.944130 
# 
# 
# High freq. dielectric constant tensor:
#      x y z
#    x 1.767930 0.000000 0.038300 
#    y 0.000000 1.828150 0.000000 
#    z 0.038300 0.000000 1.828070 
# 
# From -- ./inp_files/2034.got.cif
#   From: 2010.06.25/outbox.cif.g09.slc.cpg/sg13_2_cif.got.tgz:2034.got - 2010.06.28 04:50:58.
