data_PCOD8120343
_publ_section_title
;
Structure prediction by ZEFSAII (Michael W. Deem and Ramdas Pophale) SiO2 
 PCOD8120343
Probable space group: P 2/C
;
_chemical_formula_sum "Si O2"
_cell_formula_units_Z 30
_cell_length_a 14.738644
_cell_length_b 8.436675
_cell_length_c 24.107739
_cell_angle_alpha 90.000000
_cell_angle_beta 28.703047
_cell_angle_gamma 90.000000
_cell_volume 1439.696399
_symmetry_space_group_name_H-M "P 2/C"
_symmetry_group_IT_number 13
_symmetry_cell_setting 'monoclinic'
loop_
_space_group_symop_operation_xyz
x,y,z
-x,y,1/2-z
-x,-y,-z
x,-y,1/2+z
loop_
_atom_site_type_symbol
_atom_site_label
_atom_site_fract_x
_atom_site_fract_y
_atom_site_fract_z
Si Si1 0.558092 0.838487 0.938582
Si Si2 0.708427 0.857349 0.047160
Si Si3 0.546790 0.307814 0.899807
Si Si4 0.697579 0.209724 0.029079
Si Si5 0.500000 0.325470 0.750000
Si Si6 0.900714 0.702475 0.696928
Si Si7 0.599654 0.436686 0.286323
Si Si8 0.955319 0.362341 0.710865
O O1 0.402979 0.810295 0.975596
O O2 0.768279 0.831899 0.799412
O O3 0.554843 0.696769 0.985887
O O4 0.500000 0.000000 0.000000
O O5 0.901776 0.781363 0.922728
O O6 0.541334 0.827965 0.092435
O O7 0.650312 0.783024 0.137275
O O8 0.738662 0.044335 0.037581
O O9 0.520940 0.479095 0.885049
O O10 0.767448 0.271718 0.791385
O O11 0.561760 0.309785 0.143224
O O12 0.889536 0.303815 0.916032
O O13 0.376105 0.435037 0.775175
O O14 0.798862 0.646179 0.694146
O O15 0.936138 0.551943 0.717295
O O16 0.000000 0.313492 0.750000
#
# Coordination Sequence:
#
# PCOD8120343 Si02
#       8
#     4   4   4   4   2   4   4   4
#     4  11  22  38  62  92 134 177 203 252 315 377
#     4  11  24  41  63  90 126 164 212 271 325 374
#     4  10  21  39  58  88 131 173 209 252 304 378
#     4  11  23  37  61  95 130 163 211 264 314 382
#     4  10  22  46  72  86 118 166 214 274 338 372
#     4  10  25  39  61  95 131 167 213 256 309 383
#     4   9  22  42  67  91 122 166 218 270 316 376
#     4  11  22  33  58  90 128 173 213 245 300 374
#
# _framework density 20.837727000000001
#
# number of rings (size 3 to 8) (size 9 to 14) (size 15 to 20)
#    0.000    1.600    2.667    1.600    5.600    2.667 
#    0.000    1.333    0.000   11.200    0.000    0.000 
#    0.000    0.000    0.000    0.000    0.000    0.000 
#
# Total GULP energy -371960.094887 kJ/mol
# GULP energy per Si atom -12398.669830 kJ/mol
# Density = 2.079030 g / cm^3
# Si number density = 20.837727 Si / 1000 Ang^3
#
#
#
# Elastic Constant Matrix: (Units=GPa)
#
#
# Indices 1 2 3 4 5 6 
#
# 1 80.7678 36.3081 55.4545 0.0000 -0.8830 0.0000
# 2 36.3081 103.5544 47.4363 0.0000 -1.8952 0.0000
# 3 55.4545 47.4363 127.3739 0.0000 -10.0548 0.0000
# 4 0.0000 0.0000 0.0000 39.6228 0.0000 3.7324
# 5 -0.8830 -1.8952 -10.0548 0.0000 34.5173 0.0000
# 6 0.0000 0.0000 0.0000 3.7324 0.0000 25.9942
#
#
#
# Elastic Compliance Matrix: (Units=1/GPa)
#
#
# Indices 1 2 3 4 5 6 
#
# 1 0.018700 -0.003371 -0.007024 0.000000 -0.001753 0.000000
# 2 -0.003371 0.012264 -0.003125 0.000000 -0.000323 0.000000
# 3 -0.007024 -0.003125 0.012329 0.000000 0.003240 0.000000
# 4 0.000000 0.000000 0.000000 0.025584 0.000000 -0.003674
# 5 -0.001753 -0.000323 0.003240 0.000000 0.029852 0.000000
# 6 0.000000 0.000000 0.000000 -0.003674 0.000000 0.038998
#
#
# Mechanical properties :
#
#
# Convention : Reuss Voigt Hill
#
# Bulk Modulus (GPa) = 61.53120 65.56599 63.54860
# Shear Modulus (GPa) = 29.37952 31.52667 30.45310
#
# Velocity S-wave (km/s) = 3.75896 3.89390 3.82703
# Velocity P-wave (km/s) = 6.95935 7.19374 7.07752
#
# Compressibility (1/GPa) = 0.01625192
#
# Stress axis : x y z
#
# Youngs Moduli (GPa) = 53.47499 81.53639 81.11048
#
# Poissons Ratio (x) = 0.27486 0.56976
# Poissons Ratio (y) = 0.18026 0.25350
# Poissons Ratio (z) = 0.37563 0.25483
#
# Static dielectric constant tensor:
#      x y z
#    x 3.763570 0.000000 -0.059560 
#    y 0.000000 3.982090 0.000000 
#    z -0.059560 0.000000 3.742560 
# 
# 
# High freq. dielectric constant tensor:
#      x y z
#    x 1.807010 0.000000 -0.010210 
#    y 0.000000 1.819050 0.000000 
#    z -0.010210 0.000000 1.809240 
# 
# From -- ./inp_files/87279.got.cif
#   From: 2010.06.25/outbox.cif.g09.slc.cpg/sg13_44_cif.got.tgz:87279.got - 2010.06.28 04:50:58.
