data_PCOD8120631
_publ_section_title
;
Structure prediction by ZEFSAII (Michael W. Deem and Ramdas Pophale) SiO2 
 PCOD8120631
Probable space group: P 2/C
;
_chemical_formula_sum "Si O2"
_cell_formula_units_Z 28
_cell_length_a 14.535336
_cell_length_b 8.579080
_cell_length_c 14.435199
_cell_angle_alpha 90.000000
_cell_angle_beta 129.974234
_cell_angle_gamma 90.000000
_cell_volume 1379.451192
_symmetry_space_group_name_H-M "P 2/C"
_symmetry_group_IT_number 13
_symmetry_cell_setting 'monoclinic'
loop_
_space_group_symop_operation_xyz
x,y,z
-x,y,1/2-z
-x,-y,-z
x,-y,1/2+z
loop_
_atom_site_type_symbol
_atom_site_label
_atom_site_fract_x
_atom_site_fract_y
_atom_site_fract_z
Si Si1 0.407667 0.129019 0.972040
Si Si2 0.093682 0.600036 0.005112
Si Si3 0.997984 0.075761 0.398172
Si Si4 0.491089 0.418650 0.137068
Si Si5 0.713778 0.384621 0.717233
Si Si6 0.243394 0.434285 0.430426
Si Si7 0.809139 0.070767 0.124934
O O1 0.349232 0.221455 0.848245
O O2 0.304279 0.039913 0.960732
O O3 0.474110 0.250060 0.081167
O O4 0.500000 0.000000 0.000000
O O5 0.199397 0.655129 0.141810
O O6 0.155228 0.512268 0.957346
O O7 0.000000 0.500000 0.000000
O O8 0.014027 0.740313 0.916186
O O9 0.872612 0.041660 0.265389
O O10 0.106287 0.014947 0.404309
O O11 0.000000 0.000000 0.500000
O O12 0.500000 0.388842 0.250000
O O13 0.613612 0.489335 0.178222
O O14 0.382226 0.535350 0.044696
O O15 0.789244 0.460047 0.680336
O O16 0.228461 0.251033 0.404609
#
# Coordination Sequence:
#
# PCOD8120631 Si02
#       7
#     4   4   4   4   4   4   4
#     4  11  23  41  62  93 123 162 204 244 312 369
#     4  11  23  38  62  94 119 158 212 247 300 360
#     4  10  22  40  61  87 125 162 201 249 301 358
#     4  11  22  42  64  92 124 158 204 260 309 361
#     4  11  22  40  66  90 125 160 198 258 305 359
#     4  10  21  41  64  88 124 163 202 253 308 362
#     4  10  21  41  62  88 124 163 201 248 303 364
#
# _framework density 20.297926
#
# number of rings (size 3 to 8) (size 9 to 14) (size 15 to 20)
#    0.000    1.429    1.429    5.143    0.000    4.000 
#   10.286    0.000    0.000    0.000    0.000    0.000 
#    0.000    0.000    0.000    0.000    0.000    0.000 
#
# Total GULP energy -347198.597693 kJ/mol
# GULP energy per Si atom -12399.949918 kJ/mol
# Density = 2.025173 g / cm^3
# Si number density = 20.297926 Si / 1000 Ang^3
#
#
#
# Elastic Constant Matrix: (Units=GPa)
#
#
# Indices 1 2 3 4 5 6 
#
# 1 129.4083 49.7581 45.3637 0.0000 -12.9076 0.0000
# 2 49.7581 93.9662 28.1715 0.0000 0.4761 0.0000
# 3 45.3637 28.1715 77.6636 0.0000 -13.0292 0.0000
# 4 0.0000 0.0000 0.0000 25.0790 0.0000 -0.1740
# 5 -12.9076 0.4761 -13.0292 0.0000 34.1176 0.0000
# 6 0.0000 0.0000 0.0000 -0.1740 0.0000 45.2352
#
#
#
# Elastic Compliance Matrix: (Units=1/GPa)
#
#
# Indices 1 2 3 4 5 6 
#
# 1 0.011370 -0.004686 -0.004497 0.000000 0.002650 0.000000
# 2 -0.004686 0.013994 -0.002852 0.000000 -0.003057 0.000000
# 3 -0.004497 -0.002852 0.017371 0.000000 0.004972 0.000000
# 4 0.000000 0.000000 0.000000 0.039875 0.000000 0.000153
# 5 0.002650 -0.003057 0.004972 0.000000 0.032254 0.000000
# 6 0.000000 0.000000 0.000000 0.000153 0.000000 0.022107
#
#
# Mechanical properties :
#
#
# Convention : Reuss Voigt Hill
#
# Bulk Modulus (GPa) = 53.57432 60.84719 57.21075
# Shear Modulus (GPa) = 29.89291 32.73602 31.31447
#
# Velocity S-wave (km/s) = 3.84175 4.02030 3.93204
# Velocity P-wave (km/s) = 6.79191 7.18279 6.99008
#
# Compressibility (1/GPa) = 0.01866566
#
# Stress axis : x y z
#
# Youngs Moduli (GPa) = 87.95137 71.45913 57.56570
#
# Poissons Ratio (x) = 0.33485 0.25887
# Poissons Ratio (y) = 0.41214 0.16418
# Poissons Ratio (z) = 0.39551 0.20380
#
# Static dielectric constant tensor:
#      x y z
#    x 4.338110 0.000000 -0.583910 
#    y 0.000000 3.524280 0.000000 
#    z -0.583910 0.000000 4.745420 
# 
# 
# High freq. dielectric constant tensor:
#      x y z
#    x 1.806680 0.000000 -0.001170 
#    y 0.000000 1.787710 0.000000 
#    z -0.001170 0.000000 1.802380 
# 
# From -- ./inp_files/49890.got.cif
#   From: 2010.06.25/outbox.cif.g09.slc.cpg/sg13_25_cif.got.tgz:49890.got - 2010.06.28 04:50:58.
