data_PCOD8120555
_publ_section_title
;
Structure prediction by ZEFSAII (Michael W. Deem and Ramdas Pophale) SiO2 
 PCOD8120555
Probable space group: P 2/C
;
_chemical_formula_sum "Si O2"
_cell_formula_units_Z 28
_cell_length_a 18.963193
_cell_length_b 6.403677
_cell_length_c 22.063022
_cell_angle_alpha 90.000000
_cell_angle_beta 149.260627
_cell_angle_gamma 90.000000
_cell_volume 1369.431704
_symmetry_space_group_name_H-M "P 2/C"
_symmetry_group_IT_number 13
_symmetry_cell_setting 'monoclinic'
loop_
_space_group_symop_operation_xyz
x,y,z
-x,y,1/2-z
-x,-y,-z
x,-y,1/2+z
loop_
_atom_site_type_symbol
_atom_site_label
_atom_site_fract_x
_atom_site_fract_y
_atom_site_fract_z
Si Si1 0.216711 0.515757 0.135267
Si Si2 0.473428 0.209402 0.799369
Si Si3 0.402073 0.822476 0.823116
Si Si4 0.053823 0.515757 0.135267
Si Si5 0.244160 0.822476 0.823116
Si Si6 0.874691 0.790598 0.200631
Si Si7 0.365293 0.500000 0.500000
O O1 0.322013 0.695877 0.194809
O O2 0.292136 0.292517 0.198097
O O3 0.145486 0.583531 0.145486
O O4 0.105990 0.500000 1.000000
O O5 0.500000 0.147778 0.750000
O O6 0.591567 0.371978 0.907960
O O7 0.481441 0.001264 0.845384
O O8 0.324761 0.916990 0.824761
O O9 0.513036 0.655830 0.929022
O O10 0.104059 0.292517 0.198097
O O11 0.067605 0.695877 0.194809
O O12 0.209327 0.001264 0.845384
O O13 0.345008 0.655830 0.929022
O O14 0.000000 0.852222 0.250000
O O15 0.775646 0.628022 0.092040
#
# Coordination Sequence:
#
# PCOD8120555 Si02
#       7
#     4   4   4   4   4   4   4
#     4   9  20  40  64  90 120 159 202 249 296 349
#     4  11  24  39  60  89 124 161 200 246 303 361
#     4  10  21  40  65  92 120 155 203 251 297 352
#     4   9  20  40  64  90 120 159 202 249 296 349
#     4  10  21  40  65  92 120 155 203 251 297 352
#     4  11  24  39  60  89 124 161 200 246 303 361
#     4  10  23  42  60  86 119 162 202 250 297 356
#
# _framework density 20.446437
#
# number of rings (size 3 to 8) (size 9 to 14) (size 15 to 20)
#    0.000    2.000    0.000    2.143    2.000   10.286 
#    5.143    4.286    0.000    0.000    0.000    0.000 
#    0.000    0.000    0.000    0.000    0.000    0.000 
#
# Total GULP energy -347299.695382 kJ/mol
# GULP energy per Si atom -12403.560549 kJ/mol
# Density = 2.039990 g / cm^3
# Si number density = 20.446437 Si / 1000 Ang^3
#
#
#
# Elastic Constant Matrix: (Units=GPa)
#
#
# Indices 1 2 3 4 5 6 
#
# 1 118.3463 63.2566 39.4082 0.0000 -0.4989 0.0000
# 2 63.2566 116.0030 52.6814 0.0000 -0.0930 0.0000
# 3 39.4082 52.6814 142.6257 0.0000 0.7125 0.0000
# 4 0.0000 0.0000 0.0000 22.6109 0.0000 0.1950
# 5 -0.4989 -0.0930 0.7125 0.0000 11.1201 0.0000
# 6 0.0000 0.0000 0.0000 0.1950 0.0000 0.4494
#
#
#
# Elastic Compliance Matrix: (Units=1/GPa)
#
#
# Indices 1 2 3 4 5 6 
#
# 1 0.012067 -0.006085 -0.001089 0.000000 0.000560 0.000000
# 2 -0.006085 0.013428 -0.003279 0.000000 0.000049 0.000000
# 3 -0.001089 -0.003279 0.008527 0.000000 -0.000623 0.000000
# 4 0.000000 0.000000 0.000000 0.044393 0.000000 -0.019258
# 5 0.000560 0.000049 -0.000623 0.000000 0.089993 0.000000
# 6 0.000000 0.000000 0.000000 -0.019258 0.000000 2.233517
#
#
# Mechanical properties :
#
#
# Convention : Reuss Voigt Hill
#
# Bulk Modulus (GPa) = 76.24764 76.40749 76.32756
# Shear Modulus (GPa) = 2.05999 21.61133 11.83566
#
# Velocity S-wave (km/s) = 1.00483 3.25464 2.40856
# Velocity P-wave (km/s) = 6.22243 7.18152 6.71911
#
# Compressibility (1/GPa) = 0.01311516
#
# Stress axis : x y z
#
# Youngs Moduli (GPa) = 82.86726 74.47265 117.28124
#
# Poissons Ratio (x) = 0.45318 0.12777
# Poissons Ratio (y) = 0.50427 0.38452
# Poissons Ratio (z) = 0.09028 0.24417
#
# Static dielectric constant tensor:
#      x y z
#    x 3.447440 0.000000 0.004140 
#    y 0.000000 3.645240 0.000000 
#    z 0.004140 0.000000 3.918100 
# 
# 
# High freq. dielectric constant tensor:
#      x y z
#    x 1.786020 0.000000 0.000230 
#    y 0.000000 1.796300 0.000000 
#    z 0.000230 0.000000 1.812740 
# 
# From -- ./inp_files/88301.got.cif
#   From: 2010.06.25/outbox.cif.g09.slc.cpg/sg13_45_cif.got.tgz:88301.got - 2010.06.28 04:50:58.
