data_PCOD8120496
_publ_section_title
;
Structure prediction by ZEFSAII (Michael W. Deem and Ramdas Pophale) SiO2 
 PCOD8120496
Probable space group: P 2/C
;
_chemical_formula_sum "Si O2"
_cell_formula_units_Z 18
_cell_length_a 5.938902
_cell_length_b 7.215609
_cell_length_c 20.754717
_cell_angle_alpha 90.000000
_cell_angle_beta 78.363853
_cell_angle_gamma 90.000000
_cell_volume 871.118903
_symmetry_space_group_name_H-M "P 2/C"
_symmetry_group_IT_number 13
_symmetry_cell_setting 'monoclinic'
loop_
_space_group_symop_operation_xyz
x,y,z
-x,y,1/2-z
-x,-y,-z
x,-y,1/2+z
loop_
_atom_site_type_symbol
_atom_site_label
_atom_site_fract_x
_atom_site_fract_y
_atom_site_fract_z
Si Si1 0.336086 0.114114 0.964265
Si Si2 0.008194 0.122745 0.092629
Si Si3 0.273176 0.211010 0.639781
Si Si4 0.500000 0.320697 0.750000
Si Si5 0.076027 0.525616 0.817686
O O1 0.499035 0.258120 0.916251
O O2 0.142960 0.204643 0.021906
O O3 0.217856 0.983621 0.917860
O O4 0.500000 0.000000 0.000000
O O5 0.925373 0.290189 0.140716
O O6 0.166602 0.985381 0.125570
O O7 0.345322 0.195764 0.711032
O O8 0.092007 0.375342 0.639815
O O9 0.335026 0.448929 0.802954
O O10 0.000000 0.574238 0.750000
#
# Coordination Sequence:
#
# PCOD8120496 Si02
#       5
#     4   4   4   2   4
#     4   9  20  38  61  88 117 151 195 241 292 348
#     4  10  21  40  62  87 118 154 195 241 291 346
#     4  10  21  40  61  86 119 153 192 240 290 348
#     4  10  22  40  58  86 122 154 192 240 292 346
#     4  10  23  39  58  87 118 151 196 239 286 348
#
# _framework density 20.663077999999999
#
# number of rings (size 3 to 8) (size 9 to 14) (size 15 to 20)
#    0.000    2.222    0.000    1.333    0.000   12.444 
#    0.000   17.778    0.000    0.000    0.000    0.000 
#    0.000    0.000    0.000    0.000    0.000    0.000 
#
# Total GULP energy -223131.423036 kJ/mol
# GULP energy per Si atom -12396.190169 kJ/mol
# Density = 2.061605 g / cm^3
# Si number density = 20.663078 Si / 1000 Ang^3
#
#
#
# Elastic Constant Matrix: (Units=GPa)
#
#
# Indices 1 2 3 4 5 6 
#
# 1 127.3937 49.5915 54.7889 0.0000 -11.9395 0.0000
# 2 49.5915 91.6951 72.2311 0.0000 -11.2640 0.0000
# 3 54.7889 72.2311 116.2307 0.0000 -17.5299 0.0000
# 4 0.0000 0.0000 0.0000 33.6146 0.0000 -9.8993
# 5 -11.9395 -11.2640 -17.5299 0.0000 47.9239 0.0000
# 6 0.0000 0.0000 0.0000 -9.8993 0.0000 14.1033
#
#
#
# Elastic Compliance Matrix: (Units=1/GPa)
#
#
# Indices 1 2 3 4 5 6 
#
# 1 0.010403 -0.003448 -0.002638 0.000000 0.000816 0.000000
# 2 -0.003448 0.022508 -0.012377 0.000000 -0.000096 0.000000
# 3 -0.002638 -0.012377 0.017993 0.000000 0.003015 0.000000
# 4 0.000000 0.000000 0.000000 0.037501 0.000000 0.026322
# 5 0.000816 -0.000096 0.003015 0.000000 0.022150 0.000000
# 6 0.000000 0.000000 0.000000 0.026322 0.000000 0.089382
#
#
# Mechanical properties :
#
#
# Convention : Reuss Voigt Hill
#
# Bulk Modulus (GPa) = 71.53503 76.50475 74.01989
# Shear Modulus (GPa) = 20.70200 29.70887 25.20544
#
# Velocity S-wave (km/s) = 3.16869 3.79591 3.49640
# Velocity P-wave (km/s) = 6.93414 7.50448 7.22494
#
# Compressibility (1/GPa) = 0.01397917
#
# Stress axis : x y z
#
# Youngs Moduli (GPa) = 96.12705 44.42790 55.57601
#
# Poissons Ratio (x) = 0.15319 0.14660
# Poissons Ratio (y) = 0.33145 0.68786
# Poissons Ratio (z) = 0.25357 0.54988
#
# Static dielectric constant tensor:
#      x y z
#    x 4.198550 0.000000 -0.368440 
#    y 0.000000 3.276210 0.000000 
#    z -0.368440 0.000000 4.359820 
# 
# 
# High freq. dielectric constant tensor:
#      x y z
#    x 1.832890 0.000000 -0.003650 
#    y 0.000000 1.763140 0.000000 
#    z -0.003650 0.000000 1.826430 
# 
# From -- ./inp_files/72770.got.cif
#   From: 2010.06.25/outbox.cif.g09.slc.cpg/sg13_37_cif.got.tgz:72770.got - 2010.06.28 04:50:58.
