data_PCOD8120362
_publ_section_title
;
Structure prediction by ZEFSAII (Michael W. Deem and Ramdas Pophale) SiO2 
 PCOD8120362
Probable space group: P 2/C
;
_chemical_formula_sum "Si O2"
_cell_formula_units_Z 28
_cell_length_a 10.954955
_cell_length_b 6.366982
_cell_length_c 19.216859
_cell_angle_alpha 90.000000
_cell_angle_beta 68.846906
_cell_angle_gamma 90.000000
_cell_volume 1250.060790
_symmetry_space_group_name_H-M "P 2/C"
_symmetry_group_IT_number 13
_symmetry_cell_setting 'monoclinic'
loop_
_space_group_symop_operation_xyz
x,y,z
-x,y,1/2-z
-x,-y,-z
x,-y,1/2+z
loop_
_atom_site_type_symbol
_atom_site_label
_atom_site_fract_x
_atom_site_fract_y
_atom_site_fract_z
Si Si1 0.519865 0.059081 0.896482
Si Si2 0.876376 0.966259 0.882606
Si Si3 0.596410 0.679788 0.504028
Si Si4 0.900589 0.229515 0.617809
Si Si5 0.078444 0.621240 0.797978
Si Si6 0.264966 0.293851 0.978504
Si Si7 0.754946 0.981566 0.764456
O O1 0.398459 0.217775 0.913256
O O2 0.468406 0.823943 0.923351
O O3 0.601238 0.032117 0.808226
O O4 0.620314 0.158810 0.934478
O O5 0.948424 0.151395 0.911343
O O6 0.831552 0.061025 0.817811
O O7 0.989499 0.799726 0.848434
O O8 0.757971 0.853336 0.948992
O O9 0.500000 0.500000 0.500000
O O10 0.723333 0.544870 0.504485
O O11 0.889253 0.461995 0.648753
O O12 0.855928 0.246734 0.547297
O O13 0.801533 0.091974 0.684613
O O14 0.215328 0.730824 0.745977
O O15 0.000000 0.513245 0.750000
#
# Coordination Sequence:
#
# PCOD8120362 Si02
#       7
#     4   4   4   4   4   4   4
#     4  10  21  39  62  86 121 160 197 250 303 360
#     4  10  21  39  61  87 117 157 208 252 299 367
#     4   9  19  36  58  88 115 150 202 246 294 353
#     4  11  23  39  59  88 125 161 197 250 316 367
#     4   9  20  37  59  86 115 153 203 254 300 359
#     4  11  24  38  59  92 125 159 204 252 306 370
#     4  10  21  39  63  88 115 156 207 249 301 372
#
# _framework density 22.398910000000001
#
# number of rings (size 3 to 8) (size 9 to 14) (size 15 to 20)
#    0.000    2.000    0.000    5.143    0.000   10.286 
#    0.000    0.000    0.000    0.000    0.000    0.000 
#    0.000    0.000    0.000    0.000    0.000    0.000 
#
# Total GULP energy -346912.618463 kJ/mol
# GULP energy per Si atom -12389.736374 kJ/mol
# Density = 2.234793 g / cm^3
# Si number density = 22.398910 Si / 1000 Ang^3
#
#
#
# Elastic Constant Matrix: (Units=GPa)
#
#
# Indices 1 2 3 4 5 6 
#
# 1 48.2087 27.6649 10.6420 0.0000 6.4778 0.0000
# 2 27.6649 86.1295 12.0120 0.0000 1.4058 0.0000
# 3 10.6420 12.0120 59.1817 0.0000 -6.5302 0.0000
# 4 0.0000 0.0000 0.0000 -130.7331 0.0000 -83.2838
# 5 6.4778 1.4058 -6.5302 0.0000 47.1772 0.0000
# 6 0.0000 0.0000 0.0000 -83.2838 0.0000 -28.6793
#
#
#
# Elastic Compliance Matrix: (Units=1/GPa)
#
#
# Indices 1 2 3 4 5 6 
#
# 1 0.026653 -0.007995 -0.003603 0.000000 -0.003920 0.000000
# 2 -0.007995 0.014370 -0.001427 0.000000 0.000472 0.000000
# 3 -0.003603 -0.001427 0.018171 0.000000 0.003052 0.000000
# 4 0.000000 0.000000 0.000000 0.008999 0.000000 -0.026134
# 5 -0.003920 0.000472 0.003052 0.000000 0.022143 0.000000
# 6 0.000000 0.000000 0.000000 -0.026134 0.000000 0.041023
#
#
# Mechanical properties :
#
#
# Convention : Reuss Voigt Hill
#
# Bulk Modulus (GPa) = 30.16979 32.68418 31.42699
# Shear Modulus (GPa) = 29.68137 -12.90032 8.39052
#
# Velocity S-wave (km/s) = 3.64418 -2.40247 1.93755
# Velocity P-wave (km/s) = 5.58617 2.63206 4.36652
#
# Compressibility (1/GPa) = 0.03314574
#
# Stress axis : x y z
#
# Youngs Moduli (GPa) = 37.51939 69.59144 55.03167
#
# Poissons Ratio (x) = 0.55635 0.19826
# Poissons Ratio (y) = 0.29995 0.07853
# Poissons Ratio (z) = 0.13517 0.09930
#
# Static dielectric constant tensor:
#      x y z
#    x 4.158380 0.000000 -0.104640 
#    y 0.000000 4.583670 0.000000 
#    z -0.104640 0.000000 3.918530 
# 
# 
# High freq. dielectric constant tensor:
#      x y z
#    x 1.867690 0.000000 -0.012680 
#    y 0.000000 1.887720 0.000000 
#    z -0.012680 0.000000 1.867240 
# 
# From -- ./inp_files/77458.got.cif
#   From: 2010.06.25/outbox.cif.g09.slc.cpg/sg13_39_cif.got.tgz:77458.got - 2010.06.28 04:50:58.
