data_PCOD8120977
_publ_section_title
;
Structure prediction by ZEFSAII (Michael W. Deem and Ramdas Pophale) SiO2 
 PCOD8120977
Probable space group: P 2/C
;
_chemical_formula_sum "Si O2"
_cell_formula_units_Z 18
_cell_length_a 6.633891
_cell_length_b 10.969146
_cell_length_c 12.456138
_cell_angle_alpha 90.000000
_cell_angle_beta 107.730315
_cell_angle_gamma 90.000000
_cell_volume 863.355709
_symmetry_space_group_name_H-M "P 2/C"
_symmetry_group_IT_number 13
_symmetry_cell_setting 'monoclinic'
loop_
_space_group_symop_operation_xyz
x,y,z
-x,y,1/2-z
-x,-y,-z
x,-y,1/2+z
loop_
_atom_site_type_symbol
_atom_site_label
_atom_site_fract_x
_atom_site_fract_y
_atom_site_fract_z
Si Si1 0.500000 0.065191 0.750000
Si Si2 0.535320 0.229682 0.556314
Si Si3 0.081673 0.320168 0.446653
Si Si4 0.687235 0.166319 0.350879
Si Si5 0.127526 0.578694 0.374539
O O1 0.586391 0.146394 0.666911
O O2 0.304449 0.976846 0.681554
O O3 0.285037 0.238074 0.501032
O O4 0.638076 0.168488 0.469059
O O5 0.637756 0.363336 0.591902
O O6 0.145950 0.432349 0.380210
O O7 0.905799 0.235589 0.360577
O O8 0.999142 0.371585 0.544881
O O9 0.500000 0.231302 0.250000
O O10 0.000000 0.621133 0.250000
#
# Coordination Sequence:
#
# PCOD8120977 Si02
#       5
#     2   4   4   4   4
#     4  10  22  40  62  92 124 168 206 252 308 358
#     4  11  21  40  63  86 125 159 206 257 308 364
#     4  10  22  40  60  90 121 162 207 252 312 362
#     4   9  23  40  57  90 124 161 209 249 298 372
#     4  10  22  38  59  91 121 158 204 256 310 368
#
# _framework density 20.848880999999999
#
# number of rings (size 3 to 8) (size 9 to 14) (size 15 to 20)
#    0.667    1.333    0.000    2.667    3.111    0.889 
#    0.000    6.667    0.000    0.000    0.000    0.000 
#    0.000    0.000    0.000    0.000    0.000    0.000 
#
# Total GULP energy -223175.017558 kJ/mol
# GULP energy per Si atom -12398.612087 kJ/mol
# Density = 2.080143 g / cm^3
# Si number density = 20.848881 Si / 1000 Ang^3
#
#
#
# Elastic Constant Matrix: (Units=GPa)
#
#
# Indices 1 2 3 4 5 6 
#
# 1 111.3792 67.0605 40.0335 0.0000 23.7775 0.0000
# 2 67.0605 139.3274 53.5245 0.0000 0.6986 0.0000
# 3 40.0335 53.5245 112.7232 0.0000 9.4690 0.0000
# 4 0.0000 0.0000 0.0000 33.6924 0.0000 13.4064
# 5 23.7775 0.6986 9.4690 0.0000 24.5847 0.0000
# 6 0.0000 0.0000 0.0000 13.4064 0.0000 29.3324
#
#
#
# Elastic Compliance Matrix: (Units=1/GPa)
#
#
# Indices 1 2 3 4 5 6 
#
# 1 0.017728 -0.008028 -0.001099 0.000000 -0.016495 0.000000
# 2 -0.008028 0.012461 -0.003812 0.000000 0.008879 0.000000
# 3 -0.001099 -0.003812 0.011340 0.000000 -0.003197 0.000000
# 4 0.000000 0.000000 0.000000 0.036278 0.000000 -0.016581
# 5 -0.016495 0.008879 -0.003197 0.000000 0.057608 0.000000
# 6 0.000000 0.000000 0.000000 -0.016581 0.000000 0.041670
#
#
# Mechanical properties :
#
#
# Convention : Reuss Voigt Hill
#
# Bulk Modulus (GPa) = 63.88675 76.07408 69.98042
# Shear Modulus (GPa) = 24.01772 31.04265 27.53019
#
# Velocity S-wave (km/s) = 3.39778 3.86286 3.63776
# Velocity P-wave (km/s) = 6.78988 7.51419 7.16120
#
# Compressibility (1/GPa) = 0.01565270
#
# Stress axis : x y z
#
# Youngs Moduli (GPa) = 56.40720 80.24934 88.18480
#
# Poissons Ratio (x) = 0.64425 0.09687
# Poissons Ratio (y) = 0.45285 0.33612
# Poissons Ratio (z) = 0.06197 0.30588
#
# Static dielectric constant tensor:
#      x y z
#    x 3.582850 0.000000 0.064370 
#    y 0.000000 3.787390 0.000000 
#    z 0.064370 0.000000 3.848530 
# 
# 
# High freq. dielectric constant tensor:
#      x y z
#    x 1.799220 0.000000 0.000740 
#    y 0.000000 1.812570 0.000000 
#    z 0.000740 0.000000 1.830880 
# 
# From -- ./inp_files/25865.got.cif
#   From: 2010.06.25/outbox.cif.g09.slc.cpg/sg13_13_cif.got.tgz:25865.got - 2010.06.28 04:50:58.
