data_PCOD8120613
_publ_section_title
;
Structure prediction by ZEFSAII (Michael W. Deem and Ramdas Pophale) SiO2 
 PCOD8120613
Probable space group: P 2/C
;
_chemical_formula_sum "Si O2"
_cell_formula_units_Z 28
_cell_length_a 9.431800
_cell_length_b 13.831267
_cell_length_c 23.568889
_cell_angle_alpha 90.000000
_cell_angle_beta 25.663889
_cell_angle_gamma 90.000000
_cell_volume 1331.603438
_symmetry_space_group_name_H-M "P 2/C"
_symmetry_group_IT_number 13
_symmetry_cell_setting 'monoclinic'
loop_
_space_group_symop_operation_xyz
x,y,z
-x,y,1/2-z
-x,-y,-z
x,-y,1/2+z
loop_
_atom_site_type_symbol
_atom_site_label
_atom_site_fract_x
_atom_site_fract_y
_atom_site_fract_z
Si Si1 0.196611 0.293760 0.818997
Si Si2 0.385974 0.716704 0.728364
Si Si3 0.233199 0.447921 0.460167
Si Si4 0.664113 0.390008 0.849828
Si Si5 0.350894 0.226122 0.025536
Si Si6 0.630008 0.162677 0.039570
Si Si7 0.391434 0.031784 0.600828
O O1 0.500000 0.271417 0.750000
O O2 0.324958 0.330433 0.712569
O O3 0.967935 0.376040 0.927929
O O4 0.992108 0.192866 0.886249
O O5 0.500000 0.740536 0.750000
O O6 0.477932 0.606522 0.678639
O O7 0.582145 0.786664 0.616426
O O8 0.005776 0.736989 0.861109
O O9 0.393715 0.526971 0.443287
O O10 0.000000 0.500000 0.500000
O O11 0.000000 0.438861 0.750000
O O12 0.586094 0.316096 0.928860
O O13 0.370990 0.196754 0.084564
O O14 0.460132 0.138670 0.943857
O O15 0.572712 0.048828 0.074273
O O16 0.000000 0.031541 0.750000
O O17 0.500000 0.000000 0.500000
#
# Coordination Sequence:
#
# PCOD8120613 Si02
#       7
#     4   4   4   4   4   4   4
#     4  11  24  42  65  92 132 173 217 266 340 396
#     4  11  25  43  65  95 132 174 223 271 335 397
#     4  11  25  42  66  87 127 183 224 266 330 410
#     4  12  25  40  65  97 130 165 222 281 325 385
#     4  11  23  41  69  98 132 171 218 275 330 397
#     4  10  22  44  67  97 131 170 216 273 325 396
#     4  10  21  40  72 101 131 176 222 267 336 409
#
# _framework density 21.027282
#
# number of rings (size 3 to 8) (size 9 to 14) (size 15 to 20)
#    0.000    1.143    2.857    3.429    8.000    2.857 
#    0.000    1.429    0.000    0.000    0.000    0.000 
#    0.000    0.000    0.000    0.000    0.000    0.000 
#
# Total GULP energy -347131.329622 kJ/mol
# GULP energy per Si atom -12397.547487 kJ/mol
# Density = 2.097942 g / cm^3
# Si number density = 21.027282 Si / 1000 Ang^3
#
#
#
# Elastic Constant Matrix: (Units=GPa)
#
#
# Indices 1 2 3 4 5 6 
#
# 1 92.8743 27.7080 14.3243 0.0000 -8.7479 0.0000
# 2 27.7080 131.9492 38.6291 0.0000 -16.9672 0.0000
# 3 14.3243 38.6291 95.6562 0.0000 -13.3101 0.0000
# 4 0.0000 0.0000 0.0000 37.7250 0.0000 -8.5459
# 5 -8.7479 -16.9672 -13.3101 0.0000 45.2231 0.0000
# 6 0.0000 0.0000 0.0000 -8.5459 0.0000 28.6332
#
#
#
# Elastic Compliance Matrix: (Units=1/GPa)
#
#
# Indices 1 2 3 4 5 6 
#
# 1 0.011614 -0.002063 -0.000731 0.000000 0.001257 0.000000
# 2 -0.002063 0.009196 -0.003108 0.000000 0.002137 0.000000
# 3 -0.000731 -0.003108 0.012134 0.000000 0.002264 0.000000
# 4 0.000000 0.000000 0.000000 0.028430 0.000000 0.008485
# 5 0.001257 0.002137 0.002264 0.000000 0.023824 0.000000
# 6 0.000000 0.000000 0.000000 0.008485 0.000000 0.037457
#
#
# Mechanical properties :
#
#
# Convention : Reuss Voigt Hill
#
# Bulk Modulus (GPa) = 47.30276 53.53364 50.41820
# Shear Modulus (GPa) = 35.33452 38.30414 36.81933
#
# Velocity S-wave (km/s) = 4.10373 4.27270 4.18907
# Velocity P-wave (km/s) = 6.70812 7.06085 6.88675
#
# Compressibility (1/GPa) = 0.02114041
#
# Stress axis : x y z
#
# Youngs Moduli (GPa) = 86.10354 108.73790 82.41639
#
# Poissons Ratio (x) = 0.22434 0.06025
# Poissons Ratio (y) = 0.17764 0.25611
# Poissons Ratio (z) = 0.06295 0.33791
#
# Static dielectric constant tensor:
#      x y z
#    x 3.710260 0.000000 0.070900 
#    y 0.000000 5.377760 0.000000 
#    z 0.070900 0.000000 3.965490 
# 
# 
# High freq. dielectric constant tensor:
#      x y z
#    x 1.814240 0.000000 -0.001390 
#    y 0.000000 1.828810 0.000000 
#    z -0.001390 0.000000 1.836400 
# 
# From -- ./inp_files/76686.got.cif
#   From: 2010.06.25/outbox.cif.g09.slc.cpg/sg13_39_cif.got.tgz:76686.got - 2010.06.28 04:50:58.
