data_PCOD8120414
_publ_section_title
;
Structure prediction by ZEFSAII (Michael W. Deem and Ramdas Pophale) SiO2 
 PCOD8120414
Probable space group: P 2/C
;
_chemical_formula_sum "Si O2"
_cell_formula_units_Z 32
_cell_length_a 24.672528
_cell_length_b 10.986807
_cell_length_c 12.697258
_cell_angle_alpha 90.000000
_cell_angle_beta 26.855370
_cell_angle_gamma 90.000000
_cell_volume 1554.832307
_symmetry_space_group_name_H-M "P 2/C"
_symmetry_group_IT_number 13
_symmetry_cell_setting 'monoclinic'
loop_
_space_group_symop_operation_xyz
x,y,z
-x,y,1/2-z
-x,-y,-z
x,-y,1/2+z
loop_
_atom_site_type_symbol
_atom_site_label
_atom_site_fract_x
_atom_site_fract_y
_atom_site_fract_z
Si Si1 0.505876 0.614251 0.063881
Si Si2 0.218965 0.883774 0.202539
Si Si3 0.957377 0.556441 0.434940
Si Si4 0.347553 0.948886 0.191367
Si Si5 0.991611 0.699933 0.957425
Si Si6 0.782129 0.857828 0.888278
Si Si7 0.306337 0.644936 0.578315
Si Si8 0.411326 0.161383 0.206583
O O1 0.382275 0.610707 0.342990
O O2 0.500000 0.500000 0.000000
O O3 0.619064 0.619578 0.946011
O O4 0.521996 0.721746 0.953033
O O5 0.260520 0.918312 0.246992
O O6 0.112241 0.789453 0.398731
O O7 0.175564 0.008018 0.221113
O O8 0.321250 0.813088 0.959151
O O9 0.999081 0.415714 0.366749
O O10 0.814542 0.565037 0.703891
O O11 0.000000 0.609707 0.250000
O O12 0.030333 0.641627 0.389472
O O13 0.315075 0.869019 0.350682
O O14 0.339704 0.091639 0.236942
O O15 0.485475 0.923875 0.921900
O O16 0.111405 0.779070 0.746882
O O17 0.726444 0.787701 0.883020
#
# Coordination Sequence:
#
# PCOD8120414 Si02
#       8
#     4   4   4   4   4   4   4   4
#     4  11  24  40  64  94 129 167 211 264 315 382
#     4  11  23  37  65  97 128 161 208 273 316 381
#     4  10  24  43  66  89 122 174 213 263 316 384
#     4  10  21  39  64  92 126 170 207 254 325 381
#     4  10  24  42  63  92 126 160 219 261 318 378
#     4  10  21  43  63  91 126 166 211 261 323 384
#     4  10  23  43  65  91 126 170 211 260 325 379
#     4  10  22  40  61  93 128 167 209 256 312 389
#
# _framework density 20.580997
#
# number of rings (size 3 to 8) (size 9 to 14) (size 15 to 20)
#    0.000    1.750    1.250    1.500    5.250    3.000 
#    4.500    0.000    0.000    0.000    0.000    0.000 
#    0.000    0.000    0.000    0.000    0.000    0.000 
#
# Total GULP energy -396660.696627 kJ/mol
# GULP energy per Si atom -12395.646770 kJ/mol
# Density = 2.053415 g / cm^3
# Si number density = 20.580997 Si / 1000 Ang^3
#
#
#
# Elastic Constant Matrix: (Units=GPa)
#
#
# Indices 1 2 3 4 5 6 
#
# 1 89.0137 35.1640 29.3061 0.0000 -3.2113 0.0000
# 2 35.1640 104.6804 33.3331 0.0000 -1.4631 0.0000
# 3 29.3061 33.3331 71.9624 0.0000 -4.0514 0.0000
# 4 0.0000 0.0000 0.0000 23.1909 0.0000 -5.6514
# 5 -3.2113 -1.4631 -4.0514 0.0000 30.7711 0.0000
# 6 0.0000 0.0000 0.0000 -5.6514 0.0000 33.1629
#
#
#
# Elastic Compliance Matrix: (Units=1/GPa)
#
#
# Indices 1 2 3 4 5 6 
#
# 1 0.013934 -0.003375 -0.004069 0.000000 0.000758 0.000000
# 2 -0.003375 0.012024 -0.004214 0.000000 -0.000335 0.000000
# 3 -0.004069 -0.004214 0.017600 0.000000 0.001692 0.000000
# 4 0.000000 0.000000 0.000000 0.044989 0.000000 0.007667
# 5 0.000758 -0.000335 0.001692 0.000000 0.032784 0.000000
# 6 0.000000 0.000000 0.000000 0.007667 0.000000 0.031461
#
#
# Mechanical properties :
#
#
# Convention : Reuss Voigt Hill
#
# Bulk Modulus (GPa) = 49.39858 51.25141 50.32500
# Shear Modulus (GPa) = 27.34422 28.61521 27.97971
#
# Velocity S-wave (km/s) = 3.64897 3.73281 3.69113
# Velocity P-wave (km/s) = 6.46587 6.59810 6.53232
#
# Compressibility (1/GPa) = 0.02024350
#
# Stress axis : x y z
#
# Youngs Moduli (GPa) = 71.76564 83.16968 56.81710
#
# Poissons Ratio (x) = 0.28066 0.23118
# Poissons Ratio (y) = 0.24218 0.23943
# Poissons Ratio (z) = 0.29200 0.35047
#
# Static dielectric constant tensor:
#      x y z
#    x 3.689010 0.000000 -0.028130 
#    y 0.000000 3.808200 0.000000 
#    z -0.028130 0.000000 3.664820 
# 
# 
# High freq. dielectric constant tensor:
#      x y z
#    x 1.805120 0.000000 0.000800 
#    y 0.000000 1.806960 0.000000 
#    z 0.000800 0.000000 1.805360 
# 
# From -- ./inp_files/41843.got.cif
#   From: 2010.06.25/outbox.cif.g09.slc.cpg/sg13_21_cif.got.tgz:41843.got - 2010.06.28 04:50:58.
