data_PCOD8120596
_publ_section_title
;
Structure prediction by ZEFSAII (Michael W. Deem and Ramdas Pophale) SiO2 
 PCOD8120596
Probable space group: P 2/C
;
_chemical_formula_sum "Si O2"
_cell_formula_units_Z 32
_cell_length_a 11.976048
_cell_length_b 14.058832
_cell_length_c 8.491952
_cell_angle_alpha 90.000000
_cell_angle_beta 94.815107
_cell_angle_gamma 90.000000
_cell_volume 1424.737515
_symmetry_space_group_name_H-M "P 2/C"
_symmetry_group_IT_number 13
_symmetry_cell_setting 'monoclinic'
loop_
_space_group_symop_operation_xyz
x,y,z
-x,y,1/2-z
-x,-y,-z
x,-y,1/2+z
loop_
_atom_site_type_symbol
_atom_site_label
_atom_site_fract_x
_atom_site_fract_y
_atom_site_fract_z
Si Si1 0.387028 0.424998 0.683153
Si Si2 0.870467 0.622815 0.758868
Si Si3 0.585808 0.078575 0.457810
Si Si4 0.557357 0.221652 0.914377
Si Si5 0.797182 0.194036 0.074157
Si Si6 0.934603 0.919305 0.397795
Si Si7 0.233503 0.545964 0.444045
Si Si8 0.267863 0.990500 0.780019
O O1 0.500000 0.480871 0.750000
O O2 0.437114 0.334761 0.596395
O O3 0.324791 0.490311 0.553829
O O4 0.303032 0.395612 0.818227
O O5 0.798796 0.710131 0.678372
O O6 0.847061 0.527137 0.657246
O O7 0.000000 0.647153 0.750000
O O8 0.837874 0.610706 0.941219
O O9 0.527661 0.183307 0.460341
O O10 0.621716 0.057792 0.283702
O O11 0.500000 0.000000 0.500000
O O12 0.695945 0.065834 0.581480
O O13 0.500000 0.177240 0.750000
O O14 0.683598 0.186381 0.957506
O O15 0.807516 0.098203 0.176001
O O16 0.911181 0.182390 0.982875
O O17 0.000000 0.891842 0.250000
O O18 0.808513 0.954985 0.353515
O O19 0.000000 0.000000 0.500000
#
# Coordination Sequence:
#
# PCOD8120596 Si02
#       8
#     4   4   4   4   4   4   4   4
#     4  10  21  40  69 101 137 176 215 274 343 421
#     4  11  25  46  73 102 139 177 231 294 339 408
#     4  12  22  39  63  91 126 179 216 272 336 393
#     4  11  23  40  64  94 141 169 218 279 333 401
#     4  12  25  43  66 103 134 172 237 282 330 415
#     4  12  24  44  67  90 129 185 229 283 346 393
#     4  10  22  46  73 100 135 183 225 275 360 410
#     4  12  24  42  65  92 133 178 235 275 332 402
#
# _framework density 22.460279
#
# number of rings (size 3 to 8) (size 9 to 14) (size 15 to 20)
#    0.000    0.750    5.000    2.625    1.750    2.000 
#    2.250    0.625    0.000    0.000    0.000    0.000 
#    0.000    0.000    0.000    0.000    0.000    0.000 
#
# Total GULP energy -396514.200387 kJ/mol
# GULP energy per Si atom -12391.068762 kJ/mol
# Density = 2.240916 g / cm^3
# Si number density = 22.460279 Si / 1000 Ang^3
#
#
#
# Elastic Constant Matrix: (Units=GPa)
#
#
# Indices 1 2 3 4 5 6 
#
# 1 92.3320 23.6048 16.9880 0.0000 -7.1542 0.0000
# 2 23.6048 85.9743 27.4282 0.0000 -13.8115 0.0000
# 3 16.9880 27.4282 74.1978 0.0000 -15.1019 0.0000
# 4 0.0000 0.0000 0.0000 29.8996 0.0000 -9.6748
# 5 -7.1542 -13.8115 -15.1019 0.0000 45.1955 0.0000
# 6 0.0000 0.0000 0.0000 -9.6748 0.0000 31.3780
#
#
#
# Elastic Compliance Matrix: (Units=1/GPa)
#
#
# Indices 1 2 3 4 5 6 
#
# 1 0.011848 -0.002650 -0.001627 0.000000 0.000522 0.000000
# 2 -0.002650 0.014065 -0.004081 0.000000 0.002515 0.000000
# 3 -0.001627 -0.004081 0.016151 0.000000 0.003892 0.000000
# 4 0.000000 0.000000 0.000000 0.037152 0.000000 0.011455
# 5 0.000522 0.002515 0.003892 0.000000 0.024278 0.000000
# 6 0.000000 0.000000 0.000000 0.011455 0.000000 0.035401
#
#
# Mechanical properties :
#
#
# Convention : Reuss Voigt Hill
#
# Bulk Modulus (GPa) = 39.45020 43.17181 41.31100
# Shear Modulus (GPa) = 30.47692 33.59349 32.03520
#
# Velocity S-wave (km/s) = 3.68764 3.87160 3.78074
# Velocity P-wave (km/s) = 5.97781 6.26489 6.12303
#
# Compressibility (1/GPa) = 0.02534842
#
# Stress axis : x y z
#
# Youngs Moduli (GPa) = 84.40452 71.09930 61.91726
#
# Poissons Ratio (x) = 0.18841 0.10072
# Poissons Ratio (y) = 0.22367 0.25266
# Poissons Ratio (z) = 0.13730 0.29013
#
# Static dielectric constant tensor:
#      x y z
#    x 4.289070 0.000000 0.038140 
#    y 0.000000 4.794370 0.000000 
#    z 0.038140 0.000000 4.338680 
# 
# 
# High freq. dielectric constant tensor:
#      x y z
#    x 1.899300 0.000000 0.003510 
#    y 0.000000 1.859580 0.000000 
#    z 0.003510 0.000000 1.895650 
# 
# From -- ./inp_files/16765.got.cif
#   From: 2010.06.25/outbox.cif.g09.slc.cpg/sg13_9_cif.got.tgz:16765.got - 2010.06.28 04:50:58.
