data_PCOD8120314
_publ_section_title
;
Structure prediction by ZEFSAII (Michael W. Deem and Ramdas Pophale) SiO2 
 PCOD8120314
Probable space group: P 2/C
;
_chemical_formula_sum "Si O2"
_cell_formula_units_Z 30
_cell_length_a 30.174097
_cell_length_b 10.715861
_cell_length_c 24.929416
_cell_angle_alpha 90.000000
_cell_angle_beta 169.769746
_cell_angle_gamma 90.000000
_cell_volume 1431.618114
_symmetry_space_group_name_H-M "P 2/C"
_symmetry_group_IT_number 13
_symmetry_cell_setting 'monoclinic'
loop_
_space_group_symop_operation_xyz
x,y,z
-x,y,1/2-z
-x,-y,-z
x,-y,1/2+z
loop_
_atom_site_type_symbol
_atom_site_label
_atom_site_fract_x
_atom_site_fract_y
_atom_site_fract_z
Si Si1 0.988296 0.703132 0.298508
Si Si2 0.615689 0.716130 0.551866
Si Si3 0.791760 0.635071 0.651320
Si Si4 0.069631 0.764633 0.892046
Si Si5 0.760111 0.014919 0.251983
Si Si6 0.785045 0.967374 0.903558
Si Si7 0.778070 0.457470 0.331091
Si Si8 0.500000 0.575275 0.750000
O O1 0.000000 0.669980 0.250000
O O2 0.052893 0.847715 0.386345
O O3 0.162083 0.614388 0.542030
O O4 0.704582 0.672599 0.974166
O O5 0.688387 0.719895 0.575935
O O6 0.657672 0.847451 0.628608
O O7 0.801489 0.627432 0.805976
O O8 0.320006 0.687604 0.206669
O O9 0.605472 0.518455 0.420850
O O10 0.838833 0.723885 0.655627
O O11 0.055511 0.577531 0.981780
O O12 0.000000 0.719756 0.750000
O O13 0.119481 0.913396 0.949115
O O14 0.840278 0.989133 0.408362
O O15 0.000000 0.000000 0.500000
O O16 0.511402 0.934035 0.939856
O O17 0.500000 0.500000 0.000000
#
# Coordination Sequence:
#
# PCOD8120314 Si02
#       8
#     4   4   4   4   4   4   4   2
#     4  11  25  45  66  92 133 177 216 269 331 392
#     4  11  22  40  63  95 126 162 214 263 318 381
#     4  11  23  40  64  93 128 166 215 261 325 378
#     4  11  23  40  66  92 127 165 208 265 317 382
#     4  10  21  38  66  97 129 167 208 271 327 384
#     4  10  22  42  63  95 130 164 218 262 326 394
#     4  11  23  41  64  96 127 171 216 266 320 383
#     4  10  26  42  60  94 128 172 218 266 318 396
#
# _framework density 20.955309
#
# number of rings (size 3 to 8) (size 9 to 14) (size 15 to 20)
#    0.000    1.333    2.667    2.400    1.867    4.267 
#    0.000    2.000    0.000    0.000    0.000    0.000 
#    0.000    0.000    0.000    0.000    0.000    0.000 
#
# Total GULP energy -371844.819825 kJ/mol
# GULP energy per Si atom -12394.827327 kJ/mol
# Density = 2.090761 g / cm^3
# Si number density = 20.955309 Si / 1000 Ang^3
#
#
#
# Elastic Constant Matrix: (Units=GPa)
#
#
# Indices 1 2 3 4 5 6 
#
# 1 116.7073 14.0185 34.8547 0.0000 -0.2410 0.0000
# 2 14.0185 63.1155 32.9008 0.0000 3.1441 0.0000
# 3 34.8547 32.9008 114.0077 0.0000 9.1167 0.0000
# 4 0.0000 0.0000 0.0000 36.5151 0.0000 2.0820
# 5 -0.2410 3.1441 9.1167 0.0000 31.0586 0.0000
# 6 0.0000 0.0000 0.0000 2.0820 0.0000 20.3508
#
#
#
# Elastic Compliance Matrix: (Units=1/GPa)
#
#
# Indices 1 2 3 4 5 6 
#
# 1 0.009483 -0.000710 -0.002771 0.000000 0.000959 0.000000
# 2 -0.000710 0.018706 -0.005150 0.000000 -0.000387 0.000000
# 3 -0.002771 -0.005150 0.011331 0.000000 -0.002826 0.000000
# 4 0.000000 0.000000 0.000000 0.027547 0.000000 -0.002818
# 5 0.000959 -0.000387 -0.002826 0.000000 0.033073 0.000000
# 6 0.000000 0.000000 0.000000 -0.002818 0.000000 0.049426
#
#
# Mechanical properties :
#
#
# Convention : Reuss Voigt Hill
#
# Bulk Modulus (GPa) = 44.92811 50.81983 47.87397
# Shear Modulus (GPa) = 28.69488 31.72201 30.20845
#
# Velocity S-wave (km/s) = 3.70447 3.89497 3.80091
# Velocity P-wave (km/s) = 6.30745 6.67322 6.49291
#
# Compressibility (1/GPa) = 0.02225778
#
# Stress axis : x y z
#
# Youngs Moduli (GPa) = 105.44900 53.46003 88.25489
#
# Poissons Ratio (x) = 0.03793 0.24457
# Poissons Ratio (y) = 0.07482 0.45453
# Poissons Ratio (z) = 0.29222 0.27533
#
# Static dielectric constant tensor:
#      x y z
#    x 3.863200 0.000000 -0.127520 
#    y 0.000000 4.035720 0.000000 
#    z -0.127520 0.000000 4.920530 
# 
# 
# High freq. dielectric constant tensor:
#      x y z
#    x 1.820530 0.000000 -0.004740 
#    y 0.000000 1.818760 0.000000 
#    z -0.004740 0.000000 1.832330 
# 
# From -- ./inp_files/89721.got.cif
#   From: 2010.06.25/outbox.cif.g09.slc.cpg/sg13_45_cif.got.tgz:89721.got - 2010.06.28 04:50:58.
