data_PCOD8120965
_publ_section_title
;
Structure prediction by ZEFSAII (Michael W. Deem and Ramdas Pophale) SiO2 
 PCOD8120965
Probable space group: P 2/C
;
_chemical_formula_sum "Si O2"
_cell_formula_units_Z 14
_cell_length_a 11.158773
_cell_length_b 8.807943
_cell_length_c 14.923402
_cell_angle_alpha 90.000000
_cell_angle_beta 27.826434
_cell_angle_gamma 90.000000
_cell_volume 684.675352
_symmetry_space_group_name_H-M "P 2/C"
_symmetry_group_IT_number 13
_symmetry_cell_setting 'monoclinic'
loop_
_space_group_symop_operation_xyz
x,y,z
-x,y,1/2-z
-x,-y,-z
x,-y,1/2+z
loop_
_atom_site_type_symbol
_atom_site_label
_atom_site_fract_x
_atom_site_fract_y
_atom_site_fract_z
Si Si1 0.348150 0.748795 0.936093
Si Si2 0.274965 0.405069 0.968077
Si Si3 0.255938 0.257372 0.165850
Si Si4 0.000000 0.017208 0.750000
O O1 0.500000 0.806687 0.750000
O O2 0.224276 0.584937 0.999066
O O3 0.526193 0.739188 0.905042
O O4 0.130431 0.874075 0.091154
O O5 0.500000 0.358105 0.750000
O O6 0.353034 0.355837 0.016872
O O7 0.007988 0.324402 0.117735
O O8 0.206873 0.085532 0.165419
#
# Coordination Sequence:
#
# PCOD8120965 Si02
#       4
#     4   4   4   2
#     4  11  23  37  58  86 113 147 187 228 278 331
#     4   9  20  37  60  84 110 146 186 230 279 325
#     4  10  22  39  58  83 114 147 186 230 276 330
#     4  10  22  38  56  80 114 152 186 226 276 328
#
# _framework density 20.447647
#
# number of rings (size 3 to 8) (size 9 to 14) (size 15 to 20)
#    0.000    2.286    0.000    3.429    0.000   12.571 
#    0.000    0.000    0.000    0.000    0.000    0.000 
#    0.000    0.000    0.000    0.000    0.000    0.000 
#
# Total GULP energy -173611.435835 kJ/mol
# GULP energy per Si atom -12400.816845 kJ/mol
# Density = 2.040111 g / cm^3
# Si number density = 20.447647 Si / 1000 Ang^3
#
#
#
# Elastic Constant Matrix: (Units=GPa)
#
#
# Indices 1 2 3 4 5 6 
#
# 1 32.0284 -13.3513 -3.0629 0.0000 8.5554 0.0000
# 2 -13.3513 107.8918 58.0864 0.0000 17.1304 0.0000
# 3 -3.0629 58.0864 138.4336 0.0000 33.0121 0.0000
# 4 0.0000 0.0000 0.0000 20.2462 0.0000 -7.7742
# 5 8.5554 17.1304 33.0121 0.0000 25.1947 0.0000
# 6 0.0000 0.0000 0.0000 -7.7742 0.0000 12.7747
#
#
#
# Elastic Compliance Matrix: (Units=1/GPa)
#
#
# Indices 1 2 3 4 5 6 
#
# 1 0.040522 0.006757 0.003546 0.000000 -0.023001 0.000000
# 2 0.006757 0.013190 -0.003926 0.000000 -0.006119 0.000000
# 3 0.003546 -0.003926 0.012508 0.000000 -0.014924 0.000000
# 4 0.000000 0.000000 0.000000 0.064453 0.000000 0.039224
# 5 -0.023001 -0.006119 -0.014924 0.000000 0.071217 0.000000
# 6 0.000000 0.000000 0.000000 0.039224 0.000000 0.102149
#
#
# Mechanical properties :
#
#
# Convention : Reuss Voigt Hill
#
# Bulk Modulus (GPa) = 12.66208 40.18870 26.42539
# Shear Modulus (GPa) = 15.74261 27.42190 21.58225
#
# Velocity S-wave (km/s) = 2.77771 3.66605 3.25235
# Velocity P-wave (km/s) = 4.06122 6.13327 5.20146
#
# Compressibility (1/GPa) = 0.07897597
#
# Stress axis : x y z
#
# Youngs Moduli (GPa) = 24.67779 75.81638 79.94626
#
# Poissons Ratio (x) = -0.51231 -0.28351
# Poissons Ratio (y) = -0.16675 0.31385
# Poissons Ratio (z) = -0.08751 0.29764
#
# Static dielectric constant tensor:
#      x y z
#    x 3.444370 0.000000 0.157880 
#    y 0.000000 3.879540 0.000000 
#    z 0.157880 0.000000 3.855280 
# 
# 
# High freq. dielectric constant tensor:
#      x y z
#    x 1.783480 0.000000 0.007860 
#    y 0.000000 1.813630 0.000000 
#    z 0.007860 0.000000 1.807770 
# 
# From -- ./inp_files/31932.got.cif
#   From: 2010.06.25/outbox.cif.g09.slc.cpg/sg13_16_cif.got.tgz:31932.got - 2010.06.28 04:50:58.
