data_PCOD8120648
_publ_section_title
;
Structure prediction by ZEFSAII (Michael W. Deem and Ramdas Pophale) SiO2 
 PCOD8120648
Probable space group: P 2/C
;
_chemical_formula_sum "Si O2"
_cell_formula_units_Z 20
_cell_length_a 22.067530
_cell_length_b 7.463583
_cell_length_c 13.998535
_cell_angle_alpha 90.000000
_cell_angle_beta 156.245187
_cell_angle_gamma 90.000000
_cell_volume 928.749433
_symmetry_space_group_name_H-M "P 2/C"
_symmetry_group_IT_number 13
_symmetry_cell_setting 'monoclinic'
loop_
_space_group_symop_operation_xyz
x,y,z
-x,y,1/2-z
-x,-y,-z
x,-y,1/2+z
loop_
_atom_site_type_symbol
_atom_site_label
_atom_site_fract_x
_atom_site_fract_y
_atom_site_fract_z
Si Si1 0.112763 0.078494 0.330601
Si Si2 0.921530 0.591243 0.506707
Si Si3 0.863918 0.714410 0.223106
Si Si4 0.343787 0.297350 0.755181
Si Si5 0.448181 0.607582 0.784356
O O1 0.282183 0.113346 0.617856
O O2 0.000000 0.010877 0.250000
O O3 0.056905 0.265080 0.205001
O O4 0.110002 0.928186 0.244098
O O5 0.826667 0.641287 0.275190
O O6 0.810548 0.598805 0.436779
O O7 0.989570 0.391995 0.603143
O O8 0.719611 0.682303 0.948850
O O9 0.444139 0.407803 0.823982
O O10 0.443819 0.265647 0.994856
O O11 0.500000 0.599814 0.750000
#
# Coordination Sequence:
#
# PCOD8120648 Si02
#       5
#     4   4   4   4   4
#     4  10  22  37  61  96 124 156 212 264 310 369
#     4  10  21  41  63  94 123 163 207 266 311 371
#     4  11  22  37  68  89 123 167 212 253 321 368
#     4  10  22  41  64  89 131 164 212 265 313 375
#     4  11  22  40  64  92 126 173 212 253 319 381
#
# _framework density 21.534333
#
# number of rings (size 3 to 8) (size 9 to 14) (size 15 to 20)
#    0.000    1.600    4.000    0.600    2.800    0.800 
#    0.000    1.000    4.400    0.000    0.000    0.000 
#    0.000    0.000    0.000    0.000    0.000    0.000 
#
# Total GULP energy -247889.152507 kJ/mol
# GULP energy per Si atom -12394.457625 kJ/mol
# Density = 2.148532 g / cm^3
# Si number density = 21.534333 Si / 1000 Ang^3
#
#
#
# Elastic Constant Matrix: (Units=GPa)
#
#
# Indices 1 2 3 4 5 6 
#
# 1 41.8929 17.3767 14.3987 0.0000 -13.1766 0.0000
# 2 17.3767 90.7761 43.2067 0.0000 -15.6415 0.0000
# 3 14.3987 43.2067 129.0865 0.0000 -21.2845 0.0000
# 4 0.0000 0.0000 0.0000 26.0703 0.0000 -7.4276
# 5 -13.1766 -15.6415 -21.2845 0.0000 26.8724 0.0000
# 6 0.0000 0.0000 0.0000 -7.4276 0.0000 20.4358
#
#
#
# Elastic Compliance Matrix: (Units=1/GPa)
#
#
# Indices 1 2 3 4 5 6 
#
# 1 0.029174 -0.003435 -0.000087 0.000000 0.012237 0.000000
# 2 -0.003435 0.014064 -0.003741 0.000000 0.003539 0.000000
# 3 -0.000087 -0.003741 0.009941 0.000000 0.005654 0.000000
# 4 0.000000 0.000000 0.000000 0.042789 0.000000 0.015552
# 5 0.012237 0.003539 0.005654 0.000000 0.049751 0.000000
# 6 0.000000 0.000000 0.000000 0.015552 0.000000 0.054586
#
#
# Mechanical properties :
#
#
# Convention : Reuss Voigt Hill
#
# Bulk Modulus (GPa) = 25.87047 45.74663 35.80855
# Shear Modulus (GPa) = 21.95740 27.12726 24.54233
#
# Velocity S-wave (km/s) = 3.19665 3.55311 3.37958
# Velocity P-wave (km/s) = 5.06601 6.17434 5.64743
#
# Compressibility (1/GPa) = 0.03865412
#
# Stress axis : x y z
#
# Youngs Moduli (GPa) = 34.27723 71.10425 100.59672
#
# Poissons Ratio (x) = 0.24422 0.00873
# Poissons Ratio (y) = 0.11773 0.37630
# Poissons Ratio (z) = 0.00297 0.26598
#
# Static dielectric constant tensor:
#      x y z
#    x 3.710680 0.000000 -0.248910 
#    y 0.000000 3.505930 0.000000 
#    z -0.248910 0.000000 4.194410 
# 
# 
# High freq. dielectric constant tensor:
#      x y z
#    x 1.838220 0.000000 -0.016970 
#    y 0.000000 1.810250 0.000000 
#    z -0.016970 0.000000 1.863450 
# 
# From -- ./inp_files/49129.got.cif
#   From: 2010.06.25/outbox.cif.g09.slc.cpg/sg13_25_cif.got.tgz:49129.got - 2010.06.28 04:50:58.
