data_PCOD8120353
_publ_section_title
;
Structure prediction by ZEFSAII (Michael W. Deem and Ramdas Pophale) SiO2 
 PCOD8120353
Probable space group: P 2/C
;
_chemical_formula_sum "Si O2"
_cell_formula_units_Z 32
_cell_length_a 19.913000
_cell_length_b 11.157192
_cell_length_c 16.440142
_cell_angle_alpha 90.000000
_cell_angle_beta 25.910031
_cell_angle_gamma 90.000000
_cell_volume 1596.019242
_symmetry_space_group_name_H-M "P 2/C"
_symmetry_group_IT_number 13
_symmetry_cell_setting 'monoclinic'
loop_
_space_group_symop_operation_xyz
x,y,z
-x,y,1/2-z
-x,-y,-z
x,-y,1/2+z
loop_
_atom_site_type_symbol
_atom_site_label
_atom_site_fract_x
_atom_site_fract_y
_atom_site_fract_z
Si Si1 0.168980 0.352555 0.201516
Si Si2 0.372714 0.707355 0.781331
Si Si3 0.722712 0.234159 0.886499
Si Si4 0.326177 0.941376 0.925378
Si Si5 0.181592 0.811043 0.549301
Si Si6 0.670406 0.551710 0.818119
Si Si7 0.169960 0.691763 0.395603
Si Si8 0.145060 0.592990 0.142601
O O1 0.249295 0.251270 0.057382
O O2 0.290010 0.402215 0.134885
O O3 0.119455 0.455541 0.192519
O O4 0.014630 0.300638 0.411070
O O5 0.556459 0.707797 0.585950
O O6 0.311008 0.838807 0.872903
O O7 0.315526 0.668560 0.754372
O O8 0.303416 0.610955 0.919992
O O9 0.754742 0.222448 0.755660
O O10 0.848114 0.328617 0.782674
O O11 0.738575 0.108144 0.917300
O O12 0.500000 0.983515 0.750000
O O13 0.229655 0.051132 0.996532
O O14 0.237072 0.743371 0.407110
O O15 0.000000 0.802035 0.750000
O O16 0.784915 0.447308 0.664563
O O17 0.500000 0.500000 0.000000
O O18 0.000000 0.640121 0.250000
#
# Coordination Sequence:
#
# PCOD8120353 Si02
#       8
#     4   4   4   4   4   4   4   4
#     4  11  23  39  59  87 131 157 199 250 308 375
#     4  10  21  39  60  88 123 157 202 248 304 361
#     4  10  21  40  61  89 122 156 200 254 306 358
#     4   9  21  42  63  82 118 158 206 256 302 363
#     4  10  23  44  61  87 120 165 209 255 306 368
#     4  12  22  36  62  96 126 155 201 248 299 377
#     4  11  22  41  63  87 128 161 197 254 314 363
#     4  11  20  34  61  89 118 161 195 240 305 371
#
# _framework density 20.049885
#
# number of rings (size 3 to 8) (size 9 to 14) (size 15 to 20)
#    0.000    1.500    2.500    4.125    1.750    3.000 
#    2.250    5.000    0.000    0.000    0.000    0.000 
#    0.000    0.000    0.000    0.000    0.000    0.000 
#
# Total GULP energy -396768.211154 kJ/mol
# GULP energy per Si atom -12399.006599 kJ/mol
# Density = 2.000425 g / cm^3
# Si number density = 20.049885 Si / 1000 Ang^3
#
#
#
# Elastic Constant Matrix: (Units=GPa)
#
#
# Indices 1 2 3 4 5 6 
#
# 1 134.5853 61.9171 47.5450 0.0000 18.6051 0.0000
# 2 61.9171 106.0090 29.4172 0.0000 16.1873 0.0000
# 3 47.5450 29.4172 89.4351 0.0000 20.8497 0.0000
# 4 0.0000 0.0000 0.0000 22.7429 0.0000 -2.3342
# 5 18.6051 16.1873 20.8497 0.0000 27.9317 0.0000
# 6 0.0000 0.0000 0.0000 -2.3342 0.0000 39.7690
#
#
#
# Elastic Compliance Matrix: (Units=1/GPa)
#
#
# Indices 1 2 3 4 5 6 
#
# 1 0.011539 -0.005390 -0.003993 0.000000 -0.001582 0.000000
# 2 -0.005390 0.013322 -0.000670 0.000000 -0.003630 0.000000
# 3 -0.003993 -0.000670 0.015513 0.000000 -0.008532 0.000000
# 4 0.000000 0.000000 0.000000 0.044236 0.000000 0.002596
# 5 -0.001582 -0.003630 -0.008532 0.000000 0.045328 0.000000
# 6 0.000000 0.000000 0.000000 0.002596 0.000000 0.025298
#
#
# Mechanical properties :
#
#
# Convention : Reuss Voigt Hill
#
# Bulk Modulus (GPa) = 49.33810 67.53201 58.43506
# Shear Modulus (GPa) = 27.45774 30.83204 29.14489
#
# Velocity S-wave (km/s) = 3.70465 3.92569 3.81677
# Velocity P-wave (km/s) = 6.55441 7.36907 6.97365
#
# Compressibility (1/GPa) = 0.02026831
#
# Stress axis : x y z
#
# Youngs Moduli (GPa) = 86.66073 75.06574 64.46069
#
# Poissons Ratio (x) = 0.40462 0.25737
# Poissons Ratio (y) = 0.46712 0.04319
# Poissons Ratio (z) = 0.34600 0.05030
#
# Static dielectric constant tensor:
#      x y z
#    x 3.774090 0.000000 0.201840 
#    y 0.000000 3.489260 0.000000 
#    z 0.201840 0.000000 3.681070 
# 
# 
# High freq. dielectric constant tensor:
#      x y z
#    x 1.787850 0.000000 0.008740 
#    y 0.000000 1.764460 0.000000 
#    z 0.008740 0.000000 1.781340 
# 
# From -- ./inp_files/55789.got.cif
#   From: 2010.06.25/outbox.cif.g09.slc.cpg/sg13_28_cif.got.tgz:55789.got - 2010.06.28 04:50:58.
