data_PCOD8120048
_publ_section_title
;
Structure prediction by ZEFSAII (Michael W. Deem and Ramdas Pophale) SiO2 
 PCOD8120048
Probable space group: P 2/C
;
_chemical_formula_sum "Si O2"
_cell_formula_units_Z 30
_cell_length_a 26.118585
_cell_length_b 13.909987
_cell_length_c 8.510613
_cell_angle_alpha 90.000000
_cell_angle_beta 147.799554
_cell_angle_gamma 90.000000
_cell_volume 1647.665186
_symmetry_space_group_name_H-M "P 2/C"
_symmetry_group_IT_number 13
_symmetry_cell_setting 'monoclinic'
loop_
_space_group_symop_operation_xyz
x,y,z
-x,y,1/2-z
-x,-y,-z
x,-y,1/2+z
loop_
_atom_site_type_symbol
_atom_site_label
_atom_site_fract_x
_atom_site_fract_y
_atom_site_fract_z
Si Si1 0.892588 0.097028 0.157654
Si Si2 0.911372 0.746901 0.925826
Si Si3 0.500000 0.524420 0.750000
Si Si4 0.630010 0.581827 0.352683
Si Si5 0.219056 0.290624 0.139059
Si Si6 0.879852 0.892021 0.264539
Si Si7 0.202979 0.540538 0.353461
Si Si8 0.917867 0.427083 0.246678
O O1 0.848733 0.171786 0.172102
O O2 0.006195 0.122853 0.459319
O O3 0.858984 0.993584 0.129499
O O4 0.852447 0.109925 0.877725
O O5 0.851874 0.685666 0.899861
O O6 0.951711 0.677320 0.893326
O O7 0.000000 0.795820 0.250000
O O8 0.447034 0.593472 0.487200
O O9 0.421843 0.455285 0.625776
O O10 0.676149 0.687320 0.510149
O O11 0.707028 0.497196 0.513001
O O12 0.190720 0.184065 0.005566
O O13 0.218219 0.363106 0.992097
O O14 0.177746 0.454755 0.405802
O O15 0.110066 0.570107 0.007999
O O16 0.000000 0.500000 0.500000
#
# Coordination Sequence:
#
# PCOD8120048 Si02
#       8
#     4   4   2   4   4   4   4   4
#     4  10  21  37  56  79 111 159 204 250 288 331
#     4  12  22  35  50  77 111 163 206 243 282 330
#     4  10  22  40  64  80 108 154 188 240 320 382
#     4  11  21  39  59  84 112 152 192 243 303 364
#     4  12  22  36  56  82 114 152 200 244 289 344
#     4  10  21  37  57  79 111 153 205 252 294 327
#     4  12  21  37  51  77 114 157 195 248 281 333
#     4  12  23  33  47  71 114 164 212 235 278 328
#
# _framework density 18.207583
#
# number of rings (size 3 to 8) (size 9 to 14) (size 15 to 20)
#    0.000    0.800    5.333    3.600    1.867    0.000 
#    0.000    0.000    0.000    0.000    0.000    0.000 
#    0.000   12.800    0.000    0.000    0.000    0.000 
#
# Total GULP energy -371659.387271 kJ/mol
# GULP energy per Si atom -12388.646242 kJ/mol
# Density = 1.816614 g / cm^3
# Si number density = 18.207583 Si / 1000 Ang^3
#
#
#
# Elastic Constant Matrix: (Units=GPa)
#
#
# Indices 1 2 3 4 5 6 
#
# 1 68.5960 24.2594 26.2387 0.0000 -7.5017 0.0000
# 2 24.2594 113.0168 41.1126 0.0000 -9.5171 0.0000
# 3 26.2387 41.1126 89.6332 0.0000 -18.0109 0.0000
# 4 0.0000 0.0000 0.0000 32.7956 0.0000 -9.6940
# 5 -7.5017 -9.5171 -18.0109 0.0000 33.0489 0.0000
# 6 0.0000 0.0000 0.0000 -9.6940 0.0000 21.7399
#
#
#
# Elastic Compliance Matrix: (Units=1/GPa)
#
#
# Indices 1 2 3 4 5 6 
#
# 1 0.016897 -0.002178 -0.003709 0.000000 0.001187 0.000000
# 2 -0.002178 0.010907 -0.004305 0.000000 0.000300 0.000000
# 3 -0.003709 -0.004305 0.015495 0.000000 0.006363 0.000000
# 4 0.000000 0.000000 0.000000 0.035121 0.000000 0.015661
# 5 0.001187 0.000300 0.006363 0.000000 0.034082 0.000000
# 6 0.000000 0.000000 0.000000 0.015661 0.000000 0.052981
#
#
# Mechanical properties :
#
#
# Convention : Reuss Voigt Hill
#
# Bulk Modulus (GPa) = 43.63734 50.49638 47.06686
# Shear Modulus (GPa) = 25.83907 29.49258 27.66582
#
# Velocity S-wave (km/s) = 3.77123 4.02904 3.90226
# Velocity P-wave (km/s) = 6.55603 7.03122 6.79778
#
# Compressibility (1/GPa) = 0.02291615
#
# Stress axis : x y z
#
# Youngs Moduli (GPa) = 59.18289 91.68398 64.53504
#
# Poissons Ratio (x) = 0.19967 0.23935
# Poissons Ratio (y) = 0.12889 0.27782
# Poissons Ratio (z) = 0.21950 0.39469
#
# Static dielectric constant tensor:
#      x y z
#    x 3.759860 0.000000 -0.227570 
#    y 0.000000 3.471650 0.000000 
#    z -0.227570 0.000000 3.546220 
# 
# 
# High freq. dielectric constant tensor:
#      x y z
#    x 1.719360 0.000000 -0.039780 
#    y 0.000000 1.685440 0.000000 
#    z -0.039780 0.000000 1.682690 
# 
# From -- ./inp_files/19346.got.cif
#   From: 2010.06.25/outbox.cif.g09.slc.cpg/sg13_10_cif.got.tgz:19346.got - 2010.06.28 04:50:58.
