data_PCOD8120025
_publ_section_title
;
Structure prediction by ZEFSAII (Michael W. Deem and Ramdas Pophale) SiO2 
 PCOD8120025
Probable space group: P 2/C
;
_chemical_formula_sum "Si O2"
_cell_formula_units_Z 28
_cell_length_a 14.088210
_cell_length_b 8.846771
_cell_length_c 16.292799
_cell_angle_alpha 90.000000
_cell_angle_beta 139.105613
_cell_angle_gamma 90.000000
_cell_volume 1329.402817
_symmetry_space_group_name_H-M "P 2/C"
_symmetry_group_IT_number 13
_symmetry_cell_setting 'monoclinic'
loop_
_space_group_symop_operation_xyz
x,y,z
-x,y,1/2-z
-x,-y,-z
x,-y,1/2+z
loop_
_atom_site_type_symbol
_atom_site_label
_atom_site_fract_x
_atom_site_fract_y
_atom_site_fract_z
Si Si1 0.841628 0.645241 0.748319
Si Si2 0.175941 0.350865 0.455473
Si Si3 0.612779 0.169205 0.525650
Si Si4 0.395225 0.397418 0.106403
Si Si5 0.656961 0.840955 0.320445
Si Si6 0.699856 0.947903 0.705265
Si Si7 0.619780 0.409438 0.666076
O O1 0.803790 0.661650 0.628394
O O2 0.793449 0.796774 0.764061
O O3 0.765094 0.498203 0.735659
O O4 0.011352 0.623637 0.874295
O O5 0.265324 0.494116 0.549415
O O6 0.238042 0.194393 0.533757
O O7 0.674182 0.248188 0.482624
O O8 0.471132 0.079540 0.405774
O O9 0.567007 0.294495 0.562269
O O10 0.730177 0.056462 0.645346
O O11 0.500000 0.351491 0.250000
O O12 0.489342 0.474658 0.095880
O O13 0.500000 0.895183 0.250000
O O14 0.644206 0.681549 0.265611
O O15 0.733160 0.966385 0.312635
#
# Coordination Sequence:
#
# PCOD8120025 Si02
#       7
#     4   4   4   4   4   4   4
#     4  11  24  41  66  91 126 174 207 253 318 383
#     4  11  23  41  65  91 128 163 212 256 318 371
#     4  10  21  36  63  91 123 155 211 255 300 374
#     4  12  20  36  64  98 117 156 209 271 307 353
#     4  11  23  40  64  94 128 162 211 266 313 362
#     4  10  23  39  61  94 123 171 204 250 319 376
#     4  11  19  38  67  91 118 162 211 261 305 365
#
# _framework density 21.062090000000001
#
# number of rings (size 3 to 8) (size 9 to 14) (size 15 to 20)
#    0.000    1.143    5.714    1.286    4.000    1.714 
#    0.000    0.000   12.571    0.000    0.000    0.000 
#    0.000    0.000    0.000    0.000    0.000    0.000 
#
# Total GULP energy -347164.138892 kJ/mol
# GULP energy per Si atom -12398.719246 kJ/mol
# Density = 2.101415 g / cm^3
# Si number density = 21.062090 Si / 1000 Ang^3
#
#
#
# Elastic Constant Matrix: (Units=GPa)
#
#
# Indices 1 2 3 4 5 6 
#
# 1 60.8860 26.8580 25.3315 0.0000 6.2706 0.0000
# 2 26.8580 78.3956 15.6425 0.0000 -6.9340 0.0000
# 3 25.3315 15.6425 78.3984 0.0000 -2.6669 0.0000
# 4 0.0000 0.0000 0.0000 17.0075 0.0000 -10.1724
# 5 6.2706 -6.9340 -2.6669 0.0000 30.6267 0.0000
# 6 0.0000 0.0000 0.0000 -10.1724 0.0000 34.0137
#
#
#
# Elastic Compliance Matrix: (Units=1/GPa)
#
#
# Indices 1 2 3 4 5 6 
#
# 1 0.022887 -0.007213 -0.006189 0.000000 -0.006858 0.000000
# 2 -0.007213 0.015799 -0.000652 0.000000 0.004997 0.000000
# 3 -0.006189 -0.000652 0.014968 0.000000 0.002423 0.000000
# 4 0.000000 0.000000 0.000000 0.071606 0.000000 0.021415
# 5 -0.006858 0.004997 0.002423 0.000000 0.035398 0.000000
# 6 0.000000 0.000000 0.000000 0.021415 0.000000 0.035804
#
#
# Mechanical properties :
#
#
# Convention : Reuss Voigt Hill
#
# Bulk Modulus (GPa) = 39.14479 39.26045 39.20262
# Shear Modulus (GPa) = 21.45143 26.31946 23.88544
#
# Velocity S-wave (km/s) = 3.19483 3.53882 3.37122
# Velocity P-wave (km/s) = 5.67759 5.94798 5.81436
#
# Compressibility (1/GPa) = 0.02554618
#
# Stress axis : x y z
#
# Youngs Moduli (GPa) = 43.69278 63.29574 66.81073
#
# Poissons Ratio (x) = 0.45653 0.41351
# Poissons Ratio (y) = 0.31514 0.04355
# Poissons Ratio (z) = 0.27043 0.04126
#
# Static dielectric constant tensor:
#      x y z
#    x 3.685180 0.000000 -0.267060 
#    y 0.000000 3.959600 0.000000 
#    z -0.267060 0.000000 3.755530 
# 
# 
# High freq. dielectric constant tensor:
#      x y z
#    x 1.808190 0.000000 -0.031190 
#    y 0.000000 1.830300 0.000000 
#    z -0.031190 0.000000 1.815390 
# 
# From -- ./inp_files/68262.got.cif
#   From: 2010.06.25/outbox.cif.g09.slc.cpg/sg13_35_cif.got.tgz:68262.got - 2010.06.28 04:50:58.
