data_PCOD8120202
_publ_section_title
;
Structure prediction by ZEFSAII (Michael W. Deem and Ramdas Pophale) SiO2 
 PCOD8120202
Probable space group: P 2/C
;
_chemical_formula_sum "Si O2"
_cell_formula_units_Z 22
_cell_length_a 9.373477
_cell_length_b 8.937889
_cell_length_c 14.053651
_cell_angle_alpha 90.000000
_cell_angle_beta 78.920759
_cell_angle_gamma 90.000000
_cell_volume 1155.458183
_symmetry_space_group_name_H-M "P 2/C"
_symmetry_group_IT_number 13
_symmetry_cell_setting 'monoclinic'
loop_
_space_group_symop_operation_xyz
x,y,z
-x,y,1/2-z
-x,-y,-z
x,-y,1/2+z
loop_
_atom_site_type_symbol
_atom_site_label
_atom_site_fract_x
_atom_site_fract_y
_atom_site_fract_z
Si Si1 0.118844 0.638235 0.581690
Si Si2 0.672987 0.122800 0.899994
Si Si3 0.176322 0.899596 0.316758
Si Si4 0.000000 0.843764 0.750000
Si Si5 0.066633 0.694562 0.072999
Si Si6 0.648431 0.837375 0.023161
O O1 0.106992 0.738542 0.676973
O O2 0.114491 0.464672 0.611119
O O3 0.271371 0.681729 0.511982
O O4 0.985829 0.674577 0.528210
O O5 0.721204 0.139454 0.784868
O O6 0.792073 0.201240 0.951209
O O7 0.517787 0.203304 0.932410
O O8 0.659755 0.949723 0.932192
O O9 0.276486 0.917302 0.396281
O O10 0.057409 0.768184 0.345023
O O11 0.092217 0.054643 0.310654
#
# Coordination Sequence:
#
# PCOD8120202 Si02
#       6
#     4   4   4   2   4   4
#     4  10  22  37  56  86 110 148 181 237 273 335
#     4  11  20  36  58  84 111 155 178 230 273 332
#     4  11  20  36  58  87 107 149 184 236 266 332
#     4  12  20  32  62  84 108 140 196 232 274 320
#     4  10  21  38  59  80 116 143 189 226 284 326
#     4  10  22  37  56  83 118 141 191 222 280 326
#
# _framework density 19.040064000000001
#
# number of rings (size 3 to 8) (size 9 to 14) (size 15 to 20)
#    0.000    1.455    3.636    1.636    2.545    3.636 
#    0.000    0.000    0.000    0.000    0.000    0.000 
#    0.000    0.000    0.000    0.000    0.000    0.000 
#
# Total GULP energy -272849.935109 kJ/mol
# GULP energy per Si atom -12402.269778 kJ/mol
# Density = 1.899673 g / cm^3
# Si number density = 19.040064 Si / 1000 Ang^3
#
#
#
# Elastic Constant Matrix: (Units=GPa)
#
#
# Indices 1 2 3 4 5 6 
#
# 1 118.1158 28.2715 31.8548 0.0000 -23.7505 0.0000
# 2 28.2715 88.2032 32.6482 0.0000 -22.2114 0.0000
# 3 31.8548 32.6482 78.9370 0.0000 -13.6871 0.0000
# 4 0.0000 0.0000 0.0000 27.0173 0.0000 -0.6322
# 5 -23.7505 -22.2114 -13.6871 0.0000 26.8823 0.0000
# 6 0.0000 0.0000 0.0000 -0.6322 0.0000 22.1760
#
#
#
# Elastic Compliance Matrix: (Units=1/GPa)
#
#
# Indices 1 2 3 4 5 6 
#
# 1 0.010919 -0.000479 -0.002856 0.000000 0.007797 0.000000
# 2 -0.000479 0.015763 -0.004542 0.000000 0.010288 0.000000
# 3 -0.002856 -0.004542 0.016026 0.000000 0.001883 0.000000
# 4 0.000000 0.000000 0.000000 0.037038 0.000000 0.001056
# 5 0.007797 0.010288 0.001883 0.000000 0.053547 0.000000
# 6 0.000000 0.000000 0.000000 0.001056 0.000000 0.045124
#
#
# Mechanical properties :
#
#
# Convention : Reuss Voigt Hill
#
# Bulk Modulus (GPa) = 37.10194 52.31166 44.70680
# Shear Modulus (GPa) = 24.61150 28.04722 26.32936
#
# Velocity S-wave (km/s) = 3.59920 3.84221 3.72269
# Velocity P-wave (km/s) = 6.06637 6.87151 6.48145
#
# Compressibility (1/GPa) = 0.02695277
#
# Stress axis : x y z
#
# Youngs Moduli (GPa) = 91.58329 63.43908 62.39786
#
# Poissons Ratio (x) = 0.03040 0.17822
# Poissons Ratio (y) = 0.04389 0.28343
# Poissons Ratio (z) = 0.26158 0.28816
#
# Static dielectric constant tensor:
#      x y z
#    x 3.557030 0.000000 -0.033990 
#    y 0.000000 3.442670 0.000000 
#    z -0.033990 0.000000 3.432750 
# 
# 
# High freq. dielectric constant tensor:
#      x y z
#    x 1.739000 0.000000 -0.003630 
#    y 0.000000 1.729570 0.000000 
#    z -0.003630 0.000000 1.743900 
# 
# From -- ./inp_files/45770.got.cif
#   From: 2010.06.25/outbox.cif.g09.slc.cpg/sg13_23_cif.got.tgz:45770.got - 2010.06.28 04:50:58.
