data_PCOD8120867
_publ_section_title
;
Structure prediction by ZEFSAII (Michael W. Deem and Ramdas Pophale) SiO2 
 PCOD8120867
Probable space group: P 2/C
;
_chemical_formula_sum "Si O2"
_cell_formula_units_Z 20
_cell_length_a 20.152142
_cell_length_b 6.111724
_cell_length_c 10.253258
_cell_angle_alpha 90.000000
_cell_angle_beta 138.267233
_cell_angle_gamma 90.000000
_cell_volume 840.615697
_symmetry_space_group_name_H-M "P 2/C"
_symmetry_group_IT_number 13
_symmetry_cell_setting 'monoclinic'
loop_
_space_group_symop_operation_xyz
x,y,z
-x,y,1/2-z
-x,-y,-z
x,-y,1/2+z
loop_
_atom_site_type_symbol
_atom_site_label
_atom_site_fract_x
_atom_site_fract_y
_atom_site_fract_z
Si Si1 0.689895 0.559213 0.287764
Si Si2 0.613308 0.282407 0.411478
Si Si3 0.132576 0.415255 0.095791
Si Si4 0.941148 0.191051 0.843726
Si Si5 0.762913 0.924902 0.558443
O O1 0.627939 0.418370 0.299921
O O2 0.800123 0.453074 0.433509
O O3 0.703516 0.809206 0.354659
O O4 0.635129 0.561430 0.067510
O O5 0.500000 0.200205 0.250000
O O6 0.684554 0.072351 0.522755
O O7 0.113775 0.649417 0.135074
O O8 0.191134 0.258563 0.280431
O O9 0.026612 0.321144 0.889029
O O10 0.852844 0.075366 0.630546
O O11 0.000000 0.000000 0.000000
#
# Coordination Sequence:
#
# PCOD8120867 Si02
#       5
#     4   4   4   4   4
#     4  12  25  48  78 105 151 189 248 311 371 447
#     4  12  29  50  77 107 141 193 250 316 383 443
#     4  10  21  44  70 107 148 197 240 295 363 435
#     4   9  19  40  71 103 147 195 244 289 354 438
#     4  11  23  44  73 106 148 192 245 300 366 445
#
# _framework density 23.792085
#
# number of rings (size 3 to 8) (size 9 to 14) (size 15 to 20)
#    0.000    1.200    4.000    0.600    2.800    1.600 
#    0.000   24.000    0.000    0.000    0.000    0.000 
#    0.000    0.000    0.000    0.000    0.000    0.000 
#
# Total GULP energy -247929.402130 kJ/mol
# GULP energy per Si atom -12396.470107 kJ/mol
# Density = 2.373793 g / cm^3
# Si number density = 23.792085 Si / 1000 Ang^3
#
#
#
# Elastic Constant Matrix: (Units=GPa)
#
#
# Indices 1 2 3 4 5 6 
#
# 1 119.7984 41.9376 65.9902 0.0000 16.2926 0.0000
# 2 41.9376 122.8028 46.3570 0.0000 11.3731 0.0000
# 3 65.9902 46.3570 73.7390 0.0000 17.6285 0.0000
# 4 0.0000 0.0000 0.0000 31.9325 0.0000 1.5941
# 5 16.2926 11.3731 17.6285 0.0000 51.6758 0.0000
# 6 0.0000 0.0000 0.0000 1.5941 0.0000 30.9710
#
#
#
# Elastic Compliance Matrix: (Units=1/GPa)
#
#
# Indices 1 2 3 4 5 6 
#
# 1 0.016465 -0.000079 -0.014642 0.000000 -0.000179 0.000000
# 2 -0.000079 0.010678 -0.006627 0.000000 -0.000065 0.000000
# 3 -0.014642 -0.006627 0.031987 0.000000 -0.004837 0.000000
# 4 0.000000 0.000000 0.000000 0.031397 0.000000 -0.001616
# 5 -0.000179 -0.000065 -0.004837 0.000000 0.021072 0.000000
# 6 0.000000 0.000000 0.000000 -0.001616 0.000000 0.032371
#
#
# Mechanical properties :
#
#
# Convention : Reuss Voigt Hill
#
# Bulk Modulus (GPa) = 60.84908 69.43444 65.14176
# Shear Modulus (GPa) = 26.02215 33.71956 29.87085
#
# Velocity S-wave (km/s) = 3.31075 3.76873 3.54714
# Velocity P-wave (km/s) = 6.34394 6.94154 6.64946
#
# Compressibility (1/GPa) = 0.01643410
#
# Stress axis : x y z
#
# Youngs Moduli (GPa) = 60.73489 93.65478 31.26231
#
# Poissons Ratio (x) = 0.00739 0.45776
# Poissons Ratio (y) = 0.00479 0.20716
# Poissons Ratio (z) = 0.88931 0.62061
#
# Static dielectric constant tensor:
#      x y z
#    x 4.272560 0.000000 0.410370 
#    y 0.000000 4.528810 0.000000 
#    z 0.410370 0.000000 4.309180 
# 
# 
# High freq. dielectric constant tensor:
#      x y z
#    x 1.939630 0.000000 0.012740 
#    y 0.000000 1.957620 0.000000 
#    z 0.012740 0.000000 1.941250 
# 
# From -- ./inp_files/39940.got.cif
#   From: 2010.06.25/outbox.cif.g09.slc.cpg/sg13_20_cif.got.tgz:39940.got - 2010.06.28 04:50:58.
