data_PCOD8120721
_publ_section_title
;
Structure prediction by ZEFSAII (Michael W. Deem and Ramdas Pophale) SiO2 
 PCOD8120721
Probable space group: P 2/C
;
_chemical_formula_sum "Si O2"
_cell_formula_units_Z 22
_cell_length_a 12.585251
_cell_length_b 6.438610
_cell_length_c 13.972445
_cell_angle_alpha 90.000000
_cell_angle_beta 101.768978
_cell_angle_gamma 90.000000
_cell_volume 1108.407173
_symmetry_space_group_name_H-M "P 2/C"
_symmetry_group_IT_number 13
_symmetry_cell_setting 'monoclinic'
loop_
_space_group_symop_operation_xyz
x,y,z
-x,y,1/2-z
-x,-y,-z
x,-y,1/2+z
loop_
_atom_site_type_symbol
_atom_site_label
_atom_site_fract_x
_atom_site_fract_y
_atom_site_fract_z
Si Si1 0.431422 0.638975 0.915885
Si Si2 0.262585 0.037700 0.462548
Si Si3 0.123631 0.734266 0.794527
Si Si4 0.753500 0.655434 0.172363
Si Si5 0.734984 0.996016 0.313847
Si Si6 0.500000 0.854907 0.750000
O O1 0.371088 0.827623 0.960653
O O2 0.346462 0.502639 0.840883
O O3 0.513271 0.724457 0.850394
O O4 0.500000 0.500000 0.000000
O O5 0.157186 0.145563 0.397273
O O6 0.242526 0.015634 0.570548
O O7 0.269976 0.806064 0.421439
O O8 0.139179 0.488211 0.816931
O O9 0.000000 0.786451 0.750000
O O10 0.198983 0.812108 0.720033
O O11 0.771988 0.780377 0.273559
O O12 0.608274 0.009130 0.262939
#
# Coordination Sequence:
#
# PCOD8120721 Si02
#       6
#     4   4   4   4   4   2
#     4  11  24  37  59  94 130 174 209 254 308 382
#     4  10  23  43  62  97 128 163 217 263 317 381
#     4  10  23  46  65  91 126 164 218 268 318 378
#     4  10  21  42  59  91 126 169 207 258 317 370
#     4  11  24  40  65  94 129 167 212 261 320 382
#     4  12  22  40  60  98 134 168 210 254 318 386
#
# _framework density 19.848299000000001
#
# number of rings (size 3 to 8) (size 9 to 14) (size 15 to 20)
#    0.000    1.455    5.455    1.091    5.091    8.000 
#    0.000    1.818    0.000    0.000    0.000    0.000 
#    0.000    0.000    0.000    0.000    0.000    0.000 
#
# Total GULP energy -272768.973306 kJ/mol
# GULP energy per Si atom -12398.589696 kJ/mol
# Density = 1.980312 g / cm^3
# Si number density = 19.848299 Si / 1000 Ang^3
#
#
#
# Elastic Constant Matrix: (Units=GPa)
#
#
# Indices 1 2 3 4 5 6 
#
# 1 96.3144 27.5665 34.8026 0.0000 18.1402 0.0000
# 2 27.5665 108.1298 40.0220 0.0000 -5.1703 0.0000
# 3 34.8026 40.0220 160.0419 0.0000 -14.2126 0.0000
# 4 0.0000 0.0000 0.0000 25.2055 0.0000 6.6483
# 5 18.1402 -5.1703 -14.2126 0.0000 26.1452 0.0000
# 6 0.0000 0.0000 0.0000 6.6483 0.0000 15.7612
#
#
#
# Elastic Compliance Matrix: (Units=1/GPa)
#
#
# Indices 1 2 3 4 5 6 
#
# 1 0.015049 -0.003108 -0.003653 0.000000 -0.013042 0.000000
# 2 -0.003108 0.010844 -0.001738 0.000000 0.003356 0.000000
# 3 -0.003653 -0.001738 0.008061 0.000000 0.006573 0.000000
# 4 0.000000 0.000000 0.000000 0.044641 0.000000 -0.018830
# 5 -0.013042 0.003356 0.006573 0.000000 0.051534 0.000000
# 6 0.000000 0.000000 0.000000 -0.018830 0.000000 0.071390
#
#
# Mechanical properties :
#
#
# Convention : Reuss Voigt Hill
#
# Bulk Modulus (GPa) = 58.97787 63.25202 61.11495
# Shear Modulus (GPa) = 22.30468 30.89539 26.60004
#
# Velocity S-wave (km/s) = 3.35589 3.94963 3.66480
# Velocity P-wave (km/s) = 6.69289 7.26198 6.98323
#
# Compressibility (1/GPa) = 0.01695551
#
# Stress axis : x y z
#
# Youngs Moduli (GPa) = 66.45108 92.21525 124.05103
#
# Poissons Ratio (x) = 0.28659 0.45322
# Poissons Ratio (y) = 0.20652 0.21560
# Poissons Ratio (z) = 0.24278 0.16027
#
# Static dielectric constant tensor:
#      x y z
#    x 3.563750 0.000000 0.029180 
#    y 0.000000 3.829530 0.000000 
#    z 0.029180 0.000000 3.599140 
# 
# 
# High freq. dielectric constant tensor:
#      x y z
#    x 1.753790 0.000000 0.006660 
#    y 0.000000 1.787200 0.000000 
#    z 0.006660 0.000000 1.779880 
# 
# From -- ./inp_files/48894.got.cif
#   From: 2010.06.25/outbox.cif.g09.slc.cpg/sg13_25_cif.got.tgz:48894.got - 2010.06.28 04:50:58.
