data_PCOD8120493
_publ_section_title
;
Structure prediction by ZEFSAII (Michael W. Deem and Ramdas Pophale) SiO2 
 PCOD8120493
Probable space group: P 2/C
;
_chemical_formula_sum "Si O2"
_cell_formula_units_Z 32
_cell_length_a 18.137128
_cell_length_b 6.295878
_cell_length_c 14.000395
_cell_angle_alpha 90.000000
_cell_angle_beta 86.300190
_cell_angle_gamma 90.000000
_cell_volume 1595.361192
_symmetry_space_group_name_H-M "P 2/C"
_symmetry_group_IT_number 13
_symmetry_cell_setting 'monoclinic'
loop_
_space_group_symop_operation_xyz
x,y,z
-x,y,1/2-z
-x,-y,-z
x,-y,1/2+z
loop_
_atom_site_type_symbol
_atom_site_label
_atom_site_fract_x
_atom_site_fract_y
_atom_site_fract_z
Si Si1 0.185593 0.956903 0.881884
Si Si2 0.302656 0.632234 0.801502
Si Si3 0.351255 0.856620 0.624309
Si Si4 0.913814 0.723506 0.748885
Si Si5 0.184470 0.017524 0.102234
Si Si6 0.540409 0.813277 0.443471
Si Si7 0.597234 0.565119 0.054952
Si Si8 0.820574 0.659624 0.256967
O O1 0.259970 0.815724 0.864558
O O2 0.115019 0.835547 0.845052
O O3 0.193614 0.180538 0.828534
O O4 0.169640 0.010440 0.991999
O O5 0.362769 0.734855 0.724139
O O6 0.342260 0.463267 0.867668
O O7 0.245949 0.508253 0.738164
O O8 0.265745 0.907888 0.622112
O O9 0.374248 0.714550 0.532369
O O10 0.398612 0.075468 0.629481
O O11 0.873717 0.822470 0.844957
O O12 0.896892 0.472221 0.741493
O O13 0.000000 0.763561 0.750000
O O14 0.175119 0.779736 0.142836
O O15 0.478431 0.668484 0.395068
O O16 0.581998 0.670035 0.517701
O O17 0.500000 0.000000 0.500000
#
# Coordination Sequence:
#
# PCOD8120493 Si02
#       8
#     4   4   4   4   4   4   4   4
#     4  10  22  39  63  95 125 162 213 258 312 371
#     4  11  22  37  61  97 120 162 214 261 310 373
#     4  11  21  38  64  93 123 162 210 266 313 368
#     4  10  23  42  60  93 134 163 207 256 311 385
#     4  11  22  40  67  92 122 164 211 263 310 372
#     4   9  21  42  59  85 122 164 202 254 318 374
#     4  10  22  40  64  86 125 163 205 259 319 376
#     4  10  21  40  60  92 126 161 209 257 314 365
#
# _framework density 20.058152
#
# number of rings (size 3 to 8) (size 9 to 14) (size 15 to 20)
#    0.000    1.750    3.750    1.500    3.500    5.500 
#    0.000    8.125    0.000    0.000    0.000    0.000 
#    0.000    0.000    0.000    0.000    0.000    0.000 
#
# Total GULP energy -396728.987254 kJ/mol
# GULP energy per Si atom -12397.780852 kJ/mol
# Density = 2.001250 g / cm^3
# Si number density = 20.058152 Si / 1000 Ang^3
#
#
#
# Elastic Constant Matrix: (Units=GPa)
#
#
# Indices 1 2 3 4 5 6 
#
# 1 125.3023 41.0968 33.8892 0.0000 -9.6211 0.0000
# 2 41.0968 111.7771 28.6748 0.0000 -10.7802 0.0000
# 3 33.8892 28.6748 102.8752 0.0000 -6.9290 0.0000
# 4 0.0000 0.0000 0.0000 22.7512 0.0000 0.7308
# 5 -9.6211 -10.7802 -6.9290 0.0000 19.6759 0.0000
# 6 0.0000 0.0000 0.0000 0.7308 0.0000 26.4238
#
#
#
# Elastic Compliance Matrix: (Units=1/GPa)
#
#
# Indices 1 2 3 4 5 6 
#
# 1 0.009679 -0.002744 -0.002260 0.000000 0.002433 0.000000
# 2 -0.002744 0.010807 -0.001844 0.000000 0.003930 0.000000
# 3 -0.002260 -0.001844 0.011100 0.000000 0.001794 0.000000
# 4 0.000000 0.000000 0.000000 0.043993 0.000000 -0.001217
# 5 0.002433 0.003930 0.001794 0.000000 0.054798 0.000000
# 6 0.000000 0.000000 0.000000 -0.001217 0.000000 0.037878
#
#
# Mechanical properties :
#
#
# Convention : Reuss Voigt Hill
#
# Bulk Modulus (GPa) = 55.89483 60.80847 58.35165
# Shear Modulus (GPa) = 26.60798 29.52310 28.06554
#
# Velocity S-wave (km/s) = 3.64612 3.84066 3.74466
# Velocity P-wave (km/s) = 6.75666 7.07457 6.91744
#
# Compressibility (1/GPa) = 0.01789074
#
# Stress axis : x y z
#
# Youngs Moduli (GPa) = 103.31949 92.52985 90.09350
#
# Poissons Ratio (x) = 0.25392 0.20357
# Poissons Ratio (y) = 0.28353 0.16610
# Poissons Ratio (z) = 0.23346 0.17059
#
# Static dielectric constant tensor:
#      x y z
#    x 3.878280 0.000000 -0.312920 
#    y 0.000000 4.119640 0.000000 
#    z -0.312920 0.000000 3.784770 
# 
# 
# High freq. dielectric constant tensor:
#      x y z
#    x 1.776890 0.000000 -0.000390 
#    y 0.000000 1.804490 0.000000 
#    z -0.000390 0.000000 1.765740 
# 
# From -- ./inp_files/54665.got.cif
#   From: 2010.06.25/outbox.cif.g09.slc.cpg/sg13_28_cif.got.tgz:54665.got - 2010.06.28 04:50:58.
