data_PCOD8120550
_publ_section_title
;
Structure prediction by ZEFSAII (Michael W. Deem and Ramdas Pophale) SiO2 
 PCOD8120550
Probable space group: P 2/C
;
_chemical_formula_sum "Si O2"
_cell_formula_units_Z 32
_cell_length_a 15.146777
_cell_length_b 16.787990
_cell_length_c 11.429968
_cell_angle_alpha 90.000000
_cell_angle_beta 29.068695
_cell_angle_gamma 90.000000
_cell_volume 1412.125244
_symmetry_space_group_name_H-M "P 2/C"
_symmetry_group_IT_number 13
_symmetry_cell_setting 'monoclinic'
loop_
_space_group_symop_operation_xyz
x,y,z
-x,y,1/2-z
-x,-y,-z
x,-y,1/2+z
loop_
_atom_site_type_symbol
_atom_site_label
_atom_site_fract_x
_atom_site_fract_y
_atom_site_fract_z
Si Si1 0.848745 0.954509 0.834376
Si Si2 0.178399 0.656755 0.611154
Si Si3 0.687806 0.191672 0.650633
Si Si4 0.669271 0.618774 0.824026
Si Si5 0.675202 0.792275 0.799138
Si Si6 0.295588 0.877374 0.969108
Si Si7 0.966117 0.162031 0.528432
Si Si8 0.626705 0.514492 0.207790
O O1 0.000000 0.982700 0.750000
O O2 0.956107 0.927260 0.591477
O O3 0.729012 0.879893 0.014662
O O4 0.715930 0.030116 0.978504
O O5 0.326974 0.725129 0.404631
O O6 0.183241 0.639711 0.745792
O O7 0.213699 0.569208 0.522227
O O8 0.000000 0.686917 0.750000
O O9 0.848674 0.196752 0.558700
O O10 0.495442 0.170888 0.933887
O O11 0.619359 0.703622 0.820451
O O12 0.733492 0.557512 0.649184
O O13 0.489194 0.574951 0.078150
O O14 0.743465 0.854175 0.619937
O O15 0.855543 0.782225 0.670674
O O16 0.500000 0.846775 0.750000
O O17 0.152967 0.832003 0.216536
O O18 0.500000 0.480176 0.250000
#
# Coordination Sequence:
#
# PCOD8120550 Si02
#       8
#     4   4   4   4   4   4   4   4
#     4  10  23  42  66  92 129 169 222 280 335 399
#     4  11  21  39  65  97 136 167 221 286 335 409
#     4  11  23  42  65 102 129 169 222 278 340 397
#     4  10  21  40  64  95 127 177 219 274 342 401
#     4  12  24  41  70  93 131 176 220 273 341 406
#     4  12  26  44  62  93 135 177 224 276 335 405
#     4  11  24  45  65  94 130 175 225 276 338 397
#     4   9  20  39  64  92 132 173 223 270 333 406
#
# _framework density 22.660879000000001
#
# number of rings (size 3 to 8) (size 9 to 14) (size 15 to 20)
#    0.000    1.250    2.500    4.125    1.750    3.500 
#    0.000    1.250    0.000    0.000    0.000    0.000 
#    0.000    0.000    0.000    0.000    0.000    0.000 
#
# Total GULP energy -396422.053428 kJ/mol
# GULP energy per Si atom -12388.189170 kJ/mol
# Density = 2.260930 g / cm^3
# Si number density = 22.660879 Si / 1000 Ang^3
#
#
#
# Elastic Constant Matrix: (Units=GPa)
#
#
# Indices 1 2 3 4 5 6 
#
# 1 85.1177 35.4290 37.1431 0.0000 -4.3609 0.0000
# 2 35.4290 106.6095 26.8372 0.0000 2.8111 0.0000
# 3 37.1431 26.8372 110.9646 0.0000 -1.5118 0.0000
# 4 0.0000 0.0000 0.0000 21.8251 0.0000 8.9486
# 5 -4.3609 2.8111 -1.5118 0.0000 33.6530 0.0000
# 6 0.0000 0.0000 0.0000 8.9486 0.0000 20.8363
#
#
#
# Elastic Compliance Matrix: (Units=1/GPa)
#
#
# Indices 1 2 3 4 5 6 
#
# 1 0.015375 -0.004129 -0.004118 0.000000 0.002152 0.000000
# 2 -0.004129 0.011127 -0.001330 0.000000 -0.001524 0.000000
# 3 -0.004118 -0.001330 0.010713 0.000000 0.000059 0.000000
# 4 0.000000 0.000000 0.000000 0.055612 0.000000 -0.023884
# 5 0.002152 -0.001524 0.000059 0.000000 0.030124 0.000000
# 6 0.000000 0.000000 0.000000 -0.023884 0.000000 0.058251
#
#
# Mechanical properties :
#
#
# Convention : Reuss Voigt Hill
#
# Bulk Modulus (GPa) = 55.37144 55.72337 55.54740
# Shear Modulus (GPa) = 24.22766 28.81503 26.52135
#
# Velocity S-wave (km/s) = 3.27332 3.56978 3.42476
# Velocity P-wave (km/s) = 6.22688 6.45249 6.34069
#
# Compressibility (1/GPa) = 0.01805985
#
# Stress axis : x y z
#
# Youngs Moduli (GPa) = 65.04225 89.86940 93.34631
#
# Poissons Ratio (x) = 0.37111 0.38443
# Poissons Ratio (y) = 0.26859 0.12412
# Poissons Ratio (z) = 0.26786 0.11950
#
# Static dielectric constant tensor:
#      x y z
#    x 4.200670 0.000000 0.122140 
#    y 0.000000 4.113040 0.000000 
#    z 0.122140 0.000000 4.018040 
# 
# 
# High freq. dielectric constant tensor:
#      x y z
#    x 1.892880 0.000000 0.001690 
#    y 0.000000 1.894430 0.000000 
#    z 0.001690 0.000000 1.884780 
# 
# From -- ./inp_files/37700.got.cif
#   From: 2010.06.25/outbox.cif.g09.slc.cpg/sg13_19_cif.got.tgz:37700.got - 2010.06.28 04:50:58.
