data_PCOD8120934
_publ_section_title
;
Structure prediction by ZEFSAII (Michael W. Deem and Ramdas Pophale) SiO2 
 PCOD8120934
Probable space group: P 2/C
;
_chemical_formula_sum "Si O2"
_cell_formula_units_Z 28
_cell_length_a 13.640748
_cell_length_b 9.023944
_cell_length_c 19.244480
_cell_angle_alpha 90.000000
_cell_angle_beta 32.031494
_cell_angle_gamma 90.000000
_cell_volume 1256.412547
_symmetry_space_group_name_H-M "P 2/C"
_symmetry_group_IT_number 13
_symmetry_cell_setting 'monoclinic'
loop_
_space_group_symop_operation_xyz
x,y,z
-x,y,1/2-z
-x,-y,-z
x,-y,1/2+z
loop_
_atom_site_type_symbol
_atom_site_label
_atom_site_fract_x
_atom_site_fract_y
_atom_site_fract_z
Si Si1 0.704169 0.173564 0.647220
Si Si2 0.149929 0.313814 0.601449
Si Si3 0.895427 0.285050 0.247781
Si Si4 0.500164 0.226285 0.039023
Si Si5 0.452172 0.928211 0.125938
Si Si6 0.092356 0.545990 0.515899
Si Si7 0.856690 0.027761 0.432922
O O1 0.500000 0.124492 0.750000
O O2 0.703826 0.144181 0.730200
O O3 0.738057 0.345412 0.606131
O O4 0.843658 0.061247 0.523698
O O5 0.353140 0.336222 0.513356
O O6 0.150631 0.409442 0.530207
O O7 0.000000 0.360218 0.750000
O O8 0.120000 0.143907 0.597318
O O9 0.676236 0.309844 0.387237
O O10 0.000000 0.364323 0.250000
O O11 0.942010 0.360914 0.147532
O O12 0.964134 0.113310 0.205084
O O13 0.603237 0.140463 0.914920
O O14 0.426234 0.106231 0.139772
O O15 0.669727 0.897406 0.012669
O O16 0.000000 0.500000 0.500000
#
# Coordination Sequence:
#
# PCOD8120934 Si02
#       7
#     4   4   4   4   4   4   4
#     4   9  20  40  65  89 127 171 211 264 323 400
#     4  11  25  44  65  98 134 172 221 285 329 389
#     4  11  21  42  67  96 129 169 219 269 322 406
#     4  10  22  36  69 100 130 165 222 277 333 386
#     4   9  18  36  61 105 129 161 217 273 330 393
#     4  11  27  44  60  88 130 176 220 268 331 392
#     4   9  19  37  68  98 130 169 210 271 332 386
#
# _framework density 22.285674
#
# number of rings (size 3 to 8) (size 9 to 14) (size 15 to 20)
#    0.000    2.000    1.429    0.857    6.000    2.286 
#    0.000    9.286    0.000    0.000    0.000    0.000 
#    0.000    0.000    0.000    0.000    0.000    0.000 
#
# Total GULP energy -346986.096761 kJ/mol
# GULP energy per Si atom -12392.360599 kJ/mol
# Density = 2.223495 g / cm^3
# Si number density = 22.285674 Si / 1000 Ang^3
#
#
#
# Elastic Constant Matrix: (Units=GPa)
#
#
# Indices 1 2 3 4 5 6 
#
# 1 139.0517 42.2585 57.1691 0.0000 5.5880 0.0000
# 2 42.2585 85.2936 30.2665 0.0000 11.2408 0.0000
# 3 57.1691 30.2665 97.4895 0.0000 7.0780 0.0000
# 4 0.0000 0.0000 0.0000 18.6665 0.0000 7.3888
# 5 5.5880 11.2408 7.0780 0.0000 45.9787 0.0000
# 6 0.0000 0.0000 0.0000 7.3888 0.0000 28.8022
#
#
#
# Elastic Compliance Matrix: (Units=1/GPa)
#
#
# Indices 1 2 3 4 5 6 
#
# 1 0.010250 -0.003351 -0.004995 0.000000 0.000342 0.000000
# 2 -0.003351 0.014591 -0.002362 0.000000 -0.002796 0.000000
# 3 -0.004995 -0.002362 0.013990 0.000000 -0.000969 0.000000
# 4 0.000000 0.000000 0.000000 0.059627 0.000000 -0.015296
# 5 0.000342 -0.002796 -0.000969 0.000000 0.022540 0.000000
# 6 0.000000 0.000000 0.000000 -0.015296 0.000000 0.038644
#
#
# Mechanical properties :
#
#
# Convention : Reuss Voigt Hill
#
# Bulk Modulus (GPa) = 57.42056 64.58032 61.00044
# Shear Modulus (GPa) = 26.75754 31.49885 29.12820
#
# Velocity S-wave (km/s) = 3.46881 3.76362 3.61922
# Velocity P-wave (km/s) = 6.47033 6.92299 6.70048
#
# Compressibility (1/GPa) = 0.01741536
#
# Stress axis : x y z
#
# Youngs Moduli (GPa) = 97.56230 68.53517 71.47748
#
# Poissons Ratio (x) = 0.22965 0.35705
# Poissons Ratio (y) = 0.32692 0.16882
# Poissons Ratio (z) = 0.48734 0.16187
#
# Static dielectric constant tensor:
#      x y z
#    x 4.230980 0.000000 0.318470 
#    y 0.000000 3.783460 0.000000 
#    z 0.318470 0.000000 4.182630 
# 
# 
# High freq. dielectric constant tensor:
#      x y z
#    x 1.880970 0.000000 0.013410 
#    y 0.000000 1.858870 0.000000 
#    z 0.013410 0.000000 1.875900 
# 
# From -- ./inp_files/79939.got.cif
#   From: 2010.06.25/outbox.cif.g09.slc.cpg/sg13_40_cif.got.tgz:79939.got - 2010.06.28 04:50:58.
