data_PCOD8120893
_publ_section_title
;
Structure prediction by ZEFSAII (Michael W. Deem and Ramdas Pophale) SiO2 
 PCOD8120893
Probable space group: P 2/C
;
_chemical_formula_sum "Si O2"
_cell_formula_units_Z 30
_cell_length_a 21.025326
_cell_length_b 5.271929
_cell_length_c 23.005003
_cell_angle_alpha 90.000000
_cell_angle_beta 146.988273
_cell_angle_gamma 90.000000
_cell_volume 1389.249331
_symmetry_space_group_name_H-M "P 2/C"
_symmetry_group_IT_number 13
_symmetry_cell_setting 'monoclinic'
loop_
_space_group_symop_operation_xyz
x,y,z
-x,y,1/2-z
-x,-y,-z
x,-y,1/2+z
loop_
_atom_site_type_symbol
_atom_site_label
_atom_site_fract_x
_atom_site_fract_y
_atom_site_fract_z
Si Si1 0.500000 0.438438 0.750000
Si Si2 0.110753 0.940920 0.731536
Si Si3 0.516521 0.692960 0.961498
Si Si4 0.017628 0.544699 0.332053
Si Si5 0.697338 0.954028 0.530160
Si Si6 0.532905 0.268527 0.652493
Si Si7 0.721645 0.448133 0.479837
Si Si8 0.681225 0.069218 0.674094
O O1 0.547941 0.262908 0.733391
O O2 0.387955 0.612251 0.646902
O O3 0.033224 0.687107 0.667998
O O4 0.213182 0.857691 0.853516
O O5 0.038383 0.184035 0.696434
O O6 0.179939 0.010540 0.724397
O O7 0.535793 0.532064 0.916405
O O8 0.391581 0.826951 0.862979
O O9 0.500000 0.500000 0.000000
O O10 0.635501 0.840999 0.074291
O O11 0.000000 0.482053 0.250000
O O12 0.152486 0.558035 0.454790
O O13 0.555741 0.961113 0.437659
O O14 0.700282 0.737910 0.483227
O O15 0.732951 0.233221 0.537549
O O16 0.653321 0.260280 0.707272
#
# Coordination Sequence:
#
# PCOD8120893 Si02
#       8
#     2   4   4   4   4   4   4   4
#     4  10  26  44  68  92 120 178 214 272 320 376
#     4  12  23  35  65  94 127 173 207 251 336 390
#     4   9  18  35  56  86 133 166 200 264 318 377
#     4  12  23  40  61  93 129 170 208 267 319 384
#     4  11  21  36  63  92 129 168 206 260 322 387
#     4  10  23  39  60  91 133 166 220 264 319 377
#     4  11  24  42  61  91 130 161 218 265 317 374
#     4  10  22  34  58  91 131 167 209 260 323 390
#
# _framework density 21.594394000000001
#
# number of rings (size 3 to 8) (size 9 to 14) (size 15 to 20)
#    0.000    1.333    2.667    3.600   13.067    2.133 
#    0.000    0.000    0.000    1.600    0.000    0.000 
#    0.000    0.000    0.000    0.000    0.000    0.000 
#
# Total GULP energy -371663.085380 kJ/mol
# GULP energy per Si atom -12388.769513 kJ/mol
# Density = 2.154524 g / cm^3
# Si number density = 21.594394 Si / 1000 Ang^3
#
#
#
# Elastic Constant Matrix: (Units=GPa)
#
#
# Indices 1 2 3 4 5 6 
#
# 1 108.0495 22.3245 38.5852 0.0000 11.7056 0.0000
# 2 22.3245 95.3540 9.3694 0.0000 12.8648 0.0000
# 3 38.5852 9.3694 95.2297 0.0000 20.9291 0.0000
# 4 0.0000 0.0000 0.0000 22.7793 0.0000 10.0640
# 5 11.7056 12.8648 20.9291 0.0000 45.4784 0.0000
# 6 0.0000 0.0000 0.0000 10.0640 0.0000 29.5618
#
#
#
# Elastic Compliance Matrix: (Units=1/GPa)
#
#
# Indices 1 2 3 4 5 6 
#
# 1 0.011268 -0.002175 -0.004282 0.000000 -0.000314 0.000000
# 2 -0.002175 0.011340 0.000387 0.000000 -0.002826 0.000000
# 3 -0.004282 0.000387 0.013328 0.000000 -0.005141 0.000000
# 4 0.000000 0.000000 0.000000 0.051671 0.000000 -0.017591
# 5 -0.000314 -0.002826 -0.005141 0.000000 0.025234 0.000000
# 6 0.000000 0.000000 0.000000 -0.017591 0.000000 0.039816
#
#
# Mechanical properties :
#
#
# Convention : Reuss Voigt Hill
#
# Bulk Modulus (GPa) = 42.02773 48.79904 45.41338
# Shear Modulus (GPa) = 28.94700 34.78751 31.86725
#
# Velocity S-wave (km/s) = 3.66524 4.01802 3.84568
# Velocity P-wave (km/s) = 6.11691 6.64628 6.38708
#
# Compressibility (1/GPa) = 0.02379382
#
# Stress axis : x y z
#
# Youngs Moduli (GPa) = 88.74939 88.18589 75.03109
#
# Poissons Ratio (x) = 0.19179 0.32131
# Poissons Ratio (y) = 0.19302 -0.02901
# Poissons Ratio (z) = 0.38006 -0.03409
#
# Static dielectric constant tensor:
#      x y z
#    x 4.186070 0.000000 0.261530 
#    y 0.000000 3.701500 0.000000 
#    z 0.261530 0.000000 3.728400 
# 
# 
# High freq. dielectric constant tensor:
#      x y z
#    x 1.853800 0.000000 0.034510 
#    y 0.000000 1.867580 0.000000 
#    z 0.034510 0.000000 1.800780 
# 
# From -- ./inp_files/88377.got.cif
#   From: 2010.06.25/outbox.cif.g09.slc.cpg/sg13_45_cif.got.tgz:88377.got - 2010.06.28 04:50:58.
