data_PCOD8120278
_publ_section_title
;
Structure prediction by ZEFSAII (Michael W. Deem and Ramdas Pophale) SiO2 
 PCOD8120278
Probable space group: P 2/C
;
_chemical_formula_sum "Si O2"
_cell_formula_units_Z 28
_cell_length_a 12.658425
_cell_length_b 15.099691
_cell_length_c 8.296265
_cell_angle_alpha 90.000000
_cell_angle_beta 122.922812
_cell_angle_gamma 90.000000
_cell_volume 1331.070759
_symmetry_space_group_name_H-M "P 2/C"
_symmetry_group_IT_number 13
_symmetry_cell_setting 'monoclinic'
loop_
_space_group_symop_operation_xyz
x,y,z
-x,y,1/2-z
-x,-y,-z
x,-y,1/2+z
loop_
_atom_site_type_symbol
_atom_site_label
_atom_site_fract_x
_atom_site_fract_y
_atom_site_fract_z
Si Si1 0.500000 0.966296 0.750000
Si Si2 0.027618 0.276861 0.962602
Si Si3 0.820090 0.407517 0.818477
Si Si4 0.500000 0.346343 0.250000
Si Si5 0.949630 0.089372 0.884633
Si Si6 0.228073 0.594461 0.582376
Si Si7 0.415223 0.708885 0.333727
Si Si8 0.654171 0.098807 0.667611
O O1 0.604852 0.025518 0.750041
O O2 0.425670 0.904429 0.563604
O O3 0.935121 0.346811 0.976144
O O4 0.003583 0.178528 0.018699
O O5 0.000000 0.267761 0.750000
O O6 0.170104 0.314537 0.112969
O O7 0.824839 0.509060 0.872766
O O8 0.835491 0.409000 0.641926
O O9 0.690035 0.365478 0.767751
O O10 0.620781 0.406152 0.305194
O O11 0.523347 0.291496 0.434798
O O12 0.799731 0.084368 0.755247
O O13 0.000000 0.092408 0.750000
O O14 0.000000 0.000000 0.000000
O O15 0.500000 0.686092 0.250000
O O16 0.360034 0.806061 0.261619
#
# Coordination Sequence:
#
# PCOD8120278 Si02
#       8
#     2   4   4   2   4   4   4   4
#     4  10  23  38  67  90 128 168 210 283 323 398
#     4   9  19  40  62  86 121 167 208 256 323 386
#     4  10  21  38  63  88 122 163 210 263 321 385
#     4  10  25  40  59  98 128 170 218 257 329 398
#     4  11  23  41  66  90 128 169 212 268 326 393
#     4  10  22  38  62  90 122 164 212 262 323 388
#     4  11  23  40  66  92 132 172 211 269 327 395
#     4  11  21  43  61  96 125 168 221 265 336 394
#
# _framework density 21.035696999999999
#
# number of rings (size 3 to 8) (size 9 to 14) (size 15 to 20)
#    0.000    1.714    2.143    1.714    5.000    1.143 
#    5.143    1.429    0.000    0.000    0.000    0.000 
#    0.000    0.000    0.000    0.000    0.000    0.000 
#
# Total GULP energy -346952.448879 kJ/mol
# GULP energy per Si atom -12391.158889 kJ/mol
# Density = 2.098782 g / cm^3
# Si number density = 21.035697 Si / 1000 Ang^3
#
#
#
# Elastic Constant Matrix: (Units=GPa)
#
#
# Indices 1 2 3 4 5 6 
#
# 1 136.0169 50.5498 40.1467 0.0000 14.7560 0.0000
# 2 50.5498 153.8464 26.4844 0.0000 21.8545 0.0000
# 3 40.1467 26.4844 37.5128 0.0000 5.5105 0.0000
# 4 0.0000 0.0000 0.0000 24.6644 0.0000 13.6004
# 5 14.7560 21.8545 5.5105 0.0000 30.2532 0.0000
# 6 0.0000 0.0000 0.0000 13.6004 0.0000 31.5108
#
#
#
# Elastic Compliance Matrix: (Units=1/GPa)
#
#
# Indices 1 2 3 4 5 6 
#
# 1 0.011349 -0.001535 -0.010698 0.000000 -0.002478 0.000000
# 2 -0.001535 0.008260 -0.003516 0.000000 -0.004578 0.000000
# 3 -0.010698 -0.003516 0.040534 0.000000 0.000375 0.000000
# 4 0.000000 0.000000 0.000000 0.053207 0.000000 -0.022965
# 5 -0.002478 -0.004578 0.000375 0.000000 0.037501 0.000000
# 6 0.000000 0.000000 0.000000 -0.022965 0.000000 0.041647
#
#
# Mechanical properties :
#
#
# Convention : Reuss Voigt Hill
#
# Bulk Modulus (GPa) = 34.91096 62.41532 48.66314
# Shear Modulus (GPa) = 21.40909 31.29869 26.35389
#
# Velocity S-wave (km/s) = 3.19368 3.86150 3.54336
# Velocity P-wave (km/s) = 5.49832 7.04394 6.31857
#
# Compressibility (1/GPa) = 0.02864430
#
# Stress axis : x y z
#
# Youngs Moduli (GPa) = 88.11318 121.06509 24.67073
#
# Poissons Ratio (x) = 0.18588 0.26393
# Poissons Ratio (y) = 0.13529 0.08674
# Poissons Ratio (z) = 0.94263 0.42567
#
# Static dielectric constant tensor:
#      x y z
#    x 3.930990 0.000000 0.023800 
#    y 0.000000 4.284280 0.000000 
#    z 0.023800 0.000000 3.582140 
# 
# 
# High freq. dielectric constant tensor:
#      x y z
#    x 1.844200 0.000000 0.005280 
#    y 0.000000 1.836690 0.000000 
#    z 0.005280 0.000000 1.793500 
# 
# From -- ./inp_files/16575.got.cif
#   From: 2010.06.25/outbox.cif.g09.slc.cpg/sg13_9_cif.got.tgz:16575.got - 2010.06.28 04:50:58.
