data_PCOD8120403
_publ_section_title
;
Structure prediction by ZEFSAII (Michael W. Deem and Ramdas Pophale) SiO2 
 PCOD8120403
Probable space group: P 2/C
;
_chemical_formula_sum "Si O2"
_cell_formula_units_Z 24
_cell_length_a 8.156254
_cell_length_b 16.137320
_cell_length_c 9.469988
_cell_angle_alpha 90.000000
_cell_angle_beta 85.075944
_cell_angle_gamma 90.000000
_cell_volume 1241.840404
_symmetry_space_group_name_H-M "P 2/C"
_symmetry_group_IT_number 13
_symmetry_cell_setting 'monoclinic'
loop_
_space_group_symop_operation_xyz
x,y,z
-x,y,1/2-z
-x,-y,-z
x,-y,1/2+z
loop_
_atom_site_type_symbol
_atom_site_label
_atom_site_fract_x
_atom_site_fract_y
_atom_site_fract_z
Si Si1 0.119654 0.515358 0.619096
Si Si2 0.635288 0.757320 0.544574
Si Si3 0.820284 0.807349 0.810891
Si Si4 0.304203 0.670717 0.506358
Si Si5 0.189791 0.337271 0.706219
Si Si6 0.458919 0.920538 0.594043
O O1 0.259459 0.580599 0.568529
O O2 0.214811 0.431265 0.651936
O O3 0.000000 0.549563 0.750000
O O4 0.000000 0.500000 0.500000
O O5 0.718205 0.763372 0.692089
O O6 0.483819 0.692765 0.553984
O O7 0.762589 0.729350 0.415940
O O8 0.569393 0.848919 0.515533
O O9 0.730077 0.887849 0.885475
O O10 0.000000 0.836616 0.750000
O O11 0.832034 0.736719 0.929570
O O12 0.302052 0.673884 0.336576
O O13 0.000000 0.320788 0.750000
O O14 0.500000 0.943747 0.750000
O O15 0.500000 0.000000 0.500000
#
# Coordination Sequence:
#
# PCOD8120403 Si02
#       6
#     4   4   4   4   4   4
#     4  11  22  38  56  86 120 164 204 250 306 352
#     4  10  23  40  59  89 118 154 203 249 300 361
#     4  10  21  39  64  89 117 158 205 246 297 361
#     4  11  21  37  58  84 118 159 202 251 302 350
#     4  11  22  37  57  84 119 156 205 251 298 355
#     4   9  20  40  62  89 124 156 189 239 300 357
#
# _framework density 19.326155
#
# number of rings (size 3 to 8) (size 9 to 14) (size 15 to 20)
#    0.000    1.667    3.333    3.500    2.333    3.333 
#    0.000    5.833    0.000    0.000    0.000    0.000 
#    0.000    0.000    0.000    0.000    0.000    0.000 
#
# Total GULP energy -297513.164849 kJ/mol
# GULP energy per Si atom -12396.381869 kJ/mol
# Density = 1.928217 g / cm^3
# Si number density = 19.326155 Si / 1000 Ang^3
#
#
#
# Elastic Constant Matrix: (Units=GPa)
#
#
# Indices 1 2 3 4 5 6 
#
# 1 103.5337 64.5632 40.4525 0.0000 -7.1200 0.0000
# 2 64.5632 142.3544 68.0887 0.0000 -15.1261 0.0000
# 3 40.4525 68.0887 111.9138 0.0000 -6.5142 0.0000
# 4 0.0000 0.0000 0.0000 43.6496 0.0000 -14.1513
# 5 -7.1200 -15.1261 -6.5142 0.0000 35.9679 0.0000
# 6 0.0000 0.0000 0.0000 -14.1513 0.0000 25.9501
#
#
#
# Elastic Compliance Matrix: (Units=1/GPa)
#
#
# Indices 1 2 3 4 5 6 
#
# 1 0.013681 -0.005400 -0.001652 0.000000 0.000138 0.000000
# 2 -0.005400 0.012396 -0.005405 0.000000 0.003165 0.000000
# 3 -0.001652 -0.005405 0.012805 0.000000 -0.000281 0.000000
# 4 0.000000 0.000000 0.000000 0.027830 0.000000 0.015176
# 5 0.000138 0.003165 -0.000281 0.000000 0.029110 0.000000
# 6 0.000000 0.000000 0.000000 0.015176 0.000000 0.046812
#
#
# Mechanical properties :
#
#
# Convention : Reuss Voigt Hill
#
# Bulk Modulus (GPa) = 71.59727 78.22340 74.91034
# Shear Modulus (GPa) = 29.03551 33.42668 31.23109
#
# Velocity S-wave (km/s) = 3.88028 4.16337 4.02431
# Velocity P-wave (km/s) = 7.56324 7.97965 7.77423
#
# Compressibility (1/GPa) = 0.01396701
#
# Stress axis : x y z
#
# Youngs Moduli (GPa) = 73.09366 80.67357 78.09629
#
# Poissons Ratio (x) = 0.43566 0.12898
# Poissons Ratio (y) = 0.39472 0.42214
# Poissons Ratio (z) = 0.12072 0.43607
#
# Static dielectric constant tensor:
#      x y z
#    x 3.437280 0.000000 -0.034540 
#    y 0.000000 8.155220 0.000000 
#    z -0.034540 0.000000 3.714540 
# 
# 
# High freq. dielectric constant tensor:
#      x y z
#    x 1.747980 0.000000 -0.006960 
#    y 0.000000 1.740880 0.000000 
#    z -0.006960 0.000000 1.765980 
# 
# From -- ./inp_files/12430.got.cif
#   From: 2010.06.25/outbox.cif.g09.slc.cpg/sg13_7_cif.got.tgz:12430.got - 2010.06.28 04:50:58.
