data_PCOD8120803
_publ_section_title
;
Structure prediction by ZEFSAII (Michael W. Deem and Ramdas Pophale) SiO2 
 PCOD8120803
Probable space group: P 2/C
;
_chemical_formula_sum "Si O2"
_cell_formula_units_Z 28
_cell_length_a 25.818181
_cell_length_b 8.746631
_cell_length_c 9.106404
_cell_angle_alpha 90.000000
_cell_angle_beta 140.306464
_cell_angle_gamma 90.000000
_cell_volume 1313.401065
_symmetry_space_group_name_H-M "P 2/C"
_symmetry_group_IT_number 13
_symmetry_cell_setting 'monoclinic'
loop_
_space_group_symop_operation_xyz
x,y,z
-x,y,1/2-z
-x,-y,-z
x,-y,1/2+z
loop_
_atom_site_type_symbol
_atom_site_label
_atom_site_fract_x
_atom_site_fract_y
_atom_site_fract_z
Si Si1 0.463913 0.210684 0.528865
Si Si2 0.988532 0.343263 0.891894
Si Si3 0.855183 0.156368 0.234346
Si Si4 0.570964 0.870511 0.008281
Si Si5 0.278114 0.333294 0.721219
Si Si6 0.302843 0.357301 0.108970
Si Si7 0.171014 0.165085 0.978010
O O1 0.544969 0.179110 0.613531
O O2 0.396795 0.308756 0.297753
O O3 0.421022 0.052918 0.485430
O O4 0.500000 0.297944 0.750000
O O5 0.000000 0.388264 0.750000
O O6 0.898830 0.280967 0.725487
O O7 0.051952 0.210903 0.074798
O O8 0.000000 0.500000 0.000000
O O9 0.825516 0.144785 0.338396
O O10 0.845908 0.994954 0.136015
O O11 0.805027 0.280918 0.033962
O O12 0.657070 0.802061 0.152427
O O13 0.500000 0.807025 0.750000
O O14 0.306606 0.481819 0.697803
O O15 0.263756 0.370459 0.861806
O O16 0.255169 0.234848 0.104315
#
# Coordination Sequence:
#
# PCOD8120803 Si02
#       7
#     4   4   4   4   4   4   4
#     4  10  23  39  67  91 123 162 214 260 319 382
#     4  10  23  42  66  98 133 170 210 257 314 373
#     4  11  24  43  68  97 128 169 213 262 314 377
#     4  10  21  43  63  90 122 165 209 262 318 379
#     4  12  26  42  64  90 131 167 215 264 322 379
#     4  12  26  43  61  94 128 170 212 266 321 378
#     4  11  24  43  68  96 130 167 215 261 315 375
#
# _framework density 21.318697
#
# number of rings (size 3 to 8) (size 9 to 14) (size 15 to 20)
#    0.000    1.143    1.429    3.857    4.000    5.714 
#    0.000    0.000    0.000    0.000    0.000    0.000 
#    0.000    0.000    0.000    0.000    0.000    0.000 
#
# Total GULP energy -347277.248905 kJ/mol
# GULP energy per Si atom -12402.758889 kJ/mol
# Density = 2.127017 g / cm^3
# Si number density = 21.318697 Si / 1000 Ang^3
#
#
#
# Elastic Constant Matrix: (Units=GPa)
#
#
# Indices 1 2 3 4 5 6 
#
# 1 77.2523 16.9052 26.7145 0.0000 -14.0436 0.0000
# 2 16.9052 91.0337 18.8780 0.0000 -11.6897 0.0000
# 3 26.7145 18.8780 111.3799 0.0000 -21.0300 0.0000
# 4 0.0000 0.0000 0.0000 32.7930 0.0000 -3.7408
# 5 -14.0436 -11.6897 -21.0300 0.0000 38.9939 0.0000
# 6 0.0000 0.0000 0.0000 -3.7408 0.0000 21.0589
#
#
#
# Elastic Compliance Matrix: (Units=1/GPa)
#
#
# Indices 1 2 3 4 5 6 
#
# 1 0.014859 -0.001779 -0.002619 0.000000 0.003405 0.000000
# 2 -0.001779 0.011848 -0.001149 0.000000 0.002292 0.000000
# 3 -0.002619 -0.001149 0.010642 0.000000 0.004452 0.000000
# 4 0.000000 0.000000 0.000000 0.031125 0.000000 0.005529
# 5 0.003405 0.002292 0.004452 0.000000 0.029959 0.000000
# 6 0.000000 0.000000 0.000000 0.005529 0.000000 0.048468
#
#
# Mechanical properties :
#
#
# Convention : Reuss Voigt Hill
#
# Bulk Modulus (GPa) = 38.08902 44.96236 41.52569
# Shear Modulus (GPa) = 29.98577 33.04705 31.51641
#
# Velocity S-wave (km/s) = 3.75447 3.94146 3.84910
# Velocity P-wave (km/s) = 6.05805 6.46914 6.26697
#
# Compressibility (1/GPa) = 0.02625429
#
# Stress axis : x y z
#
# Youngs Moduli (GPa) = 67.30049 84.40417 93.96949
#
# Poissons Ratio (x) = 0.15014 0.24614
# Poissons Ratio (y) = 0.11972 0.10795
# Poissons Ratio (z) = 0.17629 0.09696
#
# Static dielectric constant tensor:
#      x y z
#    x 3.957940 0.000000 0.002580 
#    y 0.000000 3.827030 0.000000 
#    z 0.002580 0.000000 4.271580 
# 
# 
# High freq. dielectric constant tensor:
#      x y z
#    x 1.840730 0.000000 -0.006320 
#    y 0.000000 1.836890 0.000000 
#    z -0.006320 0.000000 1.852390 
# 
# From -- ./inp_files/24593.got.cif
#   From: 2010.06.25/outbox.cif.g09.slc.cpg/sg13_13_cif.got.tgz:24593.got - 2010.06.28 04:50:58.
