data_PCOD8120741
_publ_section_title
;
Structure prediction by ZEFSAII (Michael W. Deem and Ramdas Pophale) SiO2 
 PCOD8120741
Probable space group: P 2/C
;
_chemical_formula_sum "Si O2"
_cell_formula_units_Z 24
_cell_length_a 11.368784
_cell_length_b 11.724778
_cell_length_c 17.117252
_cell_angle_alpha 90.000000
_cell_angle_beta 29.228249
_cell_angle_gamma 90.000000
_cell_volume 1114.116237
_symmetry_space_group_name_H-M "P 2/C"
_symmetry_group_IT_number 13
_symmetry_cell_setting 'monoclinic'
loop_
_space_group_symop_operation_xyz
x,y,z
-x,y,1/2-z
-x,-y,-z
x,-y,1/2+z
loop_
_atom_site_type_symbol
_atom_site_label
_atom_site_fract_x
_atom_site_fract_y
_atom_site_fract_z
Si Si1 0.859522 0.696162 0.677242
Si Si2 0.110701 0.240051 0.519771
Si Si3 0.416193 0.715613 0.378201
Si Si4 0.520850 0.136359 0.074902
Si Si5 0.669811 0.895397 0.320414
Si Si6 0.830218 0.546329 0.167935
O O1 0.822993 0.736938 0.608595
O O2 0.704819 0.783461 0.819083
O O3 0.762589 0.568575 0.753923
O O4 0.135825 0.690748 0.541879
O O5 0.340607 0.205308 0.437502
O O6 0.924970 0.134832 0.633782
O O7 0.980789 0.356066 0.627782
O O8 0.500000 0.778725 0.250000
O O9 0.469199 0.800932 0.417743
O O10 0.576247 0.599695 0.287808
O O11 0.411783 0.016609 0.167659
O O12 0.691172 0.107023 0.902442
O O13 0.000000 0.500000 0.000000
#
# Coordination Sequence:
#
# PCOD8120741 Si02
#       6
#     4   4   4   4   4   4
#     4  11  23  38  66 100 119 161 207 260 310 366
#     4  10  21  42  64  92 123 161 207 258 310 367
#     4  11  20  39  64  90 127 160 203 258 310 370
#     4  11  25  40  64  90 126 161 218 251 308 381
#     4  10  24  44  61  87 123 177 199 257 318 364
#     4   9  19  36  64  94 122 164 199 248 315 366
#
# _framework density 21.541737999999999
#
# number of rings (size 3 to 8) (size 9 to 14) (size 15 to 20)
#    0.000    1.667    5.000    1.000    4.667    2.667 
#    0.000    3.333    7.333    0.000    0.000    0.000 
#    0.000    0.000    0.000    0.000    0.000    0.000 
#
# Total GULP energy -297381.268177 kJ/mol
# GULP energy per Si atom -12390.886174 kJ/mol
# Density = 2.149271 g / cm^3
# Si number density = 21.541738 Si / 1000 Ang^3
#
#
#
# Elastic Constant Matrix: (Units=GPa)
#
#
# Indices 1 2 3 4 5 6 
#
# 1 69.2696 37.2497 28.2039 0.0000 -30.7132 0.0000
# 2 37.2497 151.8390 47.5344 0.0000 -21.4719 0.0000
# 3 28.2039 47.5344 71.8993 0.0000 -28.5928 0.0000
# 4 0.0000 0.0000 0.0000 20.8828 0.0000 -5.3090
# 5 -30.7132 -21.4719 -28.5928 0.0000 36.0047 0.0000
# 6 0.0000 0.0000 0.0000 -5.3090 0.0000 19.1601
#
#
#
# Elastic Compliance Matrix: (Units=1/GPa)
#
#
# Indices 1 2 3 4 5 6 
#
# 1 0.024698 -0.003406 0.000196 0.000000 0.019193 0.000000
# 2 -0.003406 0.008793 -0.005185 0.000000 -0.001779 0.000000
# 3 0.000196 -0.005185 0.023526 0.000000 0.015758 0.000000
# 4 0.000000 0.000000 0.000000 0.051515 0.000000 0.014274
# 5 0.019193 -0.001779 0.015758 0.000000 0.055599 0.000000
# 6 0.000000 0.000000 0.000000 0.014274 0.000000 0.056147
#
#
# Mechanical properties :
#
#
# Convention : Reuss Voigt Hill
#
# Bulk Modulus (GPa) = 24.85877 57.66486 41.26181
# Shear Modulus (GPa) = 19.96192 27.21084 23.58638
#
# Velocity S-wave (km/s) = 3.04742 3.55796 3.31254
# Velocity P-wave (km/s) = 4.89359 6.61104 5.81606
#
# Compressibility (1/GPa) = 0.04022726
#
# Stress axis : x y z
#
# Youngs Moduli (GPa) = 40.48914 113.72567 42.50658
#
# Poissons Ratio (x) = 0.38739 -0.00834
# Poissons Ratio (y) = 0.13792 0.22038
# Poissons Ratio (z) = -0.00795 0.58963
#
# Static dielectric constant tensor:
#      x y z
#    x 3.773140 0.000000 -0.146170 
#    y 0.000000 4.448390 0.000000 
#    z -0.146170 0.000000 3.709700 
# 
# 
# High freq. dielectric constant tensor:
#      x y z
#    x 1.822220 0.000000 -0.020980 
#    y 0.000000 1.859280 0.000000 
#    z -0.020980 0.000000 1.838280 
# 
# From -- ./inp_files/66556.got.cif
#   From: 2010.06.25/outbox.cif.g09.slc.cpg/sg13_34_cif.got.tgz:66556.got - 2010.06.28 04:50:58.
