data_PCOD8120628
_publ_section_title
;
Structure prediction by ZEFSAII (Michael W. Deem and Ramdas Pophale) SiO2 
 PCOD8120628
Probable space group: P 2/C
;
_chemical_formula_sum "Si O2"
_cell_formula_units_Z 18
_cell_length_a 20.712455
_cell_length_b 5.053360
_cell_length_c 11.996187
_cell_angle_alpha 90.000000
_cell_angle_beta 140.399025
_cell_angle_gamma 90.000000
_cell_volume 800.372910
_symmetry_space_group_name_H-M "P 2/C"
_symmetry_group_IT_number 13
_symmetry_cell_setting 'monoclinic'
loop_
_space_group_symop_operation_xyz
x,y,z
-x,y,1/2-z
-x,-y,-z
x,-y,1/2+z
loop_
_atom_site_type_symbol
_atom_site_label
_atom_site_fract_x
_atom_site_fract_y
_atom_site_fract_z
Si Si1 0.000000 0.769815 0.250000
Si Si2 0.841329 0.061195 0.361380
Si Si3 0.893432 0.546048 0.304326
Si Si4 0.369387 0.243159 0.373913
Si Si5 0.537192 0.245562 0.416468
O O1 0.058915 0.936608 0.424855
O O2 0.087020 0.598786 0.301726
O O3 0.836767 0.270437 0.251783
O O4 0.744387 0.145756 0.306561
O O5 0.834559 0.779029 0.291711
O O6 0.000000 0.500000 0.500000
O O7 0.435589 0.212701 0.352153
O O8 0.379948 0.545868 0.427388
O O9 0.410158 0.040748 0.522782
O O10 0.500000 0.353040 0.250000
#
# Coordination Sequence:
#
# PCOD8120628 Si02
#       5
#     2   4   4   4   4
#     4  10  22  40  60  82 118 160 192 234 296 344
#     4  11  23  38  59  89 119 154 199 244 287 348
#     4  10  22  39  57  82 117 154 199 244 285 340
#     4  10  22  38  60  90 119 149 198 245 288 354
#     4  10  21  41  62  85 119 156 190 242 304 354
#
# _framework density 22.489519000000001
#
# number of rings (size 3 to 8) (size 9 to 14) (size 15 to 20)
#    0.000    1.778    0.000    4.667    0.000   11.556 
#    0.000    0.000    0.000    0.000    0.000    0.000 
#    0.000    0.000    0.000    0.000    0.000    0.000 
#
# Total GULP energy -223001.450033 kJ/mol
# GULP energy per Si atom -12388.969446 kJ/mol
# Density = 2.243833 g / cm^3
# Si number density = 22.489519 Si / 1000 Ang^3
#
#
#
# Elastic Constant Matrix: (Units=GPa)
#
#
# Indices 1 2 3 4 5 6 
#
# 1 78.3396 31.8808 34.1934 0.0000 7.5739 0.0000
# 2 31.8808 109.5515 6.6925 0.0000 7.5036 0.0000
# 3 34.1934 6.6925 58.3821 0.0000 3.4269 0.0000
# 4 0.0000 0.0000 0.0000 -302.2122 0.0000 -42.0557
# 5 7.5739 7.5036 3.4269 0.0000 39.8207 0.0000
# 6 0.0000 0.0000 0.0000 -42.0557 0.0000 16.0363
#
#
#
# Elastic Compliance Matrix: (Units=1/GPa)
#
#
# Indices 1 2 3 4 5 6 
#
# 1 0.019697 -0.004940 -0.010860 0.000000 -0.001881 0.000000
# 2 -0.004940 0.010540 0.001755 0.000000 -0.001198 0.000000
# 3 -0.010860 0.001755 0.023303 0.000000 -0.000271 0.000000
# 4 0.000000 0.000000 0.000000 -0.002424 0.000000 -0.006358
# 5 -0.001881 -0.001198 -0.000271 0.000000 0.025719 0.000000
# 6 0.000000 0.000000 0.000000 -0.006358 0.000000 0.045686
#
#
# Mechanical properties :
#
#
# Convention : Reuss Voigt Hill
#
# Bulk Modulus (GPa) = 39.28867 43.53407 41.41137
# Shear Modulus (GPa) = 31.42793 -37.70394 -3.13801
#
# Velocity S-wave (km/s) = 3.74230 -4.09896 -1.18252
# Velocity P-wave (km/s) = 6.01505 1.73277 4.07298
#
# Compressibility (1/GPa) = 0.02545263
#
# Stress axis : x y z
#
# Youngs Moduli (GPa) = 50.76910 94.87232 42.91205
#
# Poissons Ratio (x) = 0.46865 0.46601
# Poissons Ratio (y) = 0.25079 -0.07532
# Poissons Ratio (z) = 0.55133 -0.16652
#
# Static dielectric constant tensor:
#      x y z
#    x 17.238570 0.000000 -1.067370 
#    y 0.000000 6.415070 0.000000 
#    z -1.067370 0.000000 3.786810 
# 
# 
# High freq. dielectric constant tensor:
#      x y z
#    x 1.896680 0.000000 0.011410 
#    y 0.000000 1.894480 0.000000 
#    z 0.011410 0.000000 1.849440 
# 
# From -- ./inp_files/39599.got.cif
#   From: 2010.06.25/outbox.cif.g09.slc.cpg/sg13_20_cif.got.tgz:39599.got - 2010.06.28 04:50:58.
