data_PCOD8120750
_publ_section_title
;
Structure prediction by ZEFSAII (Michael W. Deem and Ramdas Pophale) SiO2 
 PCOD8120750
Probable space group: P 2/C
;
_chemical_formula_sum "Si O2"
_cell_formula_units_Z 22
_cell_length_a 23.932273
_cell_length_b 6.140462
_cell_length_c 13.417865
_cell_angle_alpha 90.000000
_cell_angle_beta 31.587635
_cell_angle_gamma 90.000000
_cell_volume 1032.846151
_symmetry_space_group_name_H-M "P 2/C"
_symmetry_group_IT_number 13
_symmetry_cell_setting 'monoclinic'
loop_
_space_group_symop_operation_xyz
x,y,z
-x,y,1/2-z
-x,-y,-z
x,-y,1/2+z
loop_
_atom_site_type_symbol
_atom_site_label
_atom_site_fract_x
_atom_site_fract_y
_atom_site_fract_z
Si Si1 0.000000 0.383911 0.250000
Si Si2 0.275736 0.667213 0.531494
Si Si3 0.188492 0.678734 0.017245
Si Si4 0.568509 0.794330 0.361783
Si Si5 0.922247 0.924488 0.703184
Si Si6 0.363939 0.567875 0.609721
O O1 0.105237 0.531356 0.081977
O O2 0.007590 0.237198 0.336616
O O3 0.243439 0.447606 0.524101
O O4 0.347138 0.833581 0.355758
O O5 0.169786 0.800818 0.717722
O O6 0.335477 0.583557 0.537976
O O7 0.127759 0.890129 0.150040
O O8 0.284414 0.727780 0.793404
O O9 0.486193 0.629562 0.436912
O O10 0.636839 0.682967 0.348375
O O11 0.500000 0.000000 0.500000
O O12 0.000000 0.000000 0.500000
#
# Coordination Sequence:
#
# PCOD8120750 Si02
#       6
#     2   4   4   4   4   4
#     4  10  24  40  62  88 130 166 218 268 328 378
#     4  10  23  40  62  98 125 167 220 263 327 389
#     4  10  23  41  62  90 129 166 213 271 327 380
#     4  10  21  42  65  94 128 166 212 263 323 387
#     4  11  25  40  64  95 127 172 225 264 326 391
#     4  10  22  39  67  90 129 166 207 266 325 381
#
# _framework density 21.300364999999999
#
# number of rings (size 3 to 8) (size 9 to 14) (size 15 to 20)
#    0.000    1.818    0.000    2.182    7.636    2.909 
#    0.000    5.455    0.000    0.000    0.000    0.000 
#    0.000    0.000    0.000    0.000    0.000    0.000 
#
# Total GULP energy -272682.106208 kJ/mol
# GULP energy per Si atom -12394.641191 kJ/mol
# Density = 2.125188 g / cm^3
# Si number density = 21.300365 Si / 1000 Ang^3
#
#
#
# Elastic Constant Matrix: (Units=GPa)
#
#
# Indices 1 2 3 4 5 6 
#
# 1 152.0090 41.7156 44.0829 0.0000 -8.8655 0.0000
# 2 41.7156 63.5368 10.8499 0.0000 2.6446 0.0000
# 3 44.0829 10.8499 98.7872 0.0000 5.5864 0.0000
# 4 0.0000 0.0000 0.0000 36.9849 0.0000 -1.6516
# 5 -8.8655 2.6446 5.5864 0.0000 28.6581 0.0000
# 6 0.0000 0.0000 0.0000 -1.6516 0.0000 17.6783
#
#
#
# Elastic Compliance Matrix: (Units=1/GPa)
#
#
# Indices 1 2 3 4 5 6 
#
# 1 0.009528 -0.005773 -0.003857 0.000000 0.004232 0.000000
# 2 -0.005773 0.019575 0.000637 0.000000 -0.003717 0.000000
# 3 -0.003857 0.000637 0.011977 0.000000 -0.003587 0.000000
# 4 0.000000 0.000000 0.000000 0.027151 0.000000 0.002537
# 5 0.004232 -0.003717 -0.003587 0.000000 0.037246 0.000000
# 6 0.000000 0.000000 0.000000 0.002537 0.000000 0.056803
#
#
# Mechanical properties :
#
#
# Convention : Reuss Voigt Hill
#
# Bulk Modulus (GPa) = 43.30391 56.40331 49.85361
# Shear Modulus (GPa) = 26.60043 31.17657 28.88850
#
# Velocity S-wave (km/s) = 3.53771 3.82994 3.68672
# Velocity P-wave (km/s) = 6.08781 6.78935 6.44813
#
# Compressibility (1/GPa) = 0.02309260
#
# Stress axis : x y z
#
# Youngs Moduli (GPa) = 104.94961 51.08428 83.49393
#
# Poissons Ratio (x) = 0.29493 0.32205
# Poissons Ratio (y) = 0.60592 -0.05315
# Poissons Ratio (z) = 0.40481 -0.03252
#
# Static dielectric constant tensor:
#      x y z
#    x 3.910600 0.000000 -0.246550 
#    y 0.000000 3.783910 0.000000 
#    z -0.246550 0.000000 4.106500 
# 
# 
# High freq. dielectric constant tensor:
#      x y z
#    x 1.837900 0.000000 -0.014740 
#    y 0.000000 1.822020 0.000000 
#    z -0.014740 0.000000 1.854770 
# 
# From -- ./inp_files/35358.got.cif
#   From: 2010.06.25/outbox.cif.g09.slc.cpg/sg13_18_cif.got.tgz:35358.got - 2010.06.28 04:50:58.
