data_PCOD8120770
_publ_section_title
;
Structure prediction by ZEFSAII (Michael W. Deem and Ramdas Pophale) SiO2 
 PCOD8120770
Probable space group: P 2/C
;
_chemical_formula_sum "Si O2"
_cell_formula_units_Z 26
_cell_length_a 22.106026
_cell_length_b 10.887102
_cell_length_c 10.258879
_cell_angle_alpha 90.000000
_cell_angle_beta 32.811499
_cell_angle_gamma 90.000000
_cell_volume 1337.899561
_symmetry_space_group_name_H-M "P 2/C"
_symmetry_group_IT_number 13
_symmetry_cell_setting 'monoclinic'
loop_
_space_group_symop_operation_xyz
x,y,z
-x,y,1/2-z
-x,-y,-z
x,-y,1/2+z
loop_
_atom_site_type_symbol
_atom_site_label
_atom_site_fract_x
_atom_site_fract_y
_atom_site_fract_z
Si Si1 0.220679 0.234458 0.029017
Si Si2 0.882467 0.972562 0.644806
Si Si3 0.566421 0.356745 0.756304
Si Si4 0.000000 0.205901 0.750000
Si Si5 0.210727 0.235535 0.750162
Si Si6 0.575508 0.643146 0.734261
Si Si7 0.010396 0.355480 0.982923
O O1 0.198242 0.092315 0.104115
O O2 0.109470 0.308438 0.259752
O O3 0.319642 0.281703 0.941085
O O4 0.253428 0.253219 0.819786
O O5 0.902695 0.882466 0.483964
O O6 0.820007 0.094270 0.714522
O O7 0.000000 0.000000 0.500000
O O8 0.500000 0.312868 0.750000
O O9 0.601554 0.498687 0.682830
O O10 0.487597 0.324408 0.019591
O O11 0.951859 0.294450 0.723362
O O12 0.309322 0.280675 0.476661
O O13 0.101426 0.318150 0.925526
O O14 0.500000 0.683715 0.750000
O O15 0.000000 0.500000 0.000000
#
# Coordination Sequence:
#
# PCOD8120770 Si02
#       7
#     4   4   4   2   4   4   4
#     4  11  23  41  65  95 127 168 222 265 325 397
#     4  11  22  42  63  93 131 177 215 263 325 397
#     4  10  22  43  68  94 131 169 217 273 330 392
#     4  10  22  40  60  84 136 170 216 252 328 398
#     4  12  23  40  69  93 128 176 216 268 330 396
#     4  10  21  42  67  95 128 172 216 266 333 391
#     4  11  25  39  61  99 133 164 214 279 336 394
#
# _framework density 19.433446
#
# number of rings (size 3 to 8) (size 9 to 14) (size 15 to 20)
#    0.000    1.231    4.615    2.308    2.154    2.462 
#    0.000    1.538    0.000    0.000    0.000    0.000 
#    0.000    0.000    0.000    0.000    0.000    0.000 
#
# Total GULP energy -322453.757367 kJ/mol
# GULP energy per Si atom -12402.067591 kJ/mol
# Density = 1.938921 g / cm^3
# Si number density = 19.433446 Si / 1000 Ang^3
#
#
#
# Elastic Constant Matrix: (Units=GPa)
#
#
# Indices 1 2 3 4 5 6 
#
# 1 122.3802 43.2256 57.3731 0.0000 -6.4834 0.0000
# 2 43.2256 124.2468 47.3782 0.0000 -8.5774 0.0000
# 3 57.3731 47.3782 108.7946 0.0000 -5.9706 0.0000
# 4 0.0000 0.0000 0.0000 39.4293 0.0000 -2.5389
# 5 -6.4834 -8.5774 -5.9706 0.0000 39.7410 0.0000
# 6 0.0000 0.0000 0.0000 -2.5389 0.0000 32.1868
#
#
#
# Elastic Compliance Matrix: (Units=1/GPa)
#
#
# Indices 1 2 3 4 5 6 
#
# 1 0.011264 -0.001945 -0.005057 0.000000 0.000658 0.000000
# 2 -0.001945 0.010072 -0.003286 0.000000 0.001363 0.000000
# 3 -0.005057 -0.003286 0.013315 0.000000 0.000466 0.000000
# 4 0.000000 0.000000 0.000000 0.025491 0.000000 0.002011
# 5 0.000658 0.001363 0.000466 0.000000 0.025635 0.000000
# 6 0.000000 0.000000 0.000000 0.002011 0.000000 0.031227
#
#
# Mechanical properties :
#
#
# Convention : Reuss Voigt Hill
#
# Bulk Modulus (GPa) = 71.04482 72.37503 71.70993
# Shear Modulus (GPa) = 35.14416 36.10106 35.62261
#
# Velocity S-wave (km/s) = 4.25719 4.31475 4.28607
# Velocity P-wave (km/s) = 7.79758 7.88328 7.84055
#
# Compressibility (1/GPa) = 0.01407562
#
# Stress axis : x y z
#
# Youngs Moduli (GPa) = 88.77995 99.28329 75.10390
#
# Poissons Ratio (x) = 0.19310 0.37979
# Poissons Ratio (y) = 0.17267 0.24678
# Poissons Ratio (z) = 0.44895 0.32622
#
# Static dielectric constant tensor:
#      x y z
#    x 3.741190 0.000000 0.320430 
#    y 0.000000 3.224290 0.000000 
#    z 0.320430 0.000000 3.799010 
# 
# 
# High freq. dielectric constant tensor:
#      x y z
#    x 1.760460 0.000000 0.008930 
#    y 0.000000 1.756390 0.000000 
#    z 0.008930 0.000000 1.757870 
# 
# From -- ./inp_files/23310.got.cif
#   From: 2010.06.25/outbox.cif.g09.slc.cpg/sg13_12_cif.got.tgz:23310.got - 2010.06.28 04:50:58.
