data_PCOD8120412
_publ_section_title
;
Structure prediction by ZEFSAII (Michael W. Deem and Ramdas Pophale) SiO2 
 PCOD8120412
Probable space group: P 2/C
;
_chemical_formula_sum "Si O2"
_cell_formula_units_Z 28
_cell_length_a 27.419702
_cell_length_b 9.889547
_cell_length_c 27.231566
_cell_angle_alpha 90.000000
_cell_angle_beta 169.278459
_cell_angle_gamma 90.000000
_cell_volume 1373.753468
_symmetry_space_group_name_H-M "P 2/C"
_symmetry_group_IT_number 13
_symmetry_cell_setting 'monoclinic'
loop_
_space_group_symop_operation_xyz
x,y,z
-x,y,1/2-z
-x,-y,-z
x,-y,1/2+z
loop_
_atom_site_type_symbol
_atom_site_label
_atom_site_fract_x
_atom_site_fract_y
_atom_site_fract_z
Si Si1 0.983623 0.904767 0.937698
Si Si2 0.014092 0.333761 0.207989
Si Si3 0.862161 0.458139 0.750514
Si Si4 0.812060 0.385888 0.294038
Si Si5 0.479723 0.000225 0.880057
Si Si6 0.619834 0.689519 0.701309
Si Si7 0.487694 0.846579 0.293900
O O1 0.956367 0.755709 0.931603
O O2 0.753932 0.956748 0.674959
O O3 0.257624 0.899661 0.180311
O O4 0.000000 0.000000 0.000000
O O5 0.000000 0.383976 0.250000
O O6 0.036756 0.468324 0.198041
O O7 0.261231 0.239862 0.443173
O O8 0.759856 0.249257 0.941462
O O9 0.737893 0.567405 0.665796
O O10 0.612199 0.362650 0.492751
O O11 0.096582 0.364036 0.001784
O O12 0.577717 0.361174 0.102381
O O13 0.000000 0.500000 0.500000
O O14 0.486941 0.021774 0.828189
O O15 0.389214 0.850536 0.804586
O O16 0.500000 0.898833 0.250000
#
# Coordination Sequence:
#
# PCOD8120412 Si02
#       7
#     4   4   4   4   4   4   4
#     4  12  25  41  63  90 123 167 213 251 308 375
#     4  10  21  40  65  92 121 153 204 263 312 365
#     4  11  22  39  59  87 119 158 206 240 314 360
#     4  10  23  39  60  87 122 160 202 254 303 364
#     4  12  24  41  63  87 128 163 212 255 315 365
#     4  11  24  38  58  87 124 164 197 251 298 372
#     4  10  21  39  64  92 118 155 202 260 317 365
#
# _framework density 20.382113
#
# number of rings (size 3 to 8) (size 9 to 14) (size 15 to 20)
#    0.000    1.143    1.429    5.143    2.000    3.429 
#    0.000    1.429    0.000    0.000    0.000    0.000 
#    0.000    0.000    0.000    0.000    0.000    0.000 
#
# Total GULP energy -347127.922323 kJ/mol
# GULP energy per Si atom -12397.425797 kJ/mol
# Density = 2.033572 g / cm^3
# Si number density = 20.382113 Si / 1000 Ang^3
#
#
#
# Elastic Constant Matrix: (Units=GPa)
#
#
# Indices 1 2 3 4 5 6 
#
# 1 119.7518 43.5015 18.4842 0.0000 5.1243 0.0000
# 2 43.5015 103.4002 16.6988 0.0000 -2.1090 0.0000
# 3 18.4842 16.6988 103.3823 0.0000 3.7748 0.0000
# 4 0.0000 0.0000 0.0000 8.2407 0.0000 10.9674
# 5 5.1243 -2.1090 3.7748 0.0000 37.3677 0.0000
# 6 0.0000 0.0000 0.0000 10.9674 0.0000 33.8713
#
#
#
# Elastic Compliance Matrix: (Units=1/GPa)
#
#
# Indices 1 2 3 4 5 6 
#
# 1 0.010069 -0.004091 -0.001084 0.000000 -0.001502 0.000000
# 2 -0.004091 0.011612 -0.001193 0.000000 0.001337 0.000000
# 3 -0.001084 -0.001193 0.010094 0.000000 -0.000938 0.000000
# 4 0.000000 0.000000 0.000000 0.213243 0.000000 -0.069047
# 5 -0.001502 0.001337 -0.000938 0.000000 0.027137 0.000000
# 6 0.000000 0.000000 0.000000 -0.069047 0.000000 0.051881
#
#
# Mechanical properties :
#
#
# Convention : Reuss Voigt Hill
#
# Bulk Modulus (GPa) = 52.52973 53.76702 53.14838
# Shear Modulus (GPa) = 14.57221 32.41926 23.49573
#
# Velocity S-wave (km/s) = 2.67676 3.99253 3.39892
# Velocity P-wave (km/s) = 5.94826 6.90583 6.44485
#
# Compressibility (1/GPa) = 0.01903684
#
# Stress axis : x y z
#
# Youngs Moduli (GPa) = 99.31915 86.11484 99.07175
#
# Poissons Ratio (x) = 0.35233 0.10744
# Poissons Ratio (y) = 0.40636 0.11819
# Poissons Ratio (z) = 0.10771 0.10273
#
# Static dielectric constant tensor:
#      x y z
#    x 4.282080 0.000000 0.670300 
#    y 0.000000 3.608940 0.000000 
#    z 0.670300 0.000000 4.886680 
# 
# 
# High freq. dielectric constant tensor:
#      x y z
#    x 1.800340 0.000000 0.011830 
#    y 0.000000 1.795110 0.000000 
#    z 0.011830 0.000000 1.805720 
# 
# From -- ./inp_files/98105.got.cif
#   From: 2010.06.25/outbox.cif.g09.slc.cpg/sg13_50_cif.got.tgz:98105.got - 2010.06.28 04:50:58.
