data_PCOD8120366
_publ_section_title
;
Structure prediction by ZEFSAII (Michael W. Deem and Ramdas Pophale) SiO2 
 PCOD8120366
Probable space group: P 2/C
;
_chemical_formula_sum "Si O2"
_cell_formula_units_Z 26
_cell_length_a 8.003960
_cell_length_b 8.434963
_cell_length_c 24.203776
_cell_angle_alpha 90.000000
_cell_angle_beta 52.870978
_cell_angle_gamma 90.000000
_cell_volume 1302.810204
_symmetry_space_group_name_H-M "P 2/C"
_symmetry_group_IT_number 13
_symmetry_cell_setting 'monoclinic'
loop_
_space_group_symop_operation_xyz
x,y,z
-x,y,1/2-z
-x,-y,-z
x,-y,1/2+z
loop_
_atom_site_type_symbol
_atom_site_label
_atom_site_fract_x
_atom_site_fract_y
_atom_site_fract_z
Si Si1 0.417946 0.983768 0.694078
Si Si2 0.488370 0.250437 0.496713
Si Si3 0.240794 0.988360 0.609369
Si Si4 0.500000 0.308107 0.250000
Si Si5 0.197701 0.878667 0.336758
Si Si6 0.822875 0.524801 0.119484
Si Si7 0.267512 0.492777 0.985935
O O1 0.403090 0.804740 0.721529
O O2 0.278787 0.996323 0.667307
O O3 0.665455 0.036834 0.641044
O O4 0.324863 0.114404 0.754313
O O5 0.392192 0.114144 0.552202
O O6 0.548856 0.387780 0.526362
O O7 0.320398 0.321569 0.486491
O O8 0.690424 0.186560 0.423502
O O9 0.008071 0.017511 0.634354
O O10 0.687210 0.416005 0.187918
O O11 0.143448 0.697212 0.360393
O O12 0.048144 0.447819 0.059385
O O13 0.712339 0.543068 0.082706
#
# Coordination Sequence:
#
# PCOD8120366 Si02
#       7
#     4   4   4   2   4   4   4
#     4  10  23  39  62  88 122 156 201 254 299 362
#     4  10  22  38  59  87 119 156 204 249 297 365
#     4  11  21  40  62  88 120 159 199 253 300 355
#     4  10  22  38  64  92 120 158 206 258 304 366
#     4  10  21  39  61  88 118 159 201 243 303 362
#     4  11  21  39  63  88 120 161 199 247 311 359
#     4  10  22  39  60  87 124 158 197 253 302 360
#
# _framework density 19.956859999999999
#
# number of rings (size 3 to 8) (size 9 to 14) (size 15 to 20)
#    0.000    1.846    1.538    3.231    4.308    0.000 
#    0.000    2.308    0.000    0.000    0.000    0.000 
#    0.000    0.000    0.000    0.000    0.000    0.000 
#
# Total GULP energy -322187.644701 kJ/mol
# GULP energy per Si atom -12391.832489 kJ/mol
# Density = 1.991144 g / cm^3
# Si number density = 19.956860 Si / 1000 Ang^3
#
#
#
# Elastic Constant Matrix: (Units=GPa)
#
#
# Indices 1 2 3 4 5 6 
#
# 1 95.9434 33.0410 37.6034 0.0000 1.8669 0.0000
# 2 33.0410 66.3053 24.5247 0.0000 5.3756 0.0000
# 3 37.6034 24.5247 76.9040 0.0000 -0.8891 0.0000
# 4 0.0000 0.0000 0.0000 22.5869 0.0000 -9.7467
# 5 1.8669 5.3756 -0.8891 0.0000 27.3821 0.0000
# 6 0.0000 0.0000 0.0000 -9.7467 0.0000 26.6036
#
#
#
# Elastic Compliance Matrix: (Units=1/GPa)
#
#
# Indices 1 2 3 4 5 6 
#
# 1 0.014290 -0.005130 -0.005353 0.000000 -0.000141 0.000000
# 2 -0.005130 0.019289 -0.003684 0.000000 -0.003557 0.000000
# 3 -0.005353 -0.003684 0.016815 0.000000 0.001634 0.000000
# 4 0.000000 0.000000 0.000000 0.052587 0.000000 0.019266
# 5 -0.000141 -0.003557 0.001634 0.000000 0.037281 0.000000
# 6 0.000000 0.000000 0.000000 0.019266 0.000000 0.044648
#
#
# Mechanical properties :
#
#
# Convention : Reuss Voigt Hill
#
# Bulk Modulus (GPa) = 45.33149 47.72122 46.52636
# Shear Modulus (GPa) = 22.66578 24.91342 23.78960
#
# Velocity S-wave (km/s) = 3.37373 3.53705 3.45636
# Velocity P-wave (km/s) = 6.15955 6.37535 6.26838
#
# Compressibility (1/GPa) = 0.02205972
#
# Stress axis : x y z
#
# Youngs Moduli (GPa) = 69.97814 51.84319 59.47241
#
# Poissons Ratio (x) = 0.26593 0.31837
# Poissons Ratio (y) = 0.35896 0.21911
# Poissons Ratio (z) = 0.37461 0.19100
#
# Static dielectric constant tensor:
#      x y z
#    x 3.781510 0.000000 -0.096830 
#    y 0.000000 3.773540 0.000000 
#    z -0.096830 0.000000 3.684550 
# 
# 
# High freq. dielectric constant tensor:
#      x y z
#    x 1.784730 0.000000 -0.004000 
#    y 0.000000 1.781150 0.000000 
#    z -0.004000 0.000000 1.773010 
# 
# From -- ./inp_files/84728.got.cif
#   From: 2010.06.25/outbox.cif.g09.slc.cpg/sg13_43_cif.got.tgz:84728.got - 2010.06.28 04:50:58.
