data_PCOD8120919
_publ_section_title
;
Structure prediction by ZEFSAII (Michael W. Deem and Ramdas Pophale) SiO2 
 PCOD8120919
Probable space group: P 2/C
;
_chemical_formula_sum "Si O2"
_cell_formula_units_Z 22
_cell_length_a 8.107537
_cell_length_b 14.075816
_cell_length_c 9.933810
_cell_angle_alpha 90.000000
_cell_angle_beta 102.202326
_cell_angle_gamma 90.000000
_cell_volume 1108.036213
_symmetry_space_group_name_H-M "P 2/C"
_symmetry_group_IT_number 13
_symmetry_cell_setting 'monoclinic'
loop_
_space_group_symop_operation_xyz
x,y,z
-x,y,1/2-z
-x,-y,-z
x,-y,1/2+z
loop_
_atom_site_type_symbol
_atom_site_label
_atom_site_fract_x
_atom_site_fract_y
_atom_site_fract_z
Si Si1 0.208887 0.926999 0.156328
Si Si2 0.890123 0.532581 0.106475
Si Si3 0.833449 0.100100 0.540901
Si Si4 0.500000 0.796291 0.250000
Si Si5 0.424843 0.569177 0.877823
Si Si6 0.345154 0.708909 0.472296
O O1 0.217042 0.939725 0.320129
O O2 0.367837 0.861312 0.142421
O O3 0.034121 0.879390 0.076648
O O4 0.224120 0.027650 0.084731
O O5 0.777089 0.444222 0.144277
O O6 0.783441 0.622176 0.038298
O O7 0.000000 0.568843 0.250000
O O8 0.000000 0.500000 0.000000
O O9 0.739065 0.196587 0.482639
O O10 0.393582 0.727654 0.326780
O O11 0.500000 0.534024 0.750000
O O12 0.500000 0.500000 0.000000
O O13 0.485697 0.677927 0.916511
#
# Coordination Sequence:
#
# PCOD8120919 Si02
#       6
#     4   4   4   2   4   4
#     4   9  19  36  61  84 126 153 204 239 309 351
#     4  11  24  38  65  87 120 161 199 252 312 367
#     4   9  19  39  60  88 118 163 198 248 295 363
#     4  10  22  36  60  96 114 164 204 246 302 366
#     4  10  22  42  61  86 121 158 197 254 310 363
#     4  10  23  36  63  89 122 154 211 247 299 365
#
# _framework density 19.854946000000002
#
# number of rings (size 3 to 8) (size 9 to 14) (size 15 to 20)
#    0.000    2.182    0.000    2.182   12.727    2.909 
#    4.909    0.000   16.000    0.000    0.000    0.000 
#    0.000    0.000    0.000    0.000    0.000    0.000 
#
# Total GULP energy -272682.476221 kJ/mol
# GULP energy per Si atom -12394.658010 kJ/mol
# Density = 1.980976 g / cm^3
# Si number density = 19.854946 Si / 1000 Ang^3
#
#
#
# Elastic Constant Matrix: (Units=GPa)
#
#
# Indices 1 2 3 4 5 6 
#
# 1 112.9461 58.3313 33.2679 0.0000 -21.4854 0.0000
# 2 58.3313 123.6777 44.6861 0.0000 -9.0305 0.0000
# 3 33.2679 44.6861 84.6588 0.0000 -11.6390 0.0000
# 4 0.0000 0.0000 0.0000 31.5188 0.0000 2.5643
# 5 -21.4854 -9.0305 -11.6390 0.0000 28.1884 0.0000
# 6 0.0000 0.0000 0.0000 2.5643 0.0000 41.8384
#
#
#
# Elastic Compliance Matrix: (Units=1/GPa)
#
#
# Indices 1 2 3 4 5 6 
#
# 1 0.013528 -0.005279 -0.001425 0.000000 0.008031 0.000000
# 2 -0.005279 0.012082 -0.004584 0.000000 -0.002046 0.000000
# 3 -0.001425 -0.004584 0.015310 0.000000 0.003766 0.000000
# 4 0.000000 0.000000 0.000000 0.031886 0.000000 -0.001954
# 5 0.008031 -0.002046 0.003766 0.000000 0.042497 0.000000
# 6 0.000000 0.000000 0.000000 -0.001954 0.000000 0.024021
#
#
# Mechanical properties :
#
#
# Convention : Reuss Voigt Hill
#
# Bulk Modulus (GPa) = 54.51767 65.98369 60.25068
# Shear Modulus (GPa) = 29.75928 32.64229 31.20078
#
# Velocity S-wave (km/s) = 3.87568 4.05907 3.96844
# Velocity P-wave (km/s) = 6.89532 7.43459 7.17003
#
# Compressibility (1/GPa) = 0.01834268
#
# Stress axis : x y z
#
# Youngs Moduli (GPa) = 73.92306 82.76647 65.31749
#
# Poissons Ratio (x) = 0.43690 0.09310
# Poissons Ratio (y) = 0.39022 0.29944
# Poissons Ratio (z) = 0.10537 0.37943
#
# Static dielectric constant tensor:
#      x y z
#    x 4.553550 0.000000 0.130300 
#    y 0.000000 3.702250 0.000000 
#    z 0.130300 0.000000 3.610500 
# 
# 
# High freq. dielectric constant tensor:
#      x y z
#    x 1.790630 0.000000 -0.001380 
#    y 0.000000 1.759690 0.000000 
#    z -0.001380 0.000000 1.766540 
# 
# From -- ./inp_files/12557.got.cif
#   From: 2010.06.25/outbox.cif.g09.slc.cpg/sg13_7_cif.got.tgz:12557.got - 2010.06.28 04:50:58.
