data_PCOD8120075
_publ_section_title
;
Structure prediction by ZEFSAII (Michael W. Deem and Ramdas Pophale) SiO2 
 PCOD8120075
Probable space group: P 2/C
;
_chemical_formula_sum "Si O2"
_cell_formula_units_Z 30
_cell_length_a 23.024888
_cell_length_b 8.114986
_cell_length_c 15.051417
_cell_angle_alpha 90.000000
_cell_angle_beta 28.246389
_cell_angle_gamma 90.000000
_cell_volume 1330.963961
_symmetry_space_group_name_H-M "P 2/C"
_symmetry_group_IT_number 13
_symmetry_cell_setting 'monoclinic'
loop_
_space_group_symop_operation_xyz
x,y,z
-x,y,1/2-z
-x,-y,-z
x,-y,1/2+z
loop_
_atom_site_type_symbol
_atom_site_label
_atom_site_fract_x
_atom_site_fract_y
_atom_site_fract_z
Si Si1 0.759589 0.957076 0.850908
Si Si2 0.342884 0.604406 0.147333
Si Si3 0.000000 0.328852 0.250000
Si Si4 0.853130 0.873886 0.068751
Si Si5 0.641070 0.380417 0.538124
Si Si6 0.481233 0.864386 0.873771
Si Si7 0.754984 0.464227 0.050107
Si Si8 0.253368 0.084727 0.445992
O O1 0.864501 0.991130 0.633514
O O2 0.736055 0.771274 0.913243
O O3 0.632325 0.011221 0.974944
O O4 0.801849 0.056924 0.881128
O O5 0.228343 0.724778 0.283072
O O6 0.341710 0.537604 0.248769
O O7 0.342146 0.451389 0.082250
O O8 0.464262 0.712460 0.964672
O O9 0.979220 0.211172 0.365031
O O10 0.883899 0.442649 0.385630
O O11 0.798713 0.958179 0.054345
O O12 0.500000 0.329988 0.750000
O O13 0.691518 0.513733 0.540468
O O14 0.500000 0.787667 0.750000
O O15 0.601979 0.958977 0.743750
O O16 0.776726 0.271828 0.040256
#
# Coordination Sequence:
#
# PCOD8120075 Si02
#       8
#     4   4   2   4   4   4   4   4
#     4  10  21  37  59  90 124 163 205 246 302 370
#     4  10  21  37  58  90 126 165 205 248 309 371
#     4  10  24  46  64  88 122 162 212 270 316 358
#     4  10  22  41  63  85 120 161 210 261 304 365
#     4  12  23  39  64  97 134 166 202 251 309 371
#     4   9  18  34  55  85 126 161 198 245 298 370
#     4  11  24  41  62  89 124 162 208 262 313 366
#     4  11  21  38  61  88 120 160 203 251 310 369
#
# _framework density 22.540054000000001
#
# number of rings (size 3 to 8) (size 9 to 14) (size 15 to 20)
#    0.000    1.600    0.000    7.200    0.000    5.867 
#    0.000    8.667    0.000    0.000    0.000    0.000 
#    0.000    0.000    0.000    0.000    0.000    0.000 
#
# Total GULP energy -371877.795833 kJ/mol
# GULP energy per Si atom -12395.926528 kJ/mol
# Density = 2.248875 g / cm^3
# Si number density = 22.540054 Si / 1000 Ang^3
#
#
#
# Elastic Constant Matrix: (Units=GPa)
#
#
# Indices 1 2 3 4 5 6 
#
# 1 66.2181 7.5223 20.4177 0.0000 13.0710 0.0000
# 2 7.5223 89.1980 21.6600 0.0000 7.0043 0.0000
# 3 20.4177 21.6600 82.2035 0.0000 21.4201 0.0000
# 4 0.0000 0.0000 0.0000 28.9777 0.0000 7.0005
# 5 13.0710 7.0043 21.4201 0.0000 26.5404 0.0000
# 6 0.0000 0.0000 0.0000 7.0005 0.0000 37.5857
#
#
#
# Elastic Compliance Matrix: (Units=1/GPa)
#
#
# Indices 1 2 3 4 5 6 
#
# 1 0.017168 -0.000337 -0.002527 0.000000 -0.006327 0.000000
# 2 -0.000337 0.011997 -0.002907 0.000000 -0.000654 0.000000
# 3 -0.002527 -0.002907 0.016505 0.000000 -0.011310 0.000000
# 4 0.000000 0.000000 0.000000 0.036135 0.000000 -0.006730
# 5 -0.006327 -0.000654 -0.011310 0.000000 0.050094 0.000000
# 6 0.000000 0.000000 0.000000 -0.006730 0.000000 0.027859
#
#
# Mechanical properties :
#
#
# Convention : Reuss Voigt Hill
#
# Bulk Modulus (GPa) = 29.30138 37.42440 33.36289
# Shear Modulus (GPa) = 27.37070 31.15540 29.26305
#
# Velocity S-wave (km/s) = 3.48848 3.72186 3.60706
# Velocity P-wave (km/s) = 5.40869 5.92530 5.67288
#
# Compressibility (1/GPa) = 0.03412808
#
# Stress axis : x y z
#
# Youngs Moduli (GPa) = 58.24832 83.35636 60.58616
#
# Poissons Ratio (x) = 0.02813 0.15308
# Poissons Ratio (y) = 0.01966 0.17612
# Poissons Ratio (z) = 0.14717 0.24231
#
# Static dielectric constant tensor:
#      x y z
#    x 3.785620 0.000000 0.315350 
#    y 0.000000 4.085630 0.000000 
#    z 0.315350 0.000000 4.389710 
# 
# 
# High freq. dielectric constant tensor:
#      x y z
#    x 1.870800 0.000000 0.023230 
#    y 0.000000 1.894620 0.000000 
#    z 0.023230 0.000000 1.891570 
# 
# From -- ./inp_files/58671.got.cif
#   From: 2010.06.25/outbox.cif.g09.slc.cpg/sg13_30_cif.got.tgz:58671.got - 2010.06.28 04:50:58.
