data_PCOD8120840
_publ_section_title
;
Structure prediction by ZEFSAII (Michael W. Deem and Ramdas Pophale) SiO2 
 PCOD8120840
Probable space group: P 2/C
;
_chemical_formula_sum "Si O2"
_cell_formula_units_Z 28
_cell_length_a 14.170651
_cell_length_b 13.023516
_cell_length_c 8.711062
_cell_angle_alpha 90.000000
_cell_angle_beta 120.121836
_cell_angle_gamma 90.000000
_cell_volume 1390.545785
_symmetry_space_group_name_H-M "P 2/C"
_symmetry_group_IT_number 13
_symmetry_cell_setting 'monoclinic'
loop_
_space_group_symop_operation_xyz
x,y,z
-x,y,1/2-z
-x,-y,-z
x,-y,1/2+z
loop_
_atom_site_type_symbol
_atom_site_label
_atom_site_fract_x
_atom_site_fract_y
_atom_site_fract_z
Si Si1 0.487453 0.217386 0.559676
Si Si2 0.394192 0.047927 0.261129
Si Si3 0.064309 0.582152 0.955612
Si Si4 0.891487 0.728873 0.252431
Si Si5 0.693471 0.135120 0.608612
Si Si6 0.604087 0.569281 0.611775
Si Si7 0.253404 0.546705 0.496403
O O1 0.500000 0.195583 0.750000
O O2 0.427176 0.122349 0.427950
O O3 0.607044 0.227010 0.576594
O O4 0.417711 0.319816 0.479059
O O5 0.500000 0.011649 0.250000
O O6 0.332112 0.953159 0.288115
O O7 0.314262 0.102347 0.075604
O O8 0.000000 0.607668 0.750000
O O9 0.071904 0.687946 0.053012
O O10 0.184426 0.538839 0.028215
O O11 0.000000 0.500000 0.000000
O O12 0.817087 0.827492 0.226816
O O13 0.000000 0.761884 0.250000
O O14 0.823004 0.643581 0.103176
O O15 0.500000 0.500000 0.500000
O O16 0.639986 0.581836 0.818635
O O17 0.706316 0.511915 0.620793
#
# Coordination Sequence:
#
# PCOD8120840 Si02
#       7
#     4   4   4   4   4   4   4
#     4  11  22  38  61  94 130 167 217 256 313 394
#     4  10  21  43  69  93 125 167 210 262 324 398
#     4  12  21  42  66  90 123 166 225 265 298 375
#     4  12  25  42  66  95 124 167 222 270 319 380
#     4  11  23  42  67  94 123 163 211 272 328 377
#     4  12  25  37  55  93 138 176 207 256 314 380
#     4  12  22  40  60  86 131 177 209 253 313 370
#
# _framework density 20.135978999999999
#
# number of rings (size 3 to 8) (size 9 to 14) (size 15 to 20)
#    0.000    0.571    4.286    6.000    2.000    2.286 
#    0.000    0.714    0.000    0.000    0.000    0.000 
#    0.000    0.000    0.000    0.000    0.000    0.000 
#
# Total GULP energy -347190.446476 kJ/mol
# GULP energy per Si atom -12399.658803 kJ/mol
# Density = 2.009015 g / cm^3
# Si number density = 20.135979 Si / 1000 Ang^3
#
#
#
# Elastic Constant Matrix: (Units=GPa)
#
#
# Indices 1 2 3 4 5 6 
#
# 1 120.2773 59.7148 43.0288 0.0000 8.0482 0.0000
# 2 59.7148 102.1503 52.8264 0.0000 0.5327 0.0000
# 3 43.0288 52.8264 171.1952 0.0000 -6.1740 0.0000
# 4 0.0000 0.0000 0.0000 28.2132 0.0000 6.4605
# 5 8.0482 0.5327 -6.1740 0.0000 31.6663 0.0000
# 6 0.0000 0.0000 0.0000 6.4605 0.0000 36.4816
#
#
#
# Elastic Compliance Matrix: (Units=1/GPa)
#
#
# Indices 1 2 3 4 5 6 
#
# 1 0.012172 -0.006493 -0.001172 0.000000 -0.003213 0.000000
# 2 -0.006493 0.015137 -0.003010 0.000000 0.000809 0.000000
# 3 -0.001172 -0.003010 0.007127 0.000000 0.001738 0.000000
# 4 0.000000 0.000000 0.000000 0.036943 0.000000 -0.006542
# 5 -0.003213 0.000809 0.001738 0.000000 0.032721 0.000000
# 6 0.000000 0.000000 0.000000 -0.006542 0.000000 0.028570
#
#
# Mechanical properties :
#
#
# Convention : Reuss Voigt Hill
#
# Bulk Modulus (GPa) = 76.40731 78.30698 77.35714
# Shear Modulus (GPa) = 31.56951 35.14239 33.35595
#
# Velocity S-wave (km/s) = 3.96386 4.18216 4.07447
# Velocity P-wave (km/s) = 7.67969 7.89266 7.78690
#
# Compressibility (1/GPa) = 0.01308775
#
# Stress axis : x y z
#
# Youngs Moduli (GPa) = 82.15786 66.06198 140.30659
#
# Poissons Ratio (x) = 0.42892 0.16439
# Poissons Ratio (y) = 0.53342 0.42231
# Poissons Ratio (z) = 0.09626 0.19884
#
# Static dielectric constant tensor:
#      x y z
#    x 3.960210 0.000000 -0.112860 
#    y 0.000000 4.398850 0.000000 
#    z -0.112860 0.000000 3.679450 
# 
# 
# High freq. dielectric constant tensor:
#      x y z
#    x 1.784090 0.000000 -0.011010 
#    y 0.000000 1.771530 0.000000 
#    z -0.011010 0.000000 1.804320 
# 
# From -- ./inp_files/19123.got.cif
#   From: 2010.06.25/outbox.cif.g09.slc.cpg/sg13_10_cif.got.tgz:19123.got - 2010.06.28 04:50:58.
