data_PCOD8120742
_publ_section_title
;
Structure prediction by ZEFSAII (Michael W. Deem and Ramdas Pophale) SiO2 
 PCOD8120742
Probable space group: P 2/C
;
_chemical_formula_sum "Si O2"
_cell_formula_units_Z 24
_cell_length_a 12.411718
_cell_length_b 8.333837
_cell_length_c 10.721149
_cell_angle_alpha 90.000000
_cell_angle_beta 107.785596
_cell_angle_gamma 90.000000
_cell_volume 1055.964321
_symmetry_space_group_name_H-M "P 2/C"
_symmetry_group_IT_number 13
_symmetry_cell_setting 'monoclinic'
loop_
_space_group_symop_operation_xyz
x,y,z
-x,y,1/2-z
-x,-y,-z
x,-y,1/2+z
loop_
_atom_site_type_symbol
_atom_site_label
_atom_site_fract_x
_atom_site_fract_y
_atom_site_fract_z
Si Si1 0.180993 0.306128 0.503058
Si Si2 0.799520 0.325788 0.491243
Si Si3 0.116682 0.174672 0.746978
Si Si4 0.432421 0.183134 0.598448
Si Si5 0.965910 0.869545 0.887251
Si Si6 0.432343 0.190386 0.103837
O O1 0.165501 0.492858 0.469736
O O2 0.154575 0.259045 0.634989
O O3 0.311919 0.265305 0.528794
O O4 0.083553 0.218082 0.382816
O O5 0.795483 0.214817 0.613694
O O6 0.882500 0.261704 0.413687
O O7 0.671341 0.308662 0.404050
O O8 0.000000 0.257488 0.750000
O O9 0.100264 0.979571 0.738204
O O10 0.500000 0.234623 0.750000
O O11 0.507938 0.231844 0.506234
O O12 0.401006 0.996598 0.593639
O O13 0.000000 0.000000 0.000000
O O14 0.500000 0.234010 0.250000
#
# Coordination Sequence:
#
# PCOD8120742 Si02
#       6
#     4   4   4   4   4   4
#     4  11  24  42  67 101 142 175 222 289 360 411
#     4  12  24  43  68 100 143 173 226 292 353 411
#     4  11  23  42  67  96 132 186 224 281 336 419
#     4  10  22  43  69  97 135 184 238 288 338 412
#     4  10  21  42  64  95 127 175 228 274 331 416
#     4  10  23  42  68 100 133 185 242 281 334 417
#
# _framework density 22.728041999999999
#
# number of rings (size 3 to 8) (size 9 to 14) (size 15 to 20)
#    0.000    1.333    3.333    3.500    0.000    5.333 
#    3.000    0.000    0.000    0.000    0.000    0.000 
#    0.000    0.000    0.000    0.000    0.000    0.000 
#
# Total GULP energy -297334.533889 kJ/mol
# GULP energy per Si atom -12388.938912 kJ/mol
# Density = 2.267631 g / cm^3
# Si number density = 22.728042 Si / 1000 Ang^3
#
#
#
# Elastic Constant Matrix: (Units=GPa)
#
#
# Indices 1 2 3 4 5 6 
#
# 1 132.2669 58.7612 35.9425 0.0000 12.4285 0.0000
# 2 58.7612 141.0867 50.0837 0.0000 17.6187 0.0000
# 3 35.9425 50.0837 110.6106 0.0000 -4.2609 0.0000
# 4 0.0000 0.0000 0.0000 22.5796 0.0000 3.9815
# 5 12.4285 17.6187 -4.2609 0.0000 34.8071 0.0000
# 6 0.0000 0.0000 0.0000 3.9815 0.0000 -16.7161
#
#
#
# Elastic Compliance Matrix: (Units=1/GPa)
#
#
# Indices 1 2 3 4 5 6 
#
# 1 0.009627 -0.003110 -0.001800 0.000000 -0.002084 0.000000
# 2 -0.003110 0.010318 -0.003838 0.000000 -0.004582 0.000000
# 3 -0.001800 -0.003838 0.011517 0.000000 0.003995 0.000000
# 4 0.000000 0.000000 0.000000 0.042503 0.000000 0.010123
# 5 -0.002084 -0.004582 0.003995 0.000000 0.032282 0.000000
# 6 0.000000 0.000000 0.000000 0.010123 0.000000 -0.057411
#
#
# Mechanical properties :
#
#
# Convention : Reuss Voigt Hill
#
# Bulk Modulus (GPa) = 71.60350 74.83767 73.22058
# Shear Modulus (GPa) = 70.43515 24.07926 47.25720
#
# Velocity S-wave (km/s) = 5.57294 3.25845 4.56482
# Velocity P-wave (km/s) = 8.54302 6.86700 7.75044
#
# Compressibility (1/GPa) = 0.01396580
#
# Stress axis : x y z
#
# Youngs Moduli (GPa) = 103.87132 96.92037 86.82643
#
# Poissons Ratio (x) = 0.30146 0.15631
# Poissons Ratio (y) = 0.32308 0.33320
# Poissons Ratio (z) = 0.18699 0.37194
#
# Static dielectric constant tensor:
#      x y z
#    x 4.421830 0.000000 0.901730 
#    y 0.000000 -15.556700 0.000000 
#    z 0.901730 0.000000 3.355690 
# 
# 
# High freq. dielectric constant tensor:
#      x y z
#    x 1.907130 0.000000 0.000710 
#    y 0.000000 1.887900 0.000000 
#    z 0.000710 0.000000 1.908520 
# 
# From -- ./inp_files/32709.got.cif
#   From: 2010.06.25/outbox.cif.g09.slc.cpg/sg13_17_cif.got.tgz:32709.got - 2010.06.28 04:50:58.
