data_PCOD8120407
_publ_section_title
;
Structure prediction by ZEFSAII (Michael W. Deem and Ramdas Pophale) SiO2 
 PCOD8120407
Probable space group: P 2/C
;
_chemical_formula_sum "Si O2"
_cell_formula_units_Z 24
_cell_length_a 15.122396
_cell_length_b 8.841846
_cell_length_c 17.800826
_cell_angle_alpha 90.000000
_cell_angle_beta 30.612146
_cell_angle_gamma 90.000000
_cell_volume 1212.027467
_symmetry_space_group_name_H-M "P 2/C"
_symmetry_group_IT_number 13
_symmetry_cell_setting 'monoclinic'
loop_
_space_group_symop_operation_xyz
x,y,z
-x,y,1/2-z
-x,-y,-z
x,-y,1/2+z
loop_
_atom_site_type_symbol
_atom_site_label
_atom_site_fract_x
_atom_site_fract_y
_atom_site_fract_z
Si Si1 0.680545 0.410023 0.581766
Si Si2 0.994219 0.433595 0.922827
Si Si3 0.318480 0.946975 0.597213
Si Si4 0.680535 0.939773 0.079253
Si Si5 0.994831 0.081572 0.583739
Si Si6 0.826032 0.370098 0.327128
O O1 0.500000 0.452078 0.750000
O O2 0.808489 0.529053 0.524844
O O3 0.682753 0.435910 0.490044
O O4 0.730663 0.234501 0.560322
O O5 0.023729 0.258563 0.912722
O O6 0.138969 0.505170 0.761868
O O7 0.000000 0.500000 0.000000
O O8 0.260958 0.772668 0.651196
O O9 0.500000 0.000000 0.500000
O O10 0.332869 0.977252 0.498451
O O11 0.168644 0.041304 0.745980
O O12 0.500000 0.982775 0.250000
O O13 0.828150 0.046345 0.003395
O O14 0.000000 0.000000 0.500000
O O15 0.000000 0.328535 0.250000
#
# Coordination Sequence:
#
# PCOD8120407 Si02
#       6
#     4   4   4   4   4   4
#     4   9  19  38  62  86 117 154 194 236 293 359
#     4  11  23  38  59  84 116 156 199 246 299 356
#     4  11  22  38  62  91 121 158 202 246 297 359
#     4  10  21  39  64  91 121 158 197 245 301 358
#     4  12  24  40  61  88 121 157 202 253 301 357
#     4   9  19  39  61  84 118 161 198 240 299 359
#
# _framework density 19.801532000000002
#
# number of rings (size 3 to 8) (size 9 to 14) (size 15 to 20)
#    0.000    1.667    0.000    6.500    0.000    7.333 
#    0.000    5.000    0.000    0.000    0.000    0.000 
#    0.000    0.000    0.000    0.000    0.000    0.000 
#
# Total GULP energy -297501.967004 kJ/mol
# GULP energy per Si atom -12395.915292 kJ/mol
# Density = 1.975646 g / cm^3
# Si number density = 19.801532 Si / 1000 Ang^3
#
#
#
# Elastic Constant Matrix: (Units=GPa)
#
#
# Indices 1 2 3 4 5 6 
#
# 1 108.7065 69.8359 58.4057 0.0000 14.4041 0.0000
# 2 69.8359 147.1999 75.8536 0.0000 14.7816 0.0000
# 3 58.4057 75.8536 186.1941 0.0000 22.5830 0.0000
# 4 0.0000 0.0000 0.0000 17.0272 0.0000 9.7111
# 5 14.4041 14.7816 22.5830 0.0000 34.9295 0.0000
# 6 0.0000 0.0000 0.0000 9.7111 0.0000 31.5304
#
#
#
# Elastic Compliance Matrix: (Units=1/GPa)
#
#
# Indices 1 2 3 4 5 6 
#
# 1 0.014017 -0.005442 -0.001908 0.000000 -0.002244 0.000000
# 2 -0.005442 0.010783 -0.002609 0.000000 -0.000632 0.000000
# 3 -0.001908 -0.002609 0.007382 0.000000 -0.002882 0.000000
# 4 0.000000 0.000000 0.000000 0.071244 0.000000 -0.021943
# 5 -0.002244 -0.000632 -0.002882 0.000000 0.031685 0.000000
# 6 0.000000 0.000000 0.000000 -0.021943 0.000000 0.038474
#
#
# Mechanical properties :
#
#
# Convention : Reuss Voigt Hill
#
# Bulk Modulus (GPa) = 81.53659 94.47676 88.00668
# Shear Modulus (GPa) = 25.30477 32.56444 28.93460
#
# Velocity S-wave (km/s) = 3.57868 4.05969 3.82675
# Velocity P-wave (km/s) = 7.63821 8.35406 8.00414
#
# Compressibility (1/GPa) = 0.01226443
#
# Stress axis : x y z
#
# Youngs Moduli (GPa) = 71.33967 92.73576 135.46952
#
# Poissons Ratio (x) = 0.50465 0.25846
# Poissons Ratio (y) = 0.38821 0.35349
# Poissons Ratio (z) = 0.13611 0.24198
#
# Static dielectric constant tensor:
#      x y z
#    x 3.513230 0.000000 0.192010 
#    y 0.000000 3.495790 0.000000 
#    z 0.192010 0.000000 3.984770 
# 
# 
# High freq. dielectric constant tensor:
#      x y z
#    x 1.768700 0.000000 0.018320 
#    y 0.000000 1.764390 0.000000 
#    z 0.018320 0.000000 1.797770 
# 
# From -- ./inp_files/68090.got.cif
#   From: 2010.06.25/outbox.cif.g09.slc.cpg/sg13_35_cif.got.tgz:68090.got - 2010.06.28 04:50:58.
