data_PCOD8120890
_publ_section_title
;
Structure prediction by ZEFSAII (Michael W. Deem and Ramdas Pophale) SiO2 
 PCOD8120890
Probable space group: P 2/C
;
_chemical_formula_sum "Si O2"
_cell_formula_units_Z 28
_cell_length_a 8.946631
_cell_length_b 15.245694
_cell_length_c 14.032016
_cell_angle_alpha 90.000000
_cell_angle_beta 130.980720
_cell_angle_gamma 90.000000
_cell_volume 1444.886231
_symmetry_space_group_name_H-M "P 2/C"
_symmetry_group_IT_number 13
_symmetry_cell_setting 'monoclinic'
loop_
_space_group_symop_operation_xyz
x,y,z
-x,y,1/2-z
-x,-y,-z
x,-y,1/2+z
loop_
_atom_site_type_symbol
_atom_site_label
_atom_site_fract_x
_atom_site_fract_y
_atom_site_fract_z
Si Si1 0.000000 0.019366 0.750000
Si Si2 0.309382 0.755561 0.887518
Si Si3 0.409300 0.065789 0.391518
Si Si4 0.500000 0.970801 0.250000
Si Si5 0.008303 0.757700 0.592192
Si Si6 0.679886 0.440378 0.108547
Si Si7 0.066560 0.912359 0.079504
Si Si8 0.969294 0.439539 0.395804
O O1 0.975646 0.083910 0.648421
O O2 0.174269 0.951570 0.797285
O O3 0.467229 0.834705 0.946923
O O4 0.170570 0.777065 0.739620
O O5 0.403605 0.659071 0.918002
O O6 0.203868 0.763337 0.945501
O O7 0.500000 0.000000 0.500000
O O8 0.516445 0.042045 0.339485
O O9 0.307065 0.908801 0.180074
O O10 0.046187 0.659125 0.569598
O O11 0.018592 0.826580 0.509592
O O12 0.773928 0.465973 0.251371
O O13 0.846027 0.446244 0.097644
O O14 0.500000 0.500000 0.000000
O O15 0.000000 0.000000 0.000000
O O16 0.000000 0.500000 0.500000
#
# Coordination Sequence:
#
# PCOD8120890 Si02
#       8
#     2   4   4   2   4   4   4   4
#     4  10  22  34  50  76 108 142 180 220 264 314
#     4   9  17  32  56  80 100 134 184 220 258 322
#     4  11  20  34  52  74 105 139 173 215 259 304
#     4  10  22  32  48  78 108 138 180 220 260 314
#     4   9  17  33  57  77 100 139 179 219 265 317
#     4   9  19  37  59  83 110 140 179 230 280 326
#     4  11  20  35  54  75 108 145 181 225 271 318
#     4   9  19  37  59  83 109 140 182 227 275 336
#
# _framework density 19.378688
#
# number of rings (size 3 to 8) (size 9 to 14) (size 15 to 20)
#    0.000    2.286    0.000    6.857    0.000    0.571 
#    0.000   12.857    0.000    0.000    0.000    0.000 
#    0.000    0.000    0.000    0.000    0.000    0.000 
#
# Total GULP energy -346897.776956 kJ/mol
# GULP energy per Si atom -12389.206320 kJ/mol
# Density = 1.933458 g / cm^3
# Si number density = 19.378688 Si / 1000 Ang^3
#
#
#
# Elastic Constant Matrix: (Units=GPa)
#
#
# Indices 1 2 3 4 5 6 
#
# 1 59.3775 34.4745 29.8520 0.0000 -28.6480 0.0000
# 2 34.4745 159.5426 76.5204 0.0000 -21.6041 0.0000
# 3 29.8520 76.5204 98.4714 0.0000 -24.7650 0.0000
# 4 0.0000 0.0000 0.0000 37.9940 0.0000 -6.2912
# 5 -28.6480 -21.6041 -24.7650 0.0000 36.5750 0.0000
# 6 0.0000 0.0000 0.0000 -6.2912 0.0000 29.7809
#
#
#
# Elastic Compliance Matrix: (Units=1/GPa)
#
#
# Indices 1 2 3 4 5 6 
#
# 1 0.028842 -0.002781 -0.001584 0.000000 0.019876 0.000000
# 2 -0.002781 0.010279 -0.007430 0.000000 -0.001138 0.000000
# 3 -0.001584 -0.007430 0.018071 0.000000 0.006606 0.000000
# 4 0.000000 0.000000 0.000000 0.027274 0.000000 0.005762
# 5 0.019876 -0.001138 0.006606 0.000000 0.046710 0.000000
# 6 0.000000 0.000000 0.000000 0.005762 0.000000 0.034796
#
#
# Mechanical properties :
#
#
# Convention : Reuss Voigt Hill
#
# Bulk Modulus (GPa) = 29.76127 66.56504 48.16315
# Shear Modulus (GPa) = 24.90513 32.63962 28.77237
#
# Velocity S-wave (km/s) = 3.58883 4.10848 3.85742
# Velocity P-wave (km/s) = 5.70649 7.54522 6.68933
#
# Compressibility (1/GPa) = 0.03360072
#
# Stress axis : x y z
#
# Youngs Moduli (GPa) = 34.67177 97.28980 55.33777
#
# Poissons Ratio (x) = 0.27059 0.08763
# Poissons Ratio (y) = 0.09643 0.41118
# Poissons Ratio (z) = 0.05491 0.72290
#
# Static dielectric constant tensor:
#      x y z
#    x 3.508460 0.000000 -0.117880 
#    y 0.000000 3.630390 0.000000 
#    z -0.117880 0.000000 3.609600 
# 
# 
# High freq. dielectric constant tensor:
#      x y z
#    x 1.743480 0.000000 -0.013490 
#    y 0.000000 1.750980 0.000000 
#    z -0.013490 0.000000 1.748290 
# 
# From -- ./inp_files/47764.got.cif
#   From: 2010.06.25/outbox.cif.g09.slc.cpg/sg13_24_cif.got.tgz:47764.got - 2010.06.28 04:50:58.
