data_PCOD8120149
_publ_section_title
;
Structure prediction by ZEFSAII (Michael W. Deem and Ramdas Pophale) SiO2 
 PCOD8120149
Probable space group: P 2/C
;
_chemical_formula_sum "Si O2"
_cell_formula_units_Z 30
_cell_length_a 10.490943
_cell_length_b 16.154065
_cell_length_c 9.642314
_cell_angle_alpha 90.000000
_cell_angle_beta 119.695066
_cell_angle_gamma 90.000000
_cell_volume 1419.497184
_symmetry_space_group_name_H-M "P 2/C"
_symmetry_group_IT_number 13
_symmetry_cell_setting 'monoclinic'
loop_
_space_group_symop_operation_xyz
x,y,z
-x,y,1/2-z
-x,-y,-z
x,-y,1/2+z
loop_
_atom_site_type_symbol
_atom_site_label
_atom_site_fract_x
_atom_site_fract_y
_atom_site_fract_z
Si Si1 0.173811 0.122680 0.839874
Si Si2 0.827153 0.060644 0.156824
Si Si3 0.836166 0.192522 0.948817
Si Si4 0.000000 0.511574 0.250000
Si Si5 0.641592 0.638447 0.729069
Si Si6 0.817885 0.804507 0.870350
Si Si7 0.629151 0.333704 0.909690
Si Si8 0.806251 0.471144 0.888735
O O1 0.219512 0.181806 0.737810
O O2 0.000000 0.112245 0.750000
O O3 0.245272 0.030538 0.870866
O O4 0.232493 0.170534 0.004021
O O5 0.768884 0.118869 0.248430
O O6 0.000000 0.049505 0.250000
O O7 0.788302 0.105859 0.992331
O O8 0.761950 0.268709 0.988292
O O9 0.008964 0.210548 0.052620
O O10 0.891814 0.562401 0.295424
O O11 0.095039 0.460741 0.416997
O O12 0.500000 0.637173 0.750000
O O13 0.732049 0.722148 0.789003
O O14 0.586893 0.633879 0.540121
O O15 0.751889 0.564380 0.830103
O O16 0.500000 0.291368 0.750000
O O17 0.668311 0.412894 0.836178
#
# Coordination Sequence:
#
# PCOD8120149 Si02
#       8
#     4   4   4   2   4   4   4   4
#     4   9  18  33  57  98 128 160 207 260 322 385
#     4   9  16  33  61  90 128 164 205 260 324 385
#     4  10  21  37  63  95 127 164 210 269 321 378
#     4  10  24  42  70 110 124 158 200 280 314 374
#     4  12  28  46  66  91 131 176 219 264 319 382
#     4  10  21  37  63  95 127 164 210 269 321 378
#     4  12  28  46  66  91 131 176 219 264 319 382
#     4  11  25  46  72  98 134 168 212 260 322 384
#
# _framework density 21.134246999999998
#
# number of rings (size 3 to 8) (size 9 to 14) (size 15 to 20)
#    0.000    1.600    2.667    1.200    7.467    4.267 
#    2.400    0.000    0.000    4.800    0.000    0.000 
#    0.000    0.000    0.000    0.000    0.000    0.000 
#
# Total GULP energy -371766.688569 kJ/mol
# GULP energy per Si atom -12392.222952 kJ/mol
# Density = 2.108614 g / cm^3
# Si number density = 21.134247 Si / 1000 Ang^3
#
#
#
# Elastic Constant Matrix: (Units=GPa)
#
#
# Indices 1 2 3 4 5 6 
#
# 1 87.5393 25.3740 46.9612 0.0000 -22.8501 0.0000
# 2 25.3740 84.7413 24.7110 0.0000 -3.1564 0.0000
# 3 46.9612 24.7110 128.8132 0.0000 -25.7709 0.0000
# 4 0.0000 0.0000 0.0000 32.8920 0.0000 -23.3215
# 5 -22.8501 -3.1564 -25.7709 0.0000 37.8559 0.0000
# 6 0.0000 0.0000 0.0000 -23.3215 0.0000 13.4848
#
#
#
# Elastic Compliance Matrix: (Units=1/GPa)
#
#
# Indices 1 2 3 4 5 6 
#
# 1 0.016334 -0.003496 -0.003901 0.000000 0.006912 0.000000
# 2 -0.003496 0.013263 -0.001703 0.000000 -0.002163 0.000000
# 3 -0.003901 -0.001703 0.010434 0.000000 0.004606 0.000000
# 4 0.000000 0.000000 0.000000 -0.134382 0.000000 -0.232409
# 5 0.006912 -0.002163 0.004606 0.000000 0.033543 0.000000
# 6 0.000000 0.000000 0.000000 -0.232409 0.000000 -0.327783
#
#
# Mechanical properties :
#
#
# Convention : Reuss Voigt Hill
#
# Bulk Modulus (GPa) = 45.80633 55.02069 50.41351
# Shear Modulus (GPa) = -13.76974 30.44972 8.33999
#
# Velocity S-wave (km/s) = -2.55529 3.79987 1.98866
# Velocity P-wave (km/s) = 3.60763 6.73368 5.40174
#
# Compressibility (1/GPa) = 0.02183104
#
# Stress axis : x y z
#
# Youngs Moduli (GPa) = 61.22278 75.39604 95.84388
#
# Poissons Ratio (x) = 0.26356 0.37392
# Poissons Ratio (y) = 0.21402 0.16320
# Poissons Ratio (z) = 0.23885 0.12838
#
# Static dielectric constant tensor:
#      x y z
#    x 3.674750 0.000000 -0.346160 
#    y 0.000000 3.758910 0.000000 
#    z -0.346160 0.000000 3.990510 
# 
# 
# High freq. dielectric constant tensor:
#      x y z
#    x 1.803810 0.000000 -0.024960 
#    y 0.000000 1.824760 0.000000 
#    z -0.024960 0.000000 1.840810 
# 
# From -- ./inp_files/16804.got.cif
#   From: 2010.06.25/outbox.cif.g09.slc.cpg/sg13_9_cif.got.tgz:16804.got - 2010.06.28 04:50:58.
