data_PCOD8120195
_publ_section_title
;
Structure prediction by ZEFSAII (Michael W. Deem and Ramdas Pophale) SiO2 
 PCOD8120195
Probable space group: P 2/C
;
_chemical_formula_sum "Si O2"
_cell_formula_units_Z 28
_cell_length_a 9.261520
_cell_length_b 8.738098
_cell_length_c 28.745313
_cell_angle_alpha 90.000000
_cell_angle_beta 144.237471
_cell_angle_gamma 90.000000
_cell_volume 1359.554379
_symmetry_space_group_name_H-M "P 2/C"
_symmetry_group_IT_number 13
_symmetry_cell_setting 'monoclinic'
loop_
_space_group_symop_operation_xyz
x,y,z
-x,y,1/2-z
-x,-y,-z
x,-y,1/2+z
loop_
_atom_site_type_symbol
_atom_site_label
_atom_site_fract_x
_atom_site_fract_y
_atom_site_fract_z
Si Si1 0.725219 0.352751 0.777821
Si Si2 0.957290 0.680007 0.053530
Si Si3 0.349394 0.971962 0.532781
Si Si4 0.967486 0.396002 0.188413
Si Si5 0.726883 0.185089 0.065673
Si Si6 0.461144 0.434442 0.548933
Si Si7 0.427940 0.775205 0.123777
O O1 0.500000 0.417544 0.750000
O O2 0.626025 0.217266 0.718041
O O3 0.946397 0.293120 0.868358
O O4 0.817001 0.488519 0.768662
O O5 0.186153 0.683015 0.077998
O O6 0.797705 0.820779 0.994250
O O7 0.798014 0.524203 0.010024
O O8 0.594827 0.923637 0.569088
O O9 0.193371 0.086589 0.458581
O O10 0.392662 0.053618 0.594150
O O11 0.974494 0.248137 0.155972
O O12 0.691596 0.453698 0.105419
O O13 0.000000 0.345099 0.250000
O O14 0.556139 0.327386 0.001785
O O15 0.535264 0.326428 0.610756
#
# Coordination Sequence:
#
# PCOD8120195 Si02
#       7
#     4   4   4   4   4   4   4
#     4  10  22  39  61  89 123 156 200 252 316 366
#     4  11  20  38  64  86 122 164 206 251 304 368
#     4  10  21  38  59  85 123 158 207 243 302 374
#     4  12  21  37  62  90 118 150 201 257 304 352
#     4  10  21  38  58  86 116 156 199 254 301 359
#     4  11  20  36  64  91 116 150 214 256 300 353
#     4  10  22  38  58  92 123 162 201 252 311 367
#
# _framework density 20.594982999999999
#
# number of rings (size 3 to 8) (size 9 to 14) (size 15 to 20)
#    0.000    1.429    4.286    2.143    0.000    0.000 
#    2.571    0.000    0.000    0.000    0.000    0.000 
#    0.000    0.000    0.000    0.000    0.000    0.000 
#
# Total GULP energy -346982.138955 kJ/mol
# GULP energy per Si atom -12392.219248 kJ/mol
# Density = 2.054811 g / cm^3
# Si number density = 20.594983 Si / 1000 Ang^3
#
#
#
# Elastic Constant Matrix: (Units=GPa)
#
#
# Indices 1 2 3 4 5 6 
#
# 1 57.7846 10.8830 34.7575 0.0000 -13.6561 0.0000
# 2 10.8830 76.9833 32.7836 0.0000 -11.6411 0.0000
# 3 34.7575 32.7836 57.4726 0.0000 -24.0799 0.0000
# 4 0.0000 0.0000 0.0000 112.1162 0.0000 -26.0072
# 5 -13.6561 -11.6411 -24.0799 0.0000 32.3699 0.0000
# 6 0.0000 0.0000 0.0000 -26.0072 0.0000 38.7135
#
#
#
# Elastic Compliance Matrix: (Units=1/GPa)
#
#
# Indices 1 2 3 4 5 6 
#
# 1 0.028309 0.004400 -0.020286 0.000000 -0.001566 0.000000
# 2 0.004400 0.017900 -0.013652 0.000000 -0.001862 0.000000
# 3 -0.020286 -0.013652 0.046218 0.000000 0.020913 0.000000
# 4 0.000000 0.000000 0.000000 0.010566 0.000000 0.007098
# 5 -0.001566 -0.001862 0.020913 0.000000 0.045120 0.000000
# 6 0.000000 0.000000 0.000000 0.007098 0.000000 0.030599
#
#
# Mechanical properties :
#
#
# Convention : Reuss Voigt Hill
#
# Bulk Modulus (GPa) = 29.98401 38.78762 34.38582
# Shear Modulus (GPa) = 20.08804 44.22770 32.15787
#
# Velocity S-wave (km/s) = 3.12650 4.63914 3.95580
# Velocity P-wave (km/s) = 5.25584 6.89709 6.13163
#
# Compressibility (1/GPa) = 0.03335111
#
# Stress axis : x y z
#
# Youngs Moduli (GPa) = 35.32426 55.86638 21.63678
#
# Poissons Ratio (x) = -0.24583 0.43893
# Poissons Ratio (y) = -0.15544 0.29538
# Poissons Ratio (z) = 0.71660 0.76267
#
# Static dielectric constant tensor:
#      x y z
#    x 3.789320 0.000000 -0.250430 
#    y 0.000000 3.734690 0.000000 
#    z -0.250430 0.000000 3.779210 
# 
# 
# High freq. dielectric constant tensor:
#      x y z
#    x 1.804210 0.000000 -0.024610 
#    y 0.000000 1.792650 0.000000 
#    z -0.024610 0.000000 1.803460 
# 
# From -- ./inp_files/91474.got.cif
#   From: 2010.06.25/outbox.cif.g09.slc.cpg/sg13_46_cif.got.tgz:91474.got - 2010.06.28 04:50:58.
