data_PCOD8120143
_publ_section_title
;
Structure prediction by ZEFSAII (Michael W. Deem and Ramdas Pophale) SiO2 
 PCOD8120143
Probable space group: P 2/C
;
_chemical_formula_sum "Si O2"
_cell_formula_units_Z 26
_cell_length_a 20.897892
_cell_length_b 14.187309
_cell_length_c 9.028986
_cell_angle_alpha 90.000000
_cell_angle_beta 151.556570
_cell_angle_gamma 90.000000
_cell_volume 1275.010378
_symmetry_space_group_name_H-M "P 2/C"
_symmetry_group_IT_number 13
_symmetry_cell_setting 'monoclinic'
loop_
_space_group_symop_operation_xyz
x,y,z
-x,y,1/2-z
-x,-y,-z
x,-y,1/2+z
loop_
_atom_site_type_symbol
_atom_site_label
_atom_site_fract_x
_atom_site_fract_y
_atom_site_fract_z
Si Si1 0.169005 0.585724 0.922805
Si Si2 0.276992 0.249039 0.467737
Si Si3 0.856631 0.603548 0.287345
Si Si4 0.044639 0.123718 0.055525
Si Si5 0.238579 0.214374 0.057045
Si Si6 0.495258 0.101543 0.565631
Si Si7 0.000000 0.972979 0.750000
O O1 0.278872 0.652927 0.063188
O O2 0.198743 0.481081 0.925250
O O3 0.015173 0.615778 0.579008
O O4 0.188035 0.583392 0.136656
O O5 0.285277 0.261033 0.307685
O O6 0.385211 0.172025 0.743817
O O7 0.126787 0.216122 0.194053
O O8 0.785161 0.700644 0.102488
O O9 0.890258 0.145701 0.700044
O O10 0.093850 0.038955 0.046230
O O11 0.076832 0.094449 0.290924
O O12 0.357674 0.150643 0.235457
O O13 0.500000 0.085296 0.750000
O O14 0.500000 0.000000 0.500000
#
# Coordination Sequence:
#
# PCOD8120143 Si02
#       7
#     4   4   4   4   4   4   2
#     4  10  21  37  62  94 124 154 193 246 302 357
#     4  11  22  39  59  87 119 158 198 246 297 355
#     4  10  21  37  62  94 124 154 193 246 302 357
#     4  11  22  36  59  82 116 150 202 246 300 349
#     4  11  22  39  59  87 119 158 198 246 297 355
#     4  10  26  42  59  84 123 162 203 248 298 348
#     4  10  24  34  52  88 114 150 196 258 296 346
#
# _framework density 20.391991000000001
#
# number of rings (size 3 to 8) (size 9 to 14) (size 15 to 20)
#    0.000    1.538    3.077    0.923    6.462    2.462 
#    0.000    0.769    0.000    0.000    0.000    0.000 
#    0.000    0.000    0.000    0.000    0.000    0.000 
#
# Total GULP energy -322236.378584 kJ/mol
# GULP energy per Si atom -12393.706869 kJ/mol
# Density = 2.034558 g / cm^3
# Si number density = 20.391991 Si / 1000 Ang^3
#
#
#
# Elastic Constant Matrix: (Units=GPa)
#
#
# Indices 1 2 3 4 5 6 
#
# 1 98.4015 53.7386 31.0344 0.0000 -14.9037 0.0000
# 2 53.7386 129.8077 45.8271 0.0000 -2.2612 0.0000
# 3 31.0344 45.8271 78.0043 0.0000 6.5639 0.0000
# 4 0.0000 0.0000 0.0000 32.5592 0.0000 -3.8903
# 5 -14.9037 -2.2612 6.5639 0.0000 32.7332 0.0000
# 6 0.0000 0.0000 0.0000 -3.8903 0.0000 43.3996
#
#
#
# Elastic Compliance Matrix: (Units=1/GPa)
#
#
# Indices 1 2 3 4 5 6 
#
# 1 0.015073 -0.004768 -0.003810 0.000000 0.007298 0.000000
# 2 -0.004768 0.011339 -0.004728 0.000000 -0.000440 0.000000
# 3 -0.003810 -0.004728 0.017583 0.000000 -0.005587 0.000000
# 4 0.000000 0.000000 0.000000 0.031046 0.000000 0.002783
# 5 0.007298 -0.000440 -0.005587 0.000000 0.034963 0.000000
# 6 0.000000 0.000000 0.000000 0.002783 0.000000 0.023291
#
#
# Mechanical properties :
#
#
# Convention : Reuss Voigt Hill
#
# Bulk Modulus (GPa) = 57.52279 63.04597 60.28438
# Shear Modulus (GPa) = 30.17493 33.44596 31.81044
#
# Velocity S-wave (km/s) = 3.85092 4.05427 3.95390
# Velocity P-wave (km/s) = 6.93127 7.27326 7.10432
#
# Compressibility (1/GPa) = 0.01738441
#
# Stress axis : x y z
#
# Youngs Moduli (GPa) = 66.34322 88.19172 56.87257
#
# Poissons Ratio (x) = 0.42049 0.21668
# Poissons Ratio (y) = 0.31632 0.26887
# Poissons Ratio (z) = 0.25276 0.41694
#
# Static dielectric constant tensor:
#      x y z
#    x 3.771200 0.000000 -0.071040 
#    y 0.000000 3.738590 0.000000 
#    z -0.071040 0.000000 3.502360 
# 
# 
# High freq. dielectric constant tensor:
#      x y z
#    x 1.797480 0.000000 -0.017890 
#    y 0.000000 1.809980 0.000000 
#    z -0.017890 0.000000 1.766690 
# 
# From -- ./inp_files/23595.got.cif
#   From: 2010.06.25/outbox.cif.g09.slc.cpg/sg13_12_cif.got.tgz:23595.got - 2010.06.28 04:50:58.
