data_PCOD8120452
_publ_section_title
;
Structure prediction by ZEFSAII (Michael W. Deem and Ramdas Pophale) SiO2 
 PCOD8120452
Probable space group: P 2/C
;
_chemical_formula_sum "Si O2"
_cell_formula_units_Z 28
_cell_length_a 16.609822
_cell_length_b 9.407002
_cell_length_c 9.027379
_cell_angle_alpha 90.000000
_cell_angle_beta 73.746026
_cell_angle_gamma 90.000000
_cell_volume 1354.137907
_symmetry_space_group_name_H-M "P 2/C"
_symmetry_group_IT_number 13
_symmetry_cell_setting 'monoclinic'
loop_
_space_group_symop_operation_xyz
x,y,z
-x,y,1/2-z
-x,-y,-z
x,-y,1/2+z
loop_
_atom_site_type_symbol
_atom_site_label
_atom_site_fract_x
_atom_site_fract_y
_atom_site_fract_z
Si Si1 0.095390 0.387169 0.744591
Si Si2 0.737359 0.104950 0.576734
Si Si3 0.549241 0.887004 0.074258
Si Si4 0.230872 0.834346 0.100851
Si Si5 0.176179 0.395823 0.001716
Si Si6 0.577065 0.406719 0.412956
Si Si7 0.676324 0.581360 0.576656
O O1 0.146250 0.256807 0.647040
O O2 0.103431 0.376305 0.917363
O O3 0.132683 0.538059 0.669281
O O4 0.000000 0.368630 0.750000
O O5 0.643609 0.070530 0.568480
O O6 0.777664 0.246783 0.484091
O O7 0.789591 0.968994 0.492762
O O8 0.739347 0.114655 0.752736
O O9 0.500000 0.852497 0.250000
O O10 0.554894 0.751205 0.968103
O O11 0.500000 0.000000 0.000000
O O12 0.305757 0.738870 0.993782
O O13 0.241936 0.507418 0.893380
O O14 0.500000 0.500000 0.500000
O O15 0.657441 0.471994 0.453270
O O16 0.597403 0.410246 0.227839
#
# Coordination Sequence:
#
# PCOD8120452 Si02
#       7
#     4   4   4   4   4   4   4
#     4  10  21  41  66 101 133 160 207 264 319 387
#     4  11  23  43  62  90 127 169 222 261 311 393
#     4  12  28  43  62  89 127 170 218 276 326 364
#     4  10  25  40  68  92 127 170 215 256 326 384
#     4  10  21  39  67  93 123 169 210 252 319 379
#     4  12  26  41  62  90 127 163 217 270 332 370
#     4  11  23  43  64  91 122 171 214 267 311 389
#
# _framework density 20.677363
#
# number of rings (size 3 to 8) (size 9 to 14) (size 15 to 20)
#    0.000    1.143    1.429    5.143    8.000    1.143 
#    0.000    3.571    0.000    0.000    0.000    0.000 
#    0.000    0.000    0.000    0.000    0.000    0.000 
#
# Total GULP energy -347191.498414 kJ/mol
# GULP energy per Si atom -12399.696372 kJ/mol
# Density = 2.063030 g / cm^3
# Si number density = 20.677363 Si / 1000 Ang^3
#
#
#
# Elastic Constant Matrix: (Units=GPa)
#
#
# Indices 1 2 3 4 5 6 
#
# 1 113.8829 41.5206 30.2562 0.0000 3.3367 0.0000
# 2 41.5206 159.4132 59.0403 0.0000 1.5214 0.0000
# 3 30.2562 59.0403 90.2633 0.0000 -4.3621 0.0000
# 4 0.0000 0.0000 0.0000 36.5528 0.0000 3.6493
# 5 3.3367 1.5214 -4.3621 0.0000 26.1032 0.0000
# 6 0.0000 0.0000 0.0000 3.6493 0.0000 25.4795
#
#
#
# Elastic Compliance Matrix: (Units=1/GPa)
#
#
# Indices 1 2 3 4 5 6 
#
# 1 0.010080 -0.001756 -0.002306 0.000000 -0.001571 0.000000
# 2 -0.001756 0.008635 -0.005114 0.000000 -0.001133 0.000000
# 3 -0.002306 -0.005114 0.015350 0.000000 0.003158 0.000000
# 4 0.000000 0.000000 0.000000 0.027755 0.000000 -0.003975
# 5 -0.001571 -0.001133 0.003158 0.000000 0.039104 0.000000
# 6 0.000000 0.000000 0.000000 -0.003975 0.000000 0.039817
#
#
# Mechanical properties :
#
#
# Convention : Reuss Voigt Hill
#
# Bulk Modulus (GPa) = 63.64744 69.46599 66.55671
# Shear Modulus (GPa) = 30.42644 33.14327 31.78485
#
# Velocity S-wave (km/s) = 3.84016 4.00794 3.92494
# Velocity P-wave (km/s) = 7.10707 7.42201 7.26625
#
# Compressibility (1/GPa) = 0.01571155
#
# Stress axis : x y z
#
# Youngs Moduli (GPa) = 99.20646 115.80152 65.14862
#
# Poissons Ratio (x) = 0.20340 0.15023
# Poissons Ratio (y) = 0.17425 0.33320
# Poissons Ratio (z) = 0.22876 0.59225
#
# Static dielectric constant tensor:
#      x y z
#    x 4.217600 0.000000 0.531240 
#    y 0.000000 3.750090 0.000000 
#    z 0.531240 0.000000 4.130500 
# 
# 
# High freq. dielectric constant tensor:
#      x y z
#    x 1.803090 0.000000 0.005830 
#    y 0.000000 1.816430 0.000000 
#    z 0.005830 0.000000 1.812120 
# 
# From -- ./inp_files/21113.got.cif
#   From: 2010.06.25/outbox.cif.g09.slc.cpg/sg13_11_cif.got.tgz:21113.got - 2010.06.28 04:50:58.
