data_PCOD8120237
_publ_section_title
;
Structure prediction by ZEFSAII (Michael W. Deem and Ramdas Pophale) SiO2 
 PCOD8120237
Probable space group: P 2/C
;
_chemical_formula_sum "Si O2"
_cell_formula_units_Z 32
_cell_length_a 25.894151
_cell_length_b 8.664107
_cell_length_c 15.058951
_cell_angle_alpha 90.000000
_cell_angle_beta 151.793340
_cell_angle_gamma 90.000000
_cell_volume 1596.845171
_symmetry_space_group_name_H-M "P 2/C"
_symmetry_group_IT_number 13
_symmetry_cell_setting 'monoclinic'
loop_
_space_group_symop_operation_xyz
x,y,z
-x,y,1/2-z
-x,-y,-z
x,-y,1/2+z
loop_
_atom_site_type_symbol
_atom_site_label
_atom_site_fract_x
_atom_site_fract_y
_atom_site_fract_z
Si Si1 0.513322 0.906313 0.872210
Si Si2 0.484408 0.434205 0.073215
Si Si3 0.721542 0.935579 0.932188
Si Si4 0.736482 0.569128 0.758850
Si Si5 0.278892 0.430084 0.061372
Si Si6 0.118698 0.432389 0.669054
Si Si7 0.120129 0.933507 0.174933
Si Si8 0.266373 0.066733 0.247942
O O1 0.500000 0.857749 0.750000
O O2 0.536060 0.749962 0.961480
O O3 0.402481 0.991152 0.736298
O O4 0.612567 0.024100 0.035646
O O5 0.600854 0.473571 0.295932
O O6 0.500000 0.500000 0.000000
O O7 0.380161 0.516704 0.960017
O O8 0.726423 0.752915 0.944794
O O9 0.753448 0.992363 0.882420
O O10 0.806943 0.002159 0.133576
O O11 0.743541 0.511023 0.872089
O O12 0.832953 0.486230 0.851653
O O13 0.748868 0.750992 0.767934
O O14 0.190690 0.499658 0.859799
O O15 0.114682 0.249528 0.668095
O O16 0.000000 0.500000 0.500000
O O17 0.173502 0.984679 0.163875
O O18 0.000000 0.000000 0.000000
#
# Coordination Sequence:
#
# PCOD8120237 Si02
#       8
#     4   4   4   4   4   4   4   4
#     4  11  20  37  64  90 124 168 200 237 307 374
#     4   9  19  36  59  90 117 155 199 238 288 360
#     4   9  20  38  62  84 120 162 198 236 302 367
#     4  10  21  38  60  89 119 151 198 250 296 355
#     4   8  19  38  59  83 117 157 193 233 301 362
#     4  11  23  41  61  85 113 158 201 250 299 354
#     4  11  23  42  62  85 118 159 206 251 303 367
#     4  11  22  40  61  91 122 159 199 251 303 364
#
# _framework density 20.039512999999999
#
# number of rings (size 3 to 8) (size 9 to 14) (size 15 to 20)
#    0.000    2.000    1.250    2.625    3.500    1.000 
#    2.250   12.500    0.000    0.000    0.000    0.000 
#    0.000    0.000    0.000    0.000    0.000    0.000 
#
# Total GULP energy -396718.299480 kJ/mol
# GULP energy per Si atom -12397.446859 kJ/mol
# Density = 1.999390 g / cm^3
# Si number density = 20.039513 Si / 1000 Ang^3
#
#
#
# Elastic Constant Matrix: (Units=GPa)
#
#
# Indices 1 2 3 4 5 6 
#
# 1 139.2102 28.0380 67.8392 0.0000 17.9456 0.0000
# 2 28.0380 59.4515 28.7697 0.0000 4.2258 0.0000
# 3 67.8392 28.7697 125.9417 0.0000 26.4983 0.0000
# 4 0.0000 0.0000 0.0000 30.5445 0.0000 6.2377
# 5 17.9456 4.2258 26.4983 0.0000 39.5092 0.0000
# 6 0.0000 0.0000 0.0000 6.2377 0.0000 33.5776
#
#
#
# Elastic Compliance Matrix: (Units=1/GPa)
#
#
# Indices 1 2 3 4 5 6 
#
# 1 0.010081 -0.002433 -0.004617 0.000000 -0.001222 0.000000
# 2 -0.002433 0.019533 -0.003428 0.000000 0.001315 0.000000
# 3 -0.004617 -0.003428 0.012449 0.000000 -0.005885 0.000000
# 4 0.000000 0.000000 0.000000 0.034030 0.000000 -0.006322
# 5 -0.001222 0.001315 -0.005885 0.000000 0.029672 0.000000
# 6 0.000000 0.000000 0.000000 -0.006322 0.000000 0.030956
#
#
# Mechanical properties :
#
#
# Convention : Reuss Voigt Hill
#
# Bulk Modulus (GPa) = 47.38018 63.76634 55.57326
# Shear Modulus (GPa) = 30.35562 34.05669 32.20616
#
# Velocity S-wave (km/s) = 3.89625 4.12694 4.01326
# Velocity P-wave (km/s) = 6.62840 7.38906 7.01905
#
# Compressibility (1/GPa) = 0.02110587
#
# Stress axis : x y z
#
# Youngs Moduli (GPa) = 99.19635 51.19433 80.32947
#
# Poissons Ratio (x) = 0.12456 0.37090
# Poissons Ratio (y) = 0.24135 0.27539
# Poissons Ratio (z) = 0.45802 0.17551
#
# Static dielectric constant tensor:
#      x y z
#    x 3.768470 0.000000 0.003230 
#    y 0.000000 3.441260 0.000000 
#    z 0.003230 0.000000 4.084980 
# 
# 
# High freq. dielectric constant tensor:
#      x y z
#    x 1.792660 0.000000 0.004030 
#    y 0.000000 1.761320 0.000000 
#    z 0.004030 0.000000 1.785340 
# 
# From -- ./inp_files/58841.got.cif
#   From: 2010.06.25/outbox.cif.g09.slc.cpg/sg13_30_cif.got.tgz:58841.got - 2010.06.28 04:50:58.
