data_PCOD8120567
_publ_section_title
;
Structure prediction by ZEFSAII (Michael W. Deem and Ramdas Pophale) SiO2 
 PCOD8120567
Probable space group: P 2/C
;
_chemical_formula_sum "Si O2"
_cell_formula_units_Z 28
_cell_length_a 10.911469
_cell_length_b 5.462531
_cell_length_c 19.681423
_cell_angle_alpha 90.000000
_cell_angle_beta 79.131592
_cell_angle_gamma 90.000000
_cell_volume 1152.054185
_symmetry_space_group_name_H-M "P 2/C"
_symmetry_group_IT_number 13
_symmetry_cell_setting 'monoclinic'
loop_
_space_group_symop_operation_xyz
x,y,z
-x,y,1/2-z
-x,-y,-z
x,-y,1/2+z
loop_
_atom_site_type_symbol
_atom_site_label
_atom_site_fract_x
_atom_site_fract_y
_atom_site_fract_z
Si Si1 0.801506 0.280464 0.014793
Si Si2 0.881645 0.282354 0.152054
Si Si3 0.647491 0.281133 0.836930
Si Si4 0.588805 0.639282 0.078014
Si Si5 0.854164 0.455226 0.380361
Si Si6 0.341529 0.094358 0.054056
Si Si7 0.261981 0.791143 0.313796
O O1 0.888950 0.238107 0.070390
O O2 0.674433 0.410059 0.051505
O O3 0.882028 0.438187 0.952333
O O4 0.762664 0.030604 0.983147
O O5 0.807675 0.527849 0.180401
O O6 0.023294 0.326977 0.163427
O O7 0.826739 0.029567 0.188651
O O8 0.535915 0.470030 0.870952
O O9 0.793693 0.338365 0.837000
O O10 0.639844 0.208703 0.758992
O O11 0.595805 0.071642 0.894600
O O12 0.662434 0.817817 0.123746
O O13 0.560289 0.776619 0.008139
O O14 0.736695 0.279716 0.392727
#
# Coordination Sequence:
#
# PCOD8120567 Si02
#       7
#     4   4   4   4   4   4   4
#     4   9  20  40  68 102 127 174 227 287 351 402
#     4  11  24  46  70  97 139 178 237 282 336 411
#     4  11  25  42  63 101 138 182 229 282 354 416
#     4  10  21  44  68  97 136 175 231 293 341 413
#     4  10  24  40  64 100 136 179 222 287 347 416
#     4  10  21  40  66 102 131 175 228 280 361 402
#     4  11  26  46  70 100 133 190 235 282 342 409
#
# _framework density 24.304411000000002
#
# number of rings (size 3 to 8) (size 9 to 14) (size 15 to 20)
#    0.000    1.714    1.429    1.286    6.000    7.429 
#    0.000    1.429    0.000    0.000    0.000    0.000 
#    0.000    0.000    0.000    0.000    0.000    0.000 
#
# Total GULP energy -346870.228436 kJ/mol
# GULP energy per Si atom -12388.222444 kJ/mol
# Density = 2.424909 g / cm^3
# Si number density = 24.304411 Si / 1000 Ang^3
#
#
#
# Elastic Constant Matrix: (Units=GPa)
#
#
# Indices 1 2 3 4 5 6 
#
# 1 68.2932 -3.3892 18.0371 0.0000 -11.5237 0.0000
# 2 -3.3892 74.4482 9.6822 0.0000 -2.2778 0.0000
# 3 18.0371 9.6822 101.6618 0.0000 -5.6710 0.0000
# 4 0.0000 0.0000 0.0000 14.3470 0.0000 -1.5885
# 5 -11.5237 -2.2778 -5.6710 0.0000 24.2227 0.0000
# 6 0.0000 0.0000 0.0000 -1.5885 0.0000 12.7141
#
#
#
# Elastic Compliance Matrix: (Units=1/GPa)
#
#
# Indices 1 2 3 4 5 6 
#
# 1 0.016668 0.001333 -0.002670 0.000000 0.007430 0.000000
# 2 0.001333 0.013731 -0.001456 0.000000 0.001585 0.000000
# 3 -0.002670 -0.001456 0.010508 0.000000 0.001053 0.000000
# 4 0.000000 0.000000 0.000000 0.070679 0.000000 0.008831
# 5 0.007430 0.001585 0.001053 0.000000 0.045214 0.000000
# 6 0.000000 0.000000 0.000000 0.008831 0.000000 0.079756
#
#
# Mechanical properties :
#
#
# Convention : Reuss Voigt Hill
#
# Bulk Modulus (GPa) = 28.31146 32.56260 30.43703
# Shear Modulus (GPa) = 19.69173 24.92828 22.31001
#
# Velocity S-wave (km/s) = 2.84951 3.20608 3.03304
# Velocity P-wave (km/s) = 4.74344 5.20886 4.98159
#
# Compressibility (1/GPa) = 0.03532139
#
# Stress axis : x y z
#
# Youngs Moduli (GPa) = 59.99616 72.82962 95.16915
#
# Poissons Ratio (x) = -0.09710 0.25408
# Poissons Ratio (y) = -0.07999 0.13855
# Poissons Ratio (z) = 0.16018 0.10603
#
# Static dielectric constant tensor:
#      x y z
#    x 4.053630 0.000000 0.084280 
#    y 0.000000 4.289750 0.000000 
#    z 0.084280 0.000000 4.412510 
# 
# 
# High freq. dielectric constant tensor:
#      x y z
#    x 1.952850 0.000000 -0.002000 
#    y 0.000000 1.955190 0.000000 
#    z -0.002000 0.000000 1.970990 
# 
# From -- ./inp_files/77474.got.cif
#   From: 2010.06.25/outbox.cif.g09.slc.cpg/sg13_39_cif.got.tgz:77474.got - 2010.06.28 04:50:58.
