data_PCOD8120057
_publ_section_title
;
Structure prediction by ZEFSAII (Michael W. Deem and Ramdas Pophale) SiO2 
 PCOD8120057
Probable space group: P 2/C
;
_chemical_formula_sum "Si O2"
_cell_formula_units_Z 28
_cell_length_a 15.603056
_cell_length_b 12.142306
_cell_length_c 8.742184
_cell_angle_alpha 90.000000
_cell_angle_beta 119.811698
_cell_angle_gamma 90.000000
_cell_volume 1437.084637
_symmetry_space_group_name_H-M "P 2/C"
_symmetry_group_IT_number 13
_symmetry_cell_setting 'monoclinic'
loop_
_space_group_symop_operation_xyz
x,y,z
-x,y,1/2-z
-x,-y,-z
x,-y,1/2+z
loop_
_atom_site_type_symbol
_atom_site_label
_atom_site_fract_x
_atom_site_fract_y
_atom_site_fract_z
Si Si1 0.592904 0.136153 0.546190
Si Si2 0.425966 0.550099 0.815313
Si Si3 0.718034 0.268893 0.169365
Si Si4 0.690253 0.670903 0.303095
Si Si5 0.101150 0.375457 0.033226
Si Si6 0.883186 0.610697 0.304508
Si Si7 0.624164 0.080805 0.237017
O O1 0.618429 0.258083 0.629733
O O2 0.645900 0.103841 0.434476
O O3 0.477193 0.133290 0.413953
O O4 0.626026 0.049504 0.706372
O O5 0.500000 0.593881 0.750000
O O6 0.359300 0.650259 0.814282
O O7 0.351848 0.451218 0.702093
O O8 0.500000 0.500000 0.000000
O O9 0.830713 0.292496 0.313114
O O10 0.706464 0.143445 0.212810
O O11 0.701829 0.270976 0.975005
O O12 0.796250 0.671841 0.315664
O O13 0.141668 0.391417 0.897406
O O14 0.988478 0.330141 0.930599
O O15 0.107796 0.486931 0.132913
#
# Coordination Sequence:
#
# PCOD8120057 Si02
#       7
#     4   4   4   4   4   4   4
#     4  10  22  39  61  83 117 152 199 241 286 337
#     4  12  26  38  51  80 121 158 192 231 284 342
#     4  12  24  37  60  84 117 155 197 236 292 345
#     4  12  24  38  58  86 116 157 194 240 288 348
#     4  10  21  37  57  83 113 153 192 240 289 347
#     4  10  21  37  57  82 116 149 195 239 289 346
#     4  10  22  39  60  85 113 156 196 243 284 340
#
# _framework density 19.483891
#
# number of rings (size 3 to 8) (size 9 to 14) (size 15 to 20)
#    0.000    1.143    2.857    3.429    6.000    2.857 
#    0.000    0.000    0.000    0.857    0.000    0.000 
#    0.000    0.000    0.000    0.000    0.000    0.000 
#
# Total GULP energy -347172.868000 kJ/mol
# GULP energy per Si atom -12399.031000 kJ/mol
# Density = 1.943954 g / cm^3
# Si number density = 19.483891 Si / 1000 Ang^3
#
#
#
# Elastic Constant Matrix: (Units=GPa)
#
#
# Indices 1 2 3 4 5 6 
#
# 1 100.9050 15.0923 20.2798 0.0000 -5.2650 0.0000
# 2 15.0923 55.4563 3.7947 0.0000 2.1955 0.0000
# 3 20.2798 3.7947 85.3274 0.0000 -9.5562 0.0000
# 4 0.0000 0.0000 0.0000 29.1492 0.0000 -1.8193
# 5 -5.2650 2.1955 -9.5562 0.0000 35.2516 0.0000
# 6 0.0000 0.0000 0.0000 -1.8193 0.0000 27.5228
#
#
#
# Elastic Compliance Matrix: (Units=1/GPa)
#
#
# Indices 1 2 3 4 5 6 
#
# 1 0.010864 -0.002844 -0.002325 0.000000 0.001170 0.000000
# 2 -0.002844 0.018898 -0.000355 0.000000 -0.001698 0.000000
# 3 -0.002325 -0.000355 0.012635 0.000000 0.003100 0.000000
# 4 0.000000 0.000000 0.000000 0.034448 0.000000 0.002277
# 5 0.001170 -0.001698 0.003100 0.000000 0.029488 0.000000
# 6 0.000000 0.000000 0.000000 0.002277 0.000000 0.036484
#
#
# Mechanical properties :
#
#
# Convention : Reuss Voigt Hill
#
# Bulk Modulus (GPa) = 31.89753 35.55804 33.72779
# Shear Modulus (GPa) = 30.42963 31.88617 31.15790
#
# Velocity S-wave (km/s) = 3.95623 4.04981 4.00329
# Velocity P-wave (km/s) = 6.10539 6.33699 6.22227
#
# Compressibility (1/GPa) = 0.03135039
#
# Stress axis : x y z
#
# Youngs Moduli (GPa) = 92.04817 52.91668 79.14518
#
# Poissons Ratio (x) = 0.15049 0.18398
# Poissons Ratio (y) = 0.26177 0.02807
# Poissons Ratio (z) = 0.21397 0.01877
#
# Static dielectric constant tensor:
#      x y z
#    x 3.780650 0.000000 0.040500 
#    y 0.000000 3.469130 0.000000 
#    z 0.040500 0.000000 3.716170 
# 
# 
# High freq. dielectric constant tensor:
#      x y z
#    x 1.758080 0.000000 -0.011510 
#    y 0.000000 1.733950 0.000000 
#    z -0.011510 0.000000 1.773660 
# 
# From -- ./inp_files/19100.got.cif
#   From: 2010.06.25/outbox.cif.g09.slc.cpg/sg13_10_cif.got.tgz:19100.got - 2010.06.28 04:50:58.
