data_PCOD8120201
_publ_section_title
;
Structure prediction by ZEFSAII (Michael W. Deem and Ramdas Pophale) SiO2 
 PCOD8120201
Probable space group: P 2/C
;
_chemical_formula_sum "Si O2"
_cell_formula_units_Z 28
_cell_length_a 18.174320
_cell_length_b 8.777578
_cell_length_c 29.743916
_cell_angle_alpha 90.000000
_cell_angle_beta 162.342659
_cell_angle_gamma 90.000000
_cell_volume 1439.253629
_symmetry_space_group_name_H-M "P 2/C"
_symmetry_group_IT_number 13
_symmetry_cell_setting 'monoclinic'
loop_
_space_group_symop_operation_xyz
x,y,z
-x,y,1/2-z
-x,-y,-z
x,-y,1/2+z
loop_
_atom_site_type_symbol
_atom_site_label
_atom_site_fract_x
_atom_site_fract_y
_atom_site_fract_z
Si Si1 0.754388 0.751762 0.856898
Si Si2 0.335488 0.751727 0.438056
Si Si3 0.033818 0.905828 0.336406
Si Si4 0.906706 0.751995 0.771819
Si Si5 0.866991 0.248036 0.001943
Si Si6 0.255844 0.094077 0.058414
Si Si7 0.500000 0.523559 0.250000
Si Si8 0.000000 0.523525 0.750000
O O1 0.852899 0.824508 0.960780
O O2 0.529797 0.852224 0.708321
O O3 0.668829 0.579309 0.816218
O O4 0.966705 0.753554 0.945023
O O5 0.256157 0.852298 0.434665
O O6 0.619984 0.753487 0.598316
O O7 0.215634 0.824415 0.323490
O O8 0.241696 0.579219 0.389076
O O9 0.084651 0.858495 0.417329
O O10 0.015836 0.086794 0.320719
O O11 0.970855 0.711558 0.860433
O O12 0.024892 0.625625 0.808848
O O13 0.660790 0.374548 0.876827
O O14 0.735217 0.086835 0.930413
#
# Coordination Sequence:
#
# PCOD8120201 Si02
#       8
#     4   4   4   4   4   4   2   2
#     4  10  21  38  59  80 112 147 182 227 271 324
#     4  10  21  38  59  80 112 147 182 227 271 324
#     4   9  19  35  57  83 109 142 184 229 273 320
#     4  11  22  37  58  82 111 146 183 225 275 326
#     4  11  22  37  58  82 111 146 183 225 275 326
#     4   9  19  35  57  83 109 142 184 229 273 320
#     4  10  22  38  54  82 112 146 184 224 268 322
#     4  10  22  38  54  82 112 146 184 224 268 322
#
# _framework density 19.454528
#
# number of rings (size 3 to 8) (size 9 to 14) (size 15 to 20)
#    0.000    2.286    0.000    4.286    0.000    5.714 
#    0.000    4.286    0.000    0.000    0.000    0.000 
#    0.000    0.000    0.000    0.000    0.000    0.000 
#
# Total GULP energy -347271.637570 kJ/mol
# GULP energy per Si atom -12402.558485 kJ/mol
# Density = 1.941025 g / cm^3
# Si number density = 19.454528 Si / 1000 Ang^3
#
#
#
# Elastic Constant Matrix: (Units=GPa)
#
#
# Indices 1 2 3 4 5 6 
#
# 1 101.3195 59.1337 49.6484 0.0000 -28.6159 0.0000
# 2 59.1337 129.9416 54.8409 0.0000 -16.4532 0.0000
# 3 49.6484 54.8409 86.6410 0.0000 -26.7424 0.0000
# 4 0.0000 0.0000 0.0000 16.7356 0.0000 -1.4177
# 5 -28.6159 -16.4532 -26.7424 0.0000 29.2599 0.0000
# 6 0.0000 0.0000 0.0000 -1.4177 0.0000 17.2237
#
#
#
# Elastic Compliance Matrix: (Units=1/GPa)
#
#
# Indices 1 2 3 4 5 6 
#
# 1 0.017787 -0.005232 -0.003371 0.000000 0.011373 0.000000
# 2 -0.005232 0.012041 -0.005729 0.000000 -0.003582 0.000000
# 3 -0.003371 -0.005729 0.021017 0.000000 0.012690 0.000000
# 4 0.000000 0.000000 0.000000 0.060172 0.000000 0.004953
# 5 0.011373 -0.003582 0.012690 0.000000 0.054883 0.000000
# 6 0.000000 0.000000 0.000000 0.004953 0.000000 0.058467
#
#
# Mechanical properties :
#
#
# Convention : Reuss Voigt Hill
#
# Bulk Modulus (GPa) = 45.08283 71.68312 58.38298
# Shear Modulus (GPa) = 19.19937 22.92912 21.06425
#
# Velocity S-wave (km/s) = 3.14488 3.43680 3.29408
# Velocity P-wave (km/s) = 6.03413 7.25777 6.67406
#
# Compressibility (1/GPa) = 0.02218139
#
# Stress axis : x y z
#
# Youngs Moduli (GPa) = 56.22061 83.04897 47.58108
#
# Poissons Ratio (x) = 0.43451 0.16038
# Poissons Ratio (y) = 0.29414 0.27260
# Poissons Ratio (z) = 0.18950 0.47580
#
# Static dielectric constant tensor:
#      x y z
#    x 3.533760 0.000000 -0.216330 
#    y 0.000000 3.718950 0.000000 
#    z -0.216330 0.000000 3.474860 
# 
# 
# High freq. dielectric constant tensor:
#      x y z
#    x 1.757010 0.000000 -0.012040 
#    y 0.000000 1.771620 0.000000 
#    z -0.012040 0.000000 1.753680 
# 
# From -- ./inp_files/97326.got.cif
#   From: 2010.06.25/outbox.cif.g09.slc.cpg/sg13_49_cif.got.tgz:97326.got - 2010.06.28 04:50:58.
