data_PCOD8120723
_publ_section_title
;
Structure prediction by ZEFSAII (Michael W. Deem and Ramdas Pophale) SiO2 
 PCOD8120723
Probable space group: P 2/C
;
_chemical_formula_sum "Si O2"
_cell_formula_units_Z 24
_cell_length_a 17.125776
_cell_length_b 12.378414
_cell_length_c 12.990045
_cell_angle_alpha 90.000000
_cell_angle_beta 24.024208
_cell_angle_gamma 90.000000
_cell_volume 1121.117463
_symmetry_space_group_name_H-M "P 2/C"
_symmetry_group_IT_number 13
_symmetry_cell_setting 'monoclinic'
loop_
_space_group_symop_operation_xyz
x,y,z
-x,y,1/2-z
-x,-y,-z
x,-y,1/2+z
loop_
_atom_site_type_symbol
_atom_site_label
_atom_site_fract_x
_atom_site_fract_y
_atom_site_fract_z
Si Si1 0.640517 0.343712 0.991348
Si Si2 0.626245 0.565317 0.927059
Si Si3 0.064748 0.099833 0.061890
Si Si4 0.778807 0.891740 0.726260
Si Si5 0.420791 0.236475 0.646386
Si Si6 0.955155 0.306879 0.920996
O O1 0.671650 0.474451 0.957945
O O2 0.543507 0.290920 0.007968
O O3 0.848034 0.291559 0.754439
O O4 0.500000 0.306920 0.250000
O O5 0.822604 0.604615 0.636546
O O6 0.500000 0.500000 0.000000
O O7 0.501391 0.666777 0.123540
O O8 0.000000 0.052423 0.250000
O O9 0.881098 0.130861 0.213554
O O10 0.198156 0.204419 0.926915
O O11 0.191396 0.013945 0.846250
O O12 0.857882 0.810732 0.543948
O O13 0.551224 0.869560 0.010484
O O14 0.000000 0.341802 0.750000
#
# Coordination Sequence:
#
# PCOD8120723 Si02
#       6
#     4   4   4   4   4   4
#     4  11  21  38  61  90 121 165 210 256 307 366
#     4   9  20  37  56  83 122 154 203 256 297 361
#     4  11  23  41  64  92 127 161 204 249 314 366
#     4  10  22  41  64  91 125 160 204 260 294 372
#     4  10  21  42  61  88 127 161 206 255 303 368
#     4  11  20  37  64  90 122 162 205 256 312 359
#
# _framework density 21.407212999999999
#
# number of rings (size 3 to 8) (size 9 to 14) (size 15 to 20)
#    0.000    1.667    1.667    4.500    0.000    0.667 
#    6.000    3.333    0.000    0.000    0.000    0.000 
#    0.000    0.000    0.000    0.000    0.000    0.000 
#
# Total GULP energy -297443.173069 kJ/mol
# GULP energy per Si atom -12393.465545 kJ/mol
# Density = 2.135849 g / cm^3
# Si number density = 21.407213 Si / 1000 Ang^3
#
#
#
# Elastic Constant Matrix: (Units=GPa)
#
#
# Indices 1 2 3 4 5 6 
#
# 1 75.5912 10.7657 27.7434 0.0000 -11.2818 0.0000
# 2 10.7657 57.3764 8.3740 0.0000 -7.3289 0.0000
# 3 27.7434 8.3740 68.6894 0.0000 -18.0954 0.0000
# 4 0.0000 0.0000 0.0000 29.5869 0.0000 -6.1135
# 5 -11.2818 -7.3289 -18.0954 0.0000 33.9917 0.0000
# 6 0.0000 0.0000 0.0000 -6.1135 0.0000 29.0165
#
#
#
# Elastic Compliance Matrix: (Units=1/GPa)
#
#
# Indices 1 2 3 4 5 6 
#
# 1 0.015863 -0.001913 -0.005694 0.000000 0.001821 0.000000
# 2 -0.001913 0.018262 -0.000679 0.000000 0.002941 0.000000
# 3 -0.005694 -0.000679 0.019080 0.000000 0.008121 0.000000
# 4 0.000000 0.000000 0.000000 0.035337 0.000000 0.007445
# 5 0.001821 0.002941 0.008121 0.000000 0.034981 0.000000
# 6 0.000000 0.000000 0.000000 0.007445 0.000000 0.036032
#
#
# Mechanical properties :
#
#
# Convention : Reuss Voigt Hill
#
# Bulk Modulus (GPa) = 27.29691 32.82480 30.06085
# Shear Modulus (GPa) = 26.54793 28.83728 27.69261
#
# Velocity S-wave (km/s) = 3.52538 3.67424 3.60058
# Velocity P-wave (km/s) = 5.41757 5.77641 5.59986
#
# Compressibility (1/GPa) = 0.03663418
#
# Stress axis : x y z
#
# Youngs Moduli (GPa) = 63.03934 54.75710 52.41014
#
# Poissons Ratio (x) = 0.10474 0.29843
# Poissons Ratio (y) = 0.12058 0.03559
# Poissons Ratio (z) = 0.35895 0.03718
#
# Static dielectric constant tensor:
#      x y z
#    x 3.906000 0.000000 -0.263940 
#    y 0.000000 4.327550 0.000000 
#    z -0.263940 0.000000 3.542270 
# 
# 
# High freq. dielectric constant tensor:
#      x y z
#    x 1.837060 0.000000 -0.026140 
#    y 0.000000 1.840100 0.000000 
#    z -0.026140 0.000000 1.828620 
# 
# From -- ./inp_files/57666.got.cif
#   From: 2010.06.25/outbox.cif.g09.slc.cpg/sg13_29_cif.got.tgz:57666.got - 2010.06.28 04:50:58.
