data_PCOD8120728
_publ_section_title
;
Structure prediction by ZEFSAII (Michael W. Deem and Ramdas Pophale) SiO2 
 PCOD8120728
Probable space group: P 2/C
;
_chemical_formula_sum "Si O2"
_cell_formula_units_Z 20
_cell_length_a 7.641155
_cell_length_b 13.638528
_cell_length_c 12.477539
_cell_angle_alpha 90.000000
_cell_angle_beta 126.733047
_cell_angle_gamma 90.000000
_cell_volume 1042.128999
_symmetry_space_group_name_H-M "P 2/C"
_symmetry_group_IT_number 13
_symmetry_cell_setting 'monoclinic'
loop_
_space_group_symop_operation_xyz
x,y,z
-x,y,1/2-z
-x,-y,-z
x,-y,1/2+z
loop_
_atom_site_type_symbol
_atom_site_label
_atom_site_fract_x
_atom_site_fract_y
_atom_site_fract_z
Si Si1 0.753507 0.078100 0.150122
Si Si2 0.537150 0.107407 0.642114
Si Si3 0.295245 0.588519 0.600325
Si Si4 0.475796 0.738595 0.961936
Si Si5 0.891355 0.411761 0.100395
O O1 0.620744 0.172725 0.147419
O O2 0.000000 0.108819 0.250000
O O3 0.718614 0.977846 0.202931
O O4 0.679672 0.064551 0.997870
O O5 0.500000 0.135409 0.750000
O O6 0.606300 0.209431 0.608635
O O7 0.500000 0.560004 0.750000
O O8 0.354613 0.678369 0.545523
O O9 0.245041 0.497236 0.505824
O O10 0.087532 0.622267 0.594096
O O11 0.273748 0.676316 0.935507
O O12 0.000000 0.451311 0.250000
#
# Coordination Sequence:
#
# PCOD8120728 Si02
#       5
#     4   4   4   4   4
#     4   9  20  40  61  88 122 156 202 252 304 367
#     4   9  21  41  58  90 124 160 199 252 314 352
#     4  11  24  39  66  88 124 167 197 258 312 353
#     4  10  21  42  62  91 123 160 207 256 286 382
#     4  11  23  42  61  94 122 159 213 245 312 364
#
# _framework density 19.191481
#
# number of rings (size 3 to 8) (size 9 to 14) (size 15 to 20)
#    1.200    0.800    2.000    1.200    0.000    2.400 
#    7.200    0.000    0.000    0.000    0.000    0.000 
#    0.000    0.000    0.000    0.000    0.000    0.000 
#
# Total GULP energy -247779.781049 kJ/mol
# GULP energy per Si atom -12388.989052 kJ/mol
# Density = 1.914780 g / cm^3
# Si number density = 19.191481 Si / 1000 Ang^3
#
#
#
# Elastic Constant Matrix: (Units=GPa)
#
#
# Indices 1 2 3 4 5 6 
#
# 1 113.9078 69.5285 45.8026 0.0000 -10.3221 0.0000
# 2 69.5285 135.4786 55.3667 0.0000 -10.5020 0.0000
# 3 45.8026 55.3667 84.4231 0.0000 -21.5055 0.0000
# 4 0.0000 0.0000 0.0000 20.0888 0.0000 -2.5172
# 5 -10.3221 -10.5020 -21.5055 0.0000 25.5146 0.0000
# 6 0.0000 0.0000 0.0000 -2.5172 0.0000 30.6948
#
#
#
# Elastic Compliance Matrix: (Units=1/GPa)
#
#
# Indices 1 2 3 4 5 6 
#
# 1 0.013637 -0.005432 -0.003820 0.000000 0.000061 0.000000
# 2 -0.005432 0.012314 -0.005600 0.000000 -0.001849 0.000000
# 3 -0.003820 -0.005600 0.021150 0.000000 0.013977 0.000000
# 4 0.000000 0.000000 0.000000 0.050296 0.000000 0.004125
# 5 0.000061 -0.001849 0.013977 0.000000 0.050237 0.000000
# 6 0.000000 0.000000 0.000000 0.004125 0.000000 0.032917
#
#
# Mechanical properties :
#
#
# Convention : Reuss Voigt Hill
#
# Bulk Modulus (GPa) = 57.48188 75.02280 66.25234
# Shear Modulus (GPa) = 23.14227 26.13377 24.63802
#
# Velocity S-wave (km/s) = 3.47632 3.69418 3.58690
# Velocity P-wave (km/s) = 6.79190 7.57446 7.19383
#
# Compressibility (1/GPa) = 0.01739679
#
# Stress axis : x y z
#
# Youngs Moduli (GPa) = 73.33229 81.20594 47.28043
#
# Poissons Ratio (x) = 0.44115 0.18061
# Poissons Ratio (y) = 0.39838 0.26476
# Poissons Ratio (z) = 0.28013 0.45473
#
# Static dielectric constant tensor:
#      x y z
#    x 3.408260 0.000000 0.042190 
#    y 0.000000 3.532300 0.000000 
#    z 0.042190 0.000000 3.534070 
# 
# 
# High freq. dielectric constant tensor:
#      x y z
#    x 1.731430 0.000000 0.000490 
#    y 0.000000 1.753560 0.000000 
#    z 0.000490 0.000000 1.742840 
# 
# From -- ./inp_files/29766.got.cif
#   From: 2010.06.25/outbox.cif.g09.slc.cpg/sg13_15_cif.got.tgz:29766.got - 2010.06.28 04:50:58.
