data_PCOD8120064
_publ_section_title
;
Structure prediction by ZEFSAII (Michael W. Deem and Ramdas Pophale) SiO2 
 PCOD8120064
Probable space group: P 2/C
;
_chemical_formula_sum "Si O2"
_cell_formula_units_Z 32
_cell_length_a 11.981335
_cell_length_b 9.523879
_cell_length_c 28.266668
_cell_angle_alpha 90.000000
_cell_angle_beta 148.441329
_cell_angle_gamma 90.000000
_cell_volume 1688.121424
_symmetry_space_group_name_H-M "P 2/C"
_symmetry_group_IT_number 13
_symmetry_cell_setting 'monoclinic'
loop_
_space_group_symop_operation_xyz
x,y,z
-x,y,1/2-z
-x,-y,-z
x,-y,1/2+z
loop_
_atom_site_type_symbol
_atom_site_label
_atom_site_fract_x
_atom_site_fract_y
_atom_site_fract_z
Si Si1 0.806943 0.428322 0.403747
Si Si2 0.578687 0.583294 0.912266
Si Si3 0.170983 0.407668 0.773307
Si Si4 0.026312 0.081637 0.615467
Si Si5 0.708373 0.121862 0.354209
Si Si6 0.037380 0.592525 0.120716
Si Si7 0.581003 0.906437 0.912905
Si Si8 0.831958 0.921179 0.228849
O O1 0.603469 0.446945 0.364769
O O2 0.850541 0.262043 0.412126
O O3 0.000000 0.500000 0.500000
O O4 0.786489 0.505914 0.346007
O O5 0.391302 0.486269 0.864366
O O6 0.514699 0.744998 0.895764
O O7 0.796598 0.549731 0.019304
O O8 0.216294 0.243048 0.792414
O O9 0.000000 0.456535 0.750000
O O10 0.072928 0.450271 0.687547
O O11 0.079766 0.034958 0.687932
O O12 0.080645 0.244280 0.626591
O O13 0.777313 0.053750 0.517592
O O14 0.162143 0.995637 0.626759
O O15 0.500000 0.166647 0.250000
O O16 0.643464 0.058245 0.381407
O O17 0.387096 0.000241 0.860409
O O18 0.000000 0.969109 0.250000
#
# Coordination Sequence:
#
# PCOD8120064 Si02
#       8
#     4   4   4   4   4   4   4   4
#     4   9  20  36  55  84 115 144 178 224 275 334
#     4   9  20  37  55  81 111 141 183 227 280 333
#     4  10  22  37  55  78 108 146 188 232 279 329
#     4  10  21  39  58  84 116 151 188 232 289 340
#     4  11  21  35  59  88 118 149 187 234 281 337
#     4   9  20  37  57  80 112 147 182 230 280 337
#     4  10  21  37  58  81 114 148 182 234 284 338
#     4  10  22  40  57  81 113 147 193 239 282 339
#
# _framework density 18.955983
#
# number of rings (size 3 to 8) (size 9 to 14) (size 15 to 20)
#    0.000    2.250    1.250    1.125    3.500    4.500 
#    0.000    0.000    0.000    0.000    0.000    0.000 
#    0.000    0.000    0.000    0.000    0.000    0.000 
#
# Total GULP energy -396814.841061 kJ/mol
# GULP energy per Si atom -12400.463783 kJ/mol
# Density = 1.891284 g / cm^3
# Si number density = 18.955983 Si / 1000 Ang^3
#
#
#
# Elastic Constant Matrix: (Units=GPa)
#
#
# Indices 1 2 3 4 5 6 
#
# 1 90.1967 44.0805 24.4356 0.0000 15.4875 0.0000
# 2 44.0805 63.9347 37.2319 0.0000 16.6011 0.0000
# 3 24.4356 37.2319 82.4503 0.0000 11.2856 0.0000
# 4 0.0000 0.0000 0.0000 19.1068 0.0000 12.1353
# 5 15.4875 16.6011 11.2856 0.0000 27.6832 0.0000
# 6 0.0000 0.0000 0.0000 12.1353 0.0000 32.7080
#
#
#
# Elastic Compliance Matrix: (Units=1/GPa)
#
#
# Indices 1 2 3 4 5 6 
#
# 1 0.016930 -0.011151 0.000423 0.000000 -0.002957 0.000000
# 2 -0.011151 0.031121 -0.009583 0.000000 -0.008518 0.000000
# 3 0.000423 -0.009583 0.016497 0.000000 -0.001215 0.000000
# 4 0.000000 0.000000 0.000000 0.068473 0.000000 -0.025405
# 5 -0.002957 -0.008518 -0.001215 0.000000 0.043381 0.000000
# 6 0.000000 0.000000 0.000000 -0.025405 0.000000 0.039999
#
#
# Mechanical properties :
#
#
# Convention : Reuss Voigt Hill
#
# Bulk Modulus (GPa) = 41.79550 49.78641 45.79095
# Shear Modulus (GPa) = 18.86817 24.62184 21.74501
#
# Velocity S-wave (km/s) = 3.15837 3.60793 3.39061
# Velocity P-wave (km/s) = 5.94953 6.60889 6.28786
#
# Compressibility (1/GPa) = 0.02392602
#
# Stress axis : x y z
#
# Youngs Moduli (GPa) = 59.06819 32.13266 60.61774
#
# Poissons Ratio (x) = 0.35830 -0.02562
# Poissons Ratio (y) = 0.65865 0.58088
# Poissons Ratio (z) = -0.02496 0.30792
#
# Static dielectric constant tensor:
#      x y z
#    x 3.988890 0.000000 0.430010 
#    y 0.000000 3.448900 0.000000 
#    z 0.430010 0.000000 4.509750 
# 
# 
# High freq. dielectric constant tensor:
#      x y z
#    x 1.735710 0.000000 -0.008060 
#    y 0.000000 1.733040 0.000000 
#    z -0.008060 0.000000 1.738580 
# 
# From -- ./inp_files/96728.got.cif
#   From: 2010.06.25/outbox.cif.g09.slc.cpg/sg13_49_cif.got.tgz:96728.got - 2010.06.28 04:50:58.
