data_PCOD8120945
_publ_section_title
;
Structure prediction by ZEFSAII (Michael W. Deem and Ramdas Pophale) SiO2 
 PCOD8120945
Probable space group: P 2/C
;
_chemical_formula_sum "Si O2"
_cell_formula_units_Z 32
_cell_length_a 14.049921
_cell_length_b 9.753083
_cell_length_c 18.291818
_cell_angle_alpha 90.000000
_cell_angle_beta 137.044865
_cell_angle_gamma 90.000000
_cell_volume 1708.012468
_symmetry_space_group_name_H-M "P 2/C"
_symmetry_group_IT_number 13
_symmetry_cell_setting 'monoclinic'
loop_
_space_group_symop_operation_xyz
x,y,z
-x,y,1/2-z
-x,-y,-z
x,-y,1/2+z
loop_
_atom_site_type_symbol
_atom_site_label
_atom_site_fract_x
_atom_site_fract_y
_atom_site_fract_z
Si Si1 0.655192 0.875238 0.030401
Si Si2 0.643933 0.068937 0.158511
Si Si3 0.077825 0.051307 0.116134
Si Si4 0.850606 0.587241 0.996729
Si Si5 0.942777 0.837670 0.139390
Si Si6 0.925403 0.640660 0.879753
Si Si7 0.676465 0.375804 0.141649
Si Si8 0.380303 0.570517 0.518102
O O1 0.790504 0.909332 0.058037
O O2 0.656210 0.711344 0.044798
O O3 0.663956 0.943675 0.114469
O O4 0.518641 0.925935 0.907816
O O5 0.750326 0.053157 0.287610
O O6 0.672497 0.211198 0.131513
O O7 0.025897 0.203373 0.105896
O O8 0.043445 0.951355 0.163075
O O9 0.000000 0.000000 0.000000
O O10 0.940237 0.701598 0.089191
O O11 0.697551 0.566366 0.947010
O O12 0.933165 0.444755 0.043081
O O13 0.837585 0.635282 0.905943
O O14 0.000000 0.792814 0.250000
O O15 0.822237 0.582042 0.760219
O O16 0.672380 0.441968 0.059025
O O17 0.548744 0.433635 0.120267
#
# Coordination Sequence:
#
# PCOD8120945 Si02
#       8
#     4   4   4   4   4   4   4   4
#     4   9  18  33  54  82 106 138 184 227 267 322
#     4   9  18  34  54  79 110 140 177 225 276 325
#     4  11  21  38  56  80 114 148 181 230 285 337
#     4  10  22  37  54  80 111 144 189 230 273 330
#     4  11  21  35  58  86 108 145 188 228 277 336
#     4  10  22  37  54  80 112 151 183 228 281 331
#     4   9  19  34  55  81 110 142 180 223 285 328
#     4   9  19  35  55  82 108 142 182 230 272 329
#
# _framework density 18.735226000000001
#
# number of rings (size 3 to 8) (size 9 to 14) (size 15 to 20)
#    0.000    2.250    2.500    0.000    3.500    1.500 
#    0.000    0.625    0.000    0.000    6.500    0.000 
#    0.000    0.000    0.000    0.000    0.000    0.000 
#
# Total GULP energy -396600.815426 kJ/mol
# GULP energy per Si atom -12393.775482 kJ/mol
# Density = 1.869258 g / cm^3
# Si number density = 18.735226 Si / 1000 Ang^3
#
#
#
# Elastic Constant Matrix: (Units=GPa)
#
#
# Indices 1 2 3 4 5 6 
#
# 1 63.3548 16.5618 4.7955 0.0000 8.5426 0.0000
# 2 16.5618 68.5529 22.5874 0.0000 1.2192 0.0000
# 3 4.7955 22.5874 96.0114 0.0000 10.0557 0.0000
# 4 0.0000 0.0000 0.0000 23.6404 0.0000 -1.3519
# 5 8.5426 1.2192 10.0557 0.0000 23.8237 0.0000
# 6 0.0000 0.0000 0.0000 -1.3519 0.0000 22.2076
#
#
#
# Elastic Compliance Matrix: (Units=1/GPa)
#
#
# Indices 1 2 3 4 5 6 
#
# 1 0.017760 -0.004452 0.000841 0.000000 -0.006495 0.000000
# 2 -0.004452 0.016944 -0.004018 0.000000 0.002425 0.000000
# 3 0.000841 -0.004018 0.011853 0.000000 -0.005099 0.000000
# 4 0.000000 0.000000 0.000000 0.042448 0.000000 0.002584
# 5 -0.006495 0.002425 -0.005099 0.000000 0.046332 0.000000
# 6 0.000000 0.000000 0.000000 0.002584 0.000000 0.045187
#
#
# Mechanical properties :
#
#
# Convention : Reuss Voigt Hill
#
# Bulk Modulus (GPa) = 31.95110 35.08983 33.52046
# Shear Modulus (GPa) = 24.24660 26.19932 25.22296
#
# Velocity S-wave (km/s) = 3.60136 3.74357 3.67316
# Velocity P-wave (km/s) = 5.86380 6.12011 5.99333
#
# Compressibility (1/GPa) = 0.03129783
#
# Stress axis : x y z
#
# Youngs Moduli (GPa) = 56.30579 59.01956 84.36932
#
# Poissons Ratio (x) = 0.26276 -0.07092
# Poissons Ratio (y) = 0.25068 0.33897
# Poissons Ratio (z) = -0.04733 0.23712
#
# Static dielectric constant tensor:
#      x y z
#    x 3.408830 0.000000 0.279940 
#    y 0.000000 3.479670 0.000000 
#    z 0.279940 0.000000 3.544980 
# 
# 
# High freq. dielectric constant tensor:
#      x y z
#    x 1.705150 0.000000 0.019310 
#    y 0.000000 1.734380 0.000000 
#    z 0.019310 0.000000 1.728040 
# 
# From -- ./inp_files/79840.got.cif
#   From: 2010.06.25/outbox.cif.g09.slc.cpg/sg13_40_cif.got.tgz:79840.got - 2010.06.28 04:50:58.
