data_PCOD8120808
_publ_section_title
;
Structure prediction by ZEFSAII (Michael W. Deem and Ramdas Pophale) SiO2 
 PCOD8120808
Probable space group: P 2/C
;
_chemical_formula_sum "Si O2"
_cell_formula_units_Z 32
_cell_length_a 25.211750
_cell_length_b 5.577571
_cell_length_c 14.232006
_cell_angle_alpha 90.000000
_cell_angle_beta 130.299272
_cell_angle_gamma 90.000000
_cell_volume 1526.351682
_symmetry_space_group_name_H-M "P 2/C"
_symmetry_group_IT_number 13
_symmetry_cell_setting 'monoclinic'
loop_
_space_group_symop_operation_xyz
x,y,z
-x,y,1/2-z
-x,-y,-z
x,-y,1/2+z
loop_
_atom_site_type_symbol
_atom_site_label
_atom_site_fract_x
_atom_site_fract_y
_atom_site_fract_z
Si Si1 0.098166 0.832532 0.615568
Si Si2 0.287711 0.694200 0.472821
Si Si3 0.396003 0.680365 0.088323
Si Si4 0.504493 0.362856 0.407831
Si Si5 0.988414 0.090209 0.843828
Si Si6 0.621990 0.947709 0.785780
Si Si7 0.630991 0.944952 0.087305
Si Si8 0.139547 0.674287 0.231928
O O1 0.138691 0.578920 0.673792
O O2 0.061181 0.822496 0.471785
O O3 0.039161 0.856467 0.629985
O O4 0.145795 0.078108 0.675898
O O5 0.328579 0.457420 0.550951
O O6 0.308655 0.890212 0.575023
O O7 0.314668 0.764999 0.399283
O O8 0.205149 0.661147 0.376996
O O9 0.461383 0.515637 0.136704
O O10 0.420321 0.857420 0.200293
O O11 0.366242 0.798045 0.958614
O O12 0.500000 0.500000 0.500000
O O13 0.428180 0.281770 0.285995
O O14 0.551169 0.130995 0.480313
O O15 0.930871 0.303312 0.786823
O O16 0.000000 0.016831 0.750000
O O17 0.648563 0.048246 0.717263
#
# Coordination Sequence:
#
# PCOD8120808 Si02
#       8
#     4   4   4   4   4   4   4   4
#     4   9  21  39  66  93 135 171 210 266 326 365
#     4  10  25  41  63  90 122 174 213 254 319 385
#     4  10  24  41  62  85 125 158 211 259 321 388
#     4  11  23  41  63  91 118 158 207 269 335 387
#     4   9  20  39  68 102 134 167 219 266 321 378
#     4  11  24  41  64  90 125 157 214 263 330 385
#     4  10  23  43  61  86 120 163 205 268 321 384
#     4  10  21  43  64  93 135 176 216 265 318 385
#
# _framework density 20.965026000000002
#
# number of rings (size 3 to 8) (size 9 to 14) (size 15 to 20)
#    0.750    1.250    1.250    0.750    5.250    6.000 
#    2.250    1.250    0.000    0.000    0.000    0.000 
#    0.000    0.000    0.000    0.000    0.000    0.000 
#
# Total GULP energy -396551.878577 kJ/mol
# GULP energy per Si atom -12392.246206 kJ/mol
# Density = 2.091731 g / cm^3
# Si number density = 20.965026 Si / 1000 Ang^3
#
#
#
# Elastic Constant Matrix: (Units=GPa)
#
#
# Indices 1 2 3 4 5 6 
#
# 1 40.9556 17.6008 47.1510 0.0000 -18.3867 0.0000
# 2 17.6008 109.4121 41.8452 0.0000 -3.1078 0.0000
# 3 47.1510 41.8452 149.2395 0.0000 -10.5373 0.0000
# 4 0.0000 0.0000 0.0000 26.5016 0.0000 -1.5165
# 5 -18.3867 -3.1078 -10.5373 0.0000 43.9884 0.0000
# 6 0.0000 0.0000 0.0000 -1.5165 0.0000 18.4824
#
#
#
# Elastic Compliance Matrix: (Units=1/GPa)
#
#
# Indices 1 2 3 4 5 6 
#
# 1 0.048487 -0.002148 -0.013525 0.000000 0.016875 0.000000
# 2 -0.002148 0.010333 -0.002269 0.000000 -0.000711 0.000000
# 3 -0.013525 -0.002269 0.011392 0.000000 -0.003085 0.000000
# 4 0.000000 0.000000 0.000000 0.037912 0.000000 0.003111
# 5 0.016875 -0.000711 -0.003085 0.000000 0.028998 0.000000
# 6 0.000000 0.000000 0.000000 0.003111 0.000000 0.054361
#
#
# Mechanical properties :
#
#
# Convention : Reuss Voigt Hill
#
# Bulk Modulus (GPa) = 29.13064 56.97793 43.05428
# Shear Modulus (GPa) = 20.93721 30.66182 25.79952
#
# Velocity S-wave (km/s) = 3.16361 3.82844 3.51179
# Velocity P-wave (km/s) = 5.22203 6.83954 6.08477
#
# Compressibility (1/GPa) = 0.03432812
#
# Stress axis : x y z
#
# Youngs Moduli (GPa) = 20.62398 96.77920 87.77898
#
# Poissons Ratio (x) = 0.20786 1.18725
# Poissons Ratio (y) = 0.04430 0.19916
# Poissons Ratio (z) = 0.27895 0.21958
#
# Static dielectric constant tensor:
#      x y z
#    x 3.343730 0.000000 0.002400 
#    y 0.000000 3.848960 0.000000 
#    z 0.002400 0.000000 3.608020 
# 
# 
# High freq. dielectric constant tensor:
#      x y z
#    x 1.783110 0.000000 -0.007720 
#    y 0.000000 1.825440 0.000000 
#    z -0.007720 0.000000 1.821970 
# 
# From -- ./inp_files/59767.got.cif
#   From: 2010.06.25/outbox.cif.g09.slc.cpg/sg13_30_cif.got.tgz:59767.got - 2010.06.28 04:50:58.
