data_PCOD8120264
_publ_section_title
;
Structure prediction by ZEFSAII (Michael W. Deem and Ramdas Pophale) SiO2 
 PCOD8120264
Probable space group: P 2/C
;
_chemical_formula_sum "Si O2"
_cell_formula_units_Z 18
_cell_length_a 5.276036
_cell_length_b 20.130119
_cell_length_c 7.764288
_cell_angle_alpha 90.000000
_cell_angle_beta 115.667244
_cell_angle_gamma 90.000000
_cell_volume 743.253646
_symmetry_space_group_name_H-M "P 2/C"
_symmetry_group_IT_number 13
_symmetry_cell_setting 'monoclinic'
loop_
_space_group_symop_operation_xyz
x,y,z
-x,y,1/2-z
-x,-y,-z
x,-y,1/2+z
loop_
_atom_site_type_symbol
_atom_site_label
_atom_site_fract_x
_atom_site_fract_y
_atom_site_fract_z
Si Si1 0.824947 0.559176 0.866728
Si Si2 0.725800 0.080119 0.962935
Si Si3 0.152657 0.299655 0.973863
Si Si4 0.344148 0.230487 0.523194
Si Si5 0.000000 0.979376 0.250000
O O1 0.500000 0.535497 0.750000
O O2 0.000000 0.580181 0.750000
O O3 0.814252 0.622025 0.989361
O O4 0.000000 0.500000 0.000000
O O5 0.500000 0.062802 0.750000
O O6 0.699926 0.153326 0.033587
O O7 0.997588 0.067945 0.919361
O O8 0.737974 0.029620 0.128872
O O9 0.463236 0.266308 0.064656
O O10 0.000000 0.286395 0.750000
O O11 0.961764 0.265476 0.065008
O O12 0.500000 0.238647 0.750000
#
# Coordination Sequence:
#
# PCOD8120264 Si02
#       5
#     4   4   4   4   2
#     4  12  26  45  71 104 143 181 226 279 338 402
#     4  10  21  38  62  87 131 169 228 281 351 402
#     4  10  21  42  66  96 130 177 222 272 333 405
#     4   9  20  36  66  90 127 175 222 269 340 406
#     4  10  22  38  60  94 122 172 228 288 342 412
#
# _framework density 24.217843999999999
#
# number of rings (size 3 to 8) (size 9 to 14) (size 15 to 20)
#    0.000    1.778    0.000    3.333    7.778    2.667 
#    6.000    0.000    0.000    0.000    0.000    0.000 
#    0.000    0.000    0.000    0.000    0.000    0.000 
#
# Total GULP energy -222988.413744 kJ/mol
# GULP energy per Si atom -12388.245208 kJ/mol
# Density = 2.416272 g / cm^3
# Si number density = 24.217844 Si / 1000 Ang^3
#
#
#
# Elastic Constant Matrix: (Units=GPa)
#
#
# Indices 1 2 3 4 5 6 
#
# 1 181.7814 84.3533 32.7794 0.0000 19.9983 0.0000
# 2 84.3533 183.3893 32.8795 0.0000 6.0091 0.0000
# 3 32.7794 32.8795 47.1882 0.0000 5.3838 0.0000
# 4 0.0000 0.0000 0.0000 6.6769 0.0000 -0.3177
# 5 19.9983 6.0091 5.3838 0.0000 39.6270 0.0000
# 6 0.0000 0.0000 0.0000 -0.3177 0.0000 39.4087
#
#
#
# Elastic Compliance Matrix: (Units=1/GPa)
#
#
# Indices 1 2 3 4 5 6 
#
# 1 0.007731 -0.002920 -0.002987 0.000000 -0.003053 0.000000
# 2 -0.002920 0.007340 -0.003176 0.000000 0.000792 0.000000
# 3 -0.002987 -0.003176 0.025650 0.000000 -0.001496 0.000000
# 4 0.000000 0.000000 0.000000 0.149827 0.000000 0.001208
# 5 -0.003053 0.000792 -0.001496 0.000000 0.026859 0.000000
# 6 0.000000 0.000000 0.000000 0.001208 0.000000 0.025385
#
#
# Mechanical properties :
#
#
# Convention : Reuss Voigt Hill
#
# Bulk Modulus (GPa) = 44.33781 79.15371 61.74576
# Shear Modulus (GPa) = 18.62362 34.63229 26.62795
#
# Velocity S-wave (km/s) = 2.77610 3.78568 3.31950
# Velocity P-wave (km/s) = 5.35007 7.20163 6.34377
#
# Compressibility (1/GPa) = 0.02255411
#
# Stress axis : x y z
#
# Youngs Moduli (GPa) = 129.35394 136.24795 38.98603
#
# Poissons Ratio (x) = 0.39789 0.11645
# Poissons Ratio (y) = 0.37775 0.12381
# Poissons Ratio (z) = 0.38639 0.43270
#
# Static dielectric constant tensor:
#      x y z
#    x -11.032010 0.000000 4.044460 
#    y 0.000000 4.117760 0.000000 
#    z 4.044460 0.000000 3.255950 
# 
# 
# High freq. dielectric constant tensor:
#      x y z
#    x 1.967260 0.000000 0.007260 
#    y 0.000000 1.961770 0.000000 
#    z 0.007260 0.000000 1.964620 
# 
# From -- ./inp_files/9632.got.cif
#   From: 2010.06.25/outbox.cif.g09.slc.cpg/sg13_5_cif.got.tgz:9632.got - 2010.06.28 04:50:58.
