data_PCOD8120847
_publ_section_title
;
Structure prediction by ZEFSAII (Michael W. Deem and Ramdas Pophale) SiO2 
 PCOD8120847
Probable space group: P 2/C
;
_chemical_formula_sum "Si O2"
_cell_formula_units_Z 30
_cell_length_a 8.040013
_cell_length_b 13.961795
_cell_length_c 11.183676
_cell_angle_alpha 90.000000
_cell_angle_beta 78.036365
_cell_angle_gamma 90.000000
_cell_volume 1228.133214
_symmetry_space_group_name_H-M "P 2/C"
_symmetry_group_IT_number 13
_symmetry_cell_setting 'monoclinic'
loop_
_space_group_symop_operation_xyz
x,y,z
-x,y,1/2-z
-x,-y,-z
x,-y,1/2+z
loop_
_atom_site_type_symbol
_atom_site_label
_atom_site_fract_x
_atom_site_fract_y
_atom_site_fract_z
Si Si1 0.550853 0.786050 0.379437
Si Si2 0.217709 0.154002 0.067518
Si Si3 0.000000 0.451501 0.250000
Si Si4 0.683658 0.046786 0.983143
Si Si5 0.916129 0.663167 0.997155
Si Si6 0.307227 0.812722 0.812494
Si Si7 0.319051 0.535705 0.335955
Si Si8 0.730591 0.357371 0.004464
O O1 0.500000 0.784441 0.250000
O O2 0.403273 0.813641 0.493782
O O3 0.695257 0.868668 0.380599
O O4 0.625727 0.681956 0.406420
O O5 0.082444 0.220664 0.017405
O O6 0.196253 0.176862 0.210325
O O7 0.182395 0.040709 0.053773
O O8 0.930771 0.386991 0.367359
O O9 0.831415 0.510945 0.235410
O O10 0.715997 0.090055 0.108911
O O11 0.500000 0.000000 0.000000
O O12 0.070600 0.626232 0.059753
O O13 0.738685 0.632427 0.086353
O O14 0.500000 0.797108 0.750000
O O15 0.249475 0.719305 0.891915
O O16 0.500000 0.556802 0.250000
O O17 0.350929 0.453160 0.430451
#
# Coordination Sequence:
#
# PCOD8120847 Si02
#       8
#     4   4   2   4   4   4   4   4
#     4  10  22  38  64 102 136 176 234 291 359 419
#     4  11  22  37  63  97 135 179 231 289 345 426
#     4  10  22  46  76 104 144 190 236 312 356 426
#     4   9  19  32  60  98 133 176 221 299 341 416
#     4  11  25  46  66 104 141 185 241 288 365 431
#     4  11  18  35  65  98 128 172 238 282 354 409
#     4  11  25  46  76 104 146 191 243 294 366 440
#     4  10  21  43  72  99 138 184 233 304 356 427
#
# _framework density 24.427318
#
# number of rings (size 3 to 8) (size 9 to 14) (size 15 to 20)
#    0.000    1.600    4.000    3.600    5.600    1.067 
#    7.200    2.667    0.000    0.000    0.000    0.000 
#    0.000    0.000    0.000    0.000    0.000    0.000 
#
# Total GULP energy -371870.490700 kJ/mol
# GULP energy per Si atom -12395.683023 kJ/mol
# Density = 2.437172 g / cm^3
# Si number density = 24.427318 Si / 1000 Ang^3
#
#
#
# Elastic Constant Matrix: (Units=GPa)
#
#
# Indices 1 2 3 4 5 6 
#
# 1 83.6019 17.5513 53.2113 0.0000 4.7725 0.0000
# 2 17.5513 84.0763 31.9350 0.0000 16.7456 0.0000
# 3 53.2113 31.9350 116.2672 0.0000 12.7992 0.0000
# 4 0.0000 0.0000 0.0000 20.4299 0.0000 2.9201
# 5 4.7725 16.7456 12.7992 0.0000 34.2200 0.0000
# 6 0.0000 0.0000 0.0000 2.9201 0.0000 34.6383
#
#
#
# Elastic Compliance Matrix: (Units=1/GPa)
#
#
# Indices 1 2 3 4 5 6 
#
# 1 0.016935 -0.000816 -0.007624 0.000000 0.000889 0.000000
# 2 -0.000816 0.014331 -0.002924 0.000000 -0.005806 0.000000
# 3 -0.007624 -0.002924 0.013160 0.000000 -0.002428 0.000000
# 4 0.000000 0.000000 0.000000 0.049545 0.000000 -0.004177
# 5 0.000889 -0.005806 -0.002428 0.000000 0.032848 0.000000
# 6 0.000000 0.000000 0.000000 -0.004177 0.000000 0.029222
#
#
# Mechanical properties :
#
#
# Convention : Reuss Voigt Hill
#
# Bulk Modulus (GPa) = 46.08676 54.37118 50.22897
# Shear Modulus (GPa) = 26.88148 29.94084 28.41116
#
# Velocity S-wave (km/s) = 3.32093 3.50481 3.41411
# Velocity P-wave (km/s) = 5.79764 6.21972 6.01239
#
# Compressibility (1/GPa) = 0.02169821
#
# Stress axis : x y z
#
# Youngs Moduli (GPa) = 59.05048 69.77795 75.98515
#
# Poissons Ratio (x) = 0.05697 0.57931
# Poissons Ratio (y) = 0.04821 0.22215
# Poissons Ratio (z) = 0.45020 0.20400
#
# Static dielectric constant tensor:
#      x y z
#    x 4.270380 0.000000 0.088490 
#    y 0.000000 4.972040 0.000000 
#    z 0.088490 0.000000 4.264830 
# 
# 
# High freq. dielectric constant tensor:
#      x y z
#    x 1.960740 0.000000 0.006970 
#    y 0.000000 1.988000 0.000000 
#    z 0.006970 0.000000 1.961120 
# 
# From -- ./inp_files/30370.got.cif
#   From: 2010.06.25/outbox.cif.g09.slc.cpg/sg13_16_cif.got.tgz:30370.got - 2010.06.28 04:50:58.
