data_PCOD8120336
_publ_section_title
;
Structure prediction by ZEFSAII (Michael W. Deem and Ramdas Pophale) SiO2 
 PCOD8120336
Probable space group: P 2/C
;
_chemical_formula_sum "Si O2"
_cell_formula_units_Z 30
_cell_length_a 7.634936
_cell_length_b 6.338685
_cell_length_c 30.621140
_cell_angle_alpha 90.000000
_cell_angle_beta 67.762266
_cell_angle_gamma 90.000000
_cell_volume 1371.700765
_symmetry_space_group_name_H-M "P 2/C"
_symmetry_group_IT_number 13
_symmetry_cell_setting 'monoclinic'
loop_
_space_group_symop_operation_xyz
x,y,z
-x,y,1/2-z
-x,-y,-z
x,-y,1/2+z
loop_
_atom_site_type_symbol
_atom_site_label
_atom_site_fract_x
_atom_site_fract_y
_atom_site_fract_z
Si Si1 0.401291 0.510864 0.919404
Si Si2 0.747425 0.973754 0.325493
Si Si3 0.219456 0.897269 0.442379
Si Si4 0.811116 0.246163 0.991974
Si Si5 0.219147 0.636445 0.103075
Si Si6 0.964605 0.344377 0.177504
Si Si7 0.000000 0.337368 0.750000
Si Si8 0.332143 0.160948 0.355595
O O1 0.621188 0.545849 0.908693
O O2 0.356574 0.619150 0.878095
O O3 0.385880 0.260714 0.914499
O O4 0.264542 0.558408 0.973078
O O5 0.536674 0.048250 0.330061
O O6 0.878535 0.179890 0.319873
O O7 0.748655 0.838182 0.369403
O O8 0.829163 0.815986 0.280879
O O9 0.289453 0.044192 0.475774
O O10 0.189608 0.027316 0.400145
O O11 0.035321 0.773627 0.475799
O O12 0.766944 0.266463 0.945900
O O13 0.033246 0.497467 0.131251
O O14 0.915398 0.508739 0.220680
O O15 0.777659 0.213667 0.179373
#
# Coordination Sequence:
#
# PCOD8120336 Si02
#       8
#     4   4   4   4   4   4   2   4
#     4  11  21  38  60  95 137 178 231 277 324 386
#     4  11  23  47  72  99 135 168 219 276 334 416
#     4  10  21  39  56  94 136 177 238 282 319 386
#     4  10  22  35  57  93 134 187 230 284 323 378
#     4  11  22  39  64  97 136 182 227 277 333 394
#     4  11  24  46  74 100 132 174 216 275 344 413
#     4  10  26  50  74 104 138 162 216 284 348 420
#     4  11  23  42  72  98 131 177 221 270 333 405
#
# _framework density 21.870657000000001
#
# number of rings (size 3 to 8) (size 9 to 14) (size 15 to 20)
#    0.000    1.333    2.667    2.800    0.000    4.800 
#    0.000    4.000    0.000    0.000    0.000    0.000 
#    0.000    0.000    0.000    0.000    0.000    0.000 
#
# Total GULP energy -371681.271072 kJ/mol
# GULP energy per Si atom -12389.375702 kJ/mol
# Density = 2.182088 g / cm^3
# Si number density = 21.870657 Si / 1000 Ang^3
#
#
#
# Elastic Constant Matrix: (Units=GPa)
#
#
# Indices 1 2 3 4 5 6 
#
# 1 110.3036 46.6540 43.2719 0.0000 3.4023 0.0000
# 2 46.6540 111.3549 47.1997 0.0000 -0.8245 0.0000
# 3 43.2719 47.1997 106.3146 0.0000 8.2786 0.0000
# 4 0.0000 0.0000 0.0000 23.9566 0.0000 -10.9821
# 5 3.4023 -0.8245 8.2786 0.0000 21.4711 0.0000
# 6 0.0000 0.0000 0.0000 -10.9821 0.0000 36.3424
#
#
#
# Elastic Compliance Matrix: (Units=1/GPa)
#
#
# Indices 1 2 3 4 5 6 
#
# 1 0.011867 -0.003643 -0.003150 0.000000 -0.000806 0.000000
# 2 -0.003643 0.012300 -0.004186 0.000000 0.002663 0.000000
# 3 -0.003150 -0.004186 0.012908 0.000000 -0.004638 0.000000
# 4 0.000000 0.000000 0.000000 0.048454 0.000000 0.014642
# 5 -0.000806 0.002663 -0.004638 0.000000 0.048593 0.000000
# 6 0.000000 0.000000 0.000000 0.014642 0.000000 0.031941
#
#
# Mechanical properties :
#
#
# Convention : Reuss Voigt Hill
#
# Bulk Modulus (GPa) = 66.14553 66.91383 66.52968
# Shear Modulus (GPa) = 25.89875 29.07720 27.48797
#
# Velocity S-wave (km/s) = 3.44492 3.65020 3.54904
# Velocity P-wave (km/s) = 6.79212 6.95895 6.87604
#
# Compressibility (1/GPa) = 0.01511818
#
# Stress axis : x y z
#
# Youngs Moduli (GPa) = 84.26533 81.29854 77.47315
#
# Poissons Ratio (x) = 0.29614 0.24406
# Poissons Ratio (y) = 0.30695 0.32428
# Poissons Ratio (z) = 0.26546 0.34029
#
# Static dielectric constant tensor:
#      x y z
#    x 3.776940 0.000000 -0.212270 
#    y 0.000000 4.311360 0.000000 
#    z -0.212270 0.000000 3.924070 
# 
# 
# High freq. dielectric constant tensor:
#      x y z
#    x 1.843090 0.000000 -0.014630 
#    y 0.000000 1.879610 0.000000 
#    z -0.014630 0.000000 1.858070 
# 
# From -- ./inp_files/95642.got.cif
#   From: 2010.06.25/outbox.cif.g09.slc.cpg/sg13_48_cif.got.tgz:95642.got - 2010.06.28 04:50:58.
