data_PCOD8120261
_publ_section_title
;
Structure prediction by ZEFSAII (Michael W. Deem and Ramdas Pophale) SiO2 
 PCOD8120261
Probable space group: P 2/C
;
_chemical_formula_sum "Si O2"
_cell_formula_units_Z 16
_cell_length_a 7.306588
_cell_length_b 21.417799
_cell_length_c 8.028782
_cell_angle_alpha 90.000000
_cell_angle_beta 141.869043
_cell_angle_gamma 90.000000
_cell_volume 775.797959
_symmetry_space_group_name_H-M "P 2/C"
_symmetry_group_IT_number 13
_symmetry_cell_setting 'monoclinic'
loop_
_space_group_symop_operation_xyz
x,y,z
-x,y,1/2-z
-x,-y,-z
x,-y,1/2+z
loop_
_atom_site_type_symbol
_atom_site_label
_atom_site_fract_x
_atom_site_fract_y
_atom_site_fract_z
Si Si1 0.000000 0.853202 0.750000
Si Si2 0.666983 0.305573 0.546675
Si Si3 0.712636 0.042136 0.255954
Si Si4 0.500000 0.771561 0.250000
Si Si5 0.330463 0.444323 0.963376
O O1 0.203684 0.895370 0.779255
O O2 0.794570 0.812658 0.480939
O O3 0.522120 0.267234 0.593949
O O4 0.671865 0.376568 0.626194
O O5 0.000000 0.282985 0.750000
O O6 0.500000 0.297253 0.250000
O O7 0.500000 0.065526 0.250000
O O8 0.000000 0.000000 0.500000
O O9 0.500000 0.000000 0.000000
O O10 0.000000 0.469935 0.750000
O O11 0.500000 0.428591 0.250000
O O12 0.500000 0.500000 0.000000
#
# Coordination Sequence:
#
# PCOD8120261 Si02
#       5
#     2   4   4   2   4
#     4  12  26  42  68 106 132 170 234 258 328 412
#     4  10  23  44  66  92 135 178 224 280 337 391
#     4  12  23  43  70  98 135 169 206 271 330 381
#     4  12  26  44  68  96 136 184 226 270 326 414
#     4  10  21  38  61  96 128 165 220 280 338 400
#
# _framework density 20.623927999999999
#
# number of rings (size 3 to 8) (size 9 to 14) (size 15 to 20)
#    0.000    1.000    2.500    3.750    1.750    3.000 
#    2.250    0.000    0.000    0.000    0.000    0.000 
#    0.000    0.000    0.000    0.000    0.000    0.000 
#
# Total GULP energy -198260.703688 kJ/mol
# GULP energy per Si atom -12391.293981 kJ/mol
# Density = 2.057699 g / cm^3
# Si number density = 20.623928 Si / 1000 Ang^3
#
#
#
# Elastic Constant Matrix: (Units=GPa)
#
#
# Indices 1 2 3 4 5 6 
#
# 1 161.7736 76.0349 50.2096 0.0000 3.1620 0.0000
# 2 76.0349 123.1707 46.3635 0.0000 1.1250 0.0000
# 3 50.2096 46.3635 148.4195 0.0000 17.6422 0.0000
# 4 0.0000 0.0000 0.0000 37.3035 0.0000 5.5931
# 5 3.1620 1.1250 17.6422 0.0000 39.9359 0.0000
# 6 0.0000 0.0000 0.0000 5.5931 0.0000 23.6732
#
#
#
# Elastic Compliance Matrix: (Units=1/GPa)
#
#
# Indices 1 2 3 4 5 6 
#
# 1 0.008987 -0.004987 -0.001493 0.000000 0.000088 0.000000
# 2 -0.004987 0.012011 -0.002187 0.000000 0.001022 0.000000
# 3 -0.001493 -0.002187 0.008342 0.000000 -0.003506 0.000000
# 4 0.000000 0.000000 0.000000 0.027792 0.000000 -0.006566
# 5 0.000088 0.001022 -0.003506 0.000000 0.026553 0.000000
# 6 0.000000 0.000000 0.000000 -0.006566 0.000000 0.043793
#
#
# Mechanical properties :
#
#
# Convention : Reuss Voigt Hill
#
# Bulk Modulus (GPa) = 83.27853 86.50888 84.89371
# Shear Modulus (GPa) = 33.59928 37.56623 35.58276
#
# Velocity S-wave (km/s) = 4.04064 4.27252 4.15820
# Velocity P-wave (km/s) = 7.88900 8.14716 8.01912
#
# Compressibility (1/GPa) = 0.01200790
#
# Stress axis : x y z
#
# Youngs Moduli (GPa) = 111.27382 83.25859 119.86836
#
# Poissons Ratio (x) = 0.41517 0.17897
# Poissons Ratio (y) = 0.55487 0.26210
# Poissons Ratio (z) = 0.16614 0.18205
#
# Static dielectric constant tensor:
#      x y z
#    x 3.887200 0.000000 -0.074600 
#    y 0.000000 4.348230 0.000000 
#    z -0.074600 0.000000 4.149570 
# 
# 
# High freq. dielectric constant tensor:
#      x y z
#    x 1.806280 0.000000 0.011320 
#    y 0.000000 1.818120 0.000000 
#    z 0.011320 0.000000 1.829860 
# 
# From -- ./inp_files/13246.got.cif
#   From: 2010.06.25/outbox.cif.g09.slc.cpg/sg13_7_cif.got.tgz:13246.got - 2010.06.28 04:50:58.
