data_PCOD8120287
_publ_section_title
;
Structure prediction by ZEFSAII (Michael W. Deem and Ramdas Pophale) SiO2 
 PCOD8120287
Probable space group: P 2/C
;
_chemical_formula_sum "Si O2"
_cell_formula_units_Z 22
_cell_length_a 22.546550
_cell_length_b 7.590925
_cell_length_c 8.724219
_cell_angle_alpha 90.000000
_cell_angle_beta 42.198815
_cell_angle_gamma 90.000000
_cell_volume 1002.951912
_symmetry_space_group_name_H-M "P 2/C"
_symmetry_group_IT_number 13
_symmetry_cell_setting 'monoclinic'
loop_
_space_group_symop_operation_xyz
x,y,z
-x,y,1/2-z
-x,-y,-z
x,-y,1/2+z
loop_
_atom_site_type_symbol
_atom_site_label
_atom_site_fract_x
_atom_site_fract_y
_atom_site_fract_z
Si Si1 0.124693 0.578011 0.763355
Si Si2 0.000000 0.514187 0.250000
Si Si3 0.773451 0.217451 0.905070
Si Si4 0.590527 0.712159 0.272855
Si Si5 0.396605 0.657641 0.600410
Si Si6 0.753395 0.134132 0.588994
O O1 0.053588 0.608982 0.764971
O O2 0.156719 0.374364 0.705932
O O3 0.207374 0.703497 0.583379
O O4 0.073288 0.628785 0.018538
O O5 0.766139 0.165495 0.742694
O O6 0.677508 0.264053 0.149945
O O7 0.802928 0.045244 0.945148
O O8 0.487475 0.764757 0.458461
O O9 0.594770 0.547369 0.379100
O O10 0.649654 0.866853 0.237593
O O11 0.628950 0.670483 0.029871
#
# Coordination Sequence:
#
# PCOD8120287 Si02
#       6
#     4   2   4   4   4   4
#     4  11  24  48  71 100 132 170 217 272 332 407
#     4  10  24  46  78  94 128 174 212 270 346 396
#     4  12  26  42  69 101 136 179 222 272 330 392
#     4  10  21  38  63  96 135 180 226 272 322 381
#     4  10  21  38  63  96 135 180 226 272 322 381
#     4  12  26  42  69 101 136 179 222 272 330 392
#
# _framework density 21.93525
#
# number of rings (size 3 to 8) (size 9 to 14) (size 15 to 20)
#    0.000    1.091    3.636    2.182    5.091    2.909 
#    0.000    5.455    0.000    0.000    0.000    0.000 
#    0.000    0.000    0.000    0.000    0.000    0.000 
#
# Total GULP energy -272741.544547 kJ/mol
# GULP energy per Si atom -12397.342934 kJ/mol
# Density = 2.188532 g / cm^3
# Si number density = 21.935250 Si / 1000 Ang^3
#
#
#
# Elastic Constant Matrix: (Units=GPa)
#
#
# Indices 1 2 3 4 5 6 
#
# 1 92.1266 35.1353 37.7609 0.0000 4.2650 0.0000
# 2 35.1353 89.7872 32.1475 0.0000 -0.0427 0.0000
# 3 37.7609 32.1475 150.6744 0.0000 10.7678 0.0000
# 4 0.0000 0.0000 0.0000 19.5417 0.0000 10.5280
# 5 4.2650 -0.0427 10.7678 0.0000 30.1583 0.0000
# 6 0.0000 0.0000 0.0000 10.5280 0.0000 19.2644
#
#
#
# Elastic Compliance Matrix: (Units=1/GPa)
#
#
# Indices 1 2 3 4 5 6 
#
# 1 0.013580 -0.004465 -0.002374 0.000000 -0.001079 0.000000
# 2 -0.004465 0.013554 -0.001867 0.000000 0.001317 0.000000
# 3 -0.002374 -0.001867 0.007805 0.000000 -0.002454 0.000000
# 4 0.000000 0.000000 0.000000 0.072526 0.000000 -0.039635
# 5 -0.001079 0.001317 -0.002454 0.000000 0.034189 0.000000
# 6 0.000000 0.000000 0.000000 -0.039635 0.000000 0.073570
#
#
# Mechanical properties :
#
#
# Convention : Reuss Voigt Hill
#
# Bulk Modulus (GPa) = 57.05014 60.29730 58.67372
# Shear Modulus (GPa) = 20.96630 28.96252 24.96441
#
# Velocity S-wave (km/s) = 3.09500 3.63762 3.37723
# Velocity P-wave (km/s) = 6.23193 6.72246 6.48184
#
# Compressibility (1/GPa) = 0.01752844
#
# Stress axis : x y z
#
# Youngs Moduli (GPa) = 73.63595 73.78059 128.11667
#
# Poissons Ratio (x) = 0.32942 0.30410
# Poissons Ratio (y) = 0.32877 0.23919
# Poissons Ratio (z) = 0.17479 0.13775
#
# Static dielectric constant tensor:
#      x y z
#    x 3.980980 0.000000 0.047230 
#    y 0.000000 3.833800 0.000000 
#    z 0.047230 0.000000 4.326410 
# 
# 
# High freq. dielectric constant tensor:
#      x y z
#    x 1.873250 0.000000 0.008300 
#    y 0.000000 1.828930 0.000000 
#    z 0.008300 0.000000 1.882580 
# 
# From -- ./inp_files/23846.got.cif
#   From: 2010.06.25/outbox.cif.g09.slc.cpg/sg13_12_cif.got.tgz:23846.got - 2010.06.28 04:50:58.
