data_PCOD8120282
_publ_section_title
;
Structure prediction by ZEFSAII (Michael W. Deem and Ramdas Pophale) SiO2 
 PCOD8120282
Probable space group: P 2/C
;
_chemical_formula_sum "Si O2"
_cell_formula_units_Z 24
_cell_length_a 11.742145
_cell_length_b 12.652835
_cell_length_c 22.740122
_cell_angle_alpha 90.000000
_cell_angle_beta 158.803924
_cell_angle_gamma 90.000000
_cell_volume 1221.544559
_symmetry_space_group_name_H-M "P 2/C"
_symmetry_group_IT_number 13
_symmetry_cell_setting 'monoclinic'
loop_
_space_group_symop_operation_xyz
x,y,z
-x,y,1/2-z
-x,-y,-z
x,-y,1/2+z
loop_
_atom_site_type_symbol
_atom_site_label
_atom_site_fract_x
_atom_site_fract_y
_atom_site_fract_z
Si Si1 0.375308 0.617990 0.936706
Si Si2 0.442079 0.697192 0.351248
Si Si3 0.714768 0.469971 0.904031
Si Si4 0.290623 0.333114 0.020466
Si Si5 0.621623 0.122295 0.373215
Si Si6 0.653077 0.906309 0.261076
O O1 0.544207 0.667853 0.962438
O O2 0.000000 0.619475 0.750000
O O3 0.500000 0.500000 0.000000
O O4 0.486470 0.687864 0.045473
O O5 0.716243 0.627972 0.450658
O O6 0.461783 0.818785 0.340934
O O7 0.088324 0.655770 0.166915
O O8 0.500000 0.425223 0.750000
O O9 0.592229 0.571324 0.881556
O O10 0.000000 0.500000 0.000000
O O11 0.429448 0.225663 0.113068
O O12 0.500000 0.149152 0.250000
O O13 0.983227 0.092654 0.549416
O O14 0.434573 0.020648 0.308148
O O15 0.500000 0.884211 0.250000
#
# Coordination Sequence:
#
# PCOD8120282 Si02
#       6
#     4   4   4   4   4   4
#     4  12  26  42  63  88 121 166 210 254 303 366
#     4  11  24  42  63  88 125 164 205 253 308 362
#     4  12  24  38  59  92 126 160 199 249 310 368
#     4  11  24  42  63  89 125 164 206 253 305 365
#     4  10  21  39  62  93 125 162 202 251 307 364
#     4  10  21  38  63  91 126 162 201 252 306 365
#
# _framework density 19.647257
#
# number of rings (size 3 to 8) (size 9 to 14) (size 15 to 20)
#    0.000    1.000    3.333    4.500    4.667    2.667 
#    0.000    0.833    0.000    0.000    0.000    0.000 
#    0.000    0.000    0.000    0.000    0.000    0.000 
#
# Total GULP energy -297383.125426 kJ/mol
# GULP energy per Si atom -12390.963559 kJ/mol
# Density = 1.960254 g / cm^3
# Si number density = 19.647257 Si / 1000 Ang^3
#
#
#
# Elastic Constant Matrix: (Units=GPa)
#
#
# Indices 1 2 3 4 5 6 
#
# 1 141.8368 75.5615 33.2019 0.0000 -11.8738 0.0000
# 2 75.5615 151.3591 47.7564 0.0000 -16.5965 0.0000
# 3 33.2019 47.7564 70.3994 0.0000 -9.1767 0.0000
# 4 0.0000 0.0000 0.0000 31.9226 0.0000 -2.3912
# 5 -11.8738 -16.5965 -9.1767 0.0000 32.0928 0.0000
# 6 0.0000 0.0000 0.0000 -2.3912 0.0000 30.8751
#
#
#
# Elastic Compliance Matrix: (Units=1/GPa)
#
#
# Indices 1 2 3 4 5 6 
#
# 1 0.009780 -0.004277 -0.001587 0.000000 0.000953 0.000000
# 2 -0.004277 0.010530 -0.004801 0.000000 0.002490 0.000000
# 3 -0.001587 -0.004801 0.018499 0.000000 0.002220 0.000000
# 4 0.000000 0.000000 0.000000 0.031509 0.000000 0.002440
# 5 0.000953 0.002490 0.002220 0.000000 0.033435 0.000000
# 6 0.000000 0.000000 0.000000 0.002440 0.000000 0.032578
#
#
# Mechanical properties :
#
#
# Convention : Reuss Voigt Hill
#
# Bulk Modulus (GPa) = 57.21211 75.18164 66.19688
# Shear Modulus (GPa) = 30.58334 32.78315 31.68324
#
# Velocity S-wave (km/s) = 3.94968 4.08926 4.02008
# Velocity P-wave (km/s) = 7.06986 7.78748 7.43733
#
# Compressibility (1/GPa) = 0.01747882
#
# Stress axis : x y z
#
# Youngs Moduli (GPa) = 102.24659 94.96581 54.05572
#
# Poissons Ratio (x) = 0.40621 0.08577
# Poissons Ratio (y) = 0.43735 0.25954
# Poissons Ratio (z) = 0.16224 0.45596
#
# Static dielectric constant tensor:
#      x y z
#    x 3.618750 0.000000 0.002630 
#    y 0.000000 3.880940 0.000000 
#    z 0.002630 0.000000 3.585960 
# 
# 
# High freq. dielectric constant tensor:
#      x y z
#    x 1.767280 0.000000 0.000170 
#    y 0.000000 1.768980 0.000000 
#    z 0.000170 0.000000 1.775940 
# 
# From -- ./inp_files/86628.got.cif
#   From: 2010.06.25/outbox.cif.g09.slc.cpg/sg13_44_cif.got.tgz:86628.got - 2010.06.28 04:50:58.
