data_PCOD8120179
_publ_section_title
;
Structure prediction by ZEFSAII (Michael W. Deem and Ramdas Pophale) SiO2 
 PCOD8120179
Probable space group: P 2/C
;
_chemical_formula_sum "Si O2"
_cell_formula_units_Z 20
_cell_length_a 7.325852
_cell_length_b 22.051153
_cell_length_c 5.459800
_cell_angle_alpha 90.000000
_cell_angle_beta 125.318787
_cell_angle_gamma 90.000000
_cell_volume 719.662208
_symmetry_space_group_name_H-M "P 2/C"
_symmetry_group_IT_number 13
_symmetry_cell_setting 'monoclinic'
loop_
_space_group_symop_operation_xyz
x,y,z
-x,y,1/2-z
-x,-y,-z
x,-y,1/2+z
loop_
_atom_site_type_symbol
_atom_site_label
_atom_site_fract_x
_atom_site_fract_y
_atom_site_fract_z
Si Si1 0.750568 0.475444 0.815183
Si Si2 0.245690 0.665059 0.086952
Si Si3 0.867614 0.844325 0.896559
Si Si4 0.251397 0.975449 0.796830
Si Si5 0.251602 0.285886 0.089372
O O1 0.631780 0.501407 0.475227
O O2 0.756290 0.403355 0.821934
O O3 0.000000 0.500000 0.000000
O O4 0.500000 0.688693 0.250000
O O5 0.136203 0.706026 0.225956
O O6 0.135745 0.675200 0.726431
O O7 0.722431 0.904309 0.737388
O O8 0.719633 0.784503 0.820441
O O9 0.000000 0.831570 0.750000
O O10 0.000000 0.856436 0.250000
O O11 0.135115 0.012492 0.476785
O O12 0.500000 0.000000 0.000000
O O13 0.500000 0.314037 0.250000
#
# Coordination Sequence:
#
# PCOD8120179 Si02
#       5
#     4   4   4   4   4
#     4  10  21  38  56  91 125 167 209 269 336 393
#     4  10  21  41  65  93 127 171 230 274 321 399
#     4  12  26  45  67 106 144 171 227 288 340 396
#     4  10  23  43  69 101 131 186 226 267 335 401
#     4  10  23  44  68  94 130 185 224 271 333 403
#
# _framework density 27.790818000000002
#
# number of rings (size 3 to 8) (size 9 to 14) (size 15 to 20)
#    0.000    1.600    0.000    3.600    2.800    3.200 
#   28.800    0.000    0.000    0.000    0.000    0.000 
#    0.000    0.000    0.000    0.000    0.000    0.000 
#
# Total GULP energy -248079.483633 kJ/mol
# GULP energy per Si atom -12403.974182 kJ/mol
# Density = 2.772756 g / cm^3
# Si number density = 27.790818 Si / 1000 Ang^3
#
#
#
# Elastic Constant Matrix: (Units=GPa)
#
#
# Indices 1 2 3 4 5 6 
#
# 1 151.8317 34.2861 94.4309 0.0000 -55.9267 0.0000
# 2 34.2861 224.3320 77.1147 0.0000 -40.0074 0.0000
# 3 94.4309 77.1147 270.4922 0.0000 -52.1450 0.0000
# 4 0.0000 0.0000 0.0000 53.3191 0.0000 -11.4884
# 5 -55.9267 -40.0074 -52.1450 0.0000 56.1706 0.0000
# 6 0.0000 0.0000 0.0000 -11.4884 0.0000 57.2569
#
#
#
# Elastic Compliance Matrix: (Units=1/GPa)
#
#
# Indices 1 2 3 4 5 6 
#
# 1 0.011483 0.000803 -0.002343 0.000000 0.009830 0.000000
# 2 0.000803 0.005357 -0.001118 0.000000 0.003578 0.000000
# 3 -0.002343 -0.001118 0.005153 0.000000 0.001654 0.000000
# 4 0.000000 0.000000 0.000000 0.019602 0.000000 0.003933
# 5 0.009830 0.003578 0.001654 0.000000 0.031675 0.000000
# 6 0.000000 0.000000 0.000000 0.003933 0.000000 0.018254
#
#
# Mechanical properties :
#
#
# Convention : Reuss Voigt Hill
#
# Bulk Modulus (GPa) = 59.95939 117.59104 88.77522
# Shear Modulus (GPa) = 48.82904 62.73760 55.78332
#
# Velocity S-wave (km/s) = 4.19623 4.75646 4.48510
# Velocity P-wave (km/s) = 6.71564 8.51880 7.67039
#
# Compressibility (1/GPa) = 0.01667795
#
# Stress axis : x y z
#
# Youngs Moduli (GPa) = 87.08645 186.66184 194.08042
#
# Poissons Ratio (x) = -0.14998 0.45468
# Poissons Ratio (y) = -0.06997 0.21700
# Poissons Ratio (z) = 0.20402 0.20871
#
# Static dielectric constant tensor:
#      x y z
#    x -18.207430 0.000000 39.840570 
#    y 0.000000 4.838490 0.000000 
#    z 39.840570 0.000000 -68.768190 
# 
# 
# High freq. dielectric constant tensor:
#      x y z
#    x 2.199460 0.000000 -0.004560 
#    y 0.000000 2.095710 0.000000 
#    z -0.004560 0.000000 2.190290 
# 
# From -- ./inp_files/2159.got.cif
#   From: 2010.06.25/outbox.cif.g09.slc.cpg/sg13_2_cif.got.tgz:2159.got - 2010.06.28 04:50:58.
