data_PCOD8120650
_publ_section_title
;
Structure prediction by ZEFSAII (Michael W. Deem and Ramdas Pophale) SiO2 
 PCOD8120650
Probable space group: P 2/C
;
_chemical_formula_sum "Si O2"
_cell_formula_units_Z 22
_cell_length_a 5.339036
_cell_length_b 11.081290
_cell_length_c 16.724726
_cell_angle_alpha 90.000000
_cell_angle_beta 90.741559
_cell_angle_gamma 90.000000
_cell_volume 989.408884
_symmetry_space_group_name_H-M "P 2/C"
_symmetry_group_IT_number 13
_symmetry_cell_setting 'monoclinic'
loop_
_space_group_symop_operation_xyz
x,y,z
-x,y,1/2-z
-x,-y,-z
x,-y,1/2+z
loop_
_atom_site_type_symbol
_atom_site_label
_atom_site_fract_x
_atom_site_fract_y
_atom_site_fract_z
Si Si1 0.059069 0.563438 0.917998
Si Si2 0.068783 0.809023 0.516119
Si Si3 0.242849 0.031868 0.597377
Si Si4 0.624431 0.778675 0.133253
Si Si5 0.437085 0.528478 0.159438
Si Si6 0.000000 0.129544 0.750000
O O1 0.054331 0.707873 0.928610
O O2 0.836768 0.526166 0.856939
O O3 0.337893 0.529353 0.891222
O O4 0.000000 0.500000 0.000000
O O5 0.210398 0.744924 0.443146
O O6 0.852204 0.892977 0.479463
O O7 0.254117 0.891649 0.571890
O O8 0.512553 0.087290 0.619709
O O9 0.072405 0.045427 0.675554
O O10 0.420619 0.672466 0.141252
O O11 0.780001 0.782671 0.217116
O O12 0.500000 0.499104 0.250000
#
# Coordination Sequence:
#
# PCOD8120650 Si02
#       6
#     4   4   4   4   4   2
#     4  12  25  46  70 102 136 185 233 280 343 415
#     4  10  23  40  67  93 130 174 224 281 331 409
#     4  10  21  41  63  96 129 168 222 278 344 397
#     4  11  22  39  69  94 129 168 230 282 341 391
#     4  12  27  44  70 100 144 180 231 288 350 408
#     4  10  22  38  60 100 122 170 214 278 338 408
#
# _framework density 22.235496999999999
#
# number of rings (size 3 to 8) (size 9 to 14) (size 15 to 20)
#    0.000    1.091    1.818    4.364    7.636    0.000 
#    3.273    0.000    0.000    0.000    0.000    0.000 
#    0.000    0.000    0.000    0.000    0.000    0.000 
#
# Total GULP energy -272786.544941 kJ/mol
# GULP energy per Si atom -12399.388406 kJ/mol
# Density = 2.218489 g / cm^3
# Si number density = 22.235497 Si / 1000 Ang^3
#
#
#
# Elastic Constant Matrix: (Units=GPa)
#
#
# Indices 1 2 3 4 5 6 
#
# 1 64.8298 6.4646 2.1547 0.0000 12.5517 0.0000
# 2 6.4646 110.2907 31.7099 0.0000 7.1093 0.0000
# 3 2.1547 31.7099 87.5500 0.0000 10.0707 0.0000
# 4 0.0000 0.0000 0.0000 22.3388 0.0000 1.7165
# 5 12.5517 7.1093 10.0707 0.0000 34.4304 0.0000
# 6 0.0000 0.0000 0.0000 1.7165 0.0000 30.5086
#
#
#
# Elastic Compliance Matrix: (Units=1/GPa)
#
#
# Indices 1 2 3 4 5 6 
#
# 1 0.016658 -0.000745 0.000560 0.000000 -0.006083 0.000000
# 2 -0.000745 0.010191 -0.003583 0.000000 -0.000785 0.000000
# 3 0.000560 -0.003583 0.013084 0.000000 -0.003291 0.000000
# 4 0.000000 0.000000 0.000000 0.044959 0.000000 -0.002530
# 5 -0.006083 -0.000785 -0.003291 0.000000 0.032386 0.000000
# 6 0.000000 0.000000 0.000000 -0.002530 0.000000 0.032920
#
#
# Mechanical properties :
#
#
# Convention : Reuss Voigt Hill
#
# Bulk Modulus (GPa) = 30.86638 38.14765 34.50701
# Shear Modulus (GPa) = 29.66733 32.27830 30.97282
#
# Velocity S-wave (km/s) = 3.65668 3.81419 3.73627
# Velocity P-wave (km/s) = 5.63384 6.04904 5.84513
#
# Compressibility (1/GPa) = 0.03239771
#
# Stress axis : x y z
#
# Youngs Moduli (GPa) = 60.02984 98.12335 76.42653
#
# Poissons Ratio (x) = 0.07312 -0.04277
# Poissons Ratio (y) = 0.04474 0.27380
# Poissons Ratio (z) = -0.03359 0.35154
#
# Static dielectric constant tensor:
#      x y z
#    x 5.119810 0.000000 0.576230 
#    y 0.000000 4.006110 0.000000 
#    z 0.576230 0.000000 4.459120 
# 
# 
# High freq. dielectric constant tensor:
#      x y z
#    x 1.873990 0.000000 0.000100 
#    y 0.000000 1.863850 0.000000 
#    z 0.000100 0.000000 1.884750 
# 
# From -- ./inp_files/43747.got.cif
#   From: 2010.06.25/outbox.cif.g09.slc.cpg/sg13_22_cif.got.tgz:43747.got - 2010.06.28 04:50:58.
