data_PCOD8120606
_publ_section_title
;
Structure prediction by ZEFSAII (Michael W. Deem and Ramdas Pophale) SiO2 
 PCOD8120606
Probable space group: P 2/C
;
_chemical_formula_sum "Si O2"
_cell_formula_units_Z 24
_cell_length_a 17.219155
_cell_length_b 4.994218
_cell_length_c 22.857321
_cell_angle_alpha 90.000000
_cell_angle_beta 32.193263
_cell_angle_gamma 90.000000
_cell_volume 1047.248972
_symmetry_space_group_name_H-M "P 2/C"
_symmetry_group_IT_number 13
_symmetry_cell_setting 'monoclinic'
loop_
_space_group_symop_operation_xyz
x,y,z
-x,y,1/2-z
-x,-y,-z
x,-y,1/2+z
loop_
_atom_site_type_symbol
_atom_site_label
_atom_site_fract_x
_atom_site_fract_y
_atom_site_fract_z
Si Si1 0.292186 0.656532 0.171507
Si Si2 0.386477 0.853247 0.680272
Si Si3 0.302142 0.689842 0.030314
Si Si4 0.870911 0.788846 0.578091
Si Si5 0.882476 0.808379 0.875263
Si Si6 0.995961 0.481613 0.602340
O O1 0.324092 0.354231 0.171853
O O2 0.336554 0.710243 0.076867
O O3 0.115884 0.704643 0.288861
O O4 0.388063 0.857403 0.148878
O O5 0.548142 0.768192 0.597715
O O6 0.289211 0.891070 0.801220
O O7 0.254527 0.388809 0.046350
O O8 0.172391 0.886125 0.091403
O O9 0.866761 0.681377 0.513097
O O10 0.902583 0.557067 0.604752
O O11 0.000000 0.000000 0.500000
O O12 0.952089 0.739069 0.893893
O O13 0.000000 0.754369 0.750000
#
# Coordination Sequence:
#
# PCOD8120606 Si02
#       6
#     4   4   4   4   4   4
#     4  11  21  39  67  96 132 164 214 277 319 379
#     4  11  23  40  66  97 133 165 218 270 325 377
#     4  12  25  41  63  99 133 175 205 260 336 389
#     4  10  21  40  70  90 123 167 223 279 308 372
#     4  12  26  42  66  93 136 172 210 260 320 411
#     4  10  23  40  64  99 120 168 223 268 320 370
#
# _framework density 22.917185
#
# number of rings (size 3 to 8) (size 9 to 14) (size 15 to 20)
#    0.000    1.000    3.333    3.500    4.667    0.000 
#    0.000    0.833    0.000    0.000    0.000    0.000 
#    0.000    0.000    0.000    0.000    0.000    0.000 
#
# Total GULP energy -297546.019477 kJ/mol
# GULP energy per Si atom -12397.750812 kJ/mol
# Density = 2.286502 g / cm^3
# Si number density = 22.917185 Si / 1000 Ang^3
#
#
#
# Elastic Constant Matrix: (Units=GPa)
#
#
# Indices 1 2 3 4 5 6 
#
# 1 42.6114 -9.1558 13.0249 0.0000 3.1621 0.0000
# 2 -9.1558 58.8528 4.0506 0.0000 5.1578 0.0000
# 3 13.0249 4.0506 135.9005 0.0000 -5.1178 0.0000
# 4 0.0000 0.0000 0.0000 26.8886 0.0000 -9.1015
# 5 3.1621 5.1578 -5.1178 0.0000 30.6016 0.0000
# 6 0.0000 0.0000 0.0000 -9.1015 0.0000 36.2592
#
#
#
# Elastic Compliance Matrix: (Units=1/GPa)
#
#
# Indices 1 2 3 4 5 6 
#
# 1 0.025555 0.004501 -0.002729 0.000000 -0.003856 0.000000
# 2 0.004501 0.018092 -0.001110 0.000000 -0.003700 0.000000
# 3 -0.002729 -0.001110 0.007719 0.000000 0.001760 0.000000
# 4 0.000000 0.000000 0.000000 0.040644 0.000000 0.010202
# 5 -0.003856 -0.003700 0.001760 0.000000 0.033994 0.000000
# 6 0.000000 0.000000 0.000000 0.010202 0.000000 0.030140
#
#
# Mechanical properties :
#
#
# Convention : Reuss Voigt Hill
#
# Bulk Modulus (GPa) = 18.97808 28.13380 23.55594
# Shear Modulus (GPa) = 29.00505 34.04623 31.52564
#
# Velocity S-wave (km/s) = 3.56145 3.85856 3.71298
# Velocity P-wave (km/s) = 5.02106 5.67047 5.35562
#
# Compressibility (1/GPa) = 0.05269238
#
# Stress axis : x y z
#
# Youngs Moduli (GPa) = 39.13092 55.27155 129.54710
#
# Poissons Ratio (x) = -0.24880 0.35348
# Poissons Ratio (y) = -0.17614 0.14380
# Poissons Ratio (z) = 0.10677 0.06135
#
# Static dielectric constant tensor:
#      x y z
#    x 3.840750 0.000000 0.302170 
#    y 0.000000 4.078520 0.000000 
#    z 0.302170 0.000000 4.850610 
# 
# 
# High freq. dielectric constant tensor:
#      x y z
#    x 1.869380 0.000000 0.009260 
#    y 0.000000 1.907730 0.000000 
#    z 0.009260 0.000000 1.920790 
# 
# From -- ./inp_files/77153.got.cif
#   From: 2010.06.25/outbox.cif.g09.slc.cpg/sg13_39_cif.got.tgz:77153.got - 2010.06.28 04:50:58.
