data_PCOD8120607
_publ_section_title
;
Structure prediction by ZEFSAII (Michael W. Deem and Ramdas Pophale) SiO2 
 PCOD8120607
Probable space group: P 2/C
;
_chemical_formula_sum "Si O2"
_cell_formula_units_Z 28
_cell_length_a 5.508989
_cell_length_b 15.732717
_cell_length_c 17.413287
_cell_angle_alpha 90.000000
_cell_angle_beta 120.678343
_cell_angle_gamma 90.000000
_cell_volume 1298.008882
_symmetry_space_group_name_H-M "P 2/C"
_symmetry_group_IT_number 13
_symmetry_cell_setting 'monoclinic'
loop_
_space_group_symop_operation_xyz
x,y,z
-x,y,1/2-z
-x,-y,-z
x,-y,1/2+z
loop_
_atom_site_type_symbol
_atom_site_label
_atom_site_fract_x
_atom_site_fract_y
_atom_site_fract_z
Si Si1 0.661447 0.179386 0.979065
Si Si2 0.778588 0.757007 0.911677
Si Si3 0.910017 0.496949 0.072695
Si Si4 0.332762 0.069769 0.802683
Si Si5 0.826499 0.365570 0.298897
Si Si6 0.704773 0.874975 0.663299
Si Si7 0.553585 0.352826 0.506721
O O1 0.488248 0.119592 0.895382
O O2 0.680686 0.139711 0.067709
O O3 0.519303 0.273342 0.950802
O O4 0.986575 0.188975 0.002647
O O5 0.961091 0.708045 0.875378
O O6 0.542210 0.819136 0.838314
O O7 0.637684 0.682512 0.937634
O O8 0.683898 0.422130 0.048627
O O9 0.161211 0.462911 0.167473
O O10 0.809154 0.590317 0.084180
O O11 0.000000 0.500000 0.000000
O O12 0.500000 0.089161 0.750000
O O13 0.000000 0.096168 0.750000
O O14 0.360837 0.971587 0.827244
O O15 0.500000 0.339435 0.250000
O O16 0.000000 0.355932 0.250000
O O17 0.000000 0.846980 0.750000
#
# Coordination Sequence:
#
# PCOD8120607 Si02
#       7
#     4   4   4   4   4   4   4
#     4  11  24  44  75 103 138 190 242 300 356 439
#     4  11  24  40  69 106 141 181 234 291 365 439
#     4  11  21  41  68  91 130 187 227 285 340 436
#     4  11  28  51  74 102 146 195 244 305 362 421
#     4  12  27  41  63 101 145 177 221 287 360 422
#     4  10  26  44  69 109 146 188 234 293 368 443
#     4  10  21  40  70  95 129 179 241 281 355 415
#
# _framework density 21.5715
#
# number of rings (size 3 to 8) (size 9 to 14) (size 15 to 20)
#    0.000    1.143    2.857    1.286   14.000    0.571 
#    0.000    0.714    0.000    0.000    0.000    0.000 
#    0.000    0.000    0.000    0.000    0.000    0.000 
#
# Total GULP energy -346915.006474 kJ/mol
# GULP energy per Si atom -12389.821660 kJ/mol
# Density = 2.152240 g / cm^3
# Si number density = 21.571500 Si / 1000 Ang^3
#
#
#
# Elastic Constant Matrix: (Units=GPa)
#
#
# Indices 1 2 3 4 5 6 
#
# 1 142.6273 49.3005 59.9317 0.0000 1.8716 0.0000
# 2 49.3005 112.9434 65.4953 0.0000 16.1451 0.0000
# 3 59.9317 65.4953 114.8586 0.0000 7.3202 0.0000
# 4 0.0000 0.0000 0.0000 38.9583 0.0000 10.9087
# 5 1.8716 16.1451 7.3202 0.0000 34.0232 0.0000
# 6 0.0000 0.0000 0.0000 10.9087 0.0000 33.5482
#
#
#
# Elastic Compliance Matrix: (Units=1/GPa)
#
#
# Indices 1 2 3 4 5 6 
#
# 1 0.009282 -0.002059 -0.003750 0.000000 0.001273 0.000000
# 2 -0.002059 0.014477 -0.006844 0.000000 -0.005284 0.000000
# 3 -0.003750 -0.006844 0.014545 0.000000 0.000325 0.000000
# 4 0.000000 0.000000 0.000000 0.028240 0.000000 -0.009183
# 5 0.001273 -0.005284 0.000325 0.000000 0.031759 0.000000
# 6 0.000000 0.000000 0.000000 -0.009183 0.000000 0.032794
#
#
# Mechanical properties :
#
#
# Convention : Reuss Voigt Hill
#
# Bulk Modulus (GPa) = 76.93737 79.98715 78.46226
# Shear Modulus (GPa) = 31.10689 34.35272 32.72980
#
# Velocity S-wave (km/s) = 3.80154 3.99495 3.89944
# Velocity P-wave (km/s) = 7.41704 7.64461 7.53168
#
# Compressibility (1/GPa) = 0.01299758
#
# Stress axis : x y z
#
# Youngs Moduli (GPa) = 107.73345 69.07580 68.75105
#
# Poissons Ratio (x) = 0.14222 0.25785
# Poissons Ratio (y) = 0.22181 0.47053
# Poissons Ratio (z) = 0.40405 0.47276
#
# Static dielectric constant tensor:
#      x y z
#    x 4.110720 0.000000 0.573970 
#    y 0.000000 4.204390 0.000000 
#    z 0.573970 0.000000 3.231510 
# 
# 
# High freq. dielectric constant tensor:
#      x y z
#    x 1.867780 0.000000 0.009020 
#    y 0.000000 1.859450 0.000000 
#    z 0.009020 0.000000 1.823220 
# 
# From -- ./inp_files/61522.got.cif
#   From: 2010.06.25/outbox.cif.g09.slc.cpg/sg13_31_cif.got.tgz:61522.got - 2010.06.28 04:50:58.
