data_PCOD8120379
_publ_section_title
;
Structure prediction by ZEFSAII (Michael W. Deem and Ramdas Pophale) SiO2 
 PCOD8120379
Probable space group: P 2/C
;
_chemical_formula_sum "Si O2"
_cell_formula_units_Z 20
_cell_length_a 8.032252
_cell_length_b 17.983284
_cell_length_c 5.544418
_cell_angle_alpha 90.000000
_cell_angle_beta 99.479886
_cell_angle_gamma 90.000000
_cell_volume 789.933391
_symmetry_space_group_name_H-M "P 2/C"
_symmetry_group_IT_number 13
_symmetry_cell_setting 'monoclinic'
loop_
_space_group_symop_operation_xyz
x,y,z
-x,y,1/2-z
-x,-y,-z
x,-y,1/2+z
loop_
_atom_site_type_symbol
_atom_site_label
_atom_site_fract_x
_atom_site_fract_y
_atom_site_fract_z
Si Si1 0.000000 0.428407 0.750000
Si Si2 0.328015 0.192259 0.338859
Si Si3 0.247000 0.335595 0.084607
Si Si4 0.500000 0.291543 0.750000
Si Si5 0.195092 0.967495 0.814764
Si Si6 0.322116 0.525487 0.832753
O O1 0.930207 0.372119 0.530991
O O2 0.849115 0.481760 0.806400
O O3 0.500000 0.167339 0.250000
O O4 0.223389 0.249506 0.144874
O O5 0.366849 0.236148 0.591843
O O6 0.214891 0.120447 0.357334
O O7 0.303356 0.384465 0.336509
O O8 0.391974 0.342260 0.910849
O O9 0.000000 0.989543 0.750000
O O10 0.276680 0.993671 0.575652
O O11 0.410833 0.512032 0.589050
#
# Coordination Sequence:
#
# PCOD8120379 Si02
#       6
#     2   4   4   2   4   4
#     4  10  22  42  66  98 126 168 226 282 334 398
#     4  10  24  43  67  96 131 180 224 267 322 398
#     4  10  22  40  65  93 130 171 216 278 333 392
#     4  10  24  44  60  92 138 168 232 270 328 386
#     4  10  24  46  71 103 141 170 212 272 332 390
#     4  10  21  39  62  91 129 163 216 278 331 389
#
# _framework density 25.31859
#
# number of rings (size 3 to 8) (size 9 to 14) (size 15 to 20)
#    0.000    2.000    0.000    2.400   11.200    2.400 
#    3.600    4.000    2.200    0.000    0.000    0.000 
#    0.000    0.000    0.000    0.000    0.000    0.000 
#
# Total GULP energy -247846.341721 kJ/mol
# GULP energy per Si atom -12392.317086 kJ/mol
# Density = 2.526096 g / cm^3
# Si number density = 25.318590 Si / 1000 Ang^3
#
#
#
# Elastic Constant Matrix: (Units=GPa)
#
#
# Indices 1 2 3 4 5 6 
#
# 1 71.6064 30.7693 27.9569 0.0000 18.4196 0.0000
# 2 30.7693 163.6360 61.9346 0.0000 7.0861 0.0000
# 3 27.9569 61.9346 147.4194 0.0000 16.4431 0.0000
# 4 0.0000 0.0000 0.0000 34.0846 0.0000 -5.4998
# 5 18.4196 7.0861 16.4431 0.0000 22.9807 0.0000
# 6 0.0000 0.0000 0.0000 -5.4998 0.0000 35.9355
#
#
#
# Elastic Compliance Matrix: (Units=1/GPa)
#
#
# Indices 1 2 3 4 5 6 
#
# 1 0.018998 -0.002608 -0.000976 0.000000 -0.013724 0.000000
# 2 -0.002608 0.007625 -0.002912 0.000000 0.001823 0.000000
# 3 -0.000976 -0.002912 0.008699 0.000000 -0.004544 0.000000
# 4 0.000000 0.000000 0.000000 0.030082 0.000000 0.004604
# 5 -0.013724 0.001823 -0.004544 0.000000 0.057204 0.000000
# 6 0.000000 0.000000 0.000000 0.004604 0.000000 0.028532
#
#
# Mechanical properties :
#
#
# Convention : Reuss Voigt Hill
#
# Bulk Modulus (GPa) = 44.78701 69.33148 57.05924
# Shear Modulus (GPa) = 29.14181 36.06691 32.60436
#
# Velocity S-wave (km/s) = 3.39633 3.77838 3.59244
# Velocity P-wave (km/s) = 5.75394 6.81747 6.30816
#
# Compressibility (1/GPa) = 0.02232790
#
# Stress axis : x y z
#
# Youngs Moduli (GPa) = 52.63847 131.15011 114.95940
#
# Poissons Ratio (x) = 0.34210 0.11221
# Poissons Ratio (y) = 0.13731 0.33477
# Poissons Ratio (z) = 0.05138 0.38192
#
# Static dielectric constant tensor:
#      x y z
#    x 4.588790 0.000000 -0.059650 
#    y 0.000000 4.262830 0.000000 
#    z -0.059650 0.000000 4.942770 
# 
# 
# High freq. dielectric constant tensor:
#      x y z
#    x 2.018370 0.000000 0.003470 
#    y 0.000000 2.001700 0.000000 
#    z 0.003470 0.000000 2.036740 
# 
# From -- ./inp_files/1624.got.cif
#   From: 2010.06.25/outbox.cif.g09.slc.cpg/sg13_1_cif.got.tgz:1624.got - 2010.06.28 04:50:58.
