data_PCOD8120690
_publ_section_title
;
Structure prediction by ZEFSAII (Michael W. Deem and Ramdas Pophale) SiO2 
 PCOD8120690
Probable space group: P 2/C
;
_chemical_formula_sum "Si O2"
_cell_formula_units_Z 30
_cell_length_a 6.303717
_cell_length_b 14.953522
_cell_length_c 17.513986
_cell_angle_alpha 90.000000
_cell_angle_beta 115.272806
_cell_angle_gamma 90.000000
_cell_volume 1492.899809
_symmetry_space_group_name_H-M "P 2/C"
_symmetry_group_IT_number 13
_symmetry_cell_setting 'monoclinic'
loop_
_space_group_symop_operation_xyz
x,y,z
-x,y,1/2-z
-x,-y,-z
x,-y,1/2+z
loop_
_atom_site_type_symbol
_atom_site_label
_atom_site_fract_x
_atom_site_fract_y
_atom_site_fract_z
Si Si1 0.000000 0.959426 0.250000
Si Si2 0.501643 0.825694 0.979347
Si Si3 0.786134 0.934113 0.455078
Si Si4 0.537448 0.064099 0.170708
Si Si5 0.992836 0.813957 0.376545
Si Si6 0.720031 0.635905 0.337790
Si Si7 0.879967 0.476923 0.560768
Si Si8 0.574916 0.364705 0.993205
O O1 0.064378 0.893847 0.190513
O O2 0.797785 0.028689 0.196516
O O3 0.356218 0.910114 0.990345
O O4 0.729160 0.806624 0.067056
O O5 0.368570 0.731054 0.960059
O O6 0.543378 0.856047 0.898753
O O7 0.877941 0.839329 0.439522
O O8 0.624047 0.977972 0.366148
O O9 0.000000 0.000000 0.500000
O O10 0.500000 0.101947 0.250000
O O11 0.863768 0.723351 0.331724
O O12 0.500000 0.620231 0.250000
O O13 0.630065 0.639426 0.411216
O O14 0.903078 0.554030 0.352511
O O15 0.692730 0.395017 0.530259
O O16 0.744600 0.566649 0.565407
O O17 0.000000 0.500000 0.500000
#
# Coordination Sequence:
#
# PCOD8120690 Si02
#       8
#     2   4   4   4   4   4   4   4
#     4  12  26  40  58  92 138 170 214 274 338 376
#     4  12  24  41  67  93 122 175 227 262 330 395
#     4  12  23  41  61  90 123 169 222 269 324 390
#     4  12  26  41  59  87 127 177 221 275 319 375
#     4  12  24  37  60  94 133 167 210 272 323 399
#     4  11  24  37  63 105 134 162 202 268 342 397
#     4   9  20  41  66  94 126 166 206 258 330 396
#     4  10  21  41  67  96 125 171 218 264 319 395
#
# _framework density 20.095120000000001
#
# number of rings (size 3 to 8) (size 9 to 14) (size 15 to 20)
#    0.000    0.800    6.667    1.200    3.733    0.533 
#    0.000    0.000    0.000   13.600    0.000    0.000 
#    0.000    0.000    0.000    0.000    0.000    0.000 
#
# Total GULP energy -371772.933221 kJ/mol
# GULP energy per Si atom -12392.431107 kJ/mol
# Density = 2.004938 g / cm^3
# Si number density = 20.095120 Si / 1000 Ang^3
#
#
#
# Elastic Constant Matrix: (Units=GPa)
#
#
# Indices 1 2 3 4 5 6 
#
# 1 96.3427 39.2479 41.1070 0.0000 14.3290 0.0000
# 2 39.2479 113.8940 53.6029 0.0000 10.5855 0.0000
# 3 41.1070 53.6029 99.5447 0.0000 17.2798 0.0000
# 4 0.0000 0.0000 0.0000 26.0646 0.0000 7.1766
# 5 14.3290 10.5855 17.2798 0.0000 45.0435 0.0000
# 6 0.0000 0.0000 0.0000 7.1766 0.0000 30.8072
#
#
#
# Elastic Compliance Matrix: (Units=1/GPa)
#
#
# Indices 1 2 3 4 5 6 
#
# 1 0.013373 -0.002658 -0.003708 0.000000 -0.002207 0.000000
# 2 -0.002658 0.012294 -0.005537 0.000000 0.000080 0.000000
# 3 -0.003708 -0.005537 0.015136 0.000000 -0.003326 0.000000
# 4 0.000000 0.000000 0.000000 0.040996 0.000000 -0.009550
# 5 -0.002207 0.000080 -0.003326 0.000000 0.024160 0.000000
# 6 0.000000 0.000000 0.000000 -0.009550 0.000000 0.034685
#
#
# Mechanical properties :
#
#
# Convention : Reuss Voigt Hill
#
# Bulk Modulus (GPa) = 58.83160 64.18854 61.51007
# Shear Modulus (GPa) = 29.39214 32.10462 30.74838
#
# Velocity S-wave (km/s) = 3.82861 4.00138 3.91595
# Velocity P-wave (km/s) = 6.99174 7.30477 7.14997
#
# Compressibility (1/GPa) = 0.01699767
#
# Stress axis : x y z
#
# Youngs Moduli (GPa) = 74.77891 81.33847 66.06981
#
# Poissons Ratio (x) = 0.21620 0.24498
# Poissons Ratio (y) = 0.19877 0.36580
# Poissons Ratio (z) = 0.27727 0.45033
#
# Static dielectric constant tensor:
#      x y z
#    x 3.764370 0.000000 0.036970 
#    y 0.000000 3.995780 0.000000 
#    z 0.036970 0.000000 3.501920 
# 
# 
# High freq. dielectric constant tensor:
#      x y z
#    x 1.805100 0.000000 0.010960 
#    y 0.000000 1.782370 0.000000 
#    z 0.010960 0.000000 1.760930 
# 
# From -- ./inp_files/73938.got.cif
#   From: 2010.06.25/outbox.cif.g09.slc.cpg/sg13_37_cif.got.tgz:73938.got - 2010.06.28 04:50:58.
