data_PCOD8120913
_publ_section_title
;
Structure prediction by ZEFSAII (Michael W. Deem and Ramdas Pophale) SiO2 
 PCOD8120913
Probable space group: P 2/C
;
_chemical_formula_sum "Si O2"
_cell_formula_units_Z 24
_cell_length_a 19.224336
_cell_length_b 5.324328
_cell_length_c 27.925705
_cell_angle_alpha 90.000000
_cell_angle_beta 156.746747
_cell_angle_gamma 90.000000
_cell_volume 1128.477912
_symmetry_space_group_name_H-M "P 2/C"
_symmetry_group_IT_number 13
_symmetry_cell_setting 'monoclinic'
loop_
_space_group_symop_operation_xyz
x,y,z
-x,y,1/2-z
-x,-y,-z
x,-y,1/2+z
loop_
_atom_site_type_symbol
_atom_site_label
_atom_site_fract_x
_atom_site_fract_y
_atom_site_fract_z
Si Si1 0.155360 0.912245 0.663331
Si Si2 0.787125 0.580536 0.539872
Si Si3 0.500000 0.967274 0.750000
Si Si4 0.023095 0.098408 0.859237
Si Si5 0.000000 0.335301 0.750000
Si Si6 0.812556 0.739241 0.406811
Si Si7 0.565458 0.632234 0.706676
O O1 0.344660 0.771393 0.782082
O O2 0.127955 0.044205 0.697278
O O3 0.995435 0.716503 0.551372
O O4 0.156697 0.121295 0.623518
O O5 0.850167 0.856005 0.564988
O O6 0.573557 0.574806 0.400059
O O7 0.843046 0.513669 0.630202
O O8 0.868427 0.353623 0.558238
O O9 0.464520 0.815431 0.678910
O O10 0.323799 0.129691 0.643439
O O11 0.929754 0.155653 0.748767
O O12 0.730105 0.471127 0.341891
#
# Coordination Sequence:
#
# PCOD8120913 Si02
#       7
#     4   4   2   4   2   4   4
#     4  10  23  38  57  89 128 172 206 260 317 377
#     4  10  23  39  67  95 121 163 215 263 314 381
#     4  10  22  36  54  90 120 174 212 262 290 386
#     4  10  22  41  69  90 126 164 213 265 321 375
#     4   8  22  42  68  96 120 158 222 272 314 376
#     4  10  22  38  56  85 132 166 217 251 311 376
#     4  11  23  36  61  89 129 168 210 260 315 375
#
# _framework density 21.267586999999999
#
# number of rings (size 3 to 8) (size 9 to 14) (size 15 to 20)
#    1.000    1.000    0.000    2.500   11.667    0.000 
#    0.000    0.833    0.000    3.000    0.000    0.000 
#    0.000    0.000    0.000    0.000    0.000    0.000 
#
# Total GULP energy -297314.370978 kJ/mol
# GULP energy per Si atom -12388.098791 kJ/mol
# Density = 2.121918 g / cm^3
# Si number density = 21.267587 Si / 1000 Ang^3
#
#
#
# Elastic Constant Matrix: (Units=GPa)
#
#
# Indices 1 2 3 4 5 6 
#
# 1 115.1816 8.0080 23.8553 0.0000 6.7030 0.0000
# 2 8.0080 75.5795 -3.2983 0.0000 7.5532 0.0000
# 3 23.8553 -3.2983 49.9728 0.0000 7.0028 0.0000
# 4 0.0000 0.0000 0.0000 26.1194 0.0000 6.1308
# 5 6.7030 7.5532 7.0028 0.0000 20.7286 0.0000
# 6 0.0000 0.0000 0.0000 6.1308 0.0000 -19.5323
#
#
#
# Elastic Compliance Matrix: (Units=1/GPa)
#
#
# Indices 1 2 3 4 5 6 
#
# 1 0.009777 -0.001114 -0.004571 0.000000 -0.001211 0.000000
# 2 -0.001114 0.013995 0.002225 0.000000 -0.005491 0.000000
# 3 -0.004571 0.002225 0.023352 0.000000 -0.007222 0.000000
# 4 0.000000 0.000000 0.000000 0.035659 0.000000 0.011193
# 5 -0.001211 -0.005491 -0.007222 0.000000 0.053075 0.000000
# 6 0.000000 0.000000 0.000000 0.011193 0.000000 -0.047684
#
#
# Mechanical properties :
#
#
# Convention : Reuss Voigt Hill
#
# Bulk Modulus (GPa) = 24.87361 33.09598 28.98479
# Shear Modulus (GPa) = 46.08569 19.60774 32.84672
#
# Velocity S-wave (km/s) = 4.66010 3.03966 3.93421
# Velocity P-wave (km/s) = 6.37779 5.28345 5.85624
#
# Compressibility (1/GPa) = 0.04020325
#
# Stress axis : x y z
#
# Youngs Moduli (GPa) = 102.28538 71.45392 42.82347
#
# Poissons Ratio (x) = 0.07962 0.19574
# Poissons Ratio (y) = 0.11398 -0.09529
# Poissons Ratio (z) = 0.46753 -0.15899
#
# Static dielectric constant tensor:
#      x y z
#    x 3.903930 0.000000 0.141410 
#    y 0.000000 3.790140 0.000000 
#    z 0.141410 0.000000 3.664090 
# 
# 
# High freq. dielectric constant tensor:
#      x y z
#    x 1.827300 0.000000 0.008790 
#    y 0.000000 1.837620 0.000000 
#    z 0.008790 0.000000 1.806950 
# 
# From -- ./inp_files/58075.got.cif
#   From: 2010.06.25/outbox.cif.g09.slc.cpg/sg13_30_cif.got.tgz:58075.got - 2010.06.28 04:50:58.
