data_PCOD8120066
_publ_section_title
;
Structure prediction by ZEFSAII (Michael W. Deem and Ramdas Pophale) SiO2 
 PCOD8120066
Probable space group: P 2/C
;
_chemical_formula_sum "Si O2"
_cell_formula_units_Z 20
_cell_length_a 9.980803
_cell_length_b 19.676518
_cell_length_c 9.668310
_cell_angle_alpha 90.000000
_cell_angle_beta 150.256686
_cell_angle_gamma 90.000000
_cell_volume 941.991145
_symmetry_space_group_name_H-M "P 2/C"
_symmetry_group_IT_number 13
_symmetry_cell_setting 'monoclinic'
loop_
_space_group_symop_operation_xyz
x,y,z
-x,y,1/2-z
-x,-y,-z
x,-y,1/2+z
loop_
_atom_site_type_symbol
_atom_site_label
_atom_site_fract_x
_atom_site_fract_y
_atom_site_fract_z
Si Si1 0.391424 0.901174 0.999835
Si Si2 0.722644 0.755644 0.566929
Si Si3 0.072424 0.562094 0.162395
Si Si4 0.418774 0.350140 0.331093
Si Si5 0.272094 0.952905 0.430111
O O1 0.500000 0.899839 0.250000
O O2 0.641123 0.903385 0.116209
O O3 0.221139 0.831940 0.823108
O O4 0.216139 0.970233 0.820890
O O5 0.593646 0.711787 0.574303
O O6 0.000000 0.726073 0.750000
O O7 0.500000 0.757686 0.250000
O O8 0.380866 0.589848 0.434070
O O9 0.000000 0.536223 0.250000
O O10 0.000000 0.500000 0.000000
O O11 0.885746 0.623943 0.949082
O O12 0.500000 0.324907 0.250000
O O13 0.000000 0.922314 0.250000
O O14 0.500000 0.955181 0.750000
#
# Coordination Sequence:
#
# PCOD8120066 Si02
#       5
#     4   4   4   4   4
#     4   9  21  38  58  83 117 152 191 245 296 343
#     4  11  23  39  59  85 116 154 196 238 288 343
#     4  10  21  38  61  88 117 150 187 232 282 332
#     4  10  22  40  59  85 120 153 189 234 282 335
#     4  10  21  37  58  84 113 149 195 242 294 352
#
# _framework density 21.231622999999999
#
# number of rings (size 3 to 8) (size 9 to 14) (size 15 to 20)
#    0.000    2.000    0.000    2.400    0.000   13.600 
#    0.000    3.000    0.000    0.000    0.000    0.000 
#    0.000    0.000    0.000    0.000    0.000    0.000 
#
# Total GULP energy -247913.584326 kJ/mol
# GULP energy per Si atom -12395.679216 kJ/mol
# Density = 2.118330 g / cm^3
# Si number density = 21.231623 Si / 1000 Ang^3
#
#
#
# Elastic Constant Matrix: (Units=GPa)
#
#
# Indices 1 2 3 4 5 6 
#
# 1 153.3615 55.1170 41.8159 0.0000 -1.7130 0.0000
# 2 55.1170 88.3886 22.3705 0.0000 -23.4178 0.0000
# 3 41.8159 22.3705 88.5356 0.0000 3.8246 0.0000
# 4 0.0000 0.0000 0.0000 11.8846 0.0000 -4.4180
# 5 -1.7130 -23.4178 3.8246 0.0000 36.9739 0.0000
# 6 0.0000 0.0000 0.0000 -4.4180 0.0000 24.6963
#
#
#
# Elastic Compliance Matrix: (Units=1/GPa)
#
#
# Indices 1 2 3 4 5 6 
#
# 1 0.009389 -0.005954 -0.002799 0.000000 -0.003046 0.000000
# 2 -0.005954 0.018794 -0.002450 0.000000 0.011881 0.000000
# 3 -0.002799 -0.002450 0.013368 0.000000 -0.003064 0.000000
# 4 0.000000 0.000000 0.000000 0.090136 0.000000 0.016125
# 5 -0.003046 0.011881 -0.003064 0.000000 0.034747 0.000000
# 6 0.000000 0.000000 0.000000 0.016125 0.000000 0.043376
#
#
# Mechanical properties :
#
#
# Convention : Reuss Voigt Hill
#
# Bulk Modulus (GPa) = 52.22821 63.21027 57.71924
# Shear Modulus (GPa) = 20.95571 28.77645 24.86608
#
# Velocity S-wave (km/s) = 3.14507 3.68551 3.42597
# Velocity P-wave (km/s) = 6.15153 6.92438 6.54936
#
# Compressibility (1/GPa) = 0.01914674
#
# Stress axis : x y z
#
# Youngs Moduli (GPa) = 106.50362 53.20804 74.80462
#
# Poissons Ratio (x) = 0.31679 0.20936
# Poissons Ratio (y) = 0.63410 0.18327
# Poissons Ratio (z) = 0.29807 0.13036
#
# Static dielectric constant tensor:
#      x y z
#    x 4.597220 0.000000 0.185320 
#    y 0.000000 3.949550 0.000000 
#    z 0.185320 0.000000 3.906000 
# 
# 
# High freq. dielectric constant tensor:
#      x y z
#    x 1.847330 0.000000 -0.003540 
#    y 0.000000 1.813600 0.000000 
#    z -0.003540 0.000000 1.830530 
# 
# From -- ./inp_files/9953.got.cif
#   From: 2010.06.25/outbox.cif.g09.slc.cpg/sg13_5_cif.got.tgz:9953.got - 2010.06.28 04:50:58.
