data_PCOD8120030
_publ_section_title
;
Structure prediction by ZEFSAII (Michael W. Deem and Ramdas Pophale) SiO2 
 PCOD8120030
Probable space group: P 2/C
;
_chemical_formula_sum "Si O2"
_cell_formula_units_Z 26
_cell_length_a 14.186319
_cell_length_b 8.804823
_cell_length_c 14.930027
_cell_angle_alpha 90.000000
_cell_angle_beta 41.092411
_cell_angle_gamma 90.000000
_cell_volume 1225.739950
_symmetry_space_group_name_H-M "P 2/C"
_symmetry_group_IT_number 13
_symmetry_cell_setting 'monoclinic'
loop_
_space_group_symop_operation_xyz
x,y,z
-x,y,1/2-z
-x,-y,-z
x,-y,1/2+z
loop_
_atom_site_type_symbol
_atom_site_label
_atom_site_fract_x
_atom_site_fract_y
_atom_site_fract_z
Si Si1 0.000273 0.321751 0.980895
Si Si2 0.452551 0.520506 0.382177
Si Si3 0.211397 0.797771 0.204526
Si Si4 0.540495 0.284787 0.455781
Si Si5 0.845653 0.616582 0.425077
Si Si6 0.000000 0.657464 0.750000
Si Si7 0.830804 0.144033 0.249372
O O1 0.946897 0.209847 0.096403
O O2 0.891605 0.283244 0.976811
O O3 0.000000 0.500000 0.000000
O O4 0.162702 0.275389 0.834550
O O5 0.500000 0.579709 0.250000
O O6 0.559116 0.416763 0.367170
O O7 0.419407 0.660189 0.472116
O O8 0.322089 0.411874 0.451722
O O9 0.383049 0.791063 0.069371
O O10 0.125767 0.702666 0.189736
O O11 0.149752 0.967331 0.245951
O O12 0.664506 0.166124 0.340594
O O13 0.929631 0.455223 0.373738
O O14 0.131036 0.761118 0.689401
#
# Coordination Sequence:
#
# PCOD8120030 Si02
#       7
#     4   4   4   4   4   2   4
#     4  12  24  40  68  96 128 168 220 269 314 384
#     4  10  21  36  65  96 123 165 219 270 315 379
#     4  11  25  43  65  93 135 171 209 270 330 385
#     4  10  23  41  65  91 131 171 215 261 326 386
#     4  11  21  41  63  93 127 167 214 266 322 374
#     4  12  22  38  66  88 124 168 208 260 316 378
#     4  12  25  43  64  97 131 171 214 265 328 385
#
# _framework density 21.211679
#
# number of rings (size 3 to 8) (size 9 to 14) (size 15 to 20)
#    0.000    0.923    4.615    1.846    8.615    0.000 
#    0.000    0.000    0.000    1.846    0.000    0.000 
#    0.000    0.000    0.000    0.000    0.000    0.000 
#
# Total GULP energy -322160.689784 kJ/mol
# GULP energy per Si atom -12390.795761 kJ/mol
# Density = 2.116340 g / cm^3
# Si number density = 21.211679 Si / 1000 Ang^3
#
#
#
# Elastic Constant Matrix: (Units=GPa)
#
#
# Indices 1 2 3 4 5 6 
#
# 1 71.8889 14.6031 24.8594 0.0000 1.3992 0.0000
# 2 14.6031 114.8398 28.8412 0.0000 -0.5460 0.0000
# 3 24.8594 28.8412 89.1348 0.0000 2.9507 0.0000
# 4 0.0000 0.0000 0.0000 24.0185 0.0000 -5.3232
# 5 1.3992 -0.5460 2.9507 0.0000 38.0806 0.0000
# 6 0.0000 0.0000 0.0000 -5.3232 0.0000 27.0271
#
#
#
# Elastic Compliance Matrix: (Units=1/GPa)
#
#
# Indices 1 2 3 4 5 6 
#
# 1 0.015495 -0.000967 -0.004000 0.000000 -0.000273 0.000000
# 2 -0.000967 0.009544 -0.002831 0.000000 0.000392 0.000000
# 3 -0.004000 -0.002831 0.013281 0.000000 -0.000923 0.000000
# 4 0.000000 0.000000 0.000000 0.043535 0.000000 0.008575
# 5 -0.000273 0.000392 -0.000923 0.000000 0.026347 0.000000
# 6 0.000000 0.000000 0.000000 0.008575 0.000000 0.038689
#
#
# Mechanical properties :
#
#
# Convention : Reuss Voigt Hill
#
# Bulk Modulus (GPa) = 44.00650 45.83011 44.91831
# Shear Modulus (GPa) = 29.40109 31.66255 30.53182
#
# Velocity S-wave (km/s) = 3.72705 3.86773 3.79804
# Velocity P-wave (km/s) = 6.26997 6.44971 6.36048
#
# Compressibility (1/GPa) = 0.02272392
#
# Stress axis : x y z
#
# Youngs Moduli (GPa) = 64.53612 104.78126 75.29514
#
# Poissons Ratio (x) = 0.10135 0.30115
# Poissons Ratio (y) = 0.06242 0.21318
# Poissons Ratio (z) = 0.25812 0.29666
#
# Static dielectric constant tensor:
#      x y z
#    x 3.941160 0.000000 0.080910 
#    y 0.000000 3.602660 0.000000 
#    z 0.080910 0.000000 3.918490 
# 
# 
# High freq. dielectric constant tensor:
#      x y z
#    x 1.838130 0.000000 -0.004600 
#    y 0.000000 1.811510 0.000000 
#    z -0.004600 0.000000 1.835050 
# 
# From -- ./inp_files/53298.got.cif
#   From: 2010.06.25/outbox.cif.g09.slc.cpg/sg13_27_cif.got.tgz:53298.got - 2010.06.28 04:50:58.
