data_PCOD8120067
_publ_section_title
;
Structure prediction by ZEFSAII (Michael W. Deem and Ramdas Pophale) SiO2 
 PCOD8120067
Probable space group: P 2/C
;
_chemical_formula_sum "Si O2"
_cell_formula_units_Z 32
_cell_length_a 20.615696
_cell_length_b 15.081377
_cell_length_c 15.054334
_cell_angle_alpha 90.000000
_cell_angle_beta 160.614026
_cell_angle_gamma 90.000000
_cell_volume 1553.629076
_symmetry_space_group_name_H-M "P 2/C"
_symmetry_group_IT_number 13
_symmetry_cell_setting 'monoclinic'
loop_
_space_group_symop_operation_xyz
x,y,z
-x,y,1/2-z
-x,-y,-z
x,-y,1/2+z
loop_
_atom_site_type_symbol
_atom_site_label
_atom_site_fract_x
_atom_site_fract_y
_atom_site_fract_z
Si Si1 0.327148 0.995576 0.961866
Si Si2 0.742887 0.676380 0.238164
Si Si3 0.810955 0.659634 0.710965
Si Si4 0.106789 0.117313 0.801036
Si Si5 0.442273 0.504426 0.576994
Si Si6 0.781694 0.382679 0.975943
Si Si7 0.252367 0.823621 0.757098
Si Si8 0.510927 0.159632 0.110911
O O1 0.151523 0.036256 0.793084
O O2 0.242334 0.910608 0.804004
O O3 0.500000 0.965232 0.250000
O O4 0.403586 0.066391 0.988107
O O5 0.751133 0.686551 0.355889
O O6 0.957944 0.666428 0.475044
O O7 0.618994 0.589385 0.057332
O O8 0.641000 0.762050 0.063684
O O9 0.734558 0.566391 0.650031
O O10 0.751485 0.668502 0.530347
O O11 0.704367 0.737944 0.627057
O O12 0.000000 0.076652 0.750000
O O13 0.958355 0.186548 0.563110
O O14 0.306233 0.168495 0.085097
O O15 0.500000 0.534780 0.750000
O O16 0.631581 0.463740 0.773147
O O17 0.000000 0.423335 0.250000
O O18 0.423773 0.833593 0.906684
#
# Coordination Sequence:
#
# PCOD8120067 Si02
#       8
#     4   4   4   4   4   4   4   4
#     4  10  21  37  58  84 114 151 193 242 294 354
#     4  11  21  37  60  83 112 156 195 237 301 361
#     4  10  22  38  57  85 117 149 194 248 292 349
#     4   9  20  38  56  82 119 152 192 245 294 348
#     4  10  21  37  58  84 114 151 193 242 294 354
#     4   9  20  38  56  82 119 152 192 245 294 348
#     4  11  21  37  60  83 112 156 195 237 301 361
#     4  10  22  38  57  85 117 149 194 248 292 349
#
# _framework density 20.596938000000002
#
# number of rings (size 3 to 8) (size 9 to 14) (size 15 to 20)
#    0.000    2.000    0.000    3.000    0.000    5.000 
#    0.000    3.750    0.000    0.000    0.000    0.000 
#    0.000    0.000    0.000    0.000    0.000    0.000 
#
# Total GULP energy -396861.945102 kJ/mol
# GULP energy per Si atom -12401.935784 kJ/mol
# Density = 2.055006 g / cm^3
# Si number density = 20.596938 Si / 1000 Ang^3
#
#
#
# Elastic Constant Matrix: (Units=GPa)
#
#
# Indices 1 2 3 4 5 6 
#
# 1 86.8645 23.4851 22.0745 0.0000 -0.4804 0.0000
# 2 23.4851 87.7231 33.2114 0.0000 -14.6995 0.0000
# 3 22.0745 33.2114 84.2924 0.0000 4.3371 0.0000
# 4 0.0000 0.0000 0.0000 26.1169 0.0000 -1.0697
# 5 -0.4804 -14.6995 4.3371 0.0000 25.2657 0.0000
# 6 0.0000 0.0000 0.0000 -1.0697 0.0000 25.4180
#
#
#
# Elastic Compliance Matrix: (Units=1/GPa)
#
#
# Indices 1 2 3 4 5 6 
#
# 1 0.012816 -0.002754 -0.002221 0.000000 -0.000977 0.000000
# 2 -0.002754 0.016245 -0.006218 0.000000 0.010466 0.000000
# 3 -0.002221 -0.006218 0.015218 0.000000 -0.006272 0.000000
# 4 0.000000 0.000000 0.000000 0.038355 0.000000 0.001614
# 5 -0.000977 0.010466 -0.006272 0.000000 0.046726 0.000000
# 6 0.000000 0.000000 0.000000 0.001614 0.000000 0.039410
#
#
# Mechanical properties :
#
#
# Convention : Reuss Voigt Hill
#
# Bulk Modulus (GPa) = 45.67707 46.26913 45.97310
# Shear Modulus (GPa) = 25.19499 27.36741 26.28120
#
# Velocity S-wave (km/s) = 3.50128 3.64911 3.57596
# Velocity P-wave (km/s) = 6.21048 6.34567 6.27844
#
# Compressibility (1/GPa) = 0.02189282
#
# Stress axis : x y z
#
# Youngs Moduli (GPa) = 78.02913 61.55926 65.71367
#
# Poissons Ratio (x) = 0.16953 0.14594
# Poissons Ratio (y) = 0.21489 0.40859
# Poissons Ratio (z) = 0.17329 0.38275
#
# Static dielectric constant tensor:
#      x y z
#    x 3.928870 0.000000 0.025930 
#    y 0.000000 3.327820 0.000000 
#    z 0.025930 0.000000 3.911540 
# 
# 
# High freq. dielectric constant tensor:
#      x y z
#    x 1.821350 0.000000 0.004210 
#    y 0.000000 1.775020 0.000000 
#    z 0.004210 0.000000 1.818540 
# 
# From -- ./inp_files/57901.got.cif
#   From: 2010.06.25/outbox.cif.g09.slc.cpg/sg13_29_cif.got.tgz:57901.got - 2010.06.28 04:50:58.
