data_PCOD8120240
_publ_section_title
;
Structure prediction by ZEFSAII (Michael W. Deem and Ramdas Pophale) SiO2 
 PCOD8120240
Probable space group: P 2/C
;
_chemical_formula_sum "Si O2"
_cell_formula_units_Z 24
_cell_length_a 23.413639
_cell_length_b 8.859513
_cell_length_c 17.743339
_cell_angle_alpha 90.000000
_cell_angle_beta 19.176493
_cell_angle_gamma 90.000000
_cell_volume 1208.987878
_symmetry_space_group_name_H-M "P 2/C"
_symmetry_group_IT_number 13
_symmetry_cell_setting 'monoclinic'
loop_
_space_group_symop_operation_xyz
x,y,z
-x,y,1/2-z
-x,-y,-z
x,-y,1/2+z
loop_
_atom_site_type_symbol
_atom_site_label
_atom_site_fract_x
_atom_site_fract_y
_atom_site_fract_z
Si Si1 0.504884 0.429820 0.911763
Si Si2 0.812003 0.581821 0.446521
Si Si3 0.832912 0.922324 0.240182
Si Si4 0.171227 0.571039 0.251202
Si Si5 0.330149 0.894251 0.909593
Si Si6 0.490649 0.924931 0.431163
O O1 0.686373 0.461480 0.643327
O O2 0.487734 0.252358 0.942882
O O3 0.500000 0.500000 0.000000
O O4 0.343487 0.489881 0.065253
O O5 0.835108 0.545255 0.330045
O O6 0.719688 0.743115 0.573128
O O7 0.000000 0.578543 0.250000
O O8 0.821761 0.745968 0.233334
O O9 0.826541 0.941094 0.339059
O O10 0.680390 0.016188 0.394464
O O11 0.000000 0.000000 0.000000
O O12 0.000000 0.500000 0.500000
O O13 0.500000 0.862737 0.750000
O O14 0.351716 0.023798 0.820040
O O15 0.500000 0.000000 0.500000
#
# Coordination Sequence:
#
# PCOD8120240 Si02
#       6
#     4   4   4   4   4   4
#     4  12  24  41  63  89 124 163 206 257 307 364
#     4  11  23  40  62  91 124 161 202 250 306 365
#     4  10  21  38  60  89 123 157 199 247 298 360
#     4  11  23  40  64  93 126 164 203 250 304 362
#     4   9  20  40  61  85 118 157 198 246 305 366
#     4  11  23  39  62  87 117 158 203 252 306 361
#
# _framework density 19.851316000000001
#
# number of rings (size 3 to 8) (size 9 to 14) (size 15 to 20)
#    0.000    1.333    0.000    7.500    0.000    9.333 
#    0.000    0.833    0.000    0.000    0.000    0.000 
#    0.000    0.000    0.000    0.000    0.000    0.000 
#
# Total GULP energy -297607.873400 kJ/mol
# GULP energy per Si atom -12400.328058 kJ/mol
# Density = 1.980613 g / cm^3
# Si number density = 19.851316 Si / 1000 Ang^3
#
#
#
# Elastic Constant Matrix: (Units=GPa)
#
#
# Indices 1 2 3 4 5 6 
#
# 1 124.2461 71.0991 47.9639 0.0000 6.8593 0.0000
# 2 71.0991 186.3994 70.3840 0.0000 13.9607 0.0000
# 3 47.9639 70.3840 125.9736 0.0000 15.6772 0.0000
# 4 0.0000 0.0000 0.0000 42.5207 0.0000 3.5205
# 5 6.8593 13.9607 15.6772 0.0000 37.6452 0.0000
# 6 0.0000 0.0000 0.0000 3.5205 0.0000 33.4762
#
#
#
# Elastic Compliance Matrix: (Units=1/GPa)
#
#
# Indices 1 2 3 4 5 6 
#
# 1 0.010796 -0.003259 -0.002315 0.000000 0.000206 0.000000
# 2 -0.003259 0.007818 -0.002996 0.000000 -0.001058 0.000000
# 3 -0.002315 -0.002996 0.010866 0.000000 -0.002992 0.000000
# 4 0.000000 0.000000 0.000000 0.023725 0.000000 -0.002495
# 5 0.000206 -0.001058 -0.002992 0.000000 0.028165 0.000000
# 6 0.000000 0.000000 0.000000 -0.002495 0.000000 0.030134
#
#
# Mechanical properties :
#
#
# Convention : Reuss Voigt Hill
#
# Bulk Modulus (GPa) = 81.03657 90.61254 85.82455
# Shear Modulus (GPa) = 37.66273 39.20657 38.43465
#
# Velocity S-wave (km/s) = 4.36046 4.44893 4.40492
# Velocity P-wave (km/s) = 8.14014 8.49325 8.31857
#
# Compressibility (1/GPa) = 0.01234011
#
# Stress axis : x y z
#
# Youngs Moduli (GPa) = 92.62721 127.90345 92.03192
#
# Poissons Ratio (x) = 0.41686 0.21307
# Poissons Ratio (y) = 0.30189 0.27570
# Poissons Ratio (z) = 0.21445 0.38316
#
# Static dielectric constant tensor:
#      x y z
#    x 3.704630 0.000000 0.193920 
#    y 0.000000 3.615410 0.000000 
#    z 0.193920 0.000000 3.918700 
# 
# 
# High freq. dielectric constant tensor:
#      x y z
#    x 1.783050 0.000000 0.013100 
#    y 0.000000 1.780080 0.000000 
#    z 0.013100 0.000000 1.789200 
# 
# From -- ./inp_files/71226.got.cif
#   From: 2010.06.25/outbox.cif.g09.slc.cpg/sg13_36_cif.got.tgz:71226.got - 2010.06.28 04:50:58.
