data_PCOD8120652
_publ_section_title
;
Structure prediction by ZEFSAII (Michael W. Deem and Ramdas Pophale) SiO2 
 PCOD8120652
Probable space group: P 2/C
;
_chemical_formula_sum "Si O2"
_cell_formula_units_Z 20
_cell_length_a 9.484437
_cell_length_b 12.053578
_cell_length_c 9.211017
_cell_angle_alpha 90.000000
_cell_angle_beta 112.463962
_cell_angle_gamma 90.000000
_cell_volume 973.113541
_symmetry_space_group_name_H-M "P 2/C"
_symmetry_group_IT_number 13
_symmetry_cell_setting 'monoclinic'
loop_
_space_group_symop_operation_xyz
x,y,z
-x,y,1/2-z
-x,-y,-z
x,-y,1/2+z
loop_
_atom_site_type_symbol
_atom_site_label
_atom_site_fract_x
_atom_site_fract_y
_atom_site_fract_z
Si Si1 0.659917 0.892813 0.113838
Si Si2 0.341476 0.308222 0.103603
Si Si3 0.831438 0.273505 0.184632
Si Si4 0.316734 0.092635 0.558496
Si Si5 0.111046 0.484067 0.909756
O O1 0.748895 0.889848 0.303740
O O2 0.496034 0.929393 0.110002
O O3 0.641739 0.776633 0.023013
O O4 0.748345 0.981478 0.045631
O O5 0.500000 0.335106 0.250000
O O6 0.226044 0.257879 0.174477
O O7 0.265746 0.418768 0.007570
O O8 0.830484 0.400753 0.134164
O O9 0.000000 0.222373 0.250000
O O10 0.723130 0.205526 0.037602
O O11 0.000000 0.422051 0.750000
O O12 0.000000 0.500000 0.000000
#
# Coordination Sequence:
#
# PCOD8120652 Si02
#       5
#     4   4   4   4   4
#     4  10  22  38  68  92 133 165 212 273 320 386
#     4  12  24  42  67 101 130 171 224 274 321 388
#     4  11  23  43  66  92 133 174 215 269 326 394
#     4  10  21  41  63  98 126 173 213 258 333 387
#     4  11  24  46  67  91 133 182 214 267 337 389
#
# _framework density 20.552586999999999
#
# number of rings (size 3 to 8) (size 9 to 14) (size 15 to 20)
#    0.000    1.200    6.000    1.200    5.600    0.800 
#    3.600    5.000    0.000    0.000    0.000    0.000 
#    0.000    0.000    0.000    0.000    0.000    0.000 
#
# Total GULP energy -247796.933849 kJ/mol
# GULP energy per Si atom -12389.846692 kJ/mol
# Density = 2.050581 g / cm^3
# Si number density = 20.552587 Si / 1000 Ang^3
#
#
#
# Elastic Constant Matrix: (Units=GPa)
#
#
# Indices 1 2 3 4 5 6 
#
# 1 71.2479 19.2495 33.5880 0.0000 -6.6824 0.0000
# 2 19.2495 95.2452 59.0418 0.0000 2.6937 0.0000
# 3 33.5880 59.0418 157.9203 0.0000 -15.7333 0.0000
# 4 0.0000 0.0000 0.0000 7.0290 0.0000 8.5679
# 5 -6.6824 2.6937 -15.7333 0.0000 32.5754 0.0000
# 6 0.0000 0.0000 0.0000 8.5679 0.0000 13.1537
#
#
#
# Elastic Compliance Matrix: (Units=1/GPa)
#
#
# Indices 1 2 3 4 5 6 
#
# 1 0.015892 -0.001709 -0.002524 0.000000 0.002182 0.000000
# 2 -0.001709 0.014308 -0.005398 0.000000 -0.004141 0.000000
# 3 -0.002524 -0.005398 0.009329 0.000000 0.004435 0.000000
# 4 0.000000 0.000000 0.000000 0.690569 0.000000 -0.449816
# 5 0.002182 -0.004141 0.004435 0.000000 0.033630 0.000000
# 6 0.000000 0.000000 0.000000 -0.449816 0.000000 0.369021
#
#
# Mechanical properties :
#
#
# Convention : Reuss Voigt Hill
#
# Bulk Modulus (GPa) = 49.34212 60.90800 55.12506
# Shear Modulus (GPa) = 4.31493 24.72054 14.51774
#
# Velocity S-wave (km/s) = 1.45052 3.47190 2.66065
# Velocity P-wave (km/s) = 5.18317 6.76547 6.02648
#
# Compressibility (1/GPa) = 0.02026666
#
# Stress axis : x y z
#
# Youngs Moduli (GPa) = 62.92614 69.88979 107.19056
#
# Poissons Ratio (x) = 0.11945 0.27050
# Poissons Ratio (y) = 0.10755 0.57867
# Poissons Ratio (z) = 0.15880 0.37730
#
# Static dielectric constant tensor:
#      x y z
#    x 3.716600 0.000000 -0.135300 
#    y 0.000000 3.787690 0.000000 
#    z -0.135300 0.000000 4.264150 
# 
# 
# High freq. dielectric constant tensor:
#      x y z
#    x 1.786090 0.000000 -0.011800 
#    y 0.000000 1.792550 0.000000 
#    z -0.011800 0.000000 1.829190 
# 
# From -- ./inp_files/11842.got.cif
#   From: 2010.06.25/outbox.cif.g09.slc.cpg/sg13_6_cif.got.tgz:11842.got - 2010.06.28 04:50:58.
