data_PCOD8120069
_publ_section_title
;
Structure prediction by ZEFSAII (Michael W. Deem and Ramdas Pophale) SiO2 
 PCOD8120069
Probable space group: P 2/C
;
_chemical_formula_sum "Si O2"
_cell_formula_units_Z 30
_cell_length_a 13.668530
_cell_length_b 12.710948
_cell_length_c 25.361843
_cell_angle_alpha 90.000000
_cell_angle_beta 20.887553
_cell_angle_gamma 90.000000
_cell_volume 1571.023873
_symmetry_space_group_name_H-M "P 2/C"
_symmetry_group_IT_number 13
_symmetry_cell_setting 'monoclinic'
loop_
_space_group_symop_operation_xyz
x,y,z
-x,y,1/2-z
-x,-y,-z
x,-y,1/2+z
loop_
_atom_site_type_symbol
_atom_site_label
_atom_site_fract_x
_atom_site_fract_y
_atom_site_fract_z
Si Si1 0.790972 0.297682 0.232732
Si Si2 0.306208 0.599572 0.607089
Si Si3 0.759955 0.086373 0.187124
Si Si4 0.608590 0.348553 0.544787
Si Si5 0.365961 0.549125 0.911186
Si Si6 0.122072 0.692660 0.357605
Si Si7 0.500000 0.403069 0.750000
Si Si8 0.859647 0.098901 0.017848
O O1 0.670198 0.331196 0.351299
O O2 0.779831 0.174387 0.222982
O O3 0.602627 0.361942 0.286101
O O4 0.108596 0.325958 0.067067
O O5 0.500000 0.500000 0.500000
O O6 0.378506 0.681328 0.523281
O O7 0.000000 0.557438 0.750000
O O8 0.891111 0.119660 0.064753
O O9 0.442087 0.055927 0.342265
O O10 0.926463 0.980991 0.117359
O O11 0.558809 0.474973 0.576744
O O12 0.361275 0.283483 0.695069
O O13 0.357062 0.476448 0.864579
O O14 0.060884 0.595546 0.070808
O O15 0.264152 0.669153 0.342390
O O16 0.915163 0.789505 0.463343
#
# Coordination Sequence:
#
# PCOD8120069 Si02
#       8
#     4   4   4   4   4   4   2   4
#     4  11  22  37  61  84 120 158 199 250 302 350
#     4  10  21  37  58  86 120 161 201 243 289 348
#     4  10  23  41  62  88 114 152 201 253 307 348
#     4  10  22  36  55  87 122 159 194 239 289 362
#     4  11  21  36  54  83 122 162 202 233 291 355
#     4  11  23  36  56  86 115 159 200 239 297 357
#     4  10  24  32  52  82 128 162 194 234 288 362
#     4  10  23  40  63  86 116 151 199 254 298 361
#
# _framework density 19.095828000000001
#
# number of rings (size 3 to 8) (size 9 to 14) (size 15 to 20)
#    0.000    1.600    2.667    2.000    9.333    1.067 
#    0.000    0.000    0.000    0.800    0.000    0.000 
#    0.000    0.000    0.000    0.000    0.000    0.000 
#
# Total GULP energy -371776.756851 kJ/mol
# GULP energy per Si atom -12392.558562 kJ/mol
# Density = 1.905236 g / cm^3
# Si number density = 19.095828 Si / 1000 Ang^3
#
#
#
# Elastic Constant Matrix: (Units=GPa)
#
#
# Indices 1 2 3 4 5 6 
#
# 1 60.3120 34.3956 35.8609 0.0000 8.1280 0.0000
# 2 34.3956 83.2987 38.3925 0.0000 5.7063 0.0000
# 3 35.8609 38.3925 116.5412 0.0000 -1.3123 0.0000
# 4 0.0000 0.0000 0.0000 36.2680 0.0000 -1.1956
# 5 8.1280 5.7063 -1.3123 0.0000 31.1945 0.0000
# 6 0.0000 0.0000 0.0000 -1.1956 0.0000 20.3556
#
#
#
# Elastic Compliance Matrix: (Units=1/GPa)
#
#
# Indices 1 2 3 4 5 6 
#
# 1 0.024600 -0.007404 -0.005190 0.000000 -0.005274 0.000000
# 2 -0.007404 0.016629 -0.003214 0.000000 -0.001248 0.000000
# 3 -0.005190 -0.003214 0.011263 0.000000 0.002414 0.000000
# 4 0.000000 0.000000 0.000000 0.027626 0.000000 0.001623
# 5 -0.005274 -0.001248 0.002414 0.000000 0.033761 0.000000
# 6 0.000000 0.000000 0.000000 0.001623 0.000000 0.049222
#
#
# Mechanical properties :
#
#
# Convention : Reuss Voigt Hill
#
# Bulk Modulus (GPa) = 47.90103 53.04998 50.47551
# Shear Modulus (GPa) = 24.79231 27.66382 26.22807
#
# Velocity S-wave (km/s) = 3.60712 3.81029 3.71009
# Velocity P-wave (km/s) = 6.51824 6.87015 6.69650
#
# Compressibility (1/GPa) = 0.02087638
#
# Stress axis : x y z
#
# Youngs Moduli (GPa) = 40.65112 60.13531 88.78249
#
# Poissons Ratio (x) = 0.44527 0.46075
# Poissons Ratio (y) = 0.30100 0.28533
# Poissons Ratio (z) = 0.21096 0.19326
#
# Static dielectric constant tensor:
#      x y z
#    x 3.690320 0.000000 0.122240 
#    y 0.000000 3.275400 0.000000 
#    z 0.122240 0.000000 3.693030 
# 
# 
# High freq. dielectric constant tensor:
#      x y z
#    x 1.730890 0.000000 -0.010620 
#    y 0.000000 1.713480 0.000000 
#    z -0.010620 0.000000 1.760680 
# 
# From -- ./inp_files/92924.got.cif
#   From: 2010.06.25/outbox.cif.g09.slc.cpg/sg13_47_cif.got.tgz:92924.got - 2010.06.28 04:50:58.
