data_PCOD8120831
_publ_section_title
;
Structure prediction by ZEFSAII (Michael W. Deem and Ramdas Pophale) SiO2 
 PCOD8120831
Probable space group: P 2/C
;
_chemical_formula_sum "Si O2"
_cell_formula_units_Z 22
_cell_length_a 13.189489
_cell_length_b 19.855057
_cell_length_c 10.365561
_cell_angle_alpha 90.000000
_cell_angle_beta 158.163777
_cell_angle_gamma 90.000000
_cell_volume 1009.676017
_symmetry_space_group_name_H-M "P 2/C"
_symmetry_group_IT_number 13
_symmetry_cell_setting 'monoclinic'
loop_
_space_group_symop_operation_xyz
x,y,z
-x,y,1/2-z
-x,-y,-z
x,-y,1/2+z
loop_
_atom_site_type_symbol
_atom_site_label
_atom_site_fract_x
_atom_site_fract_y
_atom_site_fract_z
Si Si1 0.500000 0.780181 0.250000
Si Si2 0.000000 0.349266 0.250000
Si Si3 0.000000 0.862077 0.750000
Si Si4 0.747732 0.954874 0.246251
Si Si5 0.219219 0.690687 0.751055
Si Si6 0.486213 0.558855 0.380515
Si Si7 0.500000 0.144566 0.250000
Si Si8 0.000000 0.233456 0.750000
O O1 0.779479 0.822310 0.575238
O O2 0.509852 0.735432 0.396843
O O3 0.083248 0.300191 0.232133
O O4 0.214618 0.398707 0.570999
O O5 0.819845 0.909166 0.449804
O O6 0.664952 0.903777 0.037437
O O7 0.000000 0.000000 0.500000
O O8 0.500000 0.000000 0.000000
O O9 0.039920 0.718592 0.421828
O O10 0.271948 0.610941 0.796337
O O11 0.500000 0.530319 0.250000
O O12 0.500000 0.500000 0.500000
O O13 0.725355 0.190285 0.443319
#
# Coordination Sequence:
#
# PCOD8120831 Si02
#       8
#     2   2   2   4   4   4   2   2
#     4  12  22  41  68  93 136 168 238 274 328 416
#     4  10  21  43  68  90 137 177 242 282 352 420
#     4  12  25  39  68 101 120 181 226 270 328 406
#     4  12  24  44  69  95 137 179 226 281 341 408
#     4  11  24  42  67 100 130 191 225 294 360 411
#     4  10  23  41  66  98 133 179 238 295 350 423
#     4  12  26  47  64 107 144 182 230 296 354 410
#     4  12  28  42  70 103 151 182 232 298 358 426
#
# _framework density 21.789166999999999
#
# number of rings (size 3 to 8) (size 9 to 14) (size 15 to 20)
#    0.000    0.727    2.727    6.000    2.545    5.091 
#    0.000    0.000    0.000    0.000    0.000    0.000 
#    0.000    0.000    0.000    0.000    0.000    0.000 
#
# Total GULP energy -272631.743449 kJ/mol
# GULP energy per Si atom -12392.351975 kJ/mol
# Density = 2.173957 g / cm^3
# Si number density = 21.789167 Si / 1000 Ang^3
#
#
#
# Elastic Constant Matrix: (Units=GPa)
#
#
# Indices 1 2 3 4 5 6 
#
# 1 119.3467 77.5448 64.9653 0.0000 -11.1780 0.0000
# 2 77.5448 143.4315 60.2061 0.0000 -12.5364 0.0000
# 3 64.9653 60.2061 115.4916 0.0000 -11.1721 0.0000
# 4 0.0000 0.0000 0.0000 29.7099 0.0000 -18.5013
# 5 -11.1780 -12.5364 -11.1721 0.0000 59.3715 0.0000
# 6 0.0000 0.0000 0.0000 -18.5013 0.0000 43.3281
#
#
#
# Elastic Compliance Matrix: (Units=1/GPa)
#
#
# Indices 1 2 3 4 5 6 
#
# 1 0.015224 -0.005899 -0.005431 0.000000 0.000599 0.000000
# 2 -0.005899 0.011272 -0.002481 0.000000 0.000803 0.000000
# 3 -0.005431 -0.002481 0.013095 0.000000 0.000918 0.000000
# 4 0.000000 0.000000 0.000000 0.045851 0.000000 0.019579
# 5 0.000599 0.000803 0.000918 0.000000 0.017298 0.000000
# 6 0.000000 0.000000 0.000000 0.019579 0.000000 0.031440
#
#
# Mechanical properties :
#
#
# Convention : Reuss Voigt Hill
#
# Bulk Modulus (GPa) = 83.52994 87.07800 85.30397
# Shear Modulus (GPa) = 30.15843 38.18548 34.17195
#
# Velocity S-wave (km/s) = 3.72439 4.19083 3.96447
# Velocity P-wave (km/s) = 7.54410 7.96668 7.75827
#
# Compressibility (1/GPa) = 0.01197176
#
# Stress axis : x y z
#
# Youngs Moduli (GPa) = 65.68668 88.71165 76.36290
#
# Poissons Ratio (x) = 0.52329 0.41470
# Poissons Ratio (y) = 0.38747 0.18943
# Poissons Ratio (z) = 0.35672 0.22006
#
# Static dielectric constant tensor:
#      x y z
#    x 3.924860 0.000000 0.070220 
#    y 0.000000 4.115050 0.000000 
#    z 0.070220 0.000000 4.089800 
# 
# 
# High freq. dielectric constant tensor:
#      x y z
#    x 1.854500 0.000000 0.000840 
#    y 0.000000 1.872520 0.000000 
#    z 0.000840 0.000000 1.871590 
# 
# From -- ./inp_files/37684.got.cif
#   From: 2010.06.25/outbox.cif.g09.slc.cpg/sg13_19_cif.got.tgz:37684.got - 2010.06.28 04:50:58.
