data_PCOD8120963
_publ_section_title
;
Structure prediction by ZEFSAII (Michael W. Deem and Ramdas Pophale) SiO2 
 PCOD8120963
Probable space group: P 2/C
;
_chemical_formula_sum "Si O2"
_cell_formula_units_Z 26
_cell_length_a 20.391448
_cell_length_b 11.090801
_cell_length_c 8.762261
_cell_angle_alpha 90.000000
_cell_angle_beta 40.430343
_cell_angle_gamma 90.000000
_cell_volume 1285.146450
_symmetry_space_group_name_H-M "P 2/C"
_symmetry_group_IT_number 13
_symmetry_cell_setting 'monoclinic'
loop_
_space_group_symop_operation_xyz
x,y,z
-x,y,1/2-z
-x,-y,-z
x,-y,1/2+z
loop_
_atom_site_type_symbol
_atom_site_label
_atom_site_fract_x
_atom_site_fract_y
_atom_site_fract_z
Si Si1 0.142889 0.026396 0.515083
Si Si2 0.946391 0.152200 0.102270
Si Si3 0.702205 0.587656 0.503838
Si Si4 0.179269 0.170227 0.720430
Si Si5 0.427857 0.452532 0.997759
Si Si6 0.000000 0.531924 0.250000
Si Si7 0.130577 0.394543 0.244127
O O1 0.062630 0.964453 0.773193
O O2 0.204254 0.924981 0.311846
O O3 0.080461 0.117690 0.521922
O O4 0.215402 0.107735 0.496649
O O5 0.862167 0.251894 0.304963
O O6 0.060072 0.201844 0.920445
O O7 0.766014 0.703817 0.342594
O O8 0.620025 0.562618 0.516988
O O9 0.657419 0.617903 0.753272
O O10 0.766274 0.462827 0.397282
O O11 0.500000 0.376732 0.750000
O O12 0.500000 0.500000 0.000000
O O13 0.088511 0.452788 0.165098
O O14 0.949064 0.609138 0.473967
#
# Coordination Sequence:
#
# PCOD8120963 Si02
#       7
#     4   4   4   4   4   2   4
#     4  10  23  38  52  76 117 184 216 240 271 306
#     4  11  22  35  54  72 123 172 210 242 276 318
#     4  11  23  36  63  94 114 145 194 252 296 369
#     4  11  21  37  55  81 120 160 215 242 271 327
#     4   9  21  44  64  88 117 138 173 234 336 406
#     4  10  22  38  42  80 124 174 180 232 308 328
#     4  11  24  33  55  82 121 154 204 241 292 333
#
# _framework density 20.231157
#
# number of rings (size 3 to 8) (size 9 to 14) (size 15 to 20)
#    0.000    1.538    0.000    6.462   12.923    0.000 
#    0.000    0.000    0.000    0.000    0.000   14.000 
#    0.000    0.000    0.000    0.000    0.000    0.000 
#
# Total GULP energy -322103.195634 kJ/mol
# GULP energy per Si atom -12388.584447 kJ/mol
# Density = 2.018511 g / cm^3
# Si number density = 20.231157 Si / 1000 Ang^3
#
#
#
# Elastic Constant Matrix: (Units=GPa)
#
#
# Indices 1 2 3 4 5 6 
#
# 1 103.7160 25.5292 20.2338 0.0000 8.0807 0.0000
# 2 25.5292 76.8013 9.6315 0.0000 -14.0195 0.0000
# 3 20.2338 9.6315 67.8881 0.0000 4.2705 0.0000
# 4 0.0000 0.0000 0.0000 9.2118 0.0000 0.3198
# 5 8.0807 -14.0195 4.2705 0.0000 28.7575 0.0000
# 6 0.0000 0.0000 0.0000 0.3198 0.0000 15.5318
#
#
#
# Elastic Compliance Matrix: (Units=1/GPa)
#
#
# Indices 1 2 3 4 5 6 
#
# 1 0.011629 -0.004478 -0.002511 0.000000 -0.005078 0.000000
# 2 -0.004478 0.016446 -0.001597 0.000000 0.009513 0.000000
# 3 -0.002511 -0.001597 0.015858 0.000000 -0.002428 0.000000
# 4 0.000000 0.000000 0.000000 0.108634 0.000000 -0.002236
# 5 -0.005078 0.009513 -0.002428 0.000000 0.041198 0.000000
# 6 0.000000 0.000000 0.000000 -0.002236 0.000000 0.064430
#
#
# Mechanical properties :
#
#
# Convention : Reuss Voigt Hill
#
# Bulk Modulus (GPa) = 37.36801 39.91050 38.63925
# Shear Modulus (GPa) = 17.58776 23.56761 20.57768
#
# Velocity S-wave (km/s) = 2.95166 3.41679 3.19270
# Velocity P-wave (km/s) = 5.48881 5.94441 5.72114
#
# Compressibility (1/GPa) = 0.02676086
#
# Stress axis : x y z
#
# Youngs Moduli (GPa) = 85.98865 60.80582 63.05990
#
# Poissons Ratio (x) = 0.27227 0.15837
# Poissons Ratio (y) = 0.38503 0.10071
# Poissons Ratio (z) = 0.21596 0.09711
#
# Static dielectric constant tensor:
#      x y z
#    x 3.808240 0.000000 0.427600 
#    y 0.000000 3.601300 0.000000 
#    z 0.427600 0.000000 4.303040 
# 
# 
# High freq. dielectric constant tensor:
#      x y z
#    x 1.792580 0.000000 0.045580 
#    y 0.000000 1.773790 0.000000 
#    z 0.045580 0.000000 1.776900 
# 
# From -- ./inp_files/18568.got.cif
#   From: 2010.06.25/outbox.cif.g09.slc.cpg/sg13_10_cif.got.tgz:18568.got - 2010.06.28 04:50:58.
