data_PCOD8120157
_publ_section_title
;
Structure prediction by ZEFSAII (Michael W. Deem and Ramdas Pophale) SiO2 
 PCOD8120157
Probable space group: P 2/C
;
_chemical_formula_sum "Si O2"
_cell_formula_units_Z 16
_cell_length_a 4.949193
_cell_length_b 8.535996
_cell_length_c 19.815779
_cell_angle_alpha 90.000000
_cell_angle_beta 59.962338
_cell_angle_gamma 90.000000
_cell_volume 724.711965
_symmetry_space_group_name_H-M "P 2/C"
_symmetry_group_IT_number 13
_symmetry_cell_setting 'monoclinic'
loop_
_space_group_symop_operation_xyz
x,y,z
-x,y,1/2-z
-x,-y,-z
x,-y,1/2+z
loop_
_atom_site_type_symbol
_atom_site_label
_atom_site_fract_x
_atom_site_fract_y
_atom_site_fract_z
Si Si1 0.461707 0.055988 0.401661
Si Si2 0.230106 0.514680 0.088469
Si Si3 0.087136 0.859539 0.077748
Si Si4 0.415957 0.631820 0.836476
O O1 0.312520 0.142222 0.484826
O O2 0.504591 0.187279 0.339348
O O3 0.793223 0.983204 0.381236
O O4 0.257303 0.910543 0.400968
O O5 0.077224 0.686448 0.109473
O O6 0.375009 0.480175 0.143175
O O7 0.953862 0.393142 0.104465
O O8 0.500000 0.500000 0.000000
O O9 0.500000 0.588087 0.750000
#
# Coordination Sequence:
#
# PCOD8120157 Si02
#       4
#     4   4   4   4
#     4  10  21  38  63  94 125 164 210 270 319 385
#     4  12  24  42  69 100 128 172 222 275 319 385
#     4  10  21  37  64  96 123 157 220 272 312 366
#     4  12  26  44  64  95 137 177 212 267 341 396
#
# _framework density 22.077736999999999
#
# number of rings (size 3 to 8) (size 9 to 14) (size 15 to 20)
#    0.000    1.000    2.500    4.500    7.000    0.000 
#    0.000    7.500    0.000    0.000    0.000    0.000 
#    0.000    0.000    0.000    0.000    0.000    0.000 
#
# Total GULP energy -198507.843990 kJ/mol
# GULP energy per Si atom -12406.740249 kJ/mol
# Density = 2.202749 g / cm^3
# Si number density = 22.077737 Si / 1000 Ang^3
#
#
#
# Elastic Constant Matrix: (Units=GPa)
#
#
# Indices 1 2 3 4 5 6 
#
# 1 109.2157 20.2376 27.0506 0.0000 21.5572 0.0000
# 2 20.2376 103.0534 45.7259 0.0000 19.0503 0.0000
# 3 27.0506 45.7259 61.2026 0.0000 22.6581 0.0000
# 4 0.0000 0.0000 0.0000 26.7558 0.0000 15.7638
# 5 21.5572 19.0503 22.6581 0.0000 36.4943 0.0000
# 6 0.0000 0.0000 0.0000 15.7638 0.0000 43.2640
#
#
#
# Elastic Compliance Matrix: (Units=1/GPa)
#
#
# Indices 1 2 3 4 5 6 
#
# 1 0.010810 0.000133 -0.003230 0.000000 -0.004449 0.000000
# 2 0.000133 0.014551 -0.010503 0.000000 -0.001153 0.000000
# 3 -0.003230 -0.010503 0.029706 0.000000 -0.011053 0.000000
# 4 0.000000 0.000000 0.000000 0.047592 0.000000 -0.017341
# 5 -0.004449 -0.001153 -0.011053 0.000000 0.037494 0.000000
# 6 0.000000 0.000000 0.000000 -0.017341 0.000000 0.029432
#
#
# Mechanical properties :
#
#
# Convention : Reuss Voigt Hill
#
# Bulk Modulus (GPa) = 35.88566 51.05553 43.47059
# Shear Modulus (GPa) = 24.26311 33.33334 28.79823
#
# Velocity S-wave (km/s) = 3.31869 3.88985 3.61557
# Velocity P-wave (km/s) = 5.56547 6.58408 6.09609
#
# Compressibility (1/GPa) = 0.02786629
#
# Stress axis : x y z
#
# Youngs Moduli (GPa) = 92.50903 68.72269 33.66344
#
# Poissons Ratio (x) = -0.00912 0.10872
# Poissons Ratio (y) = -0.01228 0.35358
# Poissons Ratio (z) = 0.29877 0.72182
#
# Static dielectric constant tensor:
#      x y z
#    x 4.243830 0.000000 0.236150 
#    y 0.000000 3.994420 0.000000 
#    z 0.236150 0.000000 3.599010 
# 
# 
# High freq. dielectric constant tensor:
#      x y z
#    x 1.890520 0.000000 0.021090 
#    y 0.000000 1.877090 0.000000 
#    z 0.021090 0.000000 1.830630 
# 
# From -- ./inp_files/52837.got.cif
#   From: 2010.06.25/outbox.cif.g09.slc.cpg/sg13_27_cif.got.tgz:52837.got - 2010.06.28 04:50:58.
