data_PCOD8120861
_publ_section_title
;
Structure prediction by ZEFSAII (Michael W. Deem and Ramdas Pophale) SiO2 
 PCOD8120861
Probable space group: P 2/C
;
_chemical_formula_sum "Si O2"
_cell_formula_units_Z 22
_cell_length_a 6.816891
_cell_length_b 5.668526
_cell_length_c 25.727185
_cell_angle_alpha 90.000000
_cell_angle_beta 100.477042
_cell_angle_gamma 90.000000
_cell_volume 977.568280
_symmetry_space_group_name_H-M "P 2/C"
_symmetry_group_IT_number 13
_symmetry_cell_setting 'monoclinic'
loop_
_space_group_symop_operation_xyz
x,y,z
-x,y,1/2-z
-x,-y,-z
x,-y,1/2+z
loop_
_atom_site_type_symbol
_atom_site_label
_atom_site_fract_x
_atom_site_fract_y
_atom_site_fract_z
Si Si1 0.102915 0.249545 0.988052
Si Si2 0.478283 0.870167 0.340235
Si Si3 0.190012 0.432627 0.885313
Si Si4 0.500000 0.801944 0.750000
Si Si5 0.238882 0.485647 0.164580
Si Si6 0.453427 0.748790 0.579203
O O1 0.117648 0.248677 0.926129
O O2 0.329328 0.244447 0.020119
O O3 0.000000 0.500000 0.000000
O O4 0.000000 0.000000 0.000000
O O5 0.305196 0.681430 0.342138
O O6 0.683995 0.755697 0.328720
O O7 0.404101 0.049963 0.292603
O O8 0.516571 0.987811 0.398081
O O9 0.329872 0.629984 0.919282
O O10 0.997755 0.546015 0.848707
O O11 0.681378 0.647372 0.780763
O O12 0.325638 0.390737 0.115094
#
# Coordination Sequence:
#
# PCOD8120861 Si02
#       6
#     4   4   4   2   4   4
#     4  12  26  44  74 105 148 198 235 285 355 424
#     4  10  23  42  68  96 129 181 228 296 351 430
#     4  11  24  42  71 101 140 180 237 288 355 422
#     4  10  22  44  68  90 136 172 232 292 374 418
#     4  10  21  44  66  94 134 176 227 293 355 424
#     4  10  23  42  66 101 139 180 232 285 349 418
#
# _framework density 22.504822999999998
#
# number of rings (size 3 to 8) (size 9 to 14) (size 15 to 20)
#    0.000    1.455    1.818    2.182    5.091    3.636 
#    0.000   21.818    0.000    0.000    0.000    0.000 
#    0.000    0.000    0.000    0.000    0.000    0.000 
#
# Total GULP energy -272717.845025 kJ/mol
# GULP energy per Si atom -12396.265683 kJ/mol
# Density = 2.245360 g / cm^3
# Si number density = 22.504823 Si / 1000 Ang^3
#
#
#
# Elastic Constant Matrix: (Units=GPa)
#
#
# Indices 1 2 3 4 5 6 
#
# 1 149.8982 50.1101 45.9047 0.0000 37.9266 0.0000
# 2 50.1101 112.0733 22.1049 0.0000 13.2621 0.0000
# 3 45.9047 22.1049 105.5371 0.0000 31.0761 0.0000
# 4 0.0000 0.0000 0.0000 33.3905 0.0000 -4.4888
# 5 37.9266 13.2621 31.0761 0.0000 40.5215 0.0000
# 6 0.0000 0.0000 0.0000 -4.4888 0.0000 24.6031
#
#
#
# Elastic Compliance Matrix: (Units=1/GPa)
#
#
# Indices 1 2 3 4 5 6 
#
# 1 0.010079 -0.003351 -0.001585 0.000000 -0.007121 0.000000
# 2 -0.003351 0.010549 -0.000851 0.000000 0.000337 0.000000
# 3 -0.001585 -0.000851 0.012690 0.000000 -0.007970 0.000000
# 4 0.000000 0.000000 0.000000 0.030702 0.000000 0.005601
# 5 -0.007121 0.000337 -0.007970 0.000000 0.037345 0.000000
# 6 0.000000 0.000000 0.000000 0.005601 0.000000 0.041667
#
#
# Mechanical properties :
#
#
# Convention : Reuss Voigt Hill
#
# Bulk Modulus (GPa) = 45.99192 67.08311 56.53752
# Shear Modulus (GPa) = 30.89220 36.32895 33.61057
#
# Velocity S-wave (km/s) = 3.70901 4.02216 3.86875
# Velocity P-wave (km/s) = 6.23082 7.17241 6.71813
#
# Compressibility (1/GPa) = 0.02174295
#
# Stress axis : x y z
#
# Youngs Moduli (GPa) = 99.22107 94.79508 78.80340
#
# Poissons Ratio (x) = 0.31766 0.12492
# Poissons Ratio (y) = 0.33249 0.06706
# Poissons Ratio (z) = 0.15728 0.08067
#
# Static dielectric constant tensor:
#      x y z
#    x 4.018000 0.000000 0.170020 
#    y 0.000000 4.434130 0.000000 
#    z 0.170020 0.000000 4.011850 
# 
# 
# High freq. dielectric constant tensor:
#      x y z
#    x 1.876320 0.000000 0.007830 
#    y 0.000000 1.892630 0.000000 
#    z 0.007830 0.000000 1.889130 
# 
# From -- ./inp_files/94552.got.cif
#   From: 2010.06.25/outbox.cif.g09.slc.cpg/sg13_48_cif.got.tgz:94552.got - 2010.06.28 04:50:58.
