data_PCOD8120055
_publ_section_title
;
Structure prediction by ZEFSAII (Michael W. Deem and Ramdas Pophale) SiO2 
 PCOD8120055
Probable space group: P 2/C
;
_chemical_formula_sum "Si O2"
_cell_formula_units_Z 22
_cell_length_a 29.175586
_cell_length_b 6.812384
_cell_length_c 16.473741
_cell_angle_alpha 90.000000
_cell_angle_beta 160.141764
_cell_angle_gamma 90.000000
_cell_volume 1112.241004
_symmetry_space_group_name_H-M "P 2/C"
_symmetry_group_IT_number 13
_symmetry_cell_setting 'monoclinic'
loop_
_space_group_symop_operation_xyz
x,y,z
-x,y,1/2-z
-x,-y,-z
x,-y,1/2+z
loop_
_atom_site_type_symbol
_atom_site_label
_atom_site_fract_x
_atom_site_fract_y
_atom_site_fract_z
Si Si1 0.377784 0.848614 0.988544
Si Si2 0.157154 0.594852 0.700453
Si Si3 0.000000 0.756104 0.750000
Si Si4 0.125437 0.511966 0.322124
Si Si5 0.629661 0.428176 0.168105
Si Si6 0.254291 0.247200 0.757038
O O1 0.500000 0.787646 0.250000
O O2 0.240836 0.762506 0.796338
O O3 0.405035 0.762410 0.944096
O O4 0.362754 0.083957 0.962727
O O5 0.180198 0.608668 0.835464
O O6 0.202714 0.376515 0.747218
O O7 0.000342 0.644498 0.418052
O O8 0.068769 0.626179 0.796464
O O9 0.874863 0.869244 0.499140
O O10 0.250622 0.632548 0.569563
O O11 0.674606 0.608032 0.187139
O O12 0.500000 0.500000 0.000000
#
# Coordination Sequence:
#
# PCOD8120055 Si02
#       6
#     4   4   2   4   4   4
#     4  11  23  36  54  80 109 143 182 220 265 321
#     4   9  19  37  58  80 109 142 177 223 267 315
#     4   8  16  34  56  80 108 136 176 226 266 314
#     4   9  17  35  60  82 107 141 180 218 268 323
#     4  10  21  37  57  81 110 143 177 222 271 317
#     4   9  20  36  55  79 108 141 178 221 268 316
#
# _framework density 19.779886000000001
#
# number of rings (size 3 to 8) (size 9 to 14) (size 15 to 20)
#    0.000    2.545    0.000    2.182    0.000    6.545 
#    0.000   11.818    0.000    0.000    0.000    0.000 
#    0.000    0.000    0.000    0.000    0.000    0.000 
#
# Total GULP energy -272597.904895 kJ/mol
# GULP energy per Si atom -12390.813859 kJ/mol
# Density = 1.973487 g / cm^3
# Si number density = 19.779886 Si / 1000 Ang^3
#
#
#
# Elastic Constant Matrix: (Units=GPa)
#
#
# Indices 1 2 3 4 5 6 
#
# 1 130.1192 20.5995 39.2375 0.0000 -0.8510 0.0000
# 2 20.5995 67.9348 21.7405 0.0000 -3.6296 0.0000
# 3 39.2375 21.7405 114.1384 0.0000 -15.4890 0.0000
# 4 0.0000 0.0000 0.0000 22.7591 0.0000 -0.5342
# 5 -0.8510 -3.6296 -15.4890 0.0000 37.9383 0.0000
# 6 0.0000 0.0000 0.0000 -0.5342 0.0000 17.6960
#
#
#
# Elastic Compliance Matrix: (Units=1/GPa)
#
#
# Indices 1 2 3 4 5 6 
#
# 1 0.008823 -0.001828 -0.002839 0.000000 -0.001136 0.000000
# 2 -0.001828 0.016057 -0.002358 0.000000 0.000533 0.000000
# 3 -0.002839 -0.002358 0.010742 0.000000 0.004096 0.000000
# 4 0.000000 0.000000 0.000000 0.043970 0.000000 0.001327
# 5 -0.001136 0.000533 0.004096 0.000000 0.028057 0.000000
# 6 0.000000 0.000000 0.000000 0.001327 0.000000 0.056550
#
#
# Mechanical properties :
#
#
# Convention : Reuss Voigt Hill
#
# Bulk Modulus (GPa) = 46.35345 52.81639 49.58492
# Shear Modulus (GPa) = 26.96293 31.05299 29.00796
#
# Velocity S-wave (km/s) = 3.69609 3.96653 3.83370
# Velocity P-wave (km/s) = 6.45758 6.90926 6.68723
#
# Compressibility (1/GPa) = 0.02157337
#
# Stress axis : x y z
#
# Youngs Moduli (GPa) = 113.33575 62.27733 93.08905
#
# Poissons Ratio (x) = 0.11381 0.26431
# Poissons Ratio (y) = 0.20712 0.21950
# Poissons Ratio (z) = 0.32179 0.14685
#
# Static dielectric constant tensor:
#      x y z
#    x 3.878290 0.000000 -0.149660 
#    y 0.000000 3.055530 0.000000 
#    z -0.149660 0.000000 4.165710 
# 
# 
# High freq. dielectric constant tensor:
#      x y z
#    x 1.788510 0.000000 -0.001380 
#    y 0.000000 1.716760 0.000000 
#    z -0.001380 0.000000 1.792640 
# 
# From -- ./inp_files/72101.got.cif
#   From: 2010.06.25/outbox.cif.g09.slc.cpg/sg13_37_cif.got.tgz:72101.got - 2010.06.28 04:50:58.
