data_PCOD8120376
_publ_section_title
;
Structure prediction by ZEFSAII (Michael W. Deem and Ramdas Pophale) SiO2 
 PCOD8120376
Probable space group: P 2/C
;
_chemical_formula_sum "Si O2"
_cell_formula_units_Z 28
_cell_length_a 15.271384
_cell_length_b 19.322939
_cell_length_c 8.711003
_cell_angle_alpha 90.000000
_cell_angle_beta 148.828812
_cell_angle_gamma 90.000000
_cell_volume 1330.489147
_symmetry_space_group_name_H-M "P 2/C"
_symmetry_group_IT_number 13
_symmetry_cell_setting 'monoclinic'
loop_
_space_group_symop_operation_xyz
x,y,z
-x,y,1/2-z
-x,-y,-z
x,-y,1/2+z
loop_
_atom_site_type_symbol
_atom_site_label
_atom_site_fract_x
_atom_site_fract_y
_atom_site_fract_z
Si Si1 0.822264 0.847153 0.414855
Si Si2 0.177738 0.152848 0.948067
Si Si3 0.817160 0.430658 0.046732
Si Si4 0.499999 0.924004 0.067477
Si Si5 0.182840 0.430657 0.095254
Si Si6 0.309058 0.298843 0.791979
Si Si7 0.690941 0.298843 0.364800
O O1 0.815055 0.861000 0.222582
O O2 0.669119 0.886496 0.265034
O O3 0.808565 0.765342 0.432369
O O4 0.000000 0.874108 0.750000
O O5 0.000000 0.125894 0.750000
O O6 0.330880 0.113503 0.257679
O O7 0.191433 0.234659 0.006671
O O8 0.832867 0.442012 0.249299
O O9 0.000000 0.418211 0.250000
O O10 0.732724 0.500000 0.849084
O O11 0.706817 0.363100 0.846872
O O12 0.500000 0.926130 0.250000
O O13 0.500000 0.000000 0.000000
O O14 0.293182 0.363100 0.226422
O O15 0.000000 0.418211 0.750000
O O16 0.499999 0.270969 0.071930
O O17 0.262203 0.324279 0.893306
#
# Coordination Sequence:
#
# PCOD8120376 Si02
#       7
#     4   4   4   4   4   4   4
#     4  11  23  43  69 101 136 176 220 269 325 387
#     4  11  23  43  69 101 136 176 220 269 325 387
#     4  11  22  37  57  82 115 158 208 264 321 384
#     4  12  26  46  72 102 137 176 217 268 322 386
#     4  11  22  37  57  82 115 158 208 264 321 384
#     4  10  21  39  62  89 124 164 208 264 320 377
#     4  10  21  39  62  89 124 164 208 264 320 377
#
# _framework density 21.044891
#
# number of rings (size 3 to 8) (size 9 to 14) (size 15 to 20)
#    0.000    1.143    1.429    6.429    0.000    6.286 
#    0.000    2.857    0.000    0.000    0.000    0.000 
#    0.000    0.000    0.000    0.000    0.000    0.000 
#
# Total GULP energy -347273.362323 kJ/mol
# GULP energy per Si atom -12402.620083 kJ/mol
# Density = 2.099699 g / cm^3
# Si number density = 21.044891 Si / 1000 Ang^3
#
#
#
# Elastic Constant Matrix: (Units=GPa)
#
#
# Indices 1 2 3 4 5 6 
#
# 1 157.0322 68.8659 66.9399 0.0000 -15.1166 0.0000
# 2 68.8659 118.0716 58.8494 0.0000 -7.5024 0.0000
# 3 66.9399 58.8494 131.7130 0.0000 -3.8488 0.0000
# 4 0.0000 0.0000 0.0000 21.0816 0.0000 -8.2808
# 5 -15.1166 -7.5024 -3.8488 0.0000 43.3953 0.0000
# 6 0.0000 0.0000 0.0000 -8.2808 0.0000 32.1344
#
#
#
# Elastic Compliance Matrix: (Units=1/GPa)
#
#
# Indices 1 2 3 4 5 6 
#
# 1 0.009633 -0.003938 -0.003066 0.000000 0.002403 0.000000
# 2 -0.003938 0.012598 -0.003613 0.000000 0.000486 0.000000
# 3 -0.003066 -0.003613 0.010743 0.000000 -0.000740 0.000000
# 4 0.000000 0.000000 0.000000 0.052777 0.000000 0.013600
# 5 0.002403 0.000486 -0.000740 0.000000 0.023899 0.000000
# 6 0.000000 0.000000 0.000000 0.013600 0.000000 0.034624
#
#
# Mechanical properties :
#
#
# Convention : Reuss Voigt Hill
#
# Bulk Modulus (GPa) = 85.17843 88.45857 86.81850
# Shear Modulus (GPa) = 29.51185 33.46636 31.48911
#
# Velocity S-wave (km/s) = 3.74883 3.99210 3.87238
# Velocity P-wave (km/s) = 7.70070 7.96076 7.83181
#
# Compressibility (1/GPa) = 0.01174006
#
# Stress axis : x y z
#
# Youngs Moduli (GPa) = 103.80476 79.37779 93.07962
#
# Poissons Ratio (x) = 0.31257 0.28542
# Poissons Ratio (y) = 0.40876 0.33633
# Poissons Ratio (z) = 0.31830 0.28682
#
# Static dielectric constant tensor:
#      x y z
#    x 3.847850 0.000000 -0.115040 
#    y 0.000000 3.655290 0.000000 
#    z -0.115040 0.000000 3.694070 
# 
# 
# High freq. dielectric constant tensor:
#      x y z
#    x 1.831250 0.000000 -0.002660 
#    y 0.000000 1.827980 0.000000 
#    z -0.002660 0.000000 1.827690 
# 
# From -- ./inp_files/20208.got.cif
#   From: 2010.06.25/outbox.cif.g09.slc.cpg/sg13_11_cif.got.tgz:20208.got - 2010.06.28 04:50:58.
