data_PCOD8120812
_publ_section_title
;
Structure prediction by ZEFSAII (Michael W. Deem and Ramdas Pophale) SiO2 
 PCOD8120812
Probable space group: P 2/C
;
_chemical_formula_sum "Si O2"
_cell_formula_units_Z 30
_cell_length_a 16.851907
_cell_length_b 5.487753
_cell_length_c 13.816420
_cell_angle_alpha 90.000000
_cell_angle_beta 81.063839
_cell_angle_gamma 90.000000
_cell_volume 1262.221077
_symmetry_space_group_name_H-M "P 2/C"
_symmetry_group_IT_number 13
_symmetry_cell_setting 'monoclinic'
loop_
_space_group_symop_operation_xyz
x,y,z
-x,y,1/2-z
-x,-y,-z
x,-y,1/2+z
loop_
_atom_site_type_symbol
_atom_site_label
_atom_site_fract_x
_atom_site_fract_y
_atom_site_fract_z
Si Si1 0.758144 0.816036 0.672258
Si Si2 0.085220 0.167205 0.615389
Si Si3 0.899327 0.133852 0.668162
Si Si4 0.689457 0.884677 0.023392
Si Si5 0.153161 0.333121 0.015650
Si Si6 0.500000 0.778499 0.750000
Si Si7 0.637654 0.567115 0.193779
Si Si8 0.372102 0.951559 0.163463
O O1 0.729572 0.535303 0.676183
O O2 0.852540 0.869764 0.674871
O O3 0.742147 0.910247 0.566467
O O4 0.704320 0.947128 0.763620
O O5 0.108412 0.232197 0.721289
O O6 0.113373 0.409198 0.552584
O O7 0.991271 0.112546 0.619979
O O8 0.120328 0.910314 0.573967
O O9 0.857980 0.315651 0.598905
O O10 0.751423 0.671829 0.976207
O O11 0.640416 0.012635 0.947536
O O12 0.627590 0.774555 0.113940
O O13 0.430180 0.629326 0.817692
O O14 0.542503 0.932093 0.825770
O O15 0.621532 0.669059 0.305449
#
# Coordination Sequence:
#
# PCOD8120812 Si02
#       8
#     4   4   4   4   4   2   4   4
#     4   9  21  42  62 100 133 176 234 287 347 416
#     4  11  25  45  67 105 142 193 247 293 372 428
#     4  10  23  44  69 100 142 188 239 305 356 426
#     4  10  23  41  66 100 135 179 237 290 346 425
#     4  11  25  45  68 103 145 189 244 305 357 427
#     4  10  22  42  68  96 142 170 228 282 358 434
#     4  10  22  43  69  98 133 183 223 286 361 426
#     4  10  21  43  64  99 135 176 227 289 350 428
#
# _framework density 23.767627000000001
#
# number of rings (size 3 to 8) (size 9 to 14) (size 15 to 20)
#    0.000    1.867    0.000    2.000    3.733    5.867 
#   26.400    9.333    0.000    0.000    0.000    0.000 
#    0.000    0.000    0.000    0.000    0.000    0.000 
#
# Total GULP energy -371650.007710 kJ/mol
# GULP energy per Si atom -12388.333590 kJ/mol
# Density = 2.371353 g / cm^3
# Si number density = 23.767627 Si / 1000 Ang^3
#
#
#
# Elastic Constant Matrix: (Units=GPa)
#
#
# Indices 1 2 3 4 5 6 
#
# 1 115.9721 37.2896 36.4487 0.0000 18.3218 0.0000
# 2 37.2896 117.1143 34.5741 0.0000 0.0687 0.0000
# 3 36.4487 34.5741 110.1220 0.0000 26.6071 0.0000
# 4 0.0000 0.0000 0.0000 23.7058 0.0000 -6.8168
# 5 18.3218 0.0687 26.6071 0.0000 32.5833 0.0000
# 6 0.0000 0.0000 0.0000 -6.8168 0.0000 31.8172
#
#
#
# Elastic Compliance Matrix: (Units=1/GPa)
#
#
# Indices 1 2 3 4 5 6 
#
# 1 0.010821 -0.003014 -0.001454 0.000000 -0.004892 0.000000
# 2 -0.003014 0.010488 -0.003363 0.000000 0.004419 0.000000
# 3 -0.001454 -0.003363 0.012980 0.000000 -0.009774 0.000000
# 4 0.000000 0.000000 0.000000 0.044953 0.000000 0.009631
# 5 -0.004892 0.004419 -0.009774 0.000000 0.041413 0.000000
# 6 0.000000 0.000000 0.000000 0.009631 0.000000 0.033493
#
#
# Mechanical properties :
#
#
# Convention : Reuss Voigt Hill
#
# Bulk Modulus (GPa) = 53.68104 62.20367 57.94235
# Shear Modulus (GPa) = 28.40594 33.28099 30.84347
#
# Velocity S-wave (km/s) = 3.46085 3.74607 3.60628
# Velocity P-wave (km/s) = 6.21327 6.70367 6.46312
#
# Compressibility (1/GPa) = 0.01862855
#
# Stress axis : x y z
#
# Youngs Moduli (GPa) = 92.40942 95.34282 77.04426
#
# Poissons Ratio (x) = 0.28732 0.11200
# Poissons Ratio (y) = 0.27848 0.25911
# Poissons Ratio (z) = 0.13434 0.32065
#
# Static dielectric constant tensor:
#      x y z
#    x 4.447540 0.000000 -0.028610 
#    y 0.000000 4.329090 0.000000 
#    z -0.028610 0.000000 4.284910 
# 
# 
# High freq. dielectric constant tensor:
#      x y z
#    x 1.948310 0.000000 -0.007760 
#    y 0.000000 1.934140 0.000000 
#    z -0.007760 0.000000 1.939730 
# 
# From -- ./inp_files/54476.got.cif
#   From: 2010.06.25/outbox.cif.g09.slc.cpg/sg13_28_cif.got.tgz:54476.got - 2010.06.28 04:50:58.
