data_PCOD8120985
_publ_section_title
;
Structure prediction by ZEFSAII (Michael W. Deem and Ramdas Pophale) SiO2 
 PCOD8120985
Probable space group: P 2/C
;
_chemical_formula_sum "Si O2"
_cell_formula_units_Z 24
_cell_length_a 8.687826
_cell_length_b 14.308626
_cell_length_c 9.844162
_cell_angle_alpha 90.000000
_cell_angle_beta 87.224394
_cell_angle_gamma 90.000000
_cell_volume 1222.300543
_symmetry_space_group_name_H-M "P 2/C"
_symmetry_group_IT_number 13
_symmetry_cell_setting 'monoclinic'
loop_
_space_group_symop_operation_xyz
x,y,z
-x,y,1/2-z
-x,-y,-z
x,-y,1/2+z
loop_
_atom_site_type_symbol
_atom_site_label
_atom_site_fract_x
_atom_site_fract_y
_atom_site_fract_z
Si Si1 0.854012 0.338109 0.838419
Si Si2 0.917458 0.048900 0.124068
Si Si3 0.301395 0.745827 0.409837
Si Si4 0.009009 0.738324 0.597405
Si Si5 0.401307 0.044765 0.887006
Si Si6 0.540318 0.577711 0.392093
O O1 0.779254 0.262318 0.736161
O O2 0.724481 0.412324 0.882861
O O3 0.000000 0.382567 0.750000
O O4 0.899405 0.301995 0.984956
O O5 0.946011 0.158127 0.116831
O O6 0.000000 0.004126 0.250000
O O7 0.738296 0.025317 0.135539
O O8 0.000000 0.000000 0.000000
O O9 0.351977 0.851590 0.431381
O O10 0.446216 0.675065 0.417760
O O11 0.183382 0.726082 0.537632
O O12 0.000000 0.691115 0.750000
O O13 0.500000 0.053459 0.750000
O O14 0.500000 0.000000 0.000000
O O15 0.500000 0.533201 0.250000
O O16 0.500000 0.500000 0.500000
#
# Coordination Sequence:
#
# PCOD8120985 Si02
#       6
#     4   4   4   4   4   4
#     4   9  20  40  67  90 118 165 207 246 304 380
#     4  11  23  38  58  85 121 169 216 254 306 363
#     4  10  22  42  62  88 124 164 211 248 309 385
#     4  10  22  38  60  89 124 160 209 261 302 353
#     4  12  26  39  59  92 127 169 213 264 310 367
#     4  10  22  42  66  95 123 159 202 257 319 380
#
# _framework density 19.635103999999998
#
# number of rings (size 3 to 8) (size 9 to 14) (size 15 to 20)
#    0.000    1.667    1.667    2.500    9.333    1.333 
#    0.000    9.167    0.000    0.000    0.000    0.000 
#    0.000    0.000    0.000    0.000    0.000    0.000 
#
# Total GULP energy -297382.605921 kJ/mol
# GULP energy per Si atom -12390.941913 kJ/mol
# Density = 1.959041 g / cm^3
# Si number density = 19.635104 Si / 1000 Ang^3
#
#
#
# Elastic Constant Matrix: (Units=GPa)
#
#
# Indices 1 2 3 4 5 6 
#
# 1 147.5236 40.3465 60.6847 0.0000 0.4540 0.0000
# 2 40.3465 68.2705 41.6115 0.0000 3.4719 0.0000
# 3 60.6847 41.6115 171.2859 0.0000 5.6901 0.0000
# 4 0.0000 0.0000 0.0000 28.0536 0.0000 -14.6476
# 5 0.4540 3.4719 5.6901 0.0000 37.1089 0.0000
# 6 0.0000 0.0000 0.0000 -14.6476 0.0000 14.4126
#
#
#
# Elastic Compliance Matrix: (Units=1/GPa)
#
#
# Indices 1 2 3 4 5 6 
#
# 1 0.008727 -0.003863 -0.002173 0.000000 0.000588 0.000000
# 2 -0.003863 0.018938 -0.003191 0.000000 -0.001235 0.000000
# 3 -0.002173 -0.003191 0.007410 0.000000 -0.000811 0.000000
# 4 0.000000 0.000000 0.000000 0.075947 0.000000 0.077185
# 5 0.000588 -0.001235 -0.000811 0.000000 0.027180 0.000000
# 6 0.000000 0.000000 0.000000 0.077185 0.000000 0.147828
#
#
# Mechanical properties :
#
#
# Convention : Reuss Voigt Hill
#
# Bulk Modulus (GPa) = 60.16303 74.70726 67.43515
# Shear Modulus (GPa) = 16.12771 32.21084 24.16927
#
# Velocity S-wave (km/s) = 2.86907 4.05467 3.51226
# Velocity P-wave (km/s) = 6.45619 7.74925 7.13209
#
# Compressibility (1/GPa) = 0.01662150
#
# Stress axis : x y z
#
# Youngs Moduli (GPa) = 114.58506 52.80262 134.94821
#
# Poissons Ratio (x) = 0.20398 0.29324
# Poissons Ratio (y) = 0.44264 0.43064
# Poissons Ratio (z) = 0.24899 0.16850
#
# Static dielectric constant tensor:
#      x y z
#    x 3.928890 0.000000 -0.057050 
#    y 0.000000 3.203540 0.000000 
#    z -0.057050 0.000000 3.863750 
# 
# 
# High freq. dielectric constant tensor:
#      x y z
#    x 1.785490 0.000000 -0.006220 
#    y 0.000000 1.736390 0.000000 
#    z -0.006220 0.000000 1.786900 
# 
# From -- ./inp_files/12484.got.cif
#   From: 2010.06.25/outbox.cif.g09.slc.cpg/sg13_7_cif.got.tgz:12484.got - 2010.06.28 04:50:58.
