data_PCOD8120405
_publ_section_title
;
Structure prediction by ZEFSAII (Michael W. Deem and Ramdas Pophale) SiO2 
 PCOD8120405
Probable space group: P 2/C
;
_chemical_formula_sum "Si O2"
_cell_formula_units_Z 24
_cell_length_a 7.725174
_cell_length_b 11.301561
_cell_length_c 13.251522
_cell_angle_alpha 90.000000
_cell_angle_beta 81.911349
_cell_angle_gamma 90.000000
_cell_volume 1145.434534
_symmetry_space_group_name_H-M "P 2/C"
_symmetry_group_IT_number 13
_symmetry_cell_setting 'monoclinic'
loop_
_space_group_symop_operation_xyz
x,y,z
-x,y,1/2-z
-x,-y,-z
x,-y,1/2+z
loop_
_atom_site_type_symbol
_atom_site_label
_atom_site_fract_x
_atom_site_fract_y
_atom_site_fract_z
Si Si1 0.654356 0.219479 0.434134
Si Si2 0.161904 0.048929 0.925135
Si Si3 0.809117 0.560586 0.018384
Si Si4 0.276775 0.310815 0.462021
Si Si5 0.190312 0.834211 0.784863
Si Si6 0.966756 0.724540 0.143138
O O1 0.711864 0.115266 0.505680
O O2 0.762904 0.344015 0.434195
O O3 0.451261 0.239586 0.473218
O O4 0.671794 0.176946 0.317130
O O5 0.097676 0.141167 0.846335
O O6 0.247438 0.943433 0.853119
O O7 0.000000 0.000000 0.000000
O O8 0.674855 0.451283 0.037296
O O9 0.808201 0.641946 0.117783
O O10 0.000000 0.500000 0.000000
O O11 0.197753 0.280015 0.357860
O O12 0.136641 0.279158 0.558610
O O13 0.000000 0.849396 0.750000
O O14 0.000000 0.674319 0.250000
#
# Coordination Sequence:
#
# PCOD8120405 Si02
#       6
#     4   4   4   4   4   4
#     4  11  24  41  64  96 133 168 209 276 335 374
#     4  11  21  41  63  88 124 173 220 258 304 392
#     4   9  20  41  65  91 126 170 220 262 318 398
#     4  11  23  40  62  97 132 160 214 279 327 377
#     4  12  22  39  67  91 125 175 221 255 317 400
#     4  10  21  39  64  90 121 170 222 261 316 393
#
# _framework density 20.952749000000001
#
# number of rings (size 3 to 8) (size 9 to 14) (size 15 to 20)
#    0.000    1.333    3.333    3.500    0.000    4.000 
#    0.000    6.667    0.000    0.000    0.000    0.000 
#    0.000    0.000    0.000    0.000    0.000    0.000 
#
# Total GULP energy -297371.236502 kJ/mol
# GULP energy per Si atom -12390.468188 kJ/mol
# Density = 2.090506 g / cm^3
# Si number density = 20.952749 Si / 1000 Ang^3
#
#
#
# Elastic Constant Matrix: (Units=GPa)
#
#
# Indices 1 2 3 4 5 6 
#
# 1 77.2607 24.2072 33.2344 0.0000 6.1493 0.0000
# 2 24.2072 140.4740 54.2185 0.0000 6.7635 0.0000
# 3 33.2344 54.2185 149.8724 0.0000 4.4005 0.0000
# 4 0.0000 0.0000 0.0000 16.8540 0.0000 2.7574
# 5 6.1493 6.7635 4.4005 0.0000 24.0906 0.0000
# 6 0.0000 0.0000 0.0000 2.7574 0.0000 34.7606
#
#
#
# Elastic Compliance Matrix: (Units=1/GPa)
#
#
# Indices 1 2 3 4 5 6 
#
# 1 0.014760 -0.001364 -0.002695 0.000000 -0.002892 0.000000
# 2 -0.001364 0.008477 -0.002719 0.000000 -0.001535 0.000000
# 3 -0.002695 -0.002719 0.008255 0.000000 -0.000057 0.000000
# 4 0.000000 0.000000 0.000000 0.060113 0.000000 -0.004769
# 5 -0.002892 -0.001535 -0.000057 0.000000 0.042690 0.000000
# 6 0.000000 0.000000 0.000000 -0.004769 0.000000 0.029146
#
#
# Mechanical properties :
#
#
# Convention : Reuss Voigt Hill
#
# Bulk Modulus (GPa) = 55.75235 65.65858 60.70546
# Shear Modulus (GPa) = 27.32589 32.20418 29.76503
#
# Velocity S-wave (km/s) = 3.61524 3.92470 3.77315
# Velocity P-wave (km/s) = 6.64026 7.20710 6.92947
#
# Compressibility (1/GPa) = 0.01793646
#
# Stress axis : x y z
#
# Youngs Moduli (GPa) = 67.75101 117.96241 121.13516
#
# Poissons Ratio (x) = 0.16093 0.32641
# Poissons Ratio (y) = 0.09243 0.32939
# Poissons Ratio (z) = 0.18256 0.32076
#
# Static dielectric constant tensor:
#      x y z
#    x 3.628900 0.000000 0.233140 
#    y 0.000000 4.821130 0.000000 
#    z 0.233140 0.000000 3.956050 
# 
# 
# High freq. dielectric constant tensor:
#      x y z
#    x 1.804370 0.000000 0.017940 
#    y 0.000000 1.843290 0.000000 
#    z 0.017940 0.000000 1.813380 
# 
# From -- ./inp_files/29476.got.cif
#   From: 2010.06.25/outbox.cif.g09.slc.cpg/sg13_15_cif.got.tgz:29476.got - 2010.06.28 04:50:58.
