data_PCOD8120901
_publ_section_title
;
Structure prediction by ZEFSAII (Michael W. Deem and Ramdas Pophale) SiO2 
 PCOD8120901
Probable space group: P 2/C
;
_chemical_formula_sum "Si O2"
_cell_formula_units_Z 20
_cell_length_a 8.688493
_cell_length_b 18.283906
_cell_length_c 5.388072
_cell_angle_alpha 90.000000
_cell_angle_beta 95.572260
_cell_angle_gamma 90.000000
_cell_volume 851.902152
_symmetry_space_group_name_H-M "P 2/C"
_symmetry_group_IT_number 13
_symmetry_cell_setting 'monoclinic'
loop_
_space_group_symop_operation_xyz
x,y,z
-x,y,1/2-z
-x,-y,-z
x,-y,1/2+z
loop_
_atom_site_type_symbol
_atom_site_label
_atom_site_fract_x
_atom_site_fract_y
_atom_site_fract_z
Si Si1 0.719342 0.683539 0.414555
Si Si2 0.000000 0.281372 0.250000
Si Si3 0.500000 0.261268 0.250000
Si Si4 0.818212 0.541872 0.215555
Si Si5 0.785709 0.197025 0.550098
Si Si6 0.173921 0.971429 0.485765
O O1 0.859587 0.667471 0.632277
O O2 0.554032 0.686536 0.530023
O O3 0.725468 0.618849 0.213307
O O4 0.745426 0.763514 0.301362
O O5 0.942781 0.230563 0.465419
O O6 0.643310 0.209481 0.340148
O O7 0.767985 0.494849 0.448954
O O8 0.000000 0.558061 0.250000
O O9 0.817114 0.112264 0.596286
O O10 0.255324 0.985146 0.767206
O O11 0.000000 0.000000 0.500000
#
# Coordination Sequence:
#
# PCOD8120901 Si02
#       6
#     4   2   2   4   4   4
#     4  11  24  42  68 100 134 186 236 291 340 420
#     4  10  22  34  68 102 126 166 240 284 344 404
#     4  10  26  44  68  92 140 182 252 276 340 408
#     4  10  23  40  67 103 145 180 224 292 365 417
#     4  11  23  42  69  97 137 181 229 286 347 414
#     4  10  23  39  65 100 139 169 214 285 353 412
#
# _framework density 23.476873999999999
#
# number of rings (size 3 to 8) (size 9 to 14) (size 15 to 20)
#    0.000    1.600    0.000    3.600   21.000    0.000 
#    0.000    2.000    0.000    0.000    0.000    0.000 
#    0.000    0.000    0.000    0.000    0.000    0.000 
#
# Total GULP energy -247975.515924 kJ/mol
# GULP energy per Si atom -12398.775796 kJ/mol
# Density = 2.342344 g / cm^3
# Si number density = 23.476874 Si / 1000 Ang^3
#
#
#
# Elastic Constant Matrix: (Units=GPa)
#
#
# Indices 1 2 3 4 5 6 
#
# 1 69.5248 27.8635 16.8371 0.0000 -21.5247 0.0000
# 2 27.8635 147.7091 56.4853 0.0000 -27.9983 0.0000
# 3 16.8371 56.4853 168.7910 0.0000 -36.1514 0.0000
# 4 0.0000 0.0000 0.0000 40.8907 0.0000 -5.0803
# 5 -21.5247 -27.9983 -36.1514 0.0000 37.2371 0.0000
# 6 0.0000 0.0000 0.0000 -5.0803 0.0000 15.4049
#
#
#
# Elastic Compliance Matrix: (Units=1/GPa)
#
#
# Indices 1 2 3 4 5 6 
#
# 1 0.017971 -0.001879 0.000958 0.000000 0.009905 0.000000
# 2 -0.001879 0.008513 -0.001923 0.000000 0.003448 0.000000
# 3 0.000958 -0.001923 0.007930 0.000000 0.006807 0.000000
# 4 0.000000 0.000000 0.000000 0.025500 0.000000 0.008410
# 5 0.009905 0.003448 0.006807 0.000000 0.041782 0.000000
# 6 0.000000 0.000000 0.000000 0.008410 0.000000 0.067688
#
#
# Mechanical properties :
#
#
# Convention : Reuss Voigt Hill
#
# Bulk Modulus (GPa) = 34.81114 65.37741 50.09428
# Shear Modulus (GPa) = 27.07851 37.69580 32.38715
#
# Velocity S-wave (km/s) = 3.39988 4.01141 3.71824
# Velocity P-wave (km/s) = 5.50202 7.02590 6.31013
#
# Compressibility (1/GPa) = 0.02872643
#
# Stress axis : x y z
#
# Youngs Moduli (GPa) = 55.64524 117.46092 126.09763
#
# Poissons Ratio (x) = 0.22067 -0.12074
# Poissons Ratio (y) = 0.10454 0.24249
# Poissons Ratio (z) = -0.05328 0.22588
#
# Static dielectric constant tensor:
#      x y z
#    x 3.996580 0.000000 0.118700 
#    y 0.000000 3.948940 0.000000 
#    z 0.118700 0.000000 7.078820 
# 
# 
# High freq. dielectric constant tensor:
#      x y z
#    x 1.901840 0.000000 -0.005990 
#    y 0.000000 1.912630 0.000000 
#    z -0.005990 0.000000 1.955570 
# 
# From -- ./inp_files/1569.got.cif
#   From: 2010.06.25/outbox.cif.g09.slc.cpg/sg13_1_cif.got.tgz:1569.got - 2010.06.28 04:50:58.
