data_PCOD8120661
_publ_section_title
;
Structure prediction by ZEFSAII (Michael W. Deem and Ramdas Pophale) SiO2 
 PCOD8120661
Probable space group: P 2/C
;
_chemical_formula_sum "Si O2"
_cell_formula_units_Z 24
_cell_length_a 17.110177
_cell_length_b 12.013660
_cell_length_c 10.084478
_cell_angle_alpha 90.000000
_cell_angle_beta 150.045914
_cell_angle_gamma 90.000000
_cell_volume 1035.022798
_symmetry_space_group_name_H-M "P 2/C"
_symmetry_group_IT_number 13
_symmetry_cell_setting 'monoclinic'
loop_
_space_group_symop_operation_xyz
x,y,z
-x,y,1/2-z
-x,-y,-z
x,-y,1/2+z
loop_
_atom_site_type_symbol
_atom_site_label
_atom_site_fract_x
_atom_site_fract_y
_atom_site_fract_z
Si Si1 0.367767 0.724560 0.452645
Si Si2 0.849856 0.400996 0.694495
Si Si3 0.175648 0.356733 0.262686
Si Si4 0.414204 0.615509 0.899411
Si Si5 0.200217 0.941808 0.171068
Si Si6 0.150656 0.113561 0.306144
O O1 0.500000 0.688680 0.750000
O O2 0.219504 0.643714 0.265650
O O3 0.445845 0.703954 0.422496
O O4 0.327908 0.853973 0.408148
O O5 0.854883 0.535407 0.691235
O O6 0.738314 0.357760 0.414506
O O7 0.027070 0.352303 0.941968
O O8 0.346138 0.373160 0.446587
O O9 0.189040 0.244596 0.369823
O O10 0.500000 0.500000 0.000000
O O11 0.230086 0.058811 0.291208
O O12 0.209378 0.951435 0.024601
O O13 0.034917 0.895282 0.976678
#
# Coordination Sequence:
#
# PCOD8120661 Si02
#       6
#     4   4   4   4   4   4
#     4  10  21  41  64  90 136 178 211 273 337 400
#     4  10  22  39  62  94 132 170 222 268 327 405
#     4  11  22  40  64  98 126 173 222 273 329 402
#     4  11  23  38  59  94 136 176 210 272 334 403
#     4  10  22  45  67 101 125 176 224 285 335 397
#     4  10  23  42  72  95 132 168 231 285 333 392
#
# _framework density 23.187892999999999
#
# number of rings (size 3 to 8) (size 9 to 14) (size 15 to 20)
#    0.000    1.667    3.333    0.500    2.333    2.667 
#    9.000    3.333    0.000    0.000    0.000    0.000 
#    0.000    0.000    0.000    0.000    0.000    0.000 
#
# Total GULP energy -297423.206184 kJ/mol
# GULP energy per Si atom -12392.633591 kJ/mol
# Density = 2.313512 g / cm^3
# Si number density = 23.187893 Si / 1000 Ang^3
#
#
#
# Elastic Constant Matrix: (Units=GPa)
#
#
# Indices 1 2 3 4 5 6 
#
# 1 99.9851 41.5346 16.6165 0.0000 16.7208 0.0000
# 2 41.5346 123.5602 17.9292 0.0000 4.1142 0.0000
# 3 16.6165 17.9292 58.6174 0.0000 13.9877 0.0000
# 4 0.0000 0.0000 0.0000 31.8234 0.0000 5.1938
# 5 16.7208 4.1142 13.9877 0.0000 31.2616 0.0000
# 6 0.0000 0.0000 0.0000 5.1938 0.0000 35.0940
#
#
#
# Elastic Compliance Matrix: (Units=1/GPa)
#
#
# Indices 1 2 3 4 5 6 
#
# 1 0.012796 -0.003959 -0.001016 0.000000 -0.005869 0.000000
# 2 -0.003959 0.009694 -0.002288 0.000000 0.001865 0.000000
# 3 -0.001016 -0.002288 0.019979 0.000000 -0.008095 0.000000
# 4 0.000000 0.000000 0.000000 0.032201 0.000000 -0.004766
# 5 -0.005869 0.001865 -0.008095 0.000000 0.038504 0.000000
# 6 0.000000 0.000000 0.000000 -0.004766 0.000000 0.029200
#
#
# Mechanical properties :
#
#
# Convention : Reuss Voigt Hill
#
# Bulk Modulus (GPa) = 35.78601 48.25815 42.02208
# Shear Modulus (GPa) = 30.08161 33.37460 31.72810
#
# Velocity S-wave (km/s) = 3.60571 3.79794 3.70307
# Velocity P-wave (km/s) = 5.72725 6.33162 6.03701
#
# Compressibility (1/GPa) = 0.02794388
#
# Stress axis : x y z
#
# Youngs Moduli (GPa) = 78.14797 103.15892 50.05172
#
# Poissons Ratio (x) = 0.40836 0.05086
# Poissons Ratio (y) = 0.30935 0.11452
# Poissons Ratio (z) = 0.07941 0.23603
#
# Static dielectric constant tensor:
#      x y z
#    x 4.364890 0.000000 0.340050 
#    y 0.000000 3.948530 0.000000 
#    z 0.340050 0.000000 4.234030 
# 
# 
# High freq. dielectric constant tensor:
#      x y z
#    x 1.906700 0.000000 0.015750 
#    y 0.000000 1.897950 0.000000 
#    z 0.015750 0.000000 1.915030 
# 
# From -- ./inp_files/39237.got.cif
#   From: 2010.06.25/outbox.cif.g09.slc.cpg/sg13_20_cif.got.tgz:39237.got - 2010.06.28 04:50:58.
