data_PCOD8120651
_publ_section_title
;
Structure prediction by ZEFSAII (Michael W. Deem and Ramdas Pophale) SiO2 
 PCOD8120651
Probable space group: P 2/C
;
_chemical_formula_sum "Si O2"
_cell_formula_units_Z 28
_cell_length_a 23.718969
_cell_length_b 8.192975
_cell_length_c 20.215860
_cell_angle_alpha 90.000000
_cell_angle_beta 17.458697
_cell_angle_gamma 90.000000
_cell_volume 1178.629420
_symmetry_space_group_name_H-M "P 2/C"
_symmetry_group_IT_number 13
_symmetry_cell_setting 'monoclinic'
loop_
_space_group_symop_operation_xyz
x,y,z
-x,y,1/2-z
-x,-y,-z
x,-y,1/2+z
loop_
_atom_site_type_symbol
_atom_site_label
_atom_site_fract_x
_atom_site_fract_y
_atom_site_fract_z
Si Si1 0.973421 0.851570 0.580631
Si Si2 0.604338 0.739082 0.232285
Si Si3 0.000371 0.401829 0.631494
Si Si4 0.299973 0.558096 0.614432
Si Si5 0.084817 0.058937 0.726618
Si Si6 0.693903 0.379315 0.765929
Si Si7 0.000000 0.382804 0.250000
Si Si8 0.500000 0.993250 0.750000
O O1 0.801695 0.731169 0.753415
O O2 0.160600 0.747151 0.365744
O O3 0.944114 0.909640 0.690008
O O4 0.000000 0.000000 0.500000
O O5 0.456641 0.591386 0.380876
O O6 0.574910 0.730099 0.346204
O O7 0.522676 0.901150 0.291413
O O8 0.821960 0.727007 0.969660
O O9 0.854163 0.426353 0.735558
O O10 0.026252 0.213285 0.620367
O O11 0.203286 0.474048 0.388296
O O12 0.917662 0.503795 0.785066
O O13 0.405888 0.472744 0.559821
O O14 0.000000 0.010039 0.750000
O O15 0.307139 0.108505 0.473153
#
# Coordination Sequence:
#
# PCOD8120651 Si02
#       8
#     4   4   4   4   4   4   2   2
#     4  11  22  42  68  95 134 179 223 275 349 416
#     4  11  23  40  65  97 133 170 227 280 337 402
#     4  10  21  41  63  97 129 172 225 270 340 397
#     4  11  21  41  66  97 129 170 229 284 331 408
#     4  12  25  43  67  98 141 181 224 284 342 415
#     4  10  22  40  68  96 126 174 226 277 342 403
#     4  10  22  38  66  94 126 182 218 276 336 398
#     4  12  26  42  64 100 140 178 230 272 354 418
#
# _framework density 23.756409000000001
#
# number of rings (size 3 to 8) (size 9 to 14) (size 15 to 20)
#    0.000    1.143    2.143    5.571    5.000    1.143 
#    0.000    0.714    0.000    0.000    0.000    0.000 
#    0.000    0.000    0.000    0.000    0.000    0.000 
#
# Total GULP energy -346872.136091 kJ/mol
# GULP energy per Si atom -12388.290575 kJ/mol
# Density = 2.370234 g / cm^3
# Si number density = 23.756409 Si / 1000 Ang^3
#
#
#
# Elastic Constant Matrix: (Units=GPa)
#
#
# Indices 1 2 3 4 5 6 
#
# 1 124.3844 39.4702 14.9469 0.0000 -4.4956 0.0000
# 2 39.4702 90.4970 18.7627 0.0000 1.9084 0.0000
# 3 14.9469 18.7627 89.2668 0.0000 -2.2710 0.0000
# 4 0.0000 0.0000 0.0000 16.9049 0.0000 4.0099
# 5 -4.4956 1.9084 -2.2710 0.0000 34.8263 0.0000
# 6 0.0000 0.0000 0.0000 4.0099 0.0000 23.5279
#
#
#
# Elastic Compliance Matrix: (Units=1/GPa)
#
#
# Indices 1 2 3 4 5 6 
#
# 1 0.009445 -0.004003 -0.000705 0.000000 0.001393 0.000000
# 2 -0.004003 0.013272 -0.002155 0.000000 -0.001384 0.000000
# 3 -0.000705 -0.002155 0.011793 0.000000 0.000796 0.000000
# 4 0.000000 0.000000 0.000000 0.061647 0.000000 -0.010506
# 5 0.001393 -0.001384 0.000796 0.000000 0.029021 0.000000
# 6 0.000000 0.000000 0.000000 -0.010506 0.000000 0.044293
#
#
# Mechanical properties :
#
#
# Convention : Reuss Voigt Hill
#
# Bulk Modulus (GPa) = 48.10881 50.05642 49.08261
# Shear Modulus (GPa) = 26.29865 30.44972 28.37418
#
# Velocity S-wave (km/s) = 3.33079 3.58403 3.45973
# Velocity P-wave (km/s) = 5.92343 6.18413 6.05519
#
# Compressibility (1/GPa) = 0.02078621
#
# Stress axis : x y z
#
# Youngs Moduli (GPa) = 105.87925 75.34834 84.79262
#
# Poissons Ratio (x) = 0.30159 0.05976
# Poissons Ratio (y) = 0.42379 0.18269
# Poissons Ratio (z) = 0.07462 0.16234
#
# Static dielectric constant tensor:
#      x y z
#    x 4.765750 0.000000 -0.099420 
#    y 0.000000 4.001250 0.000000 
#    z -0.099420 0.000000 4.515820 
# 
# 
# High freq. dielectric constant tensor:
#      x y z
#    x 1.961120 0.000000 -0.012070 
#    y 0.000000 1.921840 0.000000 
#    z -0.012070 0.000000 1.948490 
# 
# From -- ./inp_files/82172.got.cif
#   From: 2010.06.25/outbox.cif.g09.slc.cpg/sg13_42_cif.got.tgz:82172.got - 2010.06.28 04:50:58.
