data_PCOD8120360
_publ_section_title
;
Structure prediction by ZEFSAII (Michael W. Deem and Ramdas Pophale) SiO2 
 PCOD8120360
Probable space group: P 2/C
;
_chemical_formula_sum "Si O2"
_cell_formula_units_Z 32
_cell_length_a 27.189584
_cell_length_b 9.025922
_cell_length_c 10.869087
_cell_angle_alpha 90.000000
_cell_angle_beta 145.157510
_cell_angle_gamma 90.000000
_cell_volume 1523.941974
_symmetry_space_group_name_H-M "P 2/C"
_symmetry_group_IT_number 13
_symmetry_cell_setting 'monoclinic'
loop_
_space_group_symop_operation_xyz
x,y,z
-x,y,1/2-z
-x,-y,-z
x,-y,1/2+z
loop_
_atom_site_type_symbol
_atom_site_label
_atom_site_fract_x
_atom_site_fract_y
_atom_site_fract_z
Si Si1 0.594793 0.065205 0.695068
Si Si2 0.039091 0.837980 0.570752
Si Si3 0.692830 0.331435 0.825995
Si Si4 0.317109 0.065190 0.364327
Si Si5 0.819918 0.160575 0.930580
Si Si6 0.843167 0.642341 0.821680
Si Si7 0.875584 0.675790 0.308739
Si Si8 0.739599 0.638285 0.838467
O O1 0.605422 0.243138 0.687856
O O2 0.500000 0.000000 0.500000
O O3 0.643264 0.990456 0.681673
O O4 0.632464 0.023216 0.907044
O O5 0.091640 0.784379 0.555774
O O6 0.961768 0.722655 0.417558
O O7 0.107706 0.829311 0.819158
O O8 0.000000 0.000000 0.500000
O O9 0.736351 0.256669 0.795860
O O10 0.677895 0.502016 0.754168
O O11 0.755486 0.317808 0.070771
O O12 0.318060 0.242252 0.350719
O O13 0.218458 0.004647 0.172429
O O14 0.867486 0.222869 0.910693
O O15 0.887638 0.498874 0.854247
O O16 0.818503 0.594617 0.909512
O O17 0.787336 0.707397 0.054021
#
# Coordination Sequence:
#
# PCOD8120360 Si02
#       8
#     4   4   4   4   4   4   4   4
#     4  11  23  43  69 102 138 168 209 268 337 411
#     4  11  24  39  56  85 125 167 224 286 333 373
#     4   9  20  40  64  94 121 167 214 266 321 396
#     4  11  23  40  70 100 131 176 220 266 331 409
#     4  10  21  39  62  85 123 169 221 270 326 393
#     4  10  21  39  61  85 124 173 220 268 326 390
#     4  11  22  38  57  88 125 170 222 274 334 378
#     4  11  21  38  66  93 123 170 222 268 316 396
#
# _framework density 20.998176000000001
#
# number of rings (size 3 to 8) (size 9 to 14) (size 15 to 20)
#    0.000    1.500    2.500    2.625    1.750    0.500 
#    4.500    0.625    0.000    3.000    0.000    0.000 
#    0.000    0.000    0.000    0.000    0.000    0.000 
#
# Total GULP energy -396440.969429 kJ/mol
# GULP energy per Si atom -12388.780295 kJ/mol
# Density = 2.095038 g / cm^3
# Si number density = 20.998176 Si / 1000 Ang^3
#
#
#
# Elastic Constant Matrix: (Units=GPa)
#
#
# Indices 1 2 3 4 5 6 
#
# 1 83.5841 34.5768 31.4128 0.0000 -3.6741 0.0000
# 2 34.5768 118.2928 49.7056 0.0000 17.2938 0.0000
# 3 31.4128 49.7056 65.6603 0.0000 4.4438 0.0000
# 4 0.0000 0.0000 0.0000 30.1928 0.0000 7.6722
# 5 -3.6741 17.2938 4.4438 0.0000 33.8320 0.0000
# 6 0.0000 0.0000 0.0000 7.6722 0.0000 40.1274
#
#
#
# Elastic Compliance Matrix: (Units=1/GPa)
#
#
# Indices 1 2 3 4 5 6 
#
# 1 0.015332 -0.002704 -0.005543 0.000000 0.003775 0.000000
# 2 -0.002704 0.013832 -0.008757 0.000000 -0.006214 0.000000
# 3 -0.005543 -0.008757 0.024466 0.000000 0.000661 0.000000
# 4 0.000000 0.000000 0.000000 0.034812 0.000000 -0.006656
# 5 0.003775 -0.006214 0.000661 0.000000 0.033057 0.000000
# 6 0.000000 0.000000 0.000000 -0.006656 0.000000 0.026193
#
#
# Mechanical properties :
#
#
# Convention : Reuss Voigt Hill
#
# Bulk Modulus (GPa) = 50.96455 55.43640 53.20048
# Shear Modulus (GPa) = 26.56159 30.95322 28.75741
#
# Velocity S-wave (km/s) = 3.56047 3.84355 3.70472
# Velocity P-wave (km/s) = 6.42076 6.79376 6.60989
#
# Compressibility (1/GPa) = 0.01962148
#
# Stress axis : x y z
#
# Youngs Moduli (GPa) = 65.22325 72.29632 40.87272
#
# Poissons Ratio (x) = 0.19550 0.22658
# Poissons Ratio (y) = 0.17637 0.35791
# Poissons Ratio (z) = 0.36156 0.63308
#
# Static dielectric constant tensor:
#      x y z
#    x 4.120870 0.000000 -0.118800 
#    y 0.000000 4.199980 0.000000 
#    z -0.118800 0.000000 3.508150 
# 
# 
# High freq. dielectric constant tensor:
#      x y z
#    x 1.829700 0.000000 -0.018880 
#    y 0.000000 1.830760 0.000000 
#    z -0.018880 0.000000 1.794480 
# 
# From -- ./inp_files/42775.got.cif
#   From: 2010.06.25/outbox.cif.g09.slc.cpg/sg13_22_cif.got.tgz:42775.got - 2010.06.28 04:50:58.
