data_PCOD8120561
_publ_section_title
;
Structure prediction by ZEFSAII (Michael W. Deem and Ramdas Pophale) SiO2 
 PCOD8120561
Probable space group: P 2/C
;
_chemical_formula_sum "Si O2"
_cell_formula_units_Z 18
_cell_length_a 10.600172
_cell_length_b 10.949864
_cell_length_c 14.805534
_cell_angle_alpha 90.000000
_cell_angle_beta 151.982646
_cell_angle_gamma 90.000000
_cell_volume 807.239318
_symmetry_space_group_name_H-M "P 2/C"
_symmetry_group_IT_number 13
_symmetry_cell_setting 'monoclinic'
loop_
_space_group_symop_operation_xyz
x,y,z
-x,y,1/2-z
-x,-y,-z
x,-y,1/2+z
loop_
_atom_site_type_symbol
_atom_site_label
_atom_site_fract_x
_atom_site_fract_y
_atom_site_fract_z
Si Si1 0.916354 0.273816 0.868431
Si Si2 0.358456 0.635726 0.989773
Si Si3 0.186830 0.022293 0.782103
Si Si4 0.000000 0.584971 0.250000
Si Si5 0.909531 0.757330 0.828907
O O1 0.652683 0.357269 0.717797
O O2 0.836026 0.133413 0.802347
O O3 0.067347 0.330076 0.878075
O O4 0.102229 0.285214 0.074450
O O5 0.267115 0.497845 0.907317
O O6 0.355322 0.714324 0.893753
O O7 0.159433 0.694331 0.937114
O O8 0.000000 0.052099 0.750000
O O9 0.062914 0.903049 0.656315
O O10 0.500000 0.000000 0.000000
#
# Coordination Sequence:
#
# PCOD8120561 Si02
#       5
#     4   4   4   2   4
#     4  12  22  40  66  93 130 171 219 273 329 390
#     4  10  22  42  63  88 132 174 217 272 326 388
#     4  12  22  42  68  96 136 171 215 278 337 397
#     4  10  24  40  62  94 130 170 230 268 326 384
#     4  10  21  40  65  95 122 172 216 264 334 398
#
# _framework density 22.298217999999999
#
# number of rings (size 3 to 8) (size 9 to 14) (size 15 to 20)
#    0.000    1.333    5.556    2.000    0.000    3.556 
#    0.000   11.111    0.000    0.000    0.000    0.000 
#    0.000    0.000    0.000    0.000    0.000    0.000 
#
# Total GULP energy -223163.459151 kJ/mol
# GULP energy per Si atom -12397.969953 kJ/mol
# Density = 2.224747 g / cm^3
# Si number density = 22.298218 Si / 1000 Ang^3
#
#
#
# Elastic Constant Matrix: (Units=GPa)
#
#
# Indices 1 2 3 4 5 6 
#
# 1 93.8297 15.1778 38.4389 0.0000 -28.3782 0.0000
# 2 15.1778 109.8405 12.4018 0.0000 -30.9260 0.0000
# 3 38.4389 12.4018 69.2051 0.0000 -27.0207 0.0000
# 4 0.0000 0.0000 0.0000 11.3693 0.0000 -2.1073
# 5 -28.3782 -30.9260 -27.0207 0.0000 47.6471 0.0000
# 6 0.0000 0.0000 0.0000 -2.1073 0.0000 21.9335
#
#
#
# Elastic Compliance Matrix: (Units=1/GPa)
#
#
# Indices 1 2 3 4 5 6 
#
# 1 0.014783 0.000184 -0.006113 0.000000 0.005457 0.000000
# 2 0.000184 0.011203 0.000992 0.000000 0.007944 0.000000
# 3 -0.006113 0.000992 0.021189 0.000000 0.009019 0.000000
# 4 0.000000 0.000000 0.000000 0.089551 0.000000 0.008604
# 5 0.005457 0.007944 0.009019 0.000000 0.034508 0.000000
# 6 0.000000 0.000000 0.000000 0.008604 0.000000 0.046419
#
#
# Mechanical properties :
#
#
# Convention : Reuss Voigt Hill
#
# Bulk Modulus (GPa) = 26.80967 44.99025 35.89996
# Shear Modulus (GPa) = 20.83669 29.98045 25.40857
#
# Velocity S-wave (km/s) = 3.06020 3.67075 3.37929
# Velocity P-wave (km/s) = 4.95336 6.17951 5.60009
#
# Compressibility (1/GPa) = 0.03729997
#
# Stress axis : x y z
#
# Youngs Moduli (GPa) = 67.64694 89.25977 47.19452
#
# Poissons Ratio (x) = -0.01643 0.28850
# Poissons Ratio (y) = -0.01245 -0.04680
# Poissons Ratio (z) = 0.41353 -0.08851
#
# Static dielectric constant tensor:
#      x y z
#    x 3.847540 0.000000 -0.108040 
#    y 0.000000 4.283810 0.000000 
#    z -0.108040 0.000000 3.914590 
# 
# 
# High freq. dielectric constant tensor:
#      x y z
#    x 1.869650 0.000000 -0.004700 
#    y 0.000000 1.896730 0.000000 
#    z -0.004700 0.000000 1.861330 
# 
# From -- ./inp_files/50982.got.cif
#   From: 2010.06.25/outbox.cif.g09.slc.cpg/sg13_26_cif.got.tgz:50982.got - 2010.06.28 04:50:58.
