data_PCOD8120021
_publ_section_title
;
Structure prediction by ZEFSAII (Michael W. Deem and Ramdas Pophale) SiO2 
 PCOD8120021
Probable space group: P 2/C
;
_chemical_formula_sum "Si O2"
_cell_formula_units_Z 32
_cell_length_a 14.311604
_cell_length_b 14.827566
_cell_length_c 8.739440
_cell_angle_alpha 90.000000
_cell_angle_beta 121.126014
_cell_angle_gamma 90.000000
_cell_volume 1587.566852
_symmetry_space_group_name_H-M "P 2/C"
_symmetry_group_IT_number 13
_symmetry_cell_setting 'monoclinic'
loop_
_space_group_symop_operation_xyz
x,y,z
-x,y,1/2-z
-x,-y,-z
x,-y,1/2+z
loop_
_atom_site_type_symbol
_atom_site_label
_atom_site_fract_x
_atom_site_fract_y
_atom_site_fract_z
Si Si1 0.402518 0.444756 0.785587
Si Si2 0.111619 0.256588 0.416033
Si Si3 0.546132 0.641644 0.625057
Si Si4 0.861507 0.914400 0.987892
Si Si5 0.837534 0.567311 0.396964
Si Si6 0.757723 0.254916 0.274999
Si Si7 0.113091 0.898364 0.139165
Si Si8 0.881160 0.390987 0.598554
O O1 0.500000 0.452148 0.750000
O O2 0.392092 0.545513 0.848035
O O3 0.281649 0.422525 0.622786
O O4 0.437826 0.363692 0.928598
O O5 0.087013 0.351308 0.479468
O O6 0.196892 0.274323 0.354136
O O7 0.157514 0.187944 0.583264
O O8 0.000000 0.217880 0.250000
O O9 0.500000 0.662708 0.750000
O O10 0.629731 0.721560 0.654966
O O11 0.839612 0.904603 0.150173
O O12 0.982922 0.887831 0.039081
O O13 0.774995 0.850188 0.829177
O O14 0.843769 0.016858 0.921227
O O15 0.895317 0.473948 0.492484
O O16 0.819229 0.573783 0.198249
O O17 0.815774 0.311861 0.459394
O O18 0.000000 0.354562 0.750000
#
# Coordination Sequence:
#
# PCOD8120021 Si02
#       8
#     4   4   4   4   4   4   4   4
#     4  10  21  37  59  80 108 149 199 261 303 346
#     4  12  23  37  56  87 122 160 199 238 289 359
#     4  10  21  37  58  83 111 147 202 257 306 345
#     4  10  21  36  62  86 123 156 198 237 294 348
#     4  12  24  39  57  80 114 160 203 247 297 360
#     4  12  22  37  61  87 118 160 199 249 300 363
#     4  10  21  38  57  90 120 163 193 240 284 353
#     4  12  25  39  53  79 118 163 202 237 294 363
#
# _framework density 20.156632999999999
#
# number of rings (size 3 to 8) (size 9 to 14) (size 15 to 20)
#    0.000    1.000    2.500    5.250    7.000    0.000 
#    0.000    0.000    0.000    0.000    0.000    8.750 
#    0.000    0.000    0.000    0.000    0.000    0.000 
#
# Total GULP energy -396740.202871 kJ/mol
# GULP energy per Si atom -12398.131340 kJ/mol
# Density = 2.011076 g / cm^3
# Si number density = 20.156633 Si / 1000 Ang^3
#
#
#
# Elastic Constant Matrix: (Units=GPa)
#
#
# Indices 1 2 3 4 5 6 
#
# 1 69.6133 9.8618 13.9913 0.0000 -10.3671 0.0000
# 2 9.8618 89.8349 19.8576 0.0000 -7.8411 0.0000
# 3 13.9913 19.8576 63.1457 0.0000 -17.3875 0.0000
# 4 0.0000 0.0000 0.0000 42.3620 0.0000 -7.9399
# 5 -10.3671 -7.8411 -17.3875 0.0000 35.4790 0.0000
# 6 0.0000 0.0000 0.0000 -7.9399 0.0000 33.1988
#
#
#
# Elastic Compliance Matrix: (Units=1/GPa)
#
#
# Indices 1 2 3 4 5 6 
#
# 1 0.015424 -0.000917 -0.002247 0.000000 0.003203 0.000000
# 2 -0.000917 0.012044 -0.003381 0.000000 0.000737 0.000000
# 3 -0.002247 -0.003381 0.019665 0.000000 0.008233 0.000000
# 4 0.000000 0.000000 0.000000 0.024714 0.000000 0.005911
# 5 0.003203 0.000737 0.008233 0.000000 0.033319 0.000000
# 6 0.000000 0.000000 0.000000 0.005911 0.000000 0.031535
#
#
# Mechanical properties :
#
#
# Convention : Reuss Voigt Hill
#
# Bulk Modulus (GPa) = 29.37611 34.44614 31.91113
# Shear Modulus (GPa) = 31.02912 34.13350 32.58131
#
# Velocity S-wave (km/s) = 3.92778 4.11957 4.02482
# Velocity P-wave (km/s) = 5.93089 6.30509 6.12085
#
# Compressibility (1/GPa) = 0.03404126
#
# Stress axis : x y z
#
# Youngs Moduli (GPa) = 64.83570 83.02929 50.85238
#
# Poissons Ratio (x) = 0.07613 0.11427
# Poissons Ratio (y) = 0.05945 0.17196
# Poissons Ratio (z) = 0.14570 0.28076
#
# Static dielectric constant tensor:
#      x y z
#    x 3.473060 0.000000 -0.367410 
#    y 0.000000 3.546750 0.000000 
#    z -0.367410 0.000000 3.515020 
# 
# 
# High freq. dielectric constant tensor:
#      x y z
#    x 1.773470 0.000000 -0.026630 
#    y 0.000000 1.768810 0.000000 
#    z -0.026630 0.000000 1.790820 
# 
# From -- ./inp_files/19677.got.cif
#   From: 2010.06.25/outbox.cif.g09.slc.cpg/sg13_10_cif.got.tgz:19677.got - 2010.06.28 04:50:58.
