data_PCOD8120350
_publ_section_title
;
Structure prediction by ZEFSAII (Michael W. Deem and Ramdas Pophale) SiO2 
 PCOD8120350
Probable space group: P 2/C
;
_chemical_formula_sum "Si O2"
_cell_formula_units_Z 26
_cell_length_a 12.113004
_cell_length_b 6.326960
_cell_length_c 19.268288
_cell_angle_alpha 90.000000
_cell_angle_beta 55.767291
_cell_angle_gamma 90.000000
_cell_volume 1220.869664
_symmetry_space_group_name_H-M "P 2/C"
_symmetry_group_IT_number 13
_symmetry_cell_setting 'monoclinic'
loop_
_space_group_symop_operation_xyz
x,y,z
-x,y,1/2-z
-x,-y,-z
x,-y,1/2+z
loop_
_atom_site_type_symbol
_atom_site_label
_atom_site_fract_x
_atom_site_fract_y
_atom_site_fract_z
Si Si1 0.836031 0.926746 0.617359
Si Si2 0.217064 0.158242 0.213224
Si Si3 0.220934 0.242224 0.626871
Si Si4 0.436172 0.530978 0.597252
Si Si5 0.086820 0.308177 0.996816
Si Si6 0.290586 0.366932 0.455190
Si Si7 0.000000 0.532409 0.750000
O O1 0.759828 0.932036 0.717620
O O2 0.755602 0.772412 0.593690
O O3 0.989063 0.845725 0.574767
O O4 0.843612 0.167631 0.588022
O O5 0.353259 0.253578 0.134664
O O6 0.098022 0.327263 0.262224
O O7 0.174556 0.980969 0.173086
O O8 0.331933 0.336142 0.641902
O O9 0.279444 0.222336 0.528303
O O10 0.089444 0.388521 0.667584
O O11 0.500000 0.500000 0.500000
O O12 0.557334 0.548783 0.609673
O O13 0.205277 0.418211 0.998101
O O14 0.000000 0.500000 0.000000
#
# Coordination Sequence:
#
# PCOD8120350 Si02
#       7
#     4   4   4   4   4   4   2
#     4  10  22  37  59  90 121 155 194 249 309 358
#     4  11  23  39  60  90 124 153 200 256 303 365
#     4  10  22  38  61  87 116 159 201 246 301 360
#     4   9  22  41  60  84 116 157 202 246 292 352
#     4   9  20  37  59  84 118 155 196 244 301 368
#     4  10  21  39  60  82 115 159 203 241 293 359
#     4  10  22  38  60  88 120 152 196 248 306 360
#
# _framework density 21.296296999999999
#
# number of rings (size 3 to 8) (size 9 to 14) (size 15 to 20)
#    0.000    2.154    0.000    1.385    0.000   20.308 
#    0.000    0.000    0.000    0.000    0.000    0.000 
#    0.000    0.000    0.000    0.000    0.000    0.000 
#
# Total GULP energy -322203.066446 kJ/mol
# GULP energy per Si atom -12392.425633 kJ/mol
# Density = 2.124783 g / cm^3
# Si number density = 21.296297 Si / 1000 Ang^3
#
#
#
# Elastic Constant Matrix: (Units=GPa)
#
#
# Indices 1 2 3 4 5 6 
#
# 1 115.0240 39.4957 32.9579 0.0000 -19.5505 0.0000
# 2 39.4957 99.8944 38.3107 0.0000 -4.7110 0.0000
# 3 32.9579 38.3107 107.8977 0.0000 4.9433 0.0000
# 4 0.0000 0.0000 0.0000 32.5312 0.0000 1.0859
# 5 -19.5505 -4.7110 4.9433 0.0000 35.8349 0.0000
# 6 0.0000 0.0000 0.0000 1.0859 0.0000 22.5013
#
#
#
# Elastic Compliance Matrix: (Units=1/GPa)
#
#
# Indices 1 2 3 4 5 6 
#
# 1 0.011662 -0.003284 -0.002685 0.000000 0.006301 0.000000
# 2 -0.003284 0.012673 -0.003513 0.000000 0.000359 0.000000
# 3 -0.002685 -0.003513 0.011496 0.000000 -0.003512 0.000000
# 4 0.000000 0.000000 0.000000 0.030789 0.000000 -0.001486
# 5 0.006301 0.000359 -0.003512 0.000000 0.031875 0.000000
# 6 0.000000 0.000000 0.000000 -0.001486 0.000000 0.044514
#
#
# Mechanical properties :
#
#
# Convention : Reuss Voigt Hill
#
# Bulk Modulus (GPa) = 59.28538 60.48275 59.88406
# Shear Modulus (GPa) = 29.83371 32.31027 31.07199
#
# Velocity S-wave (km/s) = 3.74690 3.89932 3.82387
# Velocity P-wave (km/s) = 6.82772 6.98106 6.90482
#
# Compressibility (1/GPa) = 0.01686757
#
# Stress axis : x y z
#
# Youngs Moduli (GPa) = 85.75098 78.90641 86.98332
#
# Poissons Ratio (x) = 0.25912 0.23353
# Poissons Ratio (y) = 0.28160 0.30559
# Poissons Ratio (z) = 0.23022 0.27721
#
# Static dielectric constant tensor:
#      x y z
#    x 4.178450 0.000000 -0.396270 
#    y 0.000000 3.979010 0.000000 
#    z -0.396270 0.000000 3.643080 
# 
# 
# High freq. dielectric constant tensor:
#      x y z
#    x 1.829730 0.000000 -0.016930 
#    y 0.000000 1.836480 0.000000 
#    z -0.016930 0.000000 1.820630 
# 
# From -- ./inp_files/77431.got.cif
#   From: 2010.06.25/outbox.cif.g09.slc.cpg/sg13_39_cif.got.tgz:77431.got - 2010.06.28 04:50:58.
