data_PCOD8120480
_publ_section_title
;
Structure prediction by ZEFSAII (Michael W. Deem and Ramdas Pophale) SiO2 
 PCOD8120480
Probable space group: P 2/C
;
_chemical_formula_sum "Si O2"
_cell_formula_units_Z 22
_cell_length_a 14.533826
_cell_length_b 12.578604
_cell_length_c 18.010330
_cell_angle_alpha 90.000000
_cell_angle_beta 21.107530
_cell_angle_gamma 90.000000
_cell_volume 1185.715808
_symmetry_space_group_name_H-M "P 2/C"
_symmetry_group_IT_number 13
_symmetry_cell_setting 'monoclinic'
loop_
_space_group_symop_operation_xyz
x,y,z
-x,y,1/2-z
-x,-y,-z
x,-y,1/2+z
loop_
_atom_site_type_symbol
_atom_site_label
_atom_site_fract_x
_atom_site_fract_y
_atom_site_fract_z
Si Si1 0.291933 0.987300 0.548564
Si Si2 0.678677 0.638738 0.312582
Si Si3 0.136414 0.463317 0.221386
Si Si4 0.569940 0.832110 0.925500
Si Si5 0.931701 0.282697 0.474199
Si Si6 0.500000 0.123540 0.750000
O O1 0.305418 0.896614 0.600566
O O2 0.444632 0.951169 0.361300
O O3 0.000000 0.012473 0.750000
O O4 0.424852 0.094268 0.476599
O O5 0.852611 0.563020 0.231918
O O6 0.415543 0.580313 0.490594
O O7 0.633411 0.748713 0.389514
O O8 0.830962 0.661040 0.123270
O O9 0.000000 0.503761 0.250000
O O10 0.966039 0.370503 0.384884
O O11 0.797181 0.772105 0.711184
O O12 0.742054 0.195608 0.584913
#
# Coordination Sequence:
#
# PCOD8120480 Si02
#       6
#     4   4   4   4   4   2
#     4  11  23  40  58  89 119 154 201 248 295 354
#     4  10  21  40  59  87 121 158 195 243 299 353
#     4  10  22  37  60  88 120 156 199 241 295 357
#     4  10  23  39  60  83 122 159 192 245 302 350
#     4  11  21  36  62  89 119 152 200 250 296 349
#     4  12  22  34  64  92 114 154 210 250 294 348
#
# _framework density 18.554193000000001
#
# number of rings (size 3 to 8) (size 9 to 14) (size 15 to 20)
#    0.000    1.455    3.636    1.636    2.545    2.909 
#    0.000    0.000    0.000    2.182    0.000    0.000 
#    0.000    0.000    0.000    0.000    0.000    0.000 
#
# Total GULP energy -272931.476362 kJ/mol
# GULP energy per Si atom -12405.976198 kJ/mol
# Density = 1.851196 g / cm^3
# Si number density = 18.554193 Si / 1000 Ang^3
#
#
#
# Elastic Constant Matrix: (Units=GPa)
#
#
# Indices 1 2 3 4 5 6 
#
# 1 123.4947 44.1096 44.7971 0.0000 -2.3256 0.0000
# 2 44.1096 64.7848 15.6132 0.0000 -7.6416 0.0000
# 3 44.7971 15.6132 89.2862 0.0000 7.1044 0.0000
# 4 0.0000 0.0000 0.0000 15.9969 0.0000 8.3202
# 5 -2.3256 -7.6416 7.1044 0.0000 24.8664 0.0000
# 6 0.0000 0.0000 0.0000 8.3202 0.0000 22.2544
#
#
#
# Elastic Compliance Matrix: (Units=1/GPa)
#
#
# Indices 1 2 3 4 5 6 
#
# 1 0.012533 -0.007272 -0.005046 0.000000 0.000379 0.000000
# 2 -0.007272 0.021224 -0.000540 0.000000 0.005997 0.000000
# 3 -0.005046 -0.000540 0.014200 0.000000 -0.004695 0.000000
# 4 0.000000 0.000000 0.000000 0.077602 0.000000 -0.029013
# 5 0.000379 0.005997 -0.004695 0.000000 0.043434 0.000000
# 6 0.000000 0.000000 0.000000 -0.029013 0.000000 0.055782
#
#
# Mechanical properties :
#
#
# Convention : Reuss Voigt Hill
#
# Bulk Modulus (GPa) = 44.96431 54.06728 49.51579
# Shear Modulus (GPa) = 19.38690 24.15993 21.77342
#
# Velocity S-wave (km/s) = 3.23597 3.61242 3.42936
# Velocity P-wave (km/s) = 6.18455 6.82663 6.51350
#
# Compressibility (1/GPa) = 0.02223986
#
# Stress axis : x y z
#
# Youngs Moduli (GPa) = 79.79148 47.11545 70.42313
#
# Poissons Ratio (x) = 0.34263 0.35539
# Poissons Ratio (y) = 0.58025 0.03803
# Poissons Ratio (z) = 0.40267 0.02544
#
# Static dielectric constant tensor:
#      x y z
#    x 3.335600 0.000000 0.026460 
#    y 0.000000 3.509240 0.000000 
#    z 0.026460 0.000000 3.507960 
# 
# 
# High freq. dielectric constant tensor:
#      x y z
#    x 1.717710 0.000000 0.003640 
#    y 0.000000 1.728410 0.000000 
#    z 0.003640 0.000000 1.730390 
# 
# From -- ./inp_files/26282.got.cif
#   From: 2010.06.25/outbox.cif.g09.slc.cpg/sg13_14_cif.got.tgz:26282.got - 2010.06.28 04:50:58.
