data_PCOD8120161
_publ_section_title
;
Structure prediction by ZEFSAII (Michael W. Deem and Ramdas Pophale) SiO2 
 PCOD8120161
Probable space group: P 2/C
;
_chemical_formula_sum "Si O2"
_cell_formula_units_Z 20
_cell_length_a 7.882761
_cell_length_b 11.533657
_cell_length_c 8.626494
_cell_angle_alpha 90.000000
_cell_angle_beta 89.011962
_cell_angle_gamma 90.000000
_cell_volume 784.178875
_symmetry_space_group_name_H-M "P 2/C"
_symmetry_group_IT_number 13
_symmetry_cell_setting 'monoclinic'
loop_
_space_group_symop_operation_xyz
x,y,z
-x,y,1/2-z
-x,-y,-z
x,-y,1/2+z
loop_
_atom_site_type_symbol
_atom_site_label
_atom_site_fract_x
_atom_site_fract_y
_atom_site_fract_z
Si Si1 0.665901 0.548910 0.848693
Si Si2 0.694965 0.042976 0.707118
Si Si3 0.134934 0.403524 0.447527
Si Si4 0.443441 0.743648 0.426685
Si Si5 0.785657 0.839312 0.509726
O O1 0.500000 0.532715 0.750000
O O2 0.702171 0.428920 0.941065
O O3 0.822451 0.582474 0.734923
O O4 0.657165 0.642094 0.986794
O O5 0.500000 0.008512 0.750000
O O6 0.802232 0.933184 0.646221
O O7 0.683122 0.144983 0.578770
O O8 0.802656 0.092537 0.848825
O O9 0.080868 0.268628 0.477196
O O10 0.000000 0.500000 0.500000
O O11 0.500000 0.710410 0.250000
O O12 0.601924 0.779341 0.530832
#
# Coordination Sequence:
#
# PCOD8120161 Si02
#       5
#     4   4   4   4   4
#     4  12  26  43  75 103 140 193 262 302 364 436
#     4   9  19  33  64 107 152 178 233 305 374 419
#     4  12  29  47  67 105 153 200 245 306 378 438
#     4   9  20  38  65 109 149 183 236 312 360 428
#     4  10  21  37  66 103 148 182 238 294 376 430
#
# _framework density 25.504384999999999
#
# number of rings (size 3 to 8) (size 9 to 14) (size 15 to 20)
#    0.000    2.000    2.000    3.600   11.200    0.800 
#    0.000    0.000    0.000    1.200    0.000    0.000 
#    0.000    0.000    0.000    0.000    0.000    0.000 
#
# Total GULP energy -247897.941133 kJ/mol
# GULP energy per Si atom -12394.897057 kJ/mol
# Density = 2.544634 g / cm^3
# Si number density = 25.504385 Si / 1000 Ang^3
#
#
#
# Elastic Constant Matrix: (Units=GPa)
#
#
# Indices 1 2 3 4 5 6 
#
# 1 27.9120 39.8022 28.3555 0.0000 -17.3593 0.0000
# 2 39.8022 227.9141 89.0571 0.0000 -8.4988 0.0000
# 3 28.3555 89.0571 134.1515 0.0000 -14.6578 0.0000
# 4 0.0000 0.0000 0.0000 50.8083 0.0000 -7.0144
# 5 -17.3593 -8.4988 -14.6578 0.0000 20.2306 0.0000
# 6 0.0000 0.0000 0.0000 -7.0144 0.0000 35.9369
#
#
#
# Elastic Compliance Matrix: (Units=1/GPa)
#
#
# Indices 1 2 3 4 5 6 
#
# 1 0.122657 -0.015937 -0.004971 0.000000 0.094952 0.000000
# 2 -0.015937 0.007998 -0.003332 0.000000 -0.012729 0.000000
# 3 -0.004971 -0.003332 0.010966 0.000000 0.002280 0.000000
# 4 0.000000 0.000000 0.000000 0.020227 0.000000 0.003948
# 5 0.094952 -0.012729 0.002280 0.000000 0.127210 0.000000
# 6 0.000000 0.000000 0.000000 0.003948 0.000000 0.028597
#
#
# Mechanical properties :
#
#
# Convention : Reuss Voigt Hill
#
# Bulk Modulus (GPa) = 10.73647 78.26748 44.50198
# Shear Modulus (GPa) = 12.58868 36.91267 24.75067
#
# Velocity S-wave (km/s) = 2.22410 3.80848 3.11858
# Velocity P-wave (km/s) = 3.28851 7.07770 5.51852
#
# Compressibility (1/GPa) = 0.09314045
#
# Stress axis : x y z
#
# Youngs Moduli (GPa) = 8.15282 125.03033 91.19159
#
# Poissons Ratio (x) = 1.99264 0.45333
# Poissons Ratio (y) = 0.12993 0.30383
# Poissons Ratio (z) = 0.04053 0.41657
#
# Static dielectric constant tensor:
#      x y z
#    x 4.221190 0.000000 0.171940 
#    y 0.000000 4.987340 0.000000 
#    z 0.171940 0.000000 4.714100 
# 
# 
# High freq. dielectric constant tensor:
#      x y z
#    x 1.975050 0.000000 0.015810 
#    y 0.000000 2.042000 0.000000 
#    z 0.015810 0.000000 2.021220 
# 
# From -- ./inp_files/11684.got.cif
#   From: 2010.06.25/outbox.cif.g09.slc.cpg/sg13_6_cif.got.tgz:11684.got - 2010.06.28 04:50:58.
