data_PCOD8120640
_publ_section_title
;
Structure prediction by ZEFSAII (Michael W. Deem and Ramdas Pophale) SiO2 
 PCOD8120640
Probable space group: P 2/C
;
_chemical_formula_sum "Si O2"
_cell_formula_units_Z 22
_cell_length_a 7.419745
_cell_length_b 8.098808
_cell_length_c 13.673864
_cell_angle_alpha 90.000000
_cell_angle_beta 94.531463
_cell_angle_gamma 90.000000
_cell_volume 819.108912
_symmetry_space_group_name_H-M "P 2/C"
_symmetry_group_IT_number 13
_symmetry_cell_setting 'monoclinic'
loop_
_space_group_symop_operation_xyz
x,y,z
-x,y,1/2-z
-x,-y,-z
x,-y,1/2+z
loop_
_atom_site_type_symbol
_atom_site_label
_atom_site_fract_x
_atom_site_fract_y
_atom_site_fract_z
Si Si1 0.183161 0.080908 0.920912
Si Si2 0.702619 0.836718 0.874687
Si Si3 0.317629 0.735171 0.943643
Si Si4 0.000000 0.723620 0.250000
Si Si5 0.292235 0.546404 0.763831
Si Si6 0.438695 0.818685 0.146760
O O1 0.386201 0.123469 0.902381
O O2 0.034102 0.159684 0.844303
O O3 0.172211 0.882112 0.922808
O O4 0.154732 0.151581 0.029736
O O5 0.506582 0.779217 0.900718
O O6 0.777352 0.709193 0.796959
O O7 0.682797 0.022077 0.828231
O O8 0.253652 0.574226 0.879059
O O9 0.339471 0.699485 0.061908
O O10 0.175289 0.614687 0.228817
O O11 0.500000 0.510097 0.750000
O O12 0.500000 0.726750 0.250000
#
# Coordination Sequence:
#
# PCOD8120640 Si02
#       6
#     4   4   4   2   4   4
#     4   9  19  35  55  88 121 152 202 257 300 348
#     4   8  15  33  62  86 113 154 202 252 302 354
#     4   8  16  34  62  88 115 154 202 253 297 351
#     4  12  26  38  56  88 130 168 200 244 296 362
#     4  10  21  41  63  87 122 166 204 242 301 363
#     4   9  15  30  62  95 116 146 198 256 307 349
#
# _framework density 26.858454999999999
#
# number of rings (size 3 to 8) (size 9 to 14) (size 15 to 20)
#    0.000    2.909    0.000    4.909    0.000    2.182 
#    0.000   11.818    0.000    5.455    0.000    0.000 
#    0.000    0.000    0.000    0.000    0.000    0.000 
#
# Total GULP energy -272579.139176 kJ/mol
# GULP energy per Si atom -12389.960872 kJ/mol
# Density = 2.679732 g / cm^3
# Si number density = 26.858455 Si / 1000 Ang^3
#
#
#
# Elastic Constant Matrix: (Units=GPa)
#
#
# Indices 1 2 3 4 5 6 
#
# 1 80.4786 19.6899 31.2508 0.0000 15.0923 0.0000
# 2 19.6899 96.9201 80.1733 0.0000 28.6914 0.0000
# 3 31.2508 80.1733 228.2054 0.0000 36.7013 0.0000
# 4 0.0000 0.0000 0.0000 14.9993 0.0000 22.2085
# 5 15.0923 28.6914 36.7013 0.0000 38.2383 0.0000
# 6 0.0000 0.0000 0.0000 22.2085 0.0000 19.5632
#
#
#
# Elastic Compliance Matrix: (Units=1/GPa)
#
#
# Indices 1 2 3 4 5 6 
#
# 1 0.013731 -0.000853 -0.000960 0.000000 -0.003858 0.000000
# 2 -0.000853 0.016437 -0.004409 0.000000 -0.007765 0.000000
# 3 -0.000960 -0.004409 0.006468 0.000000 -0.002521 0.000000
# 4 0.000000 0.000000 0.000000 -0.097922 0.000000 0.111163
# 5 -0.003858 -0.007765 -0.002521 0.000000 0.035920 0.000000
# 6 0.000000 0.000000 0.000000 0.111163 0.000000 -0.075078
#
#
# Mechanical properties :
#
#
# Convention : Reuss Voigt Hill
#
# Bulk Modulus (GPa) = 41.33845 74.20355 57.77100
# Shear Modulus (GPa) = -62.54968 32.85951 -14.84509
#
# Velocity S-wave (km/s) = -4.83107 3.50155 -2.35354
# Velocity P-wave (km/s) = 3.96160 6.63592 3.76438
#
# Compressibility (1/GPa) = 0.02419055
#
# Stress axis : x y z
#
# Youngs Moduli (GPa) = 72.82963 60.83891 154.61032
#
# Poissons Ratio (x) = 0.05191 0.14845
# Poissons Ratio (y) = 0.06214 0.68168
# Poissons Ratio (z) = 0.06993 0.26824
#
# Static dielectric constant tensor:
#      x y z
#    x 4.507500 0.000000 0.231160 
#    y 0.000000 4.959360 0.000000 
#    z 0.231160 0.000000 5.577240 
# 
# 
# High freq. dielectric constant tensor:
#      x y z
#    x 2.060420 0.000000 0.009040 
#    y 0.000000 2.069700 0.000000 
#    z 0.009040 0.000000 2.091330 
# 
# From -- ./inp_files/46224.got.cif
#   From: 2010.06.25/outbox.cif.g09.slc.cpg/sg13_24_cif.got.tgz:46224.got - 2010.06.28 04:50:58.
