data_PCOD8120259
_publ_section_title
;
Structure prediction by ZEFSAII (Michael W. Deem and Ramdas Pophale) SiO2 
 PCOD8120259
Probable space group: P 2/C
;
_chemical_formula_sum "Si O2"
_cell_formula_units_Z 28
_cell_length_a 27.007737
_cell_length_b 8.478273
_cell_length_c 9.958529
_cell_angle_alpha 90.000000
_cell_angle_beta 141.802814
_cell_angle_gamma 90.000000
_cell_volume 1410.064748
_symmetry_space_group_name_H-M "P 2/C"
_symmetry_group_IT_number 13
_symmetry_cell_setting 'monoclinic'
loop_
_space_group_symop_operation_xyz
x,y,z
-x,y,1/2-z
-x,-y,-z
x,-y,1/2+z
loop_
_atom_site_type_symbol
_atom_site_label
_atom_site_fract_x
_atom_site_fract_y
_atom_site_fract_z
Si Si1 0.175463 0.218775 0.872876
Si Si2 0.556425 0.522125 0.244555
Si Si3 0.948747 0.576552 0.508563
Si Si4 0.330664 0.181618 0.529661
Si Si5 0.190290 0.613276 0.671077
Si Si6 0.712518 0.030267 0.801775
Si Si7 0.707799 0.675857 0.099633
O O1 0.094230 0.252552 0.614145
O O2 0.154085 0.316041 0.959481
O O3 0.254696 0.281206 0.964923
O O4 0.199469 0.039326 0.965759
O O5 0.500000 0.533173 0.250000
O O6 0.602064 0.686477 0.323095
O O7 0.614954 0.370551 0.382394
O O8 0.500000 0.500000 0.000000
O O9 0.880282 0.446268 0.384657
O O10 0.000000 0.500000 0.500000
O O11 0.000000 0.607481 0.750000
O O12 0.242661 0.257983 0.362936
O O13 0.340519 0.062554 0.677217
O O14 0.334350 0.094001 0.393363
O O15 0.247761 0.473774 0.743316
O O16 0.723519 0.187445 0.739895
#
# Coordination Sequence:
#
# PCOD8120259 Si02
#       7
#     4   4   4   4   4   4   4
#     4  10  21  38  61  95 121 167 212 261 307 377
#     4  11  25  42  64  93 126 164 210 265 321 379
#     4  11  21  37  62  98 129 163 205 259 318 371
#     4  10  23  40  65  89 127 161 217 260 309 379
#     4   9  21  36  64  91 120 164 218 261 300 364
#     4  11  21  40  63  93 121 163 209 265 311 368
#     4  10  22  37  66  89 119 164 217 259 308 373
#
# _framework density 19.857243
#
# number of rings (size 3 to 8) (size 9 to 14) (size 15 to 20)
#    0.000    1.714    2.857    0.857   12.000    0.000 
#    0.000    3.571    0.000    8.571    0.000    0.000 
#    0.000    0.000    0.000    0.000    0.000    0.000 
#
# Total GULP energy -347005.418586 kJ/mol
# GULP energy per Si atom -12393.050664 kJ/mol
# Density = 1.981205 g / cm^3
# Si number density = 19.857243 Si / 1000 Ang^3
#
#
#
# Elastic Constant Matrix: (Units=GPa)
#
#
# Indices 1 2 3 4 5 6 
#
# 1 119.9685 38.7250 70.7864 0.0000 -4.8005 0.0000
# 2 38.7250 108.9043 67.1343 0.0000 -2.3072 0.0000
# 3 70.7864 67.1343 143.7467 0.0000 -4.0208 0.0000
# 4 0.0000 0.0000 0.0000 36.1391 0.0000 -3.0399
# 5 -4.8005 -2.3072 -4.0208 0.0000 30.5188 0.0000
# 6 0.0000 0.0000 0.0000 -3.0399 0.0000 28.6788
#
#
#
# Elastic Compliance Matrix: (Units=1/GPa)
#
#
# Indices 1 2 3 4 5 6 
#
# 1 0.011843 -0.000859 -0.005400 0.000000 0.001086 0.000000
# 2 -0.000859 0.012958 -0.005626 0.000000 0.000103 0.000000
# 3 -0.005400 -0.005626 0.012253 0.000000 0.000340 0.000000
# 4 0.000000 0.000000 0.000000 0.027920 0.000000 0.002959
# 5 0.001086 0.000103 0.000340 0.000000 0.032990 0.000000
# 6 0.000000 0.000000 0.000000 0.002959 0.000000 0.035183
#
#
# Mechanical properties :
#
#
# Convention : Reuss Voigt Hill
#
# Bulk Modulus (GPa) = 75.28246 80.65677 77.96961
# Shear Modulus (GPa) = 30.98960 32.13224 31.56092
#
# Velocity S-wave (km/s) = 3.95475 4.02700 3.99104
# Velocity P-wave (km/s) = 7.67122 7.89486 7.78384
#
# Compressibility (1/GPa) = 0.01328331
#
# Stress axis : x y z
#
# Youngs Moduli (GPa) = 84.44077 77.17134 81.61344
#
# Poissons Ratio (x) = 0.06630 0.44072
# Poissons Ratio (y) = 0.07255 0.45915
# Poissons Ratio (z) = 0.45599 0.43416
#
# Static dielectric constant tensor:
#      x y z
#    x 3.624820 0.000000 -0.076350 
#    y 0.000000 3.791740 0.000000 
#    z -0.076350 0.000000 3.781970 
# 
# 
# High freq. dielectric constant tensor:
#      x y z
#    x 1.772150 0.000000 -0.019530 
#    y 0.000000 1.770770 0.000000 
#    z -0.019530 0.000000 1.777990 
# 
# From -- ./inp_files/24622.got.cif
#   From: 2010.06.25/outbox.cif.g09.slc.cpg/sg13_13_cif.got.tgz:24622.got - 2010.06.28 04:50:58.
