data_PCOD8120129
_publ_section_title
;
Structure prediction by ZEFSAII (Michael W. Deem and Ramdas Pophale) SiO2 
 PCOD8120129
Probable space group: P 2/C
;
_chemical_formula_sum "Si O2"
_cell_formula_units_Z 16
_cell_length_a 7.808564
_cell_length_b 18.914961
_cell_length_c 7.979787
_cell_angle_alpha 90.000000
_cell_angle_beta 144.665252
_cell_angle_gamma 90.000000
_cell_volume 681.648565
_symmetry_space_group_name_H-M "P 2/C"
_symmetry_group_IT_number 13
_symmetry_cell_setting 'monoclinic'
loop_
_space_group_symop_operation_xyz
x,y,z
-x,y,1/2-z
-x,-y,-z
x,-y,1/2+z
loop_
_atom_site_type_symbol
_atom_site_label
_atom_site_fract_x
_atom_site_fract_y
_atom_site_fract_z
Si Si1 0.688199 0.059689 0.059853
Si Si2 0.811297 0.712866 0.435050
Si Si3 0.813266 0.558479 0.444550
Si Si4 0.822926 0.172239 0.453619
O O1 0.774059 0.121357 0.256900
O O2 0.000000 0.026115 0.250000
O O3 0.500000 0.088751 0.750000
O O4 0.500000 0.000000 0.000000
O O5 0.500000 0.744673 0.250000
O O6 0.764320 0.634243 0.312204
O O7 0.966918 0.762055 0.422935
O O8 0.000000 0.709506 0.750000
O O9 0.500000 0.524339 0.250000
O O10 0.000000 0.500000 0.500000
O O11 0.000000 0.582037 0.750000
O O12 0.500000 0.199951 0.250000
O O13 0.000000 0.134225 0.750000
#
# Coordination Sequence:
#
# PCOD8120129 Si02
#       4
#     4   4   4   4
#     4  12  27  49  73  99 134 174 216 272 333 400
#     4  10  22  42  64  92 130 176 221 268 328 393
#     4  10  21  37  61  92 130 172 219 269 324 386
#     4  12  26  44  68 101 133 170 222 277 330 395
#
# _framework density 23.472504000000001
#
# number of rings (size 3 to 8) (size 9 to 14) (size 15 to 20)
#    0.000    1.000    0.000    6.000    0.000    6.000 
#    0.000    0.000    0.000    0.000    0.000    0.000 
#    0.000    0.000    0.000    0.000    0.000    0.000 
#
# Total GULP energy -198281.894947 kJ/mol
# GULP energy per Si atom -12392.618434 kJ/mol
# Density = 2.341908 g / cm^3
# Si number density = 23.472504 Si / 1000 Ang^3
#
#
#
# Elastic Constant Matrix: (Units=GPa)
#
#
# Indices 1 2 3 4 5 6 
#
# 1 172.4919 88.5501 76.6408 0.0000 42.0432 0.0000
# 2 88.5501 131.6350 42.6895 0.0000 13.3258 0.0000
# 3 76.6408 42.6895 172.9504 0.0000 13.4060 0.0000
# 4 0.0000 0.0000 0.0000 30.1407 0.0000 6.8230
# 5 42.0432 13.3258 13.4060 0.0000 70.8686 0.0000
# 6 0.0000 0.0000 0.0000 6.8230 0.0000 23.3333
#
#
#
# Elastic Compliance Matrix: (Units=1/GPa)
#
#
# Indices 1 2 3 4 5 6 
#
# 1 0.011744 -0.006326 -0.003243 0.000000 -0.005165 0.000000
# 2 -0.006326 0.011764 -0.000223 0.000000 0.001583 0.000000
# 3 -0.003243 -0.000223 0.007228 0.000000 0.000598 0.000000
# 4 0.000000 0.000000 0.000000 0.035530 0.000000 -0.010389
# 5 -0.005165 0.001583 0.000598 0.000000 0.016764 0.000000
# 6 0.000000 0.000000 0.000000 -0.010389 0.000000 0.045895
#
#
# Mechanical properties :
#
#
# Convention : Reuss Voigt Hill
#
# Bulk Modulus (GPa) = 89.66407 99.20422 94.43415
# Shear Modulus (GPa) = 32.84583 42.81497 37.83040
#
# Velocity S-wave (km/s) = 3.74482 4.27552 4.01894
# Velocity P-wave (km/s) = 7.54856 8.16879 7.86480
#
# Compressibility (1/GPa) = 0.01115274
#
# Stress axis : x y z
#
# Youngs Moduli (GPa) = 85.14671 85.00250 138.35763
#
# Poissons Ratio (x) = 0.53773 0.44864
# Poissons Ratio (y) = 0.53864 0.03088
# Poissons Ratio (z) = 0.27610 0.01897
#
# Static dielectric constant tensor:
#      x y z
#    x 4.364590 0.000000 0.128610 
#    y 0.000000 4.473170 0.000000 
#    z 0.128610 0.000000 4.793260 
# 
# 
# High freq. dielectric constant tensor:
#      x y z
#    x 1.930250 0.000000 0.019170 
#    y 0.000000 1.923680 0.000000 
#    z 0.019170 0.000000 1.954350 
# 
# From -- ./inp_files/13221.got.cif
#   From: 2010.06.25/outbox.cif.g09.slc.cpg/sg13_7_cif.got.tgz:13221.got - 2010.06.28 04:50:58.
