data_PCOD8120823
_publ_section_title
;
Structure prediction by ZEFSAII (Michael W. Deem and Ramdas Pophale) SiO2 
 PCOD8120823
Probable space group: P 2/C
;
_chemical_formula_sum "Si O2"
_cell_formula_units_Z 28
_cell_length_a 8.658070
_cell_length_b 12.501119
_cell_length_c 13.866612
_cell_angle_alpha 90.000000
_cell_angle_beta 59.746565
_cell_angle_gamma 90.000000
_cell_volume 1296.451310
_symmetry_space_group_name_H-M "P 2/C"
_symmetry_group_IT_number 13
_symmetry_cell_setting 'monoclinic'
loop_
_space_group_symop_operation_xyz
x,y,z
-x,y,1/2-z
-x,-y,-z
x,-y,1/2+z
loop_
_atom_site_type_symbol
_atom_site_label
_atom_site_fract_x
_atom_site_fract_y
_atom_site_fract_z
Si Si1 0.178730 0.076109 0.752413
Si Si2 0.687189 0.629164 0.732714
Si Si3 0.514617 0.768470 0.358934
Si Si4 0.859365 0.835587 0.715907
Si Si5 0.664899 0.450051 0.891408
Si Si6 0.925153 0.606127 0.479618
Si Si7 0.125514 0.194007 0.961339
O O1 0.345615 0.139541 0.652059
O O2 0.150214 0.103420 0.873279
O O3 0.000000 0.104092 0.750000
O O4 0.224605 0.950323 0.732099
O O5 0.500000 0.594124 0.750000
O O6 0.699021 0.747928 0.775146
O O7 0.745192 0.535273 0.788781
O O8 0.801748 0.649133 0.602336
O O9 0.500000 0.770454 0.250000
O O10 0.589834 0.654459 0.364877
O O11 0.312859 0.789941 0.461933
O O12 0.000000 0.796180 0.750000
O O13 0.966411 0.842269 0.581256
O O14 0.500000 0.500000 0.000000
O O15 0.825737 0.416520 0.910796
O O16 0.000000 0.500000 0.500000
O O17 0.079221 0.695480 0.418069
#
# Coordination Sequence:
#
# PCOD8120823 Si02
#       7
#     4   4   4   4   4   4   4
#     4  10  21  43  66  95 125 164 216 271 319 376
#     4  11  25  42  62  93 129 170 212 266 317 381
#     4  10  23  40  66  96 128 165 214 267 320 380
#     4  10  24  42  65  92 129 168 216 263 320 383
#     4  12  24  39  66  92 131 169 214 266 321 378
#     4  11  25  40  60  94 127 169 211 258 317 387
#     4  10  22  41  66  93 128 166 214 260 324 380
#
# _framework density 21.597418999999999
#
# number of rings (size 3 to 8) (size 9 to 14) (size 15 to 20)
#    0.000    1.429    1.429    2.571   10.000    1.714 
#    0.000    2.857    0.000    0.000    0.000    0.000 
#    0.000    0.000    0.000    0.000    0.000    0.000 
#
# Total GULP energy -347055.919734 kJ/mol
# GULP energy per Si atom -12394.854276 kJ/mol
# Density = 2.154826 g / cm^3
# Si number density = 21.597419 Si / 1000 Ang^3
#
#
#
# Elastic Constant Matrix: (Units=GPa)
#
#
# Indices 1 2 3 4 5 6 
#
# 1 125.9235 60.6621 11.8736 0.0000 -0.6255 0.0000
# 2 60.6621 144.4053 13.3831 0.0000 -5.5042 0.0000
# 3 11.8736 13.3831 42.8330 0.0000 -0.3256 0.0000
# 4 0.0000 0.0000 0.0000 22.7357 0.0000 10.1155
# 5 -0.6255 -5.5042 -0.3256 0.0000 30.1821 0.0000
# 6 0.0000 0.0000 0.0000 10.1155 0.0000 40.0000
#
#
#
# Elastic Compliance Matrix: (Units=1/GPa)
#
#
# Indices 1 2 3 4 5 6 
#
# 1 0.010059 -0.004107 -0.001510 0.000000 -0.000557 0.000000
# 2 -0.004107 0.008858 -0.001618 0.000000 0.001513 0.000000
# 3 -0.001510 -0.001618 0.024270 0.000000 -0.000064 0.000000
# 4 0.000000 0.000000 0.000000 0.049560 0.000000 -0.012533
# 5 -0.000557 0.001513 -0.000064 0.000000 0.033396 0.000000
# 6 0.000000 0.000000 0.000000 -0.012533 0.000000 0.028169
#
#
# Mechanical properties :
#
#
# Convention : Reuss Voigt Hill
#
# Bulk Modulus (GPa) = 34.82052 53.88883 44.35467
# Shear Modulus (GPa) = 28.03417 33.73309 30.88363
#
# Velocity S-wave (km/s) = 3.60673 3.95638 3.78560
# Velocity P-wave (km/s) = 5.78811 6.77320 6.29994
#
# Compressibility (1/GPa) = 0.02871870
#
# Stress axis : x y z
#
# Youngs Moduli (GPa) = 99.40891 112.89410 41.20332
#
# Poissons Ratio (x) = 0.46367 0.06220
# Poissons Ratio (y) = 0.40828 0.06665
# Poissons Ratio (z) = 0.15006 0.18262
#
# Static dielectric constant tensor:
#      x y z
#    x 4.671370 0.000000 -0.003240 
#    y 0.000000 3.963530 0.000000 
#    z -0.003240 0.000000 3.572640 
# 
# 
# High freq. dielectric constant tensor:
#      x y z
#    x 1.855090 0.000000 0.003750 
#    y 0.000000 1.861280 0.000000 
#    z 0.003750 0.000000 1.839060 
# 
# From -- ./inp_files/47135.got.cif
#   From: 2010.06.25/outbox.cif.g09.slc.cpg/sg13_24_cif.got.tgz:47135.got - 2010.06.28 04:50:58.
