data_PCOD8120986
_publ_section_title
;
Structure prediction by ZEFSAII (Michael W. Deem and Ramdas Pophale) SiO2 
 PCOD8120986
Probable space group: P 2/C
;
_chemical_formula_sum "Si O2"
_cell_formula_units_Z 26
_cell_length_a 14.817514
_cell_length_b 10.015584
_cell_length_c 13.148908
_cell_angle_alpha 90.000000
_cell_angle_beta 42.869474
_cell_angle_gamma 90.000000
_cell_volume 1327.581662
_symmetry_space_group_name_H-M "P 2/C"
_symmetry_group_IT_number 13
_symmetry_cell_setting 'monoclinic'
loop_
_space_group_symop_operation_xyz
x,y,z
-x,y,1/2-z
-x,-y,-z
x,-y,1/2+z
loop_
_atom_site_type_symbol
_atom_site_label
_atom_site_fract_x
_atom_site_fract_y
_atom_site_fract_z
Si Si1 0.181810 0.032233 0.673469
Si Si2 0.147860 0.637042 0.863000
Si Si3 0.260244 0.270887 0.072524
Si Si4 0.279057 0.884695 0.288671
Si Si5 0.895797 0.105776 0.972855
Si Si6 0.500000 0.804593 0.250000
Si Si7 0.137529 0.377065 0.983518
O O1 0.296939 0.094753 0.651506
O O2 0.169612 0.123810 0.584150
O O3 0.041080 0.038713 0.848472
O O4 0.212432 0.882717 0.609978
O O5 0.262135 0.678356 0.687445
O O6 0.019295 0.607889 0.900794
O O7 0.104716 0.749441 0.977568
O O8 0.201909 0.510534 0.881611
O O9 0.163537 0.361277 0.082503
O O10 0.405070 0.284474 0.900373
O O11 0.414953 0.893521 0.240818
O O12 0.201981 0.747886 0.372431
O O13 0.192650 0.011974 0.385946
#
# Coordination Sequence:
#
# PCOD8120986 Si02
#       7
#     4   4   4   4   4   2   4
#     4  11  21  34  65  89 126 156 197 259 312 366
#     4  11  22  38  61  94 128 156 195 261 315 369
#     4  11  22  40  61  87 119 170 203 253 306 360
#     4  11  20  40  59  88 121 164 209 252 297 370
#     4  11  21  35  61  98 121 154 201 247 321 380
#     4  10  24  40  62  90 118 168 224 244 296 370
#     4  10  22  38  60  91 127 154 202 250 314 385
#
# _framework density 19.584482000000001
#
# number of rings (size 3 to 8) (size 9 to 14) (size 15 to 20)
#    0.000    1.231    6.154    1.846    2.154    1.846 
#    2.769    3.077    0.000    3.692    0.000    0.000 
#    0.000    0.000    0.000    0.000    0.000    0.000 
#
# Total GULP energy -322253.762777 kJ/mol
# GULP energy per Si atom -12394.375491 kJ/mol
# Density = 1.953991 g / cm^3
# Si number density = 19.584482 Si / 1000 Ang^3
#
#
#
# Elastic Constant Matrix: (Units=GPa)
#
#
# Indices 1 2 3 4 5 6 
#
# 1 127.9005 20.6039 27.0093 0.0000 11.7727 0.0000
# 2 20.6039 59.4596 12.4994 0.0000 -3.6546 0.0000
# 3 27.0093 12.4994 82.1783 0.0000 10.0940 0.0000
# 4 0.0000 0.0000 0.0000 18.8591 0.0000 13.3330
# 5 11.7727 -3.6546 10.0940 0.0000 19.4438 0.0000
# 6 0.0000 0.0000 0.0000 13.3330 0.0000 29.6935
#
#
#
# Elastic Compliance Matrix: (Units=1/GPa)
#
#
# Indices 1 2 3 4 5 6 
#
# 1 0.009198 -0.003101 -0.001918 0.000000 -0.005156 0.000000
# 2 -0.003101 0.018877 -0.002690 0.000000 0.006822 0.000000
# 3 -0.001918 -0.002690 0.014022 0.000000 -0.006624 0.000000
# 4 0.000000 0.000000 0.000000 0.077686 0.000000 -0.034883
# 5 -0.005156 0.006822 -0.006624 0.000000 0.059273 0.000000
# 6 0.000000 0.000000 0.000000 -0.034883 0.000000 0.049340
#
#
# Mechanical properties :
#
#
# Convention : Reuss Voigt Hill
#
# Bulk Modulus (GPa) = 37.48270 43.30708 40.39489
# Shear Modulus (GPa) = 19.78573 27.56099 23.67336
#
# Velocity S-wave (km/s) = 3.18193 3.75545 3.48053
# Velocity P-wave (km/s) = 5.71665 6.40043 6.06818
#
# Compressibility (1/GPa) = 0.02667897
#
# Stress axis : x y z
#
# Youngs Moduli (GPa) = 108.72235 52.97313 71.31758
#
# Poissons Ratio (x) = 0.16426 0.13679
# Poissons Ratio (y) = 0.33714 0.19185
# Poissons Ratio (z) = 0.20853 0.14250
#
# Static dielectric constant tensor:
#      x y z
#    x 3.951990 0.000000 0.241860 
#    y 0.000000 3.431020 0.000000 
#    z 0.241860 0.000000 3.564480 
# 
# 
# High freq. dielectric constant tensor:
#      x y z
#    x 1.772820 0.000000 0.026970 
#    y 0.000000 1.742180 0.000000 
#    z 0.026970 0.000000 1.749900 
# 
# From -- ./inp_files/53324.got.cif
#   From: 2010.06.25/outbox.cif.g09.slc.cpg/sg13_27_cif.got.tgz:53324.got - 2010.06.28 04:50:58.
