data_PCOD8120029
_publ_section_title
;
Structure prediction by ZEFSAII (Michael W. Deem and Ramdas Pophale) SiO2 
 PCOD8120029
Probable space group: P 2/C
;
_chemical_formula_sum "Si O2"
_cell_formula_units_Z 28
_cell_length_a 16.485984
_cell_length_b 7.338063
_cell_length_c 12.348120
_cell_angle_alpha 90.000000
_cell_angle_beta 67.435229
_cell_angle_gamma 90.000000
_cell_volume 1379.459046
_symmetry_space_group_name_H-M "P 2/C"
_symmetry_group_IT_number 13
_symmetry_cell_setting 'monoclinic'
loop_
_space_group_symop_operation_xyz
x,y,z
-x,y,1/2-z
-x,-y,-z
x,-y,1/2+z
loop_
_atom_site_type_symbol
_atom_site_label
_atom_site_fract_x
_atom_site_fract_y
_atom_site_fract_z
Si Si1 0.644282 0.752788 0.329534
Si Si2 0.293770 0.108253 0.101469
Si Si3 0.500000 0.624235 0.250000
Si Si4 0.355554 0.467899 0.978329
Si Si5 0.793770 0.608253 0.101469
Si Si6 0.855553 0.967898 0.978328
Si Si7 0.000000 0.124235 0.250000
Si Si8 0.855718 0.747212 0.670465
O O1 0.560153 0.750012 0.295059
O O2 0.634861 0.608267 0.430005
O O3 0.732545 0.711272 0.218745
O O4 0.646869 0.956945 0.372705
O O5 0.236476 0.007368 0.037936
O O6 0.232545 0.211272 0.218745
O O7 0.359316 0.258699 0.018214
O O8 0.562745 0.497035 0.144363
O O9 0.263525 0.492633 0.962064
O O10 0.853131 0.456945 0.127294
O O11 0.859316 0.758699 0.018214
O O12 0.937255 0.002965 0.855636
O O13 0.865139 0.108266 0.069995
O O14 0.939847 0.250012 0.204940
#
# Coordination Sequence:
#
# PCOD8120029 Si02
#       8
#     4   4   2   4   4   4   2   4
#     4  11  20  40  61  88 117 154 193 241 289 340
#     4  10  21  36  65  88 112 153 200 240 281 343
#     4  10  24  38  58  88 126 150 188 242 294 344
#     4  10  21  40  59  88 118 151 196 239 286 348
#     4  10  21  36  65  88 112 153 200 240 281 343
#     4  10  21  40  59  88 118 151 196 239 286 348
#     4  10  24  38  58  88 126 150 188 242 294 344
#     4  11  20  40  61  88 117 154 193 241 289 340
#
# _framework density 20.297813000000001
#
# number of rings (size 3 to 8) (size 9 to 14) (size 15 to 20)
#    0.000    1.714    2.857    1.714    0.000    1.143 
#    0.000    2.857    0.000    0.000    0.000    0.000 
#    0.000    0.000    0.000    0.000    0.000    0.000 
#
# Total GULP energy -347277.970162 kJ/mol
# GULP energy per Si atom -12402.784649 kJ/mol
# Density = 2.025161 g / cm^3
# Si number density = 20.297813 Si / 1000 Ang^3
#
#
#
# Elastic Constant Matrix: (Units=GPa)
#
#
# Indices 1 2 3 4 5 6 
#
# 1 70.8342 32.2744 32.9765 0.0000 12.5326 0.0000
# 2 32.2744 64.7095 22.3098 0.0000 12.8115 0.0000
# 3 32.9765 22.3098 108.6953 0.0000 6.1620 0.0000
# 4 0.0000 0.0000 0.0000 17.9045 0.0000 8.5091
# 5 12.5326 12.8115 6.1620 0.0000 34.0215 0.0000
# 6 0.0000 0.0000 0.0000 8.5091 0.0000 20.2844
#
#
#
# Elastic Compliance Matrix: (Units=1/GPa)
#
#
# Indices 1 2 3 4 5 6 
#
# 1 0.020427 -0.007946 -0.004354 0.000000 -0.003744 0.000000
# 2 -0.007946 0.020894 -0.001614 0.000000 -0.004649 0.000000
# 3 -0.004354 -0.001614 0.010838 0.000000 0.000249 0.000000
# 4 0.000000 0.000000 0.000000 0.069759 0.000000 -0.029263
# 5 -0.003744 -0.004649 0.000249 0.000000 0.032478 0.000000
# 6 0.000000 0.000000 0.000000 -0.029263 0.000000 0.061575
#
#
# Mechanical properties :
#
#
# Convention : Reuss Voigt Hill
#
# Bulk Modulus (GPa) = 41.10050 46.59559 43.84805
# Shear Modulus (GPa) = 19.84839 24.88729 22.36784
#
# Velocity S-wave (km/s) = 3.13047 3.50538 3.32321
# Velocity P-wave (km/s) = 5.77573 6.27610 6.03111
#
# Compressibility (1/GPa) = 0.02433060
#
# Stress axis : x y z
#
# Youngs Moduli (GPa) = 48.95394 47.86153 92.26583
#
# Poissons Ratio (x) = 0.38030 0.40174
# Poissons Ratio (y) = 0.38898 0.14894
# Poissons Ratio (z) = 0.21316 0.07726
#
# Static dielectric constant tensor:
#      x y z
#    x 3.674620 0.000000 0.159710 
#    y 0.000000 3.392890 0.000000 
#    z 0.159710 0.000000 4.007180 
# 
# 
# High freq. dielectric constant tensor:
#      x y z
#    x 1.791550 0.000000 0.013330 
#    y 0.000000 1.769760 0.000000 
#    z 0.013330 0.000000 1.813470 
# 
# From -- ./inp_files/54629.got.cif
#   From: 2010.06.25/outbox.cif.g09.slc.cpg/sg13_28_cif.got.tgz:54629.got - 2010.06.28 04:50:58.
