data_PCOD8120318
_publ_section_title
;
Structure prediction by ZEFSAII (Michael W. Deem and Ramdas Pophale) SiO2 
 PCOD8120318
Probable space group: P 2/C
;
_chemical_formula_sum "Si O2"
_cell_formula_units_Z 22
_cell_length_a 10.255005
_cell_length_b 13.913779
_cell_length_c 15.578665
_cell_angle_alpha 90.000000
_cell_angle_beta 26.860087
_cell_angle_gamma 90.000000
_cell_volume 1004.315779
_symmetry_space_group_name_H-M "P 2/C"
_symmetry_group_IT_number 13
_symmetry_cell_setting 'monoclinic'
loop_
_space_group_symop_operation_xyz
x,y,z
-x,y,1/2-z
-x,-y,-z
x,-y,1/2+z
loop_
_atom_site_type_symbol
_atom_site_label
_atom_site_fract_x
_atom_site_fract_y
_atom_site_fract_z
Si Si1 0.889490 0.649508 0.101561
Si Si2 0.265335 0.700472 0.031187
Si Si3 0.500000 0.806192 0.250000
Si Si4 0.646116 0.458087 0.257370
Si Si5 0.926731 0.933762 0.887569
Si Si6 0.494203 0.101275 0.355653
O O1 0.698401 0.739513 0.190714
O O2 0.699598 0.566613 0.261464
O O3 0.143904 0.695230 0.006977
O O4 0.043348 0.596594 0.930667
O O5 0.000000 0.705593 0.250000
O O6 0.453211 0.603790 0.937187
O O7 0.462623 0.795239 0.920191
O O8 0.310209 0.869586 0.425310
O O9 0.500000 0.467224 0.250000
O O10 0.000000 0.890912 0.750000
O O11 0.210769 0.944482 0.780197
O O12 0.782359 0.037594 0.956490
O O13 0.500000 0.110063 0.250000
#
# Coordination Sequence:
#
# PCOD8120318 Si02
#       6
#     4   4   2   4   4   4
#     4  10  21  38  67  89 125 174 223 275 327 409
#     4  11  24  38  64  95 133 172 218 278 339 399
#     4  12  24  42  68  98 134 176 226 274 350 398
#     4   9  18  40  61  91 120 171 226 268 331 398
#     4  12  28  45  72 102 139 176 231 288 342 407
#     4  12  25  48  71  99 135 183 229 280 345 414
#
# _framework density 21.905460999999999
#
# number of rings (size 3 to 8) (size 9 to 14) (size 15 to 20)
#    0.000    1.091    1.818    5.455    5.091    0.727 
#    0.000    0.909    0.000    0.000    0.000    0.000 
#    0.000    0.000    0.000    0.000    0.000    0.000 
#
# Total GULP energy -272731.130691 kJ/mol
# GULP energy per Si atom -12396.869577 kJ/mol
# Density = 2.185560 g / cm^3
# Si number density = 21.905461 Si / 1000 Ang^3
#
#
#
# Elastic Constant Matrix: (Units=GPa)
#
#
# Indices 1 2 3 4 5 6 
#
# 1 62.6309 17.9682 38.7373 0.0000 -4.3510 0.0000
# 2 17.9682 109.2322 40.8121 0.0000 1.9815 0.0000
# 3 38.7373 40.8121 119.4727 0.0000 6.8881 0.0000
# 4 0.0000 0.0000 0.0000 35.4921 0.0000 -9.8700
# 5 -4.3510 1.9815 6.8881 0.0000 39.0195 0.0000
# 6 0.0000 0.0000 0.0000 -9.8700 0.0000 16.0464
#
#
#
# Elastic Compliance Matrix: (Units=1/GPa)
#
#
# Indices 1 2 3 4 5 6 
#
# 1 0.020526 -0.001006 -0.006513 0.000000 0.003490 0.000000
# 2 -0.001006 0.010544 -0.003271 0.000000 -0.000070 0.000000
# 3 -0.006513 -0.003271 0.011751 0.000000 -0.002634 0.000000
# 4 0.000000 0.000000 0.000000 0.033989 0.000000 0.020906
# 5 0.003490 -0.000070 -0.002634 0.000000 0.026486 0.000000
# 6 0.000000 0.000000 0.000000 0.020906 0.000000 0.075179
#
#
# Mechanical properties :
#
#
# Convention : Reuss Voigt Hill
#
# Bulk Modulus (GPa) = 47.08116 54.04122 50.56119
# Shear Modulus (GPa) = 24.13878 31.03279 27.58579
#
# Velocity S-wave (km/s) = 3.32317 3.76795 3.55253
# Velocity P-wave (km/s) = 6.02197 6.60709 6.32131
#
# Compressibility (1/GPa) = 0.02123992
#
# Stress axis : x y z
#
# Youngs Moduli (GPa) = 48.71928 94.84121 85.09808
#
# Poissons Ratio (x) = 0.09545 0.55421
# Poissons Ratio (y) = 0.04903 0.27840
# Poissons Ratio (z) = 0.31729 0.31027
#
# Static dielectric constant tensor:
#      x y z
#    x 3.883860 0.000000 -0.300830 
#    y 0.000000 4.314790 0.000000 
#    z -0.300830 0.000000 4.815740 
# 
# 
# High freq. dielectric constant tensor:
#      x y z
#    x 1.831690 0.000000 -0.019900 
#    y 0.000000 1.876960 0.000000 
#    z -0.019900 0.000000 1.873770 
# 
# From -- ./inp_files/66833.got.cif
#   From: 2010.06.25/outbox.cif.g09.slc.cpg/sg13_34_cif.got.tgz:66833.got - 2010.06.28 04:50:58.
