data_PCOD8120533
_publ_section_title
;
Structure prediction by ZEFSAII (Michael W. Deem and Ramdas Pophale) SiO2 
 PCOD8120533
Probable space group: P 2/C
;
_chemical_formula_sum "Si O2"
_cell_formula_units_Z 32
_cell_length_a 17.952859
_cell_length_b 12.016458
_cell_length_c 14.410556
_cell_angle_alpha 90.000000
_cell_angle_beta 28.752248
_cell_angle_gamma 90.000000
_cell_volume 1495.398097
_symmetry_space_group_name_H-M "P 2/C"
_symmetry_group_IT_number 13
_symmetry_cell_setting 'monoclinic'
loop_
_space_group_symop_operation_xyz
x,y,z
-x,y,1/2-z
-x,-y,-z
x,-y,1/2+z
loop_
_atom_site_type_symbol
_atom_site_label
_atom_site_fract_x
_atom_site_fract_y
_atom_site_fract_z
Si Si1 0.828606 0.891893 0.144807
Si Si2 0.354487 0.706082 0.666905
Si Si3 0.815826 0.599480 0.368204
Si Si4 0.664670 0.197141 0.113975
Si Si5 0.836350 0.479603 0.038564
Si Si6 0.825462 0.970758 0.943502
Si Si7 0.302520 0.656579 0.191968
Si Si8 0.815225 0.114455 0.259920
O O1 0.743346 0.783771 0.276657
O O2 0.760408 0.996183 0.277078
O O3 0.791195 0.908897 0.077154
O O4 0.009400 0.870528 0.967011
O O5 0.350831 0.783690 0.760316
O O6 0.248545 0.598773 0.795159
O O7 0.523366 0.656469 0.460120
O O8 0.291999 0.782734 0.652213
O O9 0.800808 0.726756 0.421072
O O10 0.762449 0.524267 0.515002
O O11 0.710312 0.587847 0.391413
O O12 0.988482 0.563109 0.153938
O O13 0.500000 0.227840 0.250000
O O14 0.706388 0.069394 0.054253
O O15 0.812716 0.603814 0.104654
O O16 0.804521 0.883421 0.883003
O O17 0.000000 0.019344 0.750000
#
# Coordination Sequence:
#
# PCOD8120533 Si02
#       8
#     4   4   4   4   4   4   4   4
#     4  10  22  40  64  94 129 168 212 264 310 389
#     4  11  23  39  64  92 131 166 211 268 319 389
#     4  10  22  41  66  94 118 170 215 269 315 370
#     4  11  21  37  61  97 129 165 211 271 320 383
#     4  10  24  42  64  95 121 167 220 266 316 379
#     4  10  22  38  62  95 130 169 212 263 319 385
#     4  12  23  42  65  93 131 168 215 264 325 381
#     4  10  21  40  63  95 128 168 212 258 325 373
#
# _framework density 21.398985
#
# number of rings (size 3 to 8) (size 9 to 14) (size 15 to 20)
#    0.000    1.500    2.500    2.250    3.500    1.500 
#    9.000    0.000    0.000    0.000    0.000    0.000 
#    0.000    0.000    0.000    0.000    0.000    0.000 
#
# Total GULP energy -396755.275879 kJ/mol
# GULP energy per Si atom -12398.602371 kJ/mol
# Density = 2.135028 g / cm^3
# Si number density = 21.398985 Si / 1000 Ang^3
#
#
#
# Elastic Constant Matrix: (Units=GPa)
#
#
# Indices 1 2 3 4 5 6 
#
# 1 119.4527 30.2647 30.8557 0.0000 9.9528 0.0000
# 2 30.2647 76.2264 39.0973 0.0000 -5.8953 0.0000
# 3 30.8557 39.0973 84.8627 0.0000 -7.6355 0.0000
# 4 0.0000 0.0000 0.0000 18.0187 0.0000 0.6270
# 5 9.9528 -5.8953 -7.6355 0.0000 28.8452 0.0000
# 6 0.0000 0.0000 0.0000 0.6270 0.0000 17.6539
#
#
#
# Elastic Compliance Matrix: (Units=1/GPa)
#
#
# Indices 1 2 3 4 5 6 
#
# 1 0.010264 -0.003030 -0.002777 0.000000 -0.004896 0.000000
# 2 -0.003030 0.018132 -0.006991 0.000000 0.002901 0.000000
# 3 -0.002777 -0.006991 0.016362 0.000000 0.003860 0.000000
# 4 0.000000 0.000000 0.000000 0.055567 0.000000 -0.001973
# 5 -0.004896 0.002901 0.003860 0.000000 0.037972 0.000000
# 6 0.000000 0.000000 0.000000 -0.001973 0.000000 0.056715
#
#
# Mechanical properties :
#
#
# Convention : Reuss Voigt Hill
#
# Bulk Modulus (GPa) = 52.18459 53.44191 52.81325
# Shear Modulus (GPa) = 22.02709 24.92516 23.47612
#
# Velocity S-wave (km/s) = 3.21183 3.41659 3.31579
# Velocity P-wave (km/s) = 6.18012 6.37122 6.27640
#
# Compressibility (1/GPa) = 0.01916274
#
# Stress axis : x y z
#
# Youngs Moduli (GPa) = 97.42499 55.15176 61.11906
#
# Poissons Ratio (x) = 0.16710 0.16971
# Poissons Ratio (y) = 0.29517 0.42728
# Poissons Ratio (z) = 0.27052 0.38556
#
# Static dielectric constant tensor:
#      x y z
#    x 4.053060 0.000000 0.069690 
#    y 0.000000 3.643920 0.000000 
#    z 0.069690 0.000000 3.795560 
# 
# 
# High freq. dielectric constant tensor:
#      x y z
#    x 1.848630 0.000000 0.007950 
#    y 0.000000 1.823980 0.000000 
#    z 0.007950 0.000000 1.830750 
# 
# From -- ./inp_files/55793.got.cif
#   From: 2010.06.25/outbox.cif.g09.slc.cpg/sg13_28_cif.got.tgz:55793.got - 2010.06.28 04:50:58.
