data_PCOD8120054
_publ_section_title
;
Structure prediction by ZEFSAII (Michael W. Deem and Ramdas Pophale) SiO2 
 PCOD8120054
Probable space group: P 2/C
;
_chemical_formula_sum "Si O2"
_cell_formula_units_Z 20
_cell_length_a 9.811449
_cell_length_b 12.146356
_cell_length_c 13.833755
_cell_angle_alpha 90.000000
_cell_angle_beta 137.855912
_cell_angle_gamma 90.000000
_cell_volume 1106.216280
_symmetry_space_group_name_H-M "P 2/C"
_symmetry_group_IT_number 13
_symmetry_cell_setting 'monoclinic'
loop_
_space_group_symop_operation_xyz
x,y,z
-x,y,1/2-z
-x,-y,-z
x,-y,1/2+z
loop_
_atom_site_type_symbol
_atom_site_label
_atom_site_fract_x
_atom_site_fract_y
_atom_site_fract_z
Si Si1 0.447718 0.561194 0.611061
Si Si2 0.768540 0.386600 0.123155
Si Si3 0.219616 0.237962 0.908367
Si Si4 0.401753 0.839461 0.980301
Si Si5 0.572069 0.049749 0.395901
O O1 0.500000 0.553046 0.750000
O O2 0.346637 0.446898 0.525056
O O3 0.657731 0.583860 0.665228
O O4 0.286032 0.658176 0.507408
O O5 0.000000 0.427192 0.250000
O O6 0.768687 0.254808 0.104575
O O7 0.377747 0.222157 0.901922
O O8 0.000000 0.258462 0.750000
O O9 0.230629 0.127918 0.981571
O O10 0.372934 0.922221 0.055065
O O11 0.391529 0.910261 0.874258
O O12 0.500000 0.064980 0.250000
#
# Coordination Sequence:
#
# PCOD8120054 Si02
#       5
#     4   4   4   4   4
#     4  10  21  37  57  80 112 143 180 222 267 323
#     4  10  21  37  58  80 109 146 178 224 273 315
#     4   9  17  32  54  76 104 139 180 218 265 316
#     4   8  19  34  52  74 111 137 171 230 268 311
#     4   9  17  34  55  73 104 143 179 219 269 315
#
# _framework density 18.079647000000001
#
# number of rings (size 3 to 8) (size 9 to 14) (size 15 to 20)
#    1.200    1.600    0.000    1.200    0.000    2.400 
#    0.000    3.000    0.000    0.000    0.000    0.000 
#    0.000    0.000    0.000    0.000    0.000    0.000 
#
# Total GULP energy -247822.162088 kJ/mol
# GULP energy per Si atom -12391.108104 kJ/mol
# Density = 1.803850 g / cm^3
# Si number density = 18.079647 Si / 1000 Ang^3
#
#
#
# Elastic Constant Matrix: (Units=GPa)
#
#
# Indices 1 2 3 4 5 6 
#
# 1 60.2940 31.4291 66.2919 0.0000 0.2597 0.0000
# 2 31.4291 119.0839 49.5794 0.0000 -10.1051 0.0000
# 3 66.2919 49.5794 133.6631 0.0000 -11.6230 0.0000
# 4 0.0000 0.0000 0.0000 17.3842 0.0000 -1.9394
# 5 0.2597 -10.1051 -11.6230 0.0000 27.7908 0.0000
# 6 0.0000 0.0000 0.0000 -1.9394 0.0000 12.8740
#
#
#
# Elastic Compliance Matrix: (Units=1/GPa)
#
#
# Indices 1 2 3 4 5 6 
#
# 1 0.039380 -0.003225 -0.019166 0.000000 -0.009556 0.000000
# 2 -0.003225 0.010320 -0.001972 0.000000 0.002958 0.000000
# 3 -0.019166 -0.001972 0.018338 0.000000 0.007132 0.000000
# 4 0.000000 0.000000 0.000000 0.058507 0.000000 0.008814
# 5 -0.009556 0.002958 0.007132 0.000000 0.040131 0.000000
# 6 0.000000 0.000000 0.000000 0.008814 0.000000 0.079003
#
#
# Mechanical properties :
#
#
# Convention : Reuss Voigt Hill
#
# Bulk Modulus (GPa) = 51.77428 67.51577 59.64503
# Shear Modulus (GPa) = 16.62003 22.65918 19.63961
#
# Velocity S-wave (km/s) = 3.03523 3.54404 3.29946
# Velocity P-wave (km/s) = 6.40175 7.36013 6.89761
#
# Compressibility (1/GPa) = 0.01931461
#
# Stress axis : x y z
#
# Youngs Moduli (GPa) = 25.39372 96.89561 54.53019
#
# Poissons Ratio (x) = 0.31246 1.04511
# Poissons Ratio (y) = 0.08189 0.10751
# Poissons Ratio (z) = 0.48669 0.19103
#
# Static dielectric constant tensor:
#      x y z
#    x 3.028950 0.000000 -0.008080 
#    y 0.000000 3.522700 0.000000 
#    z -0.008080 0.000000 2.966760 
# 
# 
# High freq. dielectric constant tensor:
#      x y z
#    x 1.666460 0.000000 -0.001450 
#    y 0.000000 1.721220 0.000000 
#    z -0.001450 0.000000 1.676920 
# 
# From -- ./inp_files/50671.got.cif
#   From: 2010.06.25/outbox.cif.g09.slc.cpg/sg13_26_cif.got.tgz:50671.got - 2010.06.28 04:50:58.
