data_PCOD8120797
_publ_section_title
;
Structure prediction by ZEFSAII (Michael W. Deem and Ramdas Pophale) SiO2 
 PCOD8120797
Probable space group: P 2/C
;
_chemical_formula_sum "Si O2"
_cell_formula_units_Z 26
_cell_length_a 22.633987
_cell_length_b 5.496558
_cell_length_c 10.910840
_cell_angle_alpha 90.000000
_cell_angle_beta 136.268414
_cell_angle_gamma 90.000000
_cell_volume 938.349439
_symmetry_space_group_name_H-M "P 2/C"
_symmetry_group_IT_number 13
_symmetry_cell_setting 'monoclinic'
loop_
_space_group_symop_operation_xyz
x,y,z
-x,y,1/2-z
-x,-y,-z
x,-y,1/2+z
loop_
_atom_site_type_symbol
_atom_site_label
_atom_site_fract_x
_atom_site_fract_y
_atom_site_fract_z
Si Si1 0.846358 0.193370 0.498636
Si Si2 0.000000 0.494294 0.750000
Si Si3 0.445815 0.961622 0.293680
Si Si4 0.254737 0.830503 0.432533
Si Si5 0.070315 0.159675 0.537866
Si Si6 0.710474 0.335646 0.124646
Si Si7 0.596744 0.461718 0.185817
O O1 0.760889 0.122718 0.446643
O O2 0.807967 0.327001 0.320033
O O3 0.915627 0.357007 0.672310
O O4 0.900610 0.958003 0.547187
O O5 0.023327 0.604313 0.916783
O O6 0.500000 0.936676 0.250000
O O7 0.390598 0.216079 0.207450
O O8 0.500000 0.000000 0.500000
O O9 0.385548 0.717255 0.213519
O O10 0.294815 0.556155 0.481662
O O11 0.309926 0.056859 0.455938
O O12 0.157588 0.813049 0.241962
O O13 0.000000 0.000000 0.500000
O O14 0.647900 0.423429 0.138416
O O15 0.500000 0.500000 0.000000
#
# Coordination Sequence:
#
# PCOD8120797 Si02
#       7
#     4   2   4   4   4   4   4
#     4  11  26  42  64 104 132 185 234 288 350 420
#     4  12  22  40  70  90 134 176 240 276 356 404
#     4  10  21  42  72 105 143 179 234 291 355 423
#     4  11  25  44  69  97 143 182 228 288 353 409
#     4  11  24  41  66  96 135 181 234 288 343 420
#     4  11  25  48  68 101 142 184 232 288 353 417
#     4  10  22  45  73 103 140 182 239 288 353 428
#
# _framework density 27.708227000000001
#
# number of rings (size 3 to 8) (size 9 to 14) (size 15 to 20)
#    0.000    1.231    1.538    3.692    6.462    1.231 
#   16.615    0.000    0.000    0.000    0.000    0.000 
#    0.000    0.000    0.000    0.000    0.000    0.000 
#
# Total GULP energy -322103.615391 kJ/mol
# GULP energy per Si atom -12388.600592 kJ/mol
# Density = 2.764516 g / cm^3
# Si number density = 27.708227 Si / 1000 Ang^3
#
#
#
# Elastic Constant Matrix: (Units=GPa)
#
#
# Indices 1 2 3 4 5 6 
#
# 1 174.4516 80.4543 4.1146 0.0000 -25.0504 0.0000
# 2 80.4543 214.2720 64.6318 0.0000 3.3377 0.0000
# 3 4.1146 64.6318 75.5503 0.0000 12.4291 0.0000
# 4 0.0000 0.0000 0.0000 64.5253 0.0000 5.1510
# 5 -25.0504 3.3377 12.4291 0.0000 46.0872 0.0000
# 6 0.0000 0.0000 0.0000 5.1510 0.0000 46.3200
#
#
#
# Elastic Compliance Matrix: (Units=1/GPa)
#
#
# Indices 1 2 3 4 5 6 
#
# 1 0.007954 -0.003664 0.002037 0.000000 0.004039 0.000000
# 2 -0.003664 0.008026 -0.006533 0.000000 -0.000811 0.000000
# 3 0.002037 -0.006533 0.019311 0.000000 -0.003628 0.000000
# 4 0.000000 0.000000 0.000000 0.015637 0.000000 -0.001739
# 5 0.004039 -0.000811 -0.003628 0.000000 0.024931 0.000000
# 6 0.000000 0.000000 0.000000 -0.001739 0.000000 0.021782
#
#
# Mechanical properties :
#
#
# Convention : Reuss Voigt Hill
#
# Bulk Modulus (GPa) = 52.71397 84.74169 68.72783
# Shear Modulus (GPa) = 41.56821 52.39137 46.97979
#
# Velocity S-wave (km/s) = 3.87746 4.35308 4.12213
# Velocity P-wave (km/s) = 6.25398 7.47768 6.89304
#
# Compressibility (1/GPa) = 0.01897030
#
# Stress axis : x y z
#
# Youngs Moduli (GPa) = 125.72445 124.59787 51.78393
#
# Poissons Ratio (x) = 0.45649 -0.10546
# Poissons Ratio (y) = 0.46062 0.33831
# Poissons Ratio (z) = -0.25604 0.81400
#
# Static dielectric constant tensor:
#      x y z
#    x 5.315220 0.000000 0.386860 
#    y 0.000000 6.138800 0.000000 
#    z 0.386860 0.000000 6.228590 
# 
# 
# High freq. dielectric constant tensor:
#      x y z
#    x 2.115010 0.000000 0.019450 
#    y 0.000000 2.135810 0.000000 
#    z 0.019450 0.000000 2.186200 
# 
# From -- ./inp_files/38197.got.cif
#   From: 2010.06.25/outbox.cif.g09.slc.cpg/sg13_20_cif.got.tgz:38197.got - 2010.06.28 04:50:58.
