data_PCOD8120095
_publ_section_title
;
Structure prediction by ZEFSAII (Michael W. Deem and Ramdas Pophale) SiO2 
 PCOD8120095
Probable space group: P 2/C
;
_chemical_formula_sum "Si O2"
_cell_formula_units_Z 28
_cell_length_a 9.217118
_cell_length_b 11.956812
_cell_length_c 15.989842
_cell_angle_alpha 90.000000
_cell_angle_beta 123.167370
_cell_angle_gamma 90.000000
_cell_volume 1475.093737
_symmetry_space_group_name_H-M "P 2/C"
_symmetry_group_IT_number 13
_symmetry_cell_setting 'monoclinic'
loop_
_space_group_symop_operation_xyz
x,y,z
-x,y,1/2-z
-x,-y,-z
x,-y,1/2+z
loop_
_atom_site_type_symbol
_atom_site_label
_atom_site_fract_x
_atom_site_fract_y
_atom_site_fract_z
Si Si1 0.686889 0.222097 0.644924
Si Si2 0.084853 0.379931 0.019696
Si Si3 0.926679 0.348383 0.137370
Si Si4 0.088710 0.035241 0.858557
Si Si5 0.305762 0.841506 0.004190
Si Si6 0.313697 0.555764 0.452983
Si Si7 0.151577 0.807929 0.131158
O O1 0.837480 0.152991 0.649122
O O2 0.511244 0.162187 0.559781
O O3 0.696610 0.349263 0.619316
O O4 0.715977 0.223864 0.753367
O O5 0.275253 0.394354 0.035399
O O6 0.975850 0.296052 0.926929
O O7 0.000000 0.500000 0.000000
O O8 0.080100 0.335863 0.114930
O O9 0.842738 0.470899 0.114996
O O10 0.000000 0.315317 0.250000
O O11 0.773189 0.263154 0.069166
O O12 0.000000 0.974359 0.750000
O O13 0.948018 0.074815 0.882388
O O14 0.232708 0.956294 0.943645
O O15 0.269828 0.834102 0.090193
O O16 0.500000 0.500000 0.500000
#
# Coordination Sequence:
#
# PCOD8120095 Si02
#       7
#     4   4   4   4   4   4   4
#     4  11  22  36  59  88 117 149 194 239 293 336
#     4   9  20  36  58  83 116 148 189 237 282 342
#     4  10  22  37  58  83 113 159 192 232 285 347
#     4  10  21  37  62  85 109 152 197 237 287 352
#     4  11  21  39  56  85 121 149 192 241 294 335
#     4  11  21  38  58  85 119 150 191 239 293 342
#     4  10  21  37  59  89 112 151 198 239 281 348
#
# _framework density 18.981845
#
# number of rings (size 3 to 8) (size 9 to 14) (size 15 to 20)
#    0.000    1.714    2.857    1.714    4.000    0.000 
#    0.000    0.714    0.000    0.000    0.000    0.000 
#    0.000    0.000    0.000    0.000    0.000    0.000 
#
# Total GULP energy -347034.876008 kJ/mol
# GULP energy per Si atom -12394.102715 kJ/mol
# Density = 1.893864 g / cm^3
# Si number density = 18.981845 Si / 1000 Ang^3
#
#
#
# Elastic Constant Matrix: (Units=GPa)
#
#
# Indices 1 2 3 4 5 6 
#
# 1 87.2310 10.5153 45.0633 0.0000 1.0538 0.0000
# 2 10.5153 87.5215 41.5400 0.0000 -0.8335 0.0000
# 3 45.0633 41.5400 130.0124 0.0000 -11.7849 0.0000
# 4 0.0000 0.0000 0.0000 16.9884 0.0000 -0.7313
# 5 1.0538 -0.8335 -11.7849 0.0000 21.7338 0.0000
# 6 0.0000 0.0000 0.0000 -0.7313 0.0000 21.1765
#
#
#
# Elastic Compliance Matrix: (Units=1/GPa)
#
#
# Indices 1 2 3 4 5 6 
#
# 1 0.014276 0.000892 -0.005566 0.000000 -0.003676 0.000000
# 2 0.000892 0.013600 -0.004849 0.000000 -0.002151 0.000000
# 3 -0.005566 -0.004849 0.011756 0.000000 0.006458 0.000000
# 4 0.000000 0.000000 0.000000 0.058951 0.000000 0.002036
# 5 -0.003676 -0.002151 0.006458 0.000000 0.049609 0.000000
# 6 0.000000 0.000000 0.000000 0.002036 0.000000 0.047292
#
#
# Mechanical properties :
#
#
# Convention : Reuss Voigt Hill
#
# Bulk Modulus (GPa) = 48.58185 55.44467 52.01326
# Shear Modulus (GPa) = 22.58420 25.82285 24.20353
#
# Velocity S-wave (km/s) = 3.45306 3.69236 3.57471
# Velocity P-wave (km/s) = 6.44574 6.88845 6.67077
#
# Compressibility (1/GPa) = 0.02058382
#
# Stress axis : x y z
#
# Youngs Moduli (GPa) = 70.04587 73.53085 85.06472
#
# Poissons Ratio (x) = -0.06557 0.47351
# Poissons Ratio (y) = -0.06246 0.41250
# Poissons Ratio (z) = 0.38991 0.35657
#
# Static dielectric constant tensor:
#      x y z
#    x 3.705890 0.000000 -0.259780 
#    y 0.000000 3.451400 0.000000 
#    z -0.259780 0.000000 3.567450 
# 
# 
# High freq. dielectric constant tensor:
#      x y z
#    x 1.743220 0.000000 -0.017440 
#    y 0.000000 1.743200 0.000000 
#    z -0.017440 0.000000 1.727080 
# 
# From -- ./inp_files/46958.got.cif
#   From: 2010.06.25/outbox.cif.g09.slc.cpg/sg13_24_cif.got.tgz:46958.got - 2010.06.28 04:50:58.
