data_PCOD8120777
_publ_section_title
;
Structure prediction by ZEFSAII (Michael W. Deem and Ramdas Pophale) SiO2 
 PCOD8120777
Probable space group: P 2/C
;
_chemical_formula_sum "Si O2"
_cell_formula_units_Z 28
_cell_length_a 18.150403
_cell_length_b 5.269618
_cell_length_c 10.707964
_cell_angle_alpha 90.000000
_cell_angle_beta 77.879990
_cell_angle_gamma 90.000000
_cell_volume 1001.341815
_symmetry_space_group_name_H-M "P 2/C"
_symmetry_group_IT_number 13
_symmetry_cell_setting 'monoclinic'
loop_
_space_group_symop_operation_xyz
x,y,z
-x,y,1/2-z
-x,-y,-z
x,-y,1/2+z
loop_
_atom_site_type_symbol
_atom_site_label
_atom_site_fract_x
_atom_site_fract_y
_atom_site_fract_z
Si Si1 0.925736 0.013553 0.945553
Si Si2 0.689108 0.097359 0.875523
Si Si3 0.453974 0.592766 0.895204
Si Si4 0.584462 0.903612 0.179854
Si Si5 0.185298 0.245237 0.837441
Si Si6 0.278790 0.404595 0.012995
Si Si7 0.114622 0.471360 0.172082
O O1 0.851157 0.957361 0.054815
O O2 0.930428 0.790919 0.836419
O O3 0.921319 0.295670 0.892372
O O4 0.000000 0.000000 0.000000
O O5 0.775327 0.098600 0.792235
O O6 0.668644 0.363105 0.954030
O O7 0.632516 0.029342 0.783244
O O8 0.683512 0.871917 0.977367
O O9 0.500000 0.642836 0.750000
O O10 0.416765 0.873153 0.925510
O O11 0.390231 0.372769 0.889433
O O12 0.500000 0.500000 0.000000
O O13 0.500000 0.827602 0.250000
O O14 0.117353 0.434095 0.815909
O O15 0.253028 0.408460 0.876792
O O16 0.202074 0.430257 0.115902
#
# Coordination Sequence:
#
# PCOD8120777 Si02
#       7
#     4   4   4   4   4   4   4
#     4  11  24  42  65  98 131 166 212 262 320 383
#     4  11  23  42  64  94 126 167 223 261 326 391
#     4  10  21  42  68  92 132 175 216 272 338 407
#     4  10  22  43  65  94 130 169 214 276 335 400
#     4  10  22  42  65  93 127 172 212 263 326 373
#     4  10  22  40  64  92 126 167 214 271 313 384
#     4  10  22  41  66  90 133 168 213 262 312 388
#
# _framework density 27.962477
#
# number of rings (size 3 to 8) (size 9 to 14) (size 15 to 20)
#    0.000    1.714    0.000    5.143    0.000   10.857 
#   15.429    2.857    0.000    0.000    0.000    0.000 
#    0.000    0.000    0.000    0.000    0.000    0.000 
#
# Total GULP energy -347116.991151 kJ/mol
# GULP energy per Si atom -12397.035398 kJ/mol
# Density = 2.789883 g / cm^3
# Si number density = 27.962477 Si / 1000 Ang^3
#
#
#
# Elastic Constant Matrix: (Units=GPa)
#
#
# Indices 1 2 3 4 5 6 
#
# 1 93.3110 39.7875 22.7378 0.0000 23.8158 0.0000
# 2 39.7875 218.3596 60.0133 0.0000 25.0349 0.0000
# 3 22.7378 60.0133 126.9638 0.0000 33.4005 0.0000
# 4 0.0000 0.0000 0.0000 52.8079 0.0000 15.0827
# 5 23.8158 25.0349 33.4005 0.0000 53.3013 0.0000
# 6 0.0000 0.0000 0.0000 15.0827 0.0000 34.5785
#
#
#
# Elastic Compliance Matrix: (Units=1/GPa)
#
#
# Indices 1 2 3 4 5 6 
#
# 1 0.012710 -0.001712 -0.000221 0.000000 -0.004736 0.000000
# 2 -0.001712 0.005548 -0.002193 0.000000 -0.000467 0.000000
# 3 -0.000221 -0.002193 0.010364 0.000000 -0.005366 0.000000
# 4 0.000000 0.000000 0.000000 0.021631 0.000000 -0.009435
# 5 -0.004736 -0.000467 -0.005366 0.000000 0.024459 0.000000
# 6 0.000000 0.000000 0.000000 -0.009435 0.000000 0.033035
#
#
# Mechanical properties :
#
#
# Convention : Reuss Voigt Hill
#
# Bulk Modulus (GPa) = 49.09339 75.96795 62.53067
# Shear Modulus (GPa) = 40.72037 49.21059 44.96548
#
# Velocity S-wave (km/s) = 3.82022 4.19964 4.01442
# Velocity P-wave (km/s) = 6.08718 7.12340 6.62558
#
# Compressibility (1/GPa) = 0.02036934
#
# Stress axis : x y z
#
# Youngs Moduli (GPa) = 78.68102 180.25293 96.48818
#
# Poissons Ratio (x) = 0.30861 0.02131
# Poissons Ratio (y) = 0.13471 0.21160
# Poissons Ratio (z) = 0.01738 0.39529
#
# Static dielectric constant tensor:
#      x y z
#    x 5.417260 0.000000 0.015150 
#    y 0.000000 5.961180 0.000000 
#    z 0.015150 0.000000 5.469940 
# 
# 
# High freq. dielectric constant tensor:
#      x y z
#    x 2.162720 0.000000 -0.013630 
#    y 0.000000 2.153370 0.000000 
#    z -0.013630 0.000000 2.137460 
# 
# From -- ./inp_files/40160.got.cif
#   From: 2010.06.25/outbox.cif.g09.slc.cpg/sg13_21_cif.got.tgz:40160.got - 2010.06.28 04:50:58.
