data_PCOD8120726
_publ_section_title
;
Structure prediction by ZEFSAII (Michael W. Deem and Ramdas Pophale) SiO2 
 PCOD8120726
Probable space group: P 2/C
;
_chemical_formula_sum "Si O2"
_cell_formula_units_Z 24
_cell_length_a 14.590378
_cell_length_b 9.100036
_cell_length_c 9.812871
_cell_angle_alpha 90.000000
_cell_angle_beta 109.195424
_cell_angle_gamma 90.000000
_cell_volume 1230.447059
_symmetry_space_group_name_H-M "P 2/C"
_symmetry_group_IT_number 13
_symmetry_cell_setting 'monoclinic'
loop_
_space_group_symop_operation_xyz
x,y,z
-x,y,1/2-z
-x,-y,-z
x,-y,1/2+z
loop_
_atom_site_type_symbol
_atom_site_label
_atom_site_fract_x
_atom_site_fract_y
_atom_site_fract_z
Si Si1 0.960231 0.313946 0.368205
Si Si2 0.072918 0.340406 0.676260
Si Si3 0.748810 0.328931 0.327359
Si Si4 0.579242 0.124311 0.175989
Si Si5 0.544753 0.792389 0.129290
Si Si6 0.275259 0.397259 0.873551
O O1 0.945038 0.486349 0.338725
O O2 0.855421 0.256089 0.365607
O O3 0.000000 0.239021 0.250000
O O4 0.044510 0.273606 0.516684
O O5 0.184297 0.304764 0.768476
O O6 0.000000 0.269257 0.750000
O O7 0.678669 0.190962 0.278499
O O8 0.736262 0.408999 0.468085
O O9 0.725964 0.441548 0.193646
O O10 0.500000 0.158314 0.250000
O O11 0.595746 0.950749 0.166202
O O12 0.545219 0.199162 0.018925
O O13 0.500000 0.737461 0.250000
O O14 0.623942 0.677894 0.115904
#
# Coordination Sequence:
#
# PCOD8120726 Si02
#       6
#     4   4   4   4   4   4
#     4   9  18  30  51  79 113 150 184 223 271 334
#     4   9  16  30  50  76 111 150 183 218 271 332
#     4  11  23  36  57  88 118 147 184 235 286 328
#     4  10  21  42  62  78 110 152 191 231 279 339
#     4  10  23  40  61  82 106 151 197 229 276 340
#     4  11  23  36  56  88 118 147 186 236 283 329
#
# _framework density 19.505106000000001
#
# number of rings (size 3 to 8) (size 9 to 14) (size 15 to 20)
#    0.000    2.000    3.333    0.000    9.333    1.333 
#    0.000    0.000    0.000    2.000    0.000    0.000 
#    0.000    0.000    0.000    0.000    0.000    0.000 
#
# Total GULP energy -297526.798075 kJ/mol
# GULP energy per Si atom -12396.949920 kJ/mol
# Density = 1.946071 g / cm^3
# Si number density = 19.505106 Si / 1000 Ang^3
#
#
#
# Elastic Constant Matrix: (Units=GPa)
#
#
# Indices 1 2 3 4 5 6 
#
# 1 90.1579 15.1878 23.4278 0.0000 -3.0031 0.0000
# 2 15.1878 25.0344 8.3219 0.0000 6.5087 0.0000
# 3 23.4278 8.3219 118.1736 0.0000 -6.8939 0.0000
# 4 0.0000 0.0000 0.0000 19.0861 0.0000 4.1746
# 5 -3.0031 6.5087 -6.8939 0.0000 34.4209 0.0000
# 6 0.0000 0.0000 0.0000 4.1746 0.0000 1.9725
#
#
#
# Elastic Compliance Matrix: (Units=1/GPa)
#
#
# Indices 1 2 3 4 5 6 
#
# 1 0.012975 -0.007824 -0.001891 0.000000 0.002233 0.000000
# 2 -0.007824 0.048176 -0.002441 0.000000 -0.010281 0.000000
# 3 -0.001891 -0.002441 0.009133 0.000000 0.002126 0.000000
# 4 0.000000 0.000000 0.000000 0.097555 0.000000 -0.206473
# 5 0.002233 -0.010281 0.002126 0.000000 0.031617 0.000000
# 6 0.000000 0.000000 0.000000 -0.206473 0.000000 0.943971
#
#
# Mechanical properties :
#
#
# Convention : Reuss Voigt Hill
#
# Bulk Modulus (GPa) = 21.75233 36.36010 29.05621
# Shear Modulus (GPa) = 4.22631 23.52445 13.87538
#
# Velocity S-wave (km/s) = 1.47359 3.47661 2.67005
# Velocity P-wave (km/s) = 3.75122 5.89895 4.94314
#
# Compressibility (1/GPa) = 0.04597209
#
# Stress axis : x y z
#
# Youngs Moduli (GPa) = 77.06887 20.75719 109.49329
#
# Poissons Ratio (x) = 0.16240 0.20707
# Poissons Ratio (y) = 0.60296 0.26731
# Poissons Ratio (z) = 0.14575 0.05068
#
# Static dielectric constant tensor:
#      x y z
#    x 3.812450 0.000000 -0.036150 
#    y 0.000000 2.994680 0.000000 
#    z -0.036150 0.000000 3.938870 
# 
# 
# High freq. dielectric constant tensor:
#      x y z
#    x 1.770120 0.000000 -0.002550 
#    y 0.000000 1.697470 0.000000 
#    z -0.002550 0.000000 1.783940 
# 
# From -- ./inp_files/18169.got.cif
#   From: 2010.06.25/outbox.cif.g09.slc.cpg/sg13_10_cif.got.tgz:18169.got - 2010.06.28 04:50:58.
