data_PCOD8120160
_publ_section_title
;
Structure prediction by ZEFSAII (Michael W. Deem and Ramdas Pophale) SiO2 
 PCOD8120160
Probable space group: P 2/C
;
_chemical_formula_sum "Si O2"
_cell_formula_units_Z 30
_cell_length_a 10.524994
_cell_length_b 5.579296
_cell_length_c 27.877847
_cell_angle_alpha 90.000000
_cell_angle_beta 67.663064
_cell_angle_gamma 90.000000
_cell_volume 1514.208732
_symmetry_space_group_name_H-M "P 2/C"
_symmetry_group_IT_number 13
_symmetry_cell_setting 'monoclinic'
loop_
_space_group_symop_operation_xyz
x,y,z
-x,y,1/2-z
-x,-y,-z
x,-y,1/2+z
loop_
_atom_site_type_symbol
_atom_site_label
_atom_site_fract_x
_atom_site_fract_y
_atom_site_fract_z
Si Si1 0.274433 0.112703 0.294178
Si Si2 0.818870 0.421591 0.569773
Si Si3 0.728440 0.271465 0.307421
Si Si4 0.975993 0.899219 0.123571
Si Si5 0.500000 0.737624 0.250000
Si Si6 0.562108 0.596766 0.654664
Si Si7 0.956652 0.809214 0.968112
Si Si8 0.880420 0.234922 0.806407
O O1 0.273745 0.297778 0.250192
O O2 0.345085 0.211693 0.331463
O O3 0.116964 0.059085 0.328091
O O4 0.359916 0.884943 0.263929
O O5 0.873688 0.240740 0.602589
O O6 0.657540 0.472706 0.600618
O O7 0.833720 0.336474 0.511763
O O8 0.909732 0.655614 0.563230
O O9 0.570627 0.273823 0.349804
O O10 0.798142 0.516750 0.314847
O O11 0.797076 0.018169 0.313642
O O12 0.064468 0.738673 0.146891
O O13 0.082179 0.060759 0.076428
O O14 0.494640 0.592501 0.299566
O O15 0.000000 0.000000 0.000000
O O16 0.000000 0.230927 0.750000
#
# Coordination Sequence:
#
# PCOD8120160 Si02
#       8
#     4   4   4   4   2   4   4   4
#     4  12  22  35  59  91 126 171 205 266 317 375
#     4  10  21  37  65  96 121 156 206 280 340 375
#     4  12  26  43  57  91 136 173 223 248 304 387
#     4  11  23  38  64  89 128 169 215 264 321 385
#     4  12  20  36  52  94 128 166 202 246 330 390
#     4  12  23  34  63  90 128 167 206 266 330 381
#     4   9  20  39  61  97 121 151 210 274 344 378
#     4  12  28  41  62  87 132 183 219 255 297 380
#
# _framework density 19.812327
#
# number of rings (size 3 to 8) (size 9 to 14) (size 15 to 20)
#    0.000    0.800    6.667    1.200    3.733    0.000 
#    0.000    0.000    0.000    1.600    0.000    0.000 
#    0.000    0.000    0.000    0.000    0.000    0.000 
#
# Total GULP energy -371719.587154 kJ/mol
# GULP energy per Si atom -12390.652905 kJ/mol
# Density = 1.976723 g / cm^3
# Si number density = 19.812327 Si / 1000 Ang^3
#
#
#
# Elastic Constant Matrix: (Units=GPa)
#
#
# Indices 1 2 3 4 5 6 
#
# 1 70.8674 20.9147 21.6061 0.0000 -7.4477 0.0000
# 2 20.9147 91.7917 17.7356 0.0000 -6.1455 0.0000
# 3 21.6061 17.7356 94.7789 0.0000 -16.4832 0.0000
# 4 0.0000 0.0000 0.0000 55.1898 0.0000 -12.9427
# 5 -7.4477 -6.1455 -16.4832 0.0000 25.5691 0.0000
# 6 0.0000 0.0000 0.0000 -12.9427 0.0000 43.7191
#
#
#
# Elastic Compliance Matrix: (Units=1/GPa)
#
#
# Indices 1 2 3 4 5 6 
#
# 1 0.016052 -0.002985 -0.002717 0.000000 0.002207 0.000000
# 2 -0.002985 0.011911 -0.001353 0.000000 0.001121 0.000000
# 3 -0.002717 -0.001353 0.012647 0.000000 0.007036 0.000000
# 4 0.000000 0.000000 0.000000 0.019471 0.000000 0.005764
# 5 0.002207 0.001121 0.007036 0.000000 0.044558 0.000000
# 6 0.000000 0.000000 0.000000 0.005764 0.000000 0.024580
#
#
# Mechanical properties :
#
#
# Convention : Reuss Voigt Hill
#
# Bulk Modulus (GPa) = 37.73630 41.99455 39.86542
# Shear Modulus (GPa) = 32.85959 38.04103 35.45031
#
# Velocity S-wave (km/s) = 4.07694 4.38661 4.23461
# Velocity P-wave (km/s) = 6.42263 6.84826 6.63886
#
# Compressibility (1/GPa) = 0.02649968
#
# Stress axis : x y z
#
# Youngs Moduli (GPa) = 62.29750 83.95700 79.06864
#
# Poissons Ratio (x) = 0.25059 0.21483
# Poissons Ratio (y) = 0.18594 0.10702
# Poissons Ratio (z) = 0.16926 0.11363
#
# Static dielectric constant tensor:
#      x y z
#    x 3.513570 0.000000 -0.089480 
#    y 0.000000 3.846060 0.000000 
#    z -0.089480 0.000000 4.153080 
# 
# 
# High freq. dielectric constant tensor:
#      x y z
#    x 1.742960 0.000000 -0.013320 
#    y 0.000000 1.789870 0.000000 
#    z -0.013320 0.000000 1.771060 
# 
# From -- ./inp_files/95629.got.cif
#   From: 2010.06.25/outbox.cif.g09.slc.cpg/sg13_48_cif.got.tgz:95629.got - 2010.06.28 04:50:58.
