data_PCOD8120824
_publ_section_title
;
Structure prediction by ZEFSAII (Michael W. Deem and Ramdas Pophale) SiO2 
 PCOD8120824
Probable space group: P 2/C
;
_chemical_formula_sum "Si O2"
_cell_formula_units_Z 32
_cell_length_a 14.054658
_cell_length_b 14.773045
_cell_length_c 19.479641
_cell_angle_alpha 90.000000
_cell_angle_beta 21.402620
_cell_angle_gamma 90.000000
_cell_volume 1475.938138
_symmetry_space_group_name_H-M "P 2/C"
_symmetry_group_IT_number 13
_symmetry_cell_setting 'monoclinic'
loop_
_space_group_symop_operation_xyz
x,y,z
-x,y,1/2-z
-x,-y,-z
x,-y,1/2+z
loop_
_atom_site_type_symbol
_atom_site_label
_atom_site_fract_x
_atom_site_fract_y
_atom_site_fract_z
Si Si1 0.591631 0.090093 0.115918
Si Si2 0.265103 0.549488 0.749185
Si Si3 0.331852 0.210962 0.733517
Si Si4 0.970561 0.217561 0.692868
Si Si5 0.176779 0.907649 0.568932
Si Si6 0.192836 0.583986 0.173611
Si Si7 0.948362 0.905165 0.572922
Si Si8 0.717301 0.606322 0.161299
O O1 0.500000 0.047154 0.250000
O O2 0.354494 0.121345 0.227588
O O3 0.770156 0.176537 0.016235
O O4 0.731558 0.010124 0.980059
O O5 0.522796 0.605122 0.551907
O O6 0.205518 0.477326 0.730895
O O7 0.323775 0.493419 0.779168
O O8 0.012143 0.613564 0.931340
O O9 0.276910 0.189346 0.689135
O O10 0.589129 0.163715 0.588896
O O11 0.333813 0.318827 0.745214
O O12 0.096639 0.174901 0.936519
O O13 0.963867 0.325254 0.701205
O O14 0.000000 0.175258 0.750000
O O15 0.000000 0.875760 0.750000
O O16 0.018508 0.906286 0.605115
O O17 0.000000 0.532779 0.250000
O O18 0.000000 0.000000 0.500000
O O19 0.500000 0.622171 0.250000
#
# Coordination Sequence:
#
# PCOD8120824 Si02
#       8
#     4   4   4   4   4   4   4   4
#     4  12  23  43  71  98 129 180 227 282 341 400
#     4  10  22  42  70  98 133 182 222 276 355 404
#     4  12  24  46  66  97 137 180 230 285 335 410
#     4  11  25  43  66 100 139 174 227 287 338 408
#     4  12  27  44  66  99 134 181 223 284 345 401
#     4  10  21  43  66  97 140 177 215 281 348 413
#     4  12  23  44  71  95 135 179 230 276 339 410
#     4  11  23  42  67 101 132 176 236 282 333 416
#
# _framework density 21.681125000000002
#
# number of rings (size 3 to 8) (size 9 to 14) (size 15 to 20)
#    0.000    0.750    5.000    2.250    1.750    2.500 
#    2.250    1.250    0.000    0.000    0.000    0.000 
#    0.000    0.000    0.000    0.000    0.000    0.000 
#
# Total GULP energy -396645.074322 kJ/mol
# GULP energy per Si atom -12395.158573 kJ/mol
# Density = 2.163178 g / cm^3
# Si number density = 21.681125 Si / 1000 Ang^3
#
#
#
# Elastic Constant Matrix: (Units=GPa)
#
#
# Indices 1 2 3 4 5 6 
#
# 1 153.2026 14.8649 49.7628 0.0000 -14.3121 0.0000
# 2 14.8649 85.5770 42.2417 0.0000 -9.2316 0.0000
# 3 49.7628 42.2417 90.4206 0.0000 -25.9636 0.0000
# 4 0.0000 0.0000 0.0000 25.3272 0.0000 0.4026
# 5 -14.3121 -9.2316 -25.9636 0.0000 36.6571 0.0000
# 6 0.0000 0.0000 0.0000 0.4026 0.0000 21.4455
#
#
#
# Elastic Compliance Matrix: (Units=1/GPa)
#
#
# Indices 1 2 3 4 5 6 
#
# 1 0.008016 0.001025 -0.004918 0.000000 -0.000095 0.000000
# 2 0.001025 0.015385 -0.008190 0.000000 -0.001526 0.000000
# 3 -0.004918 -0.008190 0.020648 0.000000 0.010642 0.000000
# 4 0.000000 0.000000 0.000000 0.039495 0.000000 -0.000742
# 5 -0.000095 -0.001526 0.010642 0.000000 0.034396 0.000000
# 6 0.000000 0.000000 0.000000 -0.000742 0.000000 0.046644
#
#
# Mechanical properties :
#
#
# Convention : Reuss Voigt Hill
#
# Bulk Modulus (GPa) = 50.29240 60.32656 55.30948
# Shear Modulus (GPa) = 25.59147 31.50799 28.54973
#
# Velocity S-wave (km/s) = 3.43936 3.81628 3.63271
# Velocity P-wave (km/s) = 6.24652 6.87776 6.56972
#
# Compressibility (1/GPa) = 0.01988372
#
# Stress axis : x y z
#
# Youngs Moduli (GPa) = 124.74444 64.99716 48.43160
#
# Poissons Ratio (x) = -0.06661 0.23818
# Poissons Ratio (y) = -0.12784 0.39664
# Poissons Ratio (z) = 0.61348 0.53231
#
# Static dielectric constant tensor:
#      x y z
#    x 4.345400 0.000000 -0.176270 
#    y 0.000000 3.700870 0.000000 
#    z -0.176270 0.000000 4.046440 
# 
# 
# High freq. dielectric constant tensor:
#      x y z
#    x 1.875600 0.000000 -0.010200 
#    y 0.000000 1.835390 0.000000 
#    z -0.010200 0.000000 1.848000 
# 
# From -- ./inp_files/80333.got.cif
#   From: 2010.06.25/outbox.cif.g09.slc.cpg/sg13_41_cif.got.tgz:80333.got - 2010.06.28 04:50:58.
