data_PCOD8120894
_publ_section_title
;
Structure prediction by ZEFSAII (Michael W. Deem and Ramdas Pophale) SiO2 
 PCOD8120894
Probable space group: P 2/C
;
_chemical_formula_sum "Si O2"
_cell_formula_units_Z 30
_cell_length_a 15.733884
_cell_length_b 10.815799
_cell_length_c 8.810929
_cell_angle_alpha 90.000000
_cell_angle_beta 63.159938
_cell_angle_gamma 90.000000
_cell_volume 1337.866288
_symmetry_space_group_name_H-M "P 2/C"
_symmetry_group_IT_number 13
_symmetry_cell_setting 'monoclinic'
loop_
_space_group_symop_operation_xyz
x,y,z
-x,y,1/2-z
-x,-y,-z
x,-y,1/2+z
loop_
_atom_site_type_symbol
_atom_site_label
_atom_site_fract_x
_atom_site_fract_y
_atom_site_fract_z
Si Si1 0.382375 0.976740 0.116091
Si Si2 0.681053 0.672238 0.069430
Si Si3 0.606869 0.821792 0.680723
Si Si4 0.255562 0.501475 0.735554
Si Si5 0.107428 0.091323 0.698954
Si Si6 0.207091 0.672310 0.021344
Si Si7 0.500000 0.838695 0.250000
Si Si8 0.199575 0.115666 0.933083
O O1 0.479877 0.923511 0.116482
O O2 0.294426 0.906753 0.261367
O O3 0.372978 0.123303 0.166124
O O4 0.381046 0.944016 0.938492
O O5 0.673478 0.577429 0.216066
O O6 0.589123 0.756124 0.137103
O O7 0.780001 0.751802 0.004268
O O8 0.681384 0.593968 0.915161
O O9 0.500000 0.766509 0.750000
O O10 0.682301 0.716741 0.577061
O O11 0.184434 0.584484 0.896423
O O12 0.193097 0.408239 0.684473
O O13 0.134472 0.213992 0.582639
O O14 0.116409 0.114070 0.872730
O O15 0.000000 0.053892 0.750000
O O16 0.176447 0.981288 0.585523
#
# Coordination Sequence:
#
# PCOD8120894 Si02
#       8
#     4   4   4   4   4   4   2   4
#     4  11  21  38  58  90 139 169 213 262 323 395
#     4  10  22  41  66  91 132 179 223 275 318 376
#     4  12  24  37  61  94 130 178 217 268 322 387
#     4  10  23  44  67  87 125 187 224 268 322 379
#     4  12  25  44  73 105 134 163 209 273 347 413
#     4  11  23  46  67  94 130 170 225 271 329 385
#     4  10  22  34  58  94 132 172 226 276 312 378
#     4  11  22  43  67  98 137 169 206 267 342 399
#
# _framework density 22.423766000000001
#
# number of rings (size 3 to 8) (size 9 to 14) (size 15 to 20)
#    0.000    1.067    4.667    1.600    3.733    1.600 
#    4.800    0.667    0.000    0.000    0.000    0.000 
#    0.000    0.000    0.000    0.000    0.000    0.000 
#
# Total GULP energy -371995.388591 kJ/mol
# GULP energy per Si atom -12399.846286 kJ/mol
# Density = 2.237273 g / cm^3
# Si number density = 22.423766 Si / 1000 Ang^3
#
#
#
# Elastic Constant Matrix: (Units=GPa)
#
#
# Indices 1 2 3 4 5 6 
#
# 1 67.2757 23.7306 21.2157 0.0000 6.2647 0.0000
# 2 23.7306 121.1549 46.3224 0.0000 10.6064 0.0000
# 3 21.2157 46.3224 101.3277 0.0000 18.9297 0.0000
# 4 0.0000 0.0000 0.0000 20.6203 0.0000 2.8271
# 5 6.2647 10.6064 18.9297 0.0000 31.0926 0.0000
# 6 0.0000 0.0000 0.0000 2.8271 0.0000 18.6339
#
#
#
# Elastic Compliance Matrix: (Units=1/GPa)
#
#
# Indices 1 2 3 4 5 6 
#
# 1 0.016470 -0.002288 -0.002176 0.000000 -0.001213 0.000000
# 2 -0.002288 0.010334 -0.004144 0.000000 -0.000541 0.000000
# 3 -0.002176 -0.004144 0.013397 0.000000 -0.006304 0.000000
# 4 0.000000 0.000000 0.000000 0.049526 0.000000 -0.007514
# 5 -0.001213 -0.000541 -0.006304 0.000000 0.036429 0.000000
# 6 0.000000 0.000000 0.000000 -0.007514 0.000000 0.054806
#
#
# Mechanical properties :
#
#
# Convention : Reuss Voigt Hill
#
# Bulk Modulus (GPa) = 43.50609 52.47730 47.99170
# Shear Modulus (GPa) = 24.29081 27.30201 25.79641
#
# Velocity S-wave (km/s) = 3.29486 3.49312 3.39544
# Velocity P-wave (km/s) = 5.82398 6.30258 6.06800
#
# Compressibility (1/GPa) = 0.02298529
#
# Stress axis : x y z
#
# Youngs Moduli (GPa) = 60.71493 96.76958 74.64504
#
# Poissons Ratio (x) = 0.22140 0.16242
# Poissons Ratio (y) = 0.13891 0.30933
# Poissons Ratio (z) = 0.13211 0.40102
#
# Static dielectric constant tensor:
#      x y z
#    x 3.925340 0.000000 0.321090 
#    y 0.000000 4.208970 0.000000 
#    z 0.321090 0.000000 4.247200 
# 
# 
# High freq. dielectric constant tensor:
#      x y z
#    x 1.852650 0.000000 0.023320 
#    y 0.000000 1.889230 0.000000 
#    z 0.023320 0.000000 1.897030 
# 
# From -- ./inp_files/19007.got.cif
#   From: 2010.06.25/outbox.cif.g09.slc.cpg/sg13_10_cif.got.tgz:19007.got - 2010.06.28 04:50:58.
