data_PCOD8120166
_publ_section_title
;
Structure prediction by ZEFSAII (Michael W. Deem and Ramdas Pophale) SiO2 
 PCOD8120166
Probable space group: P 2/C
;
_chemical_formula_sum "Si O2"
_cell_formula_units_Z 28
_cell_length_a 11.367970
_cell_length_b 9.156342
_cell_length_c 14.644523
_cell_angle_alpha 90.000000
_cell_angle_beta 56.031463
_cell_angle_gamma 90.000000
_cell_volume 1264.198101
_symmetry_space_group_name_H-M "P 2/C"
_symmetry_group_IT_number 13
_symmetry_cell_setting 'monoclinic'
loop_
_space_group_symop_operation_xyz
x,y,z
-x,y,1/2-z
-x,-y,-z
x,-y,1/2+z
loop_
_atom_site_type_symbol
_atom_site_label
_atom_site_fract_x
_atom_site_fract_y
_atom_site_fract_z
Si Si1 0.172215 0.389299 0.346971
Si Si2 0.847627 0.878331 0.976608
Si Si3 0.826093 0.931819 0.644404
Si Si4 0.861718 0.444643 0.451544
Si Si5 0.160999 0.087979 0.678139
Si Si6 0.652788 0.356579 0.954397
Si Si7 0.454304 0.508409 0.168304
O O1 0.242793 0.227376 0.316250
O O2 0.148052 0.443191 0.460418
O O3 0.287855 0.479818 0.243187
O O4 0.025281 0.410502 0.354485
O O5 0.790079 0.712260 0.007225
O O6 0.009829 0.886508 0.938634
O O7 0.833004 0.937713 0.880807
O O8 0.763950 0.983691 0.083128
O O9 0.792449 0.042767 0.741090
O O10 0.775342 0.517612 0.405808
O O11 0.269464 0.201100 0.585185
O O12 0.000000 0.152261 0.750000
O O13 0.546362 0.370970 0.913022
O O14 0.556675 0.375890 0.088825
O O15 0.500000 0.561673 0.250000
#
# Coordination Sequence:
#
# PCOD8120166 Si02
#       7
#     4   4   4   4   4   4   4
#     4  10  21  38  68  93 128 166 215 267 322 382
#     4   9  19  35  57  92 135 157 199 264 325 384
#     4   9  19  36  58  89 130 169 197 257 331 375
#     4  10  21  37  67 105 122 161 222 271 317 382
#     4  10  22  38  63  98 131 163 207 268 335 387
#     4  11  25  42  66  94 126 171 223 264 321 401
#     4  11  25  44  63  88 133 176 214 268 329 373
#
# _framework density 22.148427000000002
#
# number of rings (size 3 to 8) (size 9 to 14) (size 15 to 20)
#    0.000    2.000    1.429    0.857    6.000    2.286 
#    0.000    0.714    0.000    0.857    0.000    0.000 
#    0.000    0.000    0.000    0.000    0.000    0.000 
#
# Total GULP energy -346898.978341 kJ/mol
# GULP energy per Si atom -12389.249226 kJ/mol
# Density = 2.209802 g / cm^3
# Si number density = 22.148427 Si / 1000 Ang^3
#
#
#
# Elastic Constant Matrix: (Units=GPa)
#
#
# Indices 1 2 3 4 5 6 
#
# 1 78.5930 24.3696 37.3259 0.0000 4.2080 0.0000
# 2 24.3696 91.3080 4.0775 0.0000 2.4977 0.0000
# 3 37.3259 4.0775 62.7486 0.0000 7.5651 0.0000
# 4 0.0000 0.0000 0.0000 24.4800 0.0000 1.0551
# 5 4.2080 2.4977 7.5651 0.0000 39.0571 0.0000
# 6 0.0000 0.0000 0.0000 1.0551 0.0000 9.6140
#
#
#
# Elastic Compliance Matrix: (Units=1/GPa)
#
#
# Indices 1 2 3 4 5 6 
#
# 1 0.019575 -0.004727 -0.011385 0.000000 0.000398 0.000000
# 2 -0.004727 0.012138 0.002104 0.000000 -0.000675 0.000000
# 3 -0.011385 0.002104 0.022977 0.000000 -0.003358 0.000000
# 4 0.000000 0.000000 0.000000 0.041044 0.000000 -0.004505
# 5 0.000398 -0.000675 -0.003358 0.000000 0.026254 0.000000
# 6 0.000000 0.000000 0.000000 -0.004505 0.000000 0.104510
#
#
# Mechanical properties :
#
#
# Convention : Reuss Voigt Hill
#
# Bulk Modulus (GPa) = 37.48832 40.46618 38.97725
# Shear Modulus (GPa) = 18.98213 25.75533 22.36873
#
# Velocity S-wave (km/s) = 2.93070 3.41376 3.18141
# Velocity P-wave (km/s) = 5.33055 5.81794 5.57957
#
# Compressibility (1/GPa) = 0.02667498
#
# Stress axis : x y z
#
# Youngs Moduli (GPa) = 51.08475 82.38573 43.52134
#
# Poissons Ratio (x) = 0.38944 0.49550
# Poissons Ratio (y) = 0.24148 -0.09159
# Poissons Ratio (z) = 0.58161 -0.17337
#
# Static dielectric constant tensor:
#      x y z
#    x 3.985330 0.000000 -0.009940 
#    y 0.000000 3.946040 0.000000 
#    z -0.009940 0.000000 3.921370 
# 
# 
# High freq. dielectric constant tensor:
#      x y z
#    x 1.854970 0.000000 0.016190 
#    y 0.000000 1.856190 0.000000 
#    z 0.016190 0.000000 1.868840 
# 
# From -- ./inp_files/50251.got.cif
#   From: 2010.06.25/outbox.cif.g09.slc.cpg/sg13_26_cif.got.tgz:50251.got - 2010.06.28 04:50:58.
