data_PCOD8120614
_publ_section_title
;
Structure prediction by ZEFSAII (Michael W. Deem and Ramdas Pophale) SiO2 
 PCOD8120614
Probable space group: P 2/C
;
_chemical_formula_sum "Si O2"
_cell_formula_units_Z 28
_cell_length_a 9.278052
_cell_length_b 13.260767
_cell_length_c 22.731832
_cell_angle_alpha 90.000000
_cell_angle_beta 152.683009
_cell_angle_gamma 90.000000
_cell_volume 1283.483514
_symmetry_space_group_name_H-M "P 2/C"
_symmetry_group_IT_number 13
_symmetry_cell_setting 'monoclinic'
loop_
_space_group_symop_operation_xyz
x,y,z
-x,y,1/2-z
-x,-y,-z
x,-y,1/2+z
loop_
_atom_site_type_symbol
_atom_site_label
_atom_site_fract_x
_atom_site_fract_y
_atom_site_fract_z
Si Si1 0.113296 0.708072 0.004150
Si Si2 0.456592 0.988403 0.053556
Si Si3 0.764389 0.786627 0.213458
Si Si4 0.295551 0.800422 0.816356
Si Si5 0.867763 0.491668 0.386524
Si Si6 0.829192 0.888172 0.849208
Si Si7 0.923445 0.308474 0.564716
O O1 0.460612 0.716923 0.103494
O O2 0.129799 0.687328 0.079766
O O3 0.948429 0.625214 0.901734
O O4 0.933840 0.815098 0.939680
O O5 0.667660 0.901007 0.160383
O O6 0.560712 0.090390 0.120469
O O7 0.085955 0.974415 0.931312
O O8 0.500000 0.000000 0.000000
O O9 0.000000 0.743623 0.250000
O O10 0.939908 0.774186 0.340006
O O11 0.183104 0.808312 0.708790
O O12 0.000000 0.774635 0.750000
O O13 0.557536 0.714750 0.920405
O O14 0.500000 0.509492 0.250000
O O15 0.000000 0.500000 0.500000
O O16 0.038389 0.572379 0.403559
O O17 0.500000 0.939277 0.750000
#
# Coordination Sequence:
#
# PCOD8120614 Si02
#       7
#     4   4   4   4   4   4   4
#     4  10  22  43  69  96 134 176 220 280 330 409
#     4  11  24  44  67  90 127 184 227 266 332 417
#     4  11  24  42  66  98 136 174 224 276 343 406
#     4  12  25  41  66  94 134 175 223 270 342 410
#     4  10  21  40  72 101 131 178 229 272 345 417
#     4  11  23  43  65  98 129 168 227 282 330 390
#     4  11  23  42  67 100 131 171 222 282 334 403
#
# _framework density 21.815629999999999
#
# number of rings (size 3 to 8) (size 9 to 14) (size 15 to 20)
#    0.000    1.143    2.857    3.857    6.000    0.571 
#    0.000    2.143    0.000    0.000    0.000    0.000 
#    0.000    0.000    0.000    0.000    0.000    0.000 
#
# Total GULP energy -346985.144491 kJ/mol
# GULP energy per Si atom -12392.326589 kJ/mol
# Density = 2.176598 g / cm^3
# Si number density = 21.815630 Si / 1000 Ang^3
#
#
#
# Elastic Constant Matrix: (Units=GPa)
#
#
# Indices 1 2 3 4 5 6 
#
# 1 114.5666 42.7836 40.3297 0.0000 27.5317 0.0000
# 2 42.7836 97.5461 35.9385 0.0000 14.1053 0.0000
# 3 40.3297 35.9385 114.3265 0.0000 21.3773 0.0000
# 4 0.0000 0.0000 0.0000 42.5663 0.0000 3.9633
# 5 27.5317 14.1053 21.3773 0.0000 50.6955 0.0000
# 6 0.0000 0.0000 0.0000 3.9633 0.0000 24.8133
#
#
#
# Elastic Compliance Matrix: (Units=1/GPa)
#
#
# Indices 1 2 3 4 5 6 
#
# 1 0.012012 -0.003804 -0.002193 0.000000 -0.004541 0.000000
# 2 -0.003804 0.012958 -0.002653 0.000000 -0.000421 0.000000
# 3 -0.002193 -0.002653 0.010849 0.000000 -0.002646 0.000000
# 4 0.000000 0.000000 0.000000 0.023847 0.000000 -0.003809
# 5 -0.004541 -0.000421 -0.002646 0.000000 0.023424 0.000000
# 6 0.000000 0.000000 0.000000 -0.003809 0.000000 0.040909
#
#
# Mechanical properties :
#
#
# Convention : Reuss Voigt Hill
#
# Bulk Modulus (GPa) = 53.99444 62.72699 58.36072
# Shear Modulus (GPa) = 33.90453 37.44085 35.67269
#
# Velocity S-wave (km/s) = 3.94653 4.14725 4.04813
# Velocity P-wave (km/s) = 6.75062 7.19364 6.97565
#
# Compressibility (1/GPa) = 0.01852042
#
# Stress axis : x y z
#
# Youngs Moduli (GPa) = 83.24924 77.17084 92.17453
#
# Poissons Ratio (x) = 0.29357 0.20210
# Poissons Ratio (y) = 0.31669 0.24452
# Poissons Ratio (z) = 0.18253 0.20472
#
# Static dielectric constant tensor:
#      x y z
#    x 3.786260 0.000000 0.208420 
#    y 0.000000 4.084480 0.000000 
#    z 0.208420 0.000000 3.993070 
# 
# 
# High freq. dielectric constant tensor:
#      x y z
#    x 1.842740 0.000000 0.006730 
#    y 0.000000 1.854280 0.000000 
#    z 0.006730 0.000000 1.876410 
# 
# From -- ./inp_files/76740.got.cif
#   From: 2010.06.25/outbox.cif.g09.slc.cpg/sg13_39_cif.got.tgz:76740.got - 2010.06.28 04:50:58.
