data_PCOD8120177
_publ_section_title
;
Structure prediction by ZEFSAII (Michael W. Deem and Ramdas Pophale) SiO2 
 PCOD8120177
Probable space group: P 2/C
;
_chemical_formula_sum "Si O2"
_cell_formula_units_Z 18
_cell_length_a 23.337523
_cell_length_b 7.956740
_cell_length_c 5.181486
_cell_angle_alpha 90.000000
_cell_angle_beta 119.513975
_cell_angle_gamma 90.000000
_cell_volume 837.299983
_symmetry_space_group_name_H-M "P 2/C"
_symmetry_group_IT_number 13
_symmetry_cell_setting 'monoclinic'
loop_
_space_group_symop_operation_xyz
x,y,z
-x,y,1/2-z
-x,-y,-z
x,-y,1/2+z
loop_
_atom_site_type_symbol
_atom_site_label
_atom_site_fract_x
_atom_site_fract_y
_atom_site_fract_z
Si Si1 0.374017 0.403829 0.547986
Si Si2 0.777396 0.390844 0.253681
Si Si3 0.883291 0.116567 0.491331
Si Si4 0.000000 0.617876 0.250000
Si Si5 0.573699 0.068286 0.689131
O O1 0.387543 0.554110 0.779517
O O2 0.299370 0.342213 0.420036
O O3 0.426148 0.263170 0.743367
O O4 0.796904 0.502316 0.544495
O O5 0.813388 0.211301 0.336240
O O6 0.936836 0.263298 0.609756
O O7 0.891061 0.999702 0.258891
O O8 0.000000 0.500000 0.500000
O O9 0.500000 0.000000 0.500000
O O10 0.610917 0.031927 0.502630
#
# Coordination Sequence:
#
# PCOD8120177 Si02
#       5
#     4   4   4   2   4
#     4  10  21  38  61  85 113 150 195 239 282 342
#     4  10  21  39  60  85 116 153 194 236 288 351
#     4  12  24  39  60  91 122 152 195 247 292 340
#     4  12  24  42  64  84 118 166 202 238 288 344
#     4  10  21  38  56  81 114 147 183 231 288 344
#
# _framework density 21.497674
#
# number of rings (size 3 to 8) (size 9 to 14) (size 15 to 20)
#    0.000    1.333    0.000    6.000    0.000    1.778 
#    0.000   13.333    0.000    0.000    0.000    0.000 
#    0.000    0.000    0.000    0.000    0.000    0.000 
#
# Total GULP energy -223147.976924 kJ/mol
# GULP energy per Si atom -12397.109829 kJ/mol
# Density = 2.144874 g / cm^3
# Si number density = 21.497674 Si / 1000 Ang^3
#
#
#
# Elastic Constant Matrix: (Units=GPa)
#
#
# Indices 1 2 3 4 5 6 
#
# 1 51.4852 44.4962 47.3830 0.0000 -2.4625 0.0000
# 2 44.4962 136.2404 69.8003 0.0000 5.6610 0.0000
# 3 47.3830 69.8003 158.3148 0.0000 -37.2756 0.0000
# 4 0.0000 0.0000 0.0000 55.3912 0.0000 0.1200
# 5 -2.4625 5.6610 -37.2756 0.0000 41.0562 0.0000
# 6 0.0000 0.0000 0.0000 0.1200 0.0000 36.1029
#
#
#
# Elastic Compliance Matrix: (Units=1/GPa)
#
#
# Indices 1 2 3 4 5 6 
#
# 1 0.031734 -0.006201 -0.007777 0.000000 -0.004302 0.000000
# 2 -0.006201 0.012281 -0.005145 0.000000 -0.006736 0.000000
# 3 -0.007777 -0.005145 0.013952 0.000000 0.012910 0.000000
# 4 0.000000 0.000000 0.000000 0.018054 0.000000 -0.000060
# 5 -0.004302 -0.006736 0.012910 0.000000 0.036749 0.000000
# 6 0.000000 0.000000 0.000000 -0.000060 0.000000 0.027699
#
#
# Mechanical properties :
#
#
# Convention : Reuss Voigt Hill
#
# Bulk Modulus (GPa) = 50.70574 74.37770 62.54172
# Shear Modulus (GPa) = 26.98513 38.80080 32.89297
#
# Velocity S-wave (km/s) = 3.54681 4.25300 3.91586
# Velocity P-wave (km/s) = 6.35696 7.66750 7.04278
#
# Compressibility (1/GPa) = 0.01972163
#
# Stress axis : x y z
#
# Youngs Moduli (GPa) = 31.51221 81.42662 71.67404
#
# Poissons Ratio (x) = 0.50495 0.55738
# Poissons Ratio (y) = 0.19542 0.36874
# Poissons Ratio (z) = 0.24506 0.41891
#
# Static dielectric constant tensor:
#      x y z
#    x 3.971120 0.000000 -0.332840 
#    y 0.000000 3.844430 0.000000 
#    z -0.332840 0.000000 4.522420 
# 
# 
# High freq. dielectric constant tensor:
#      x y z
#    x 1.836380 0.000000 -0.018190 
#    y 0.000000 1.847870 0.000000 
#    z -0.018190 0.000000 1.871870 
# 
# From -- ./inp_files/7225.got.cif
#   From: 2010.06.25/outbox.cif.g09.slc.cpg/sg13_4_cif.got.tgz:7225.got - 2010.06.28 04:50:58.
