data_PCOD8120146
_publ_section_title
;
Structure prediction by ZEFSAII (Michael W. Deem and Ramdas Pophale) SiO2 
 PCOD8120146
Probable space group: P 2/C
;
_chemical_formula_sum "Si O2"
_cell_formula_units_Z 30
_cell_length_a 6.831109
_cell_length_b 10.564707
_cell_length_c 20.388494
_cell_angle_alpha 90.000000
_cell_angle_beta 87.800324
_cell_angle_gamma 90.000000
_cell_volume 1470.326162
_symmetry_space_group_name_H-M "P 2/C"
_symmetry_group_IT_number 13
_symmetry_cell_setting 'monoclinic'
loop_
_space_group_symop_operation_xyz
x,y,z
-x,y,1/2-z
-x,-y,-z
x,-y,1/2+z
loop_
_atom_site_type_symbol
_atom_site_label
_atom_site_fract_x
_atom_site_fract_y
_atom_site_fract_z
Si Si1 0.983747 0.330289 0.318606
Si Si2 0.314532 0.215700 0.390225
Si Si3 0.300378 0.428775 0.489034
Si Si4 0.997345 0.441612 0.900333
Si Si5 0.500000 0.097493 0.750000
Si Si6 0.016733 0.000524 0.921846
Si Si7 0.877103 0.790599 0.184647
Si Si8 0.294382 0.104141 0.162432
O O1 0.202816 0.297923 0.338030
O O2 0.899792 0.430076 0.371859
O O3 0.000000 0.403977 0.250000
O O4 0.858568 0.203881 0.305433
O O5 0.344904 0.294570 0.455773
O O6 0.198338 0.088098 0.404030
O O7 0.522025 0.186178 0.358338
O O8 0.500000 0.500000 0.500000
O O9 0.174967 0.524934 0.446430
O O10 0.183133 0.385781 0.555911
O O11 0.079614 0.351510 0.841284
O O12 0.354708 0.185085 0.796176
O O13 0.647504 0.008743 0.789408
O O14 0.805797 0.950712 0.901396
O O15 0.059334 0.127552 0.879926
O O16 0.000000 0.000000 0.000000
O O17 0.000000 0.818907 0.250000
#
# Coordination Sequence:
#
# PCOD8120146 Si02
#       8
#     4   4   4   4   2   4   4   4
#     4  10  21  37  63  90 118 157 205 271 319 377
#     4  10  21  38  61  92 119 158 211 266 323 383
#     4  10  21  41  68  93 128 170 219 278 342 400
#     4  10  23  42  63  95 130 171 218 269 338 415
#     4  12  24  42  66 100 132 188 226 280 346 414
#     4  11  24  41  62  93 129 170 222 275 333 397
#     4  12  25  44  66  95 141 186 226 277 348 429
#     4  11  22  39  65  92 125 164 222 273 330 388
#
# _framework density 20.403635999999999
#
# number of rings (size 3 to 8) (size 9 to 14) (size 15 to 20)
#    0.000    1.333    2.667    2.800    1.867    4.800 
#    2.400    2.667    0.000    0.000    0.000    0.000 
#    0.000    0.000    0.000    0.000    0.000    0.000 
#
# Total GULP energy -371747.502808 kJ/mol
# GULP energy per Si atom -12391.583427 kJ/mol
# Density = 2.035720 g / cm^3
# Si number density = 20.403636 Si / 1000 Ang^3
#
#
#
# Elastic Constant Matrix: (Units=GPa)
#
#
# Indices 1 2 3 4 5 6 
#
# 1 100.0231 31.3935 37.7829 0.0000 -9.9695 0.0000
# 2 31.3935 77.8494 30.9114 0.0000 0.8804 0.0000
# 3 37.7829 30.9114 128.1050 0.0000 -0.8401 0.0000
# 4 0.0000 0.0000 0.0000 30.5661 0.0000 -6.0793
# 5 -9.9695 0.8804 -0.8401 0.0000 30.4792 0.0000
# 6 0.0000 0.0000 0.0000 -6.0793 0.0000 29.9142
#
#
#
# Elastic Compliance Matrix: (Units=1/GPa)
#
#
# Indices 1 2 3 4 5 6 
#
# 1 0.012738 -0.004096 -0.002741 0.000000 0.004209 0.000000
# 2 -0.004096 0.015531 -0.002552 0.000000 -0.001859 0.000000
# 3 -0.002741 -0.002552 0.009227 0.000000 -0.000569 0.000000
# 4 0.000000 0.000000 0.000000 0.034094 0.000000 0.006929
# 5 0.004209 -0.001859 -0.000569 0.000000 0.034224 0.000000
# 6 0.000000 0.000000 0.000000 0.006929 0.000000 0.034837
#
#
# Mechanical properties :
#
#
# Convention : Reuss Voigt Hill
#
# Bulk Modulus (GPa) = 53.42333 56.23923 54.83128
# Shear Modulus (GPa) = 30.18078 31.91789 31.04933
#
# Velocity S-wave (km/s) = 3.85019 3.95944 3.90520
# Velocity P-wave (km/s) = 6.78273 6.96607 6.87501
#
# Compressibility (1/GPa) = 0.01871841
#
# Stress axis : x y z
#
# Youngs Moduli (GPa) = 78.50386 64.38602 108.38310
#
# Poissons Ratio (x) = 0.26373 0.29708
# Poissons Ratio (y) = 0.32156 0.27657
# Poissons Ratio (z) = 0.21518 0.16430
#
# Static dielectric constant tensor:
#      x y z
#    x 3.737680 0.000000 0.152650 
#    y 0.000000 3.769180 0.000000 
#    z 0.152650 0.000000 3.890370 
# 
# 
# High freq. dielectric constant tensor:
#      x y z
#    x 1.800880 0.000000 0.002840 
#    y 0.000000 1.796640 0.000000 
#    z 0.002840 0.000000 1.807520 
# 
# From -- ./inp_files/73650.got.cif
#   From: 2010.06.25/outbox.cif.g09.slc.cpg/sg13_37_cif.got.tgz:73650.got - 2010.06.28 04:50:58.
