data_PCOD8120556
_publ_section_title
;
Structure prediction by ZEFSAII (Michael W. Deem and Ramdas Pophale) SiO2 
 PCOD8120556
Probable space group: P 2/C
;
_chemical_formula_sum "Si O2"
_cell_formula_units_Z 20
_cell_length_a 8.045146
_cell_length_b 22.197581
_cell_length_c 9.478795
_cell_angle_alpha 90.000000
_cell_angle_beta 148.289268
_cell_angle_gamma 90.000000
_cell_volume 889.761656
_symmetry_space_group_name_H-M "P 2/C"
_symmetry_group_IT_number 13
_symmetry_cell_setting 'monoclinic'
loop_
_space_group_symop_operation_xyz
x,y,z
-x,y,1/2-z
-x,-y,-z
x,-y,1/2+z
loop_
_atom_site_type_symbol
_atom_site_label
_atom_site_fract_x
_atom_site_fract_y
_atom_site_fract_z
Si Si1 0.191800 0.962348 0.747528
Si Si2 0.693183 0.246007 0.747321
Si Si3 0.356922 0.646566 0.504648
Si Si4 0.799351 0.828837 0.746250
Si Si5 0.200959 0.461325 0.255903
O O1 0.250241 0.895587 0.724511
O O2 0.000000 0.953540 0.750000
O O3 0.000000 0.000000 0.500000
O O4 0.500000 0.000000 0.000000
O O5 0.500000 0.259510 0.750000
O O6 0.696361 0.307118 0.661239
O O7 0.544360 0.194533 0.542594
O O8 0.039947 0.219537 0.031989
O O9 0.648917 0.600807 0.690694
O O10 0.000000 0.616220 0.250000
O O11 0.500000 0.678044 0.750000
O O12 0.000000 0.833179 0.750000
O O13 0.500000 0.500000 0.500000
O O14 0.000000 0.446965 0.250000
O O15 0.000000 0.500000 0.000000
#
# Coordination Sequence:
#
# PCOD8120556 Si02
#       5
#     4   4   4   4   4
#     4  11  22  39  62  91 125 167 214 266 323 385
#     4  10  21  40  65  92 120 166 220 263 310 378
#     4  12  26  44  66  98 137 171 208 263 325 384
#     4   9  19  37  62  88 122 165 214 263 316 382
#     4  12  26  46  71  99 131 171 215 263 316 377
#
# _framework density 22.477930000000001
#
# number of rings (size 3 to 8) (size 9 to 14) (size 15 to 20)
#    0.000    1.200    0.000    6.600    0.000    8.800 
#    0.000   10.000    0.000    0.000    0.000    0.000 
#    0.000    0.000    0.000    0.000    0.000    0.000 
#
# Total GULP energy -247764.551151 kJ/mol
# GULP energy per Si atom -12388.227558 kJ/mol
# Density = 2.242677 g / cm^3
# Si number density = 22.477930 Si / 1000 Ang^3
#
#
#
# Elastic Constant Matrix: (Units=GPa)
#
#
# Indices 1 2 3 4 5 6 
#
# 1 89.5108 46.3935 46.0532 0.0000 3.4380 0.0000
# 2 46.3935 158.9664 67.4311 0.0000 -11.6755 0.0000
# 3 46.0532 67.4311 184.6818 0.0000 -6.9818 0.0000
# 4 0.0000 0.0000 0.0000 48.8970 0.0000 -5.5890
# 5 3.4380 -11.6755 -6.9818 0.0000 33.9245 0.0000
# 6 0.0000 0.0000 0.0000 -5.5890 0.0000 23.3348
#
#
#
# Elastic Compliance Matrix: (Units=1/GPa)
#
#
# Indices 1 2 3 4 5 6 
#
# 1 0.014296 -0.003359 -0.002456 0.000000 -0.003110 0.000000
# 2 -0.003359 0.008372 -0.002114 0.000000 0.002787 0.000000
# 3 -0.002456 -0.002114 0.006834 0.000000 0.000928 0.000000
# 4 0.000000 0.000000 0.000000 0.021027 0.000000 0.005036
# 5 -0.003110 0.002787 0.000928 0.000000 0.030942 0.000000
# 6 0.000000 0.000000 0.000000 0.005036 0.000000 0.044061
#
#
# Mechanical properties :
#
#
# Convention : Reuss Voigt Hill
#
# Bulk Modulus (GPa) = 73.28949 83.65717 78.47333
# Shear Modulus (GPa) = 34.26113 39.45000 36.85557
#
# Velocity S-wave (km/s) = 3.90835 4.19388 4.05363
# Velocity P-wave (km/s) = 7.28305 7.79422 7.54296
#
# Compressibility (1/GPa) = 0.01364452
#
# Stress axis : x y z
#
# Youngs Moduli (GPa) = 69.95062 119.44211 146.32464
#
# Poissons Ratio (x) = 0.40117 0.35939
# Poissons Ratio (y) = 0.23495 0.30933
# Poissons Ratio (z) = 0.17181 0.25250
#
# Static dielectric constant tensor:
#      x y z
#    x 4.194550 0.000000 0.150530 
#    y 0.000000 5.132570 0.000000 
#    z 0.150530 0.000000 4.377430 
# 
# 
# High freq. dielectric constant tensor:
#      x y z
#    x 1.874030 0.000000 0.001640 
#    y 0.000000 1.895510 0.000000 
#    z 0.001640 0.000000 1.912690 
# 
# From -- ./inp_files/13848.got.cif
#   From: 2010.06.25/outbox.cif.g09.slc.cpg/sg13_7_cif.got.tgz:13848.got - 2010.06.28 04:50:58.
