data_PCOD8120356
_publ_section_title
;
Structure prediction by ZEFSAII (Michael W. Deem and Ramdas Pophale) SiO2 
 PCOD8120356
Probable space group: P 2/C
;
_chemical_formula_sum "Si O2"
_cell_formula_units_Z 18
_cell_length_a 9.701633
_cell_length_b 7.939260
_cell_length_c 21.170746
_cell_angle_alpha 90.000000
_cell_angle_beta 148.108992
_cell_angle_gamma 90.000000
_cell_volume 861.481238
_symmetry_space_group_name_H-M "P 2/C"
_symmetry_group_IT_number 13
_symmetry_cell_setting 'monoclinic'
loop_
_space_group_symop_operation_xyz
x,y,z
-x,y,1/2-z
-x,-y,-z
x,-y,1/2+z
loop_
_atom_site_type_symbol
_atom_site_label
_atom_site_fract_x
_atom_site_fract_y
_atom_site_fract_z
Si Si1 0.784586 0.188487 0.212960
Si Si2 0.215297 0.697514 0.123538
Si Si3 0.000000 0.134273 0.750000
Si Si4 0.005581 0.371464 0.089013
Si Si5 0.218850 0.693605 0.453155
O O1 0.000000 0.271870 0.250000
O O2 0.846191 0.240572 0.308610
O O3 0.800628 0.984974 0.212195
O O4 0.502092 0.250658 0.084187
O O5 0.500000 0.772069 0.250000
O O6 0.214778 0.493957 0.135329
O O7 0.996317 0.780640 0.084039
O O8 0.151123 0.734139 0.025103
O O9 0.167659 0.251424 0.861451
O O10 0.804863 0.489979 0.050929
#
# Coordination Sequence:
#
# PCOD8120356 Si02
#       5
#     4   4   2   4   4
#     4  10  23  38  57  87 118 153 192 238 279 344
#     4   9  19  35  61  90 113 140 189 243 293 336
#     4  10  24  40  56  80 124 158 194 226 282 344
#     4   9  20  35  65  86 116 142 194 242 294 330
#     4  10  21  39  61  83 117 155 189 239 287 338
#
# _framework density 20.894244
#
# number of rings (size 3 to 8) (size 9 to 14) (size 15 to 20)
#    2.000    0.444    0.000    2.000    1.556    2.667 
#    0.000    1.111    0.000    0.000    0.000    0.000 
#    0.000    0.000    0.000    0.000    0.000    0.000 
#
# Total GULP energy -223018.280395 kJ/mol
# GULP energy per Si atom -12389.904466 kJ/mol
# Density = 2.084669 g / cm^3
# Si number density = 20.894244 Si / 1000 Ang^3
#
#
#
# Elastic Constant Matrix: (Units=GPa)
#
#
# Indices 1 2 3 4 5 6 
#
# 1 101.0352 29.9836 86.2492 0.0000 -26.5710 0.0000
# 2 29.9836 35.5824 26.3618 0.0000 -14.2266 0.0000
# 3 86.2492 26.3618 201.0811 0.0000 -18.2085 0.0000
# 4 0.0000 0.0000 0.0000 9.3072 0.0000 -5.1067
# 5 -26.5710 -14.2266 -18.2085 0.0000 56.7085 0.0000
# 6 0.0000 0.0000 0.0000 -5.1067 0.0000 11.5255
#
#
#
# Elastic Compliance Matrix: (Units=1/GPa)
#
#
# Indices 1 2 3 4 5 6 
#
# 1 0.019841 -0.009821 -0.006802 0.000000 0.004649 0.000000
# 2 -0.009821 0.038668 -0.000407 0.000000 0.004968 0.000000
# 3 -0.006802 -0.000407 0.007875 0.000000 -0.000760 0.000000
# 4 0.000000 0.000000 0.000000 0.141953 0.000000 0.062896
# 5 0.004649 0.004968 -0.000760 0.000000 0.020814 0.000000
# 6 0.000000 0.000000 0.000000 0.062896 0.000000 0.114632
#
#
# Mechanical properties :
#
#
# Convention : Reuss Voigt Hill
#
# Bulk Modulus (GPa) = 30.93696 69.20977 50.07337
# Shear Modulus (GPa) = 12.86609 28.51517 20.69063
#
# Velocity S-wave (km/s) = 2.48417 3.69824 3.15025
# Velocity P-wave (km/s) = 4.80278 7.17159 6.10322
#
# Compressibility (1/GPa) = 0.03232379
#
# Stress axis : x y z
#
# Youngs Moduli (GPa) = 50.40017 25.86151 126.98238
#
# Poissons Ratio (x) = 0.25399 0.86372
# Poissons Ratio (y) = 0.49499 0.05166
# Poissons Ratio (z) = 0.34282 0.01052
#
# Static dielectric constant tensor:
#      x y z
#    x 3.669760 0.000000 -0.148990 
#    y 0.000000 3.323290 0.000000 
#    z -0.148990 0.000000 3.595390 
# 
# 
# High freq. dielectric constant tensor:
#      x y z
#    x 1.812840 0.000000 -0.016170 
#    y 0.000000 1.773900 0.000000 
#    z -0.016170 0.000000 1.821540 
# 
# From -- ./inp_files/92186.got.cif
#   From: 2010.06.25/outbox.cif.g09.slc.cpg/sg13_47_cif.got.tgz:92186.got - 2010.06.28 04:50:58.
