data_PCOD8120080
_publ_section_title
;
Structure prediction by ZEFSAII (Michael W. Deem and Ramdas Pophale) SiO2 
 PCOD8120080
Probable space group: P 2/C
;
_chemical_formula_sum "Si O2"
_cell_formula_units_Z 28
_cell_length_a 16.866456
_cell_length_b 9.585120
_cell_length_c 12.750028
_cell_angle_alpha 90.000000
_cell_angle_beta 42.265453
_cell_angle_gamma 90.000000
_cell_volume 1386.333485
_symmetry_space_group_name_H-M "P 2/C"
_symmetry_group_IT_number 13
_symmetry_cell_setting 'monoclinic'
loop_
_space_group_symop_operation_xyz
x,y,z
-x,y,1/2-z
-x,-y,-z
x,-y,1/2+z
loop_
_atom_site_type_symbol
_atom_site_label
_atom_site_fract_x
_atom_site_fract_y
_atom_site_fract_z
Si Si1 0.323666 0.845371 0.086091
Si Si2 0.500000 0.745363 0.750000
Si Si3 0.866117 0.838979 0.897854
Si Si4 0.133883 0.838975 0.102148
Si Si5 0.702070 0.342650 0.694300
Si Si6 0.323667 0.845372 0.586090
Si Si7 0.500000 0.745365 0.250000
Si Si8 0.702070 0.657348 0.694300
O O1 0.201977 0.814864 0.144439
O O2 0.342550 0.729410 0.155746
O O3 0.320752 1.000000 0.139571
O O4 0.432665 0.842876 0.898758
O O5 0.594983 0.649774 0.716580
O O6 0.798021 0.814862 0.855567
O O7 0.000000 0.792161 0.750000
O O8 0.857031 0.000002 0.942820
O O9 0.812397 0.744065 0.042158
O O10 0.000000 0.792156 0.250000
O O11 0.187605 0.744059 0.957846
O O12 0.594986 0.350222 0.716574
O O13 0.742828 0.499999 0.678977
O O14 0.432669 0.842877 0.398757
O O15 0.342546 0.729410 0.655749
#
# Coordination Sequence:
#
# PCOD8120080 Si02
#       8
#     4   2   4   4   4   4   2   4
#     4  10  21  37  59  85 111 143 186 232 276 324
#     4  10  22  38  58  80 110 150 190 228 270 324
#     4   9  20  40  62  82 108 145 188 231 273 322
#     4   9  20  40  62  82 108 145 188 231 273 322
#     4  11  23  37  56  83 115 149 183 224 277 333
#     4  10  21  37  59  85 111 143 186 232 276 324
#     4  10  22  38  58  80 110 150 190 228 270 324
#     4  11  23  37  56  83 115 149 183 224 277 333
#
# _framework density 20.19716
#
# number of rings (size 3 to 8) (size 9 to 14) (size 15 to 20)
#    0.000    2.000    0.000    2.571    0.000   13.143 
#    0.000    5.714    0.000    0.000    0.000    0.000 
#    0.000    0.000    0.000    0.000    0.000    0.000 
#
# Total GULP energy -347277.042704 kJ/mol
# GULP energy per Si atom -12402.751525 kJ/mol
# Density = 2.015119 g / cm^3
# Si number density = 20.197160 Si / 1000 Ang^3
#
#
#
# Elastic Constant Matrix: (Units=GPa)
#
#
# Indices 1 2 3 4 5 6 
#
# 1 68.7900 43.2603 64.0584 0.0000 0.0741 0.0000
# 2 43.2603 140.1387 63.0075 0.0000 14.2746 0.0000
# 3 64.0584 63.0075 141.4011 0.0000 -6.8252 0.0000
# 4 0.0000 0.0000 0.0000 4.2254 0.0000 2.4934
# 5 0.0741 14.2746 -6.8252 0.0000 37.7953 0.0000
# 6 0.0000 0.0000 0.0000 2.4934 0.0000 20.8875
#
#
#
# Elastic Compliance Matrix: (Units=1/GPa)
#
#
# Indices 1 2 3 4 5 6 
#
# 1 0.026445 -0.003368 -0.010512 0.000000 -0.000678 0.000000
# 2 -0.003368 0.010039 -0.003158 0.000000 -0.004355 0.000000
# 3 -0.010512 -0.003158 0.013417 0.000000 0.003636 0.000000
# 4 0.000000 0.000000 0.000000 0.254599 0.000000 -0.030392
# 5 -0.000678 -0.004355 0.003636 0.000000 0.028761 0.000000
# 6 0.000000 0.000000 0.000000 -0.030392 0.000000 0.051503
#
#
# Mechanical properties :
#
#
# Convention : Reuss Voigt Hill
#
# Bulk Modulus (GPa) = 63.19148 76.77581 69.98365
# Shear Modulus (GPa) = 11.78926 24.58188 18.18557
#
# Velocity S-wave (km/s) = 2.41863 3.49248 3.00393
# Velocity P-wave (km/s) = 6.25739 7.37285 6.83790
#
# Compressibility (1/GPa) = 0.01582492
#
# Stress axis : x y z
#
# Youngs Moduli (GPa) = 37.81443 99.61364 74.53276
#
# Poissons Ratio (x) = 0.33550 0.78350
# Poissons Ratio (y) = 0.12736 0.23535
# Poissons Ratio (z) = 0.39751 0.31454
#
# Static dielectric constant tensor:
#      x y z
#    x 3.699910 0.000000 -0.083730 
#    y 0.000000 3.455110 0.000000 
#    z -0.083730 0.000000 3.600240 
# 
# 
# High freq. dielectric constant tensor:
#      x y z
#    x 1.786400 0.000000 -0.002480 
#    y 0.000000 1.781100 0.000000 
#    z -0.002480 0.000000 1.789350 
# 
# From -- ./inp_files/55284.got.cif
#   From: 2010.06.25/outbox.cif.g09.slc.cpg/sg13_28_cif.got.tgz:55284.got - 2010.06.28 04:50:58.
