data_PCOD8120647
_publ_section_title
;
Structure prediction by ZEFSAII (Michael W. Deem and Ramdas Pophale) SiO2 
 PCOD8120647
Probable space group: P 2/C
;
_chemical_formula_sum "Si O2"
_cell_formula_units_Z 26
_cell_length_a 7.643420
_cell_length_b 14.550202
_cell_length_c 13.979479
_cell_angle_alpha 90.000000
_cell_angle_beta 49.075507
_cell_angle_gamma 90.000000
_cell_volume 1174.693203
_symmetry_space_group_name_H-M "P 2/C"
_symmetry_group_IT_number 13
_symmetry_cell_setting 'monoclinic'
loop_
_space_group_symop_operation_xyz
x,y,z
-x,y,1/2-z
-x,-y,-z
x,-y,1/2+z
loop_
_atom_site_type_symbol
_atom_site_label
_atom_site_fract_x
_atom_site_fract_y
_atom_site_fract_z
Si Si1 0.953232 0.760661 0.077513
Si Si2 0.000000 0.469468 0.250000
Si Si3 0.637280 0.133236 0.109671
Si Si4 0.334676 0.383719 0.717846
Si Si5 0.239749 0.874212 0.616678
Si Si6 0.246551 0.681374 0.543405
Si Si7 0.734227 0.058721 0.608253
O O1 0.858990 0.694318 0.193305
O O2 0.854996 0.863378 0.128636
O O3 0.891836 0.716512 0.998617
O O4 0.229763 0.778130 0.981344
O O5 0.803138 0.526884 0.265747
O O6 0.878000 0.408857 0.373779
O O7 0.500000 0.171244 0.250000
O O8 0.456489 0.088736 0.100110
O O9 0.823510 0.049386 0.070762
O O10 0.500000 0.404862 0.750000
O O11 0.490652 0.345463 0.576328
O O12 0.245321 0.762793 0.621795
O O13 0.283983 0.904910 0.493191
O O14 0.000000 0.910709 0.750000
O O15 0.500000 0.041854 0.750000
#
# Coordination Sequence:
#
# PCOD8120647 Si02
#       7
#     4   2   4   4   4   4   4
#     4  10  21  41  64  90 126 171 211 268 327 395
#     4  12  24  42  68  96 126 170 222 274 336 402
#     4  11  23  37  63 101 128 172 223 265 324 402
#     4  10  24  44  65  94 130 166 219 272 337 398
#     4  11  22  41  64  91 132 174 220 270 332 394
#     4  10  22  43  62  92 128 169 207 274 334 383
#     4  10  21  41  63  92 135 173 216 272 328 389
#
# _framework density 22.133437000000001
#
# number of rings (size 3 to 8) (size 9 to 14) (size 15 to 20)
#    0.000    1.538    0.769    5.538    2.154    3.692 
#    2.769    1.538    0.000    0.000    0.000    0.000 
#    0.000    0.000    0.000    0.000    0.000    0.000 
#
# Total GULP energy -322215.528659 kJ/mol
# GULP energy per Si atom -12392.904948 kJ/mol
# Density = 2.208306 g / cm^3
# Si number density = 22.133437 Si / 1000 Ang^3
#
#
#
# Elastic Constant Matrix: (Units=GPa)
#
#
# Indices 1 2 3 4 5 6 
#
# 1 47.7329 17.7977 12.4365 0.0000 -11.5840 0.0000
# 2 17.7977 115.0632 51.3843 0.0000 -16.9992 0.0000
# 3 12.4365 51.3843 117.2517 0.0000 -3.3006 0.0000
# 4 0.0000 0.0000 0.0000 22.8026 0.0000 -12.0162
# 5 -11.5840 -16.9992 -3.3006 0.0000 22.2576 0.0000
# 6 0.0000 0.0000 0.0000 -12.0162 0.0000 23.5286
#
#
#
# Elastic Compliance Matrix: (Units=1/GPa)
#
#
# Indices 1 2 3 4 5 6 
#
# 1 0.024706 -0.001351 -0.001703 0.000000 0.011574 0.000000
# 2 -0.001351 0.012324 -0.005033 0.000000 0.007963 0.000000
# 3 -0.001703 -0.005033 0.010827 0.000000 -0.003125 0.000000
# 4 0.000000 0.000000 0.000000 0.060003 0.000000 0.030644
# 5 0.011574 0.007963 -0.003125 0.000000 0.056570 0.000000
# 6 0.000000 0.000000 0.000000 0.030644 0.000000 0.058151
#
#
# Mechanical properties :
#
#
# Convention : Reuss Voigt Hill
#
# Bulk Modulus (GPa) = 31.56278 49.25387 40.40832
# Shear Modulus (GPa) = 20.05476 26.94638 23.50057
#
# Velocity S-wave (km/s) = 3.01339 3.49298 3.26201
# Velocity P-wave (km/s) = 5.13795 6.21043 5.69947
#
# Compressibility (1/GPa) = 0.03168289
#
# Stress axis : x y z
#
# Youngs Moduli (GPa) = 40.47580 81.14180 92.36055
#
# Poissons Ratio (x) = 0.10965 0.15724
# Poissons Ratio (y) = 0.05469 0.46489
# Poissons Ratio (z) = 0.06891 0.40842
#
# Static dielectric constant tensor:
#      x y z
#    x 3.806650 0.000000 -0.207780 
#    y 0.000000 4.219830 0.000000 
#    z -0.207780 0.000000 4.236620 
# 
# 
# High freq. dielectric constant tensor:
#      x y z
#    x 1.852600 0.000000 -0.012670 
#    y 0.000000 1.873440 0.000000 
#    z -0.012670 0.000000 1.895180 
# 
# From -- ./inp_files/47861.got.cif
#   From: 2010.06.25/outbox.cif.g09.slc.cpg/sg13_24_cif.got.tgz:47861.got - 2010.06.28 04:50:58.
