data_PCOD8120265
_publ_section_title
;
Structure prediction by ZEFSAII (Michael W. Deem and Ramdas Pophale) SiO2 
 PCOD8120265
Probable space group: P 2/C
;
_chemical_formula_sum "Si O2"
_cell_formula_units_Z 18
_cell_length_a 13.655389
_cell_length_b 6.744796
_cell_length_c 17.049407
_cell_angle_alpha 90.000000
_cell_angle_beta 29.506065
_cell_angle_gamma 90.000000
_cell_volume 773.396571
_symmetry_space_group_name_H-M "P 2/C"
_symmetry_group_IT_number 13
_symmetry_cell_setting 'monoclinic'
loop_
_space_group_symop_operation_xyz
x,y,z
-x,y,1/2-z
-x,-y,-z
x,-y,1/2+z
loop_
_atom_site_type_symbol
_atom_site_label
_atom_site_fract_x
_atom_site_fract_y
_atom_site_fract_z
Si Si1 0.778930 0.378420 0.317663
Si Si2 0.355681 0.209412 0.615185
Si Si3 0.788243 0.311676 0.492193
Si Si4 0.500000 0.376147 0.250000
Si Si5 0.448587 0.967326 0.901262
O O1 0.580547 0.267688 0.428677
O O2 0.783684 0.601177 0.278401
O O3 0.773155 0.397792 0.415312
O O4 0.981089 0.275061 0.145505
O O5 0.365270 0.093512 0.691839
O O6 0.295509 0.073317 0.581846
O O7 0.692001 0.480004 0.614727
O O8 0.671029 0.101509 0.578995
O O9 0.479763 0.236216 0.188013
#
# Coordination Sequence:
#
# PCOD8120265 Si02
#       5
#     4   4   4   2   4
#     4   9  18  39  65  90 115 157 201 253 299 347
#     4   9  18  39  65  90 120 152 202 255 296 348
#     4  10  21  38  62  89 121 157 204 247 296 363
#     4  12  22  40  58  86 128 164 194 250 304 360
#     4  10  21  38  62  88 119 162 199 240 303 356
#
# _framework density 23.273959000000001
#
# number of rings (size 3 to 8) (size 9 to 14) (size 15 to 20)
#    0.000    2.222    2.222    0.667    0.000    0.000 
#   20.000    2.222    0.000    0.000    0.000    0.000 
#    0.000    0.000    0.000    0.000    0.000    0.000 
#
# Total GULP energy -223039.538596 kJ/mol
# GULP energy per Si atom -12391.085478 kJ/mol
# Density = 2.322099 g / cm^3
# Si number density = 23.273959 Si / 1000 Ang^3
#
#
#
# Elastic Constant Matrix: (Units=GPa)
#
#
# Indices 1 2 3 4 5 6 
#
# 1 45.6325 11.0350 13.3711 0.0000 -5.7391 0.0000
# 2 11.0350 102.9857 22.8351 0.0000 -2.5978 0.0000
# 3 13.3711 22.8351 80.4170 0.0000 -14.1996 0.0000
# 4 0.0000 0.0000 0.0000 28.0350 0.0000 12.4226
# 5 -5.7391 -2.5978 -14.1996 0.0000 22.4103 0.0000
# 6 0.0000 0.0000 0.0000 12.4226 0.0000 44.3106
#
#
#
# Elastic Compliance Matrix: (Units=1/GPa)
#
#
# Indices 1 2 3 4 5 6 
#
# 1 0.023666 -0.001837 -0.002681 0.000000 0.004149 0.000000
# 2 -0.001837 0.010516 -0.002870 0.000000 -0.001070 0.000000
# 3 -0.002681 -0.002870 0.015218 0.000000 0.008624 0.000000
# 4 0.000000 0.000000 0.000000 0.040729 0.000000 -0.011419
# 5 0.004149 -0.001070 0.008624 0.000000 0.051025 0.000000
# 6 0.000000 0.000000 0.000000 -0.011419 0.000000 0.025769
#
#
# Mechanical properties :
#
#
# Convention : Reuss Voigt Hill
#
# Bulk Modulus (GPa) = 28.87992 35.94640 32.41316
# Shear Modulus (GPa) = 25.87450 31.07077 28.47263
#
# Velocity S-wave (km/s) = 3.33789 3.65773 3.50146
# Velocity P-wave (km/s) = 5.22407 5.77210 5.50491
#
# Compressibility (1/GPa) = 0.03462613
#
# Stress axis : x y z
#
# Youngs Moduli (GPa) = 42.25527 95.09142 65.70959
#
# Poissons Ratio (x) = 0.17466 0.17615
# Poissons Ratio (y) = 0.07761 0.18856
# Poissons Ratio (z) = 0.11328 0.27288
#
# Static dielectric constant tensor:
#      x y z
#    x 4.133280 0.000000 -0.080250 
#    y 0.000000 4.483300 0.000000 
#    z -0.080250 0.000000 3.800550 
# 
# 
# High freq. dielectric constant tensor:
#      x y z
#    x 1.901850 0.000000 0.009470 
#    y 0.000000 1.942860 0.000000 
#    z 0.009470 0.000000 1.870130 
# 
# From -- ./inp_files/67684.got.cif
#   From: 2010.06.25/outbox.cif.g09.slc.cpg/sg13_34_cif.got.tgz:67684.got - 2010.06.28 04:50:58.
