data_PCOD8120883
_publ_section_title
;
Structure prediction by ZEFSAII (Michael W. Deem and Ramdas Pophale) SiO2 
 PCOD8120883
Probable space group: P 2/C
;
_chemical_formula_sum "Si O2"
_cell_formula_units_Z 22
_cell_length_a 19.242556
_cell_length_b 9.542509
_cell_length_c 9.209132
_cell_angle_alpha 90.000000
_cell_angle_beta 33.094469
_cell_angle_gamma 90.000000
_cell_volume 923.322573
_symmetry_space_group_name_H-M "P 2/C"
_symmetry_group_IT_number 13
_symmetry_cell_setting 'monoclinic'
loop_
_space_group_symop_operation_xyz
x,y,z
-x,y,1/2-z
-x,-y,-z
x,-y,1/2+z
loop_
_atom_site_type_symbol
_atom_site_label
_atom_site_fract_x
_atom_site_fract_y
_atom_site_fract_z
Si Si1 0.087257 0.588049 0.449558
Si Si2 0.241732 0.552313 0.920138
Si Si3 0.657644 0.162570 0.248695
Si Si4 0.000000 0.151433 0.250000
Si Si5 0.573053 0.678418 0.479031
Si Si6 0.735694 0.079388 0.797114
O O1 0.120842 0.521195 0.549782
O O2 0.000000 0.500000 0.500000
O O3 0.022892 0.741849 0.573962
O O4 0.219998 0.586297 0.129109
O O5 0.263516 0.708075 0.817969
O O6 0.370938 0.460346 0.695892
O O7 0.517764 0.224203 0.460042
O O8 0.646366 0.045816 0.394512
O O9 0.724101 0.088280 0.991956
O O10 0.876421 0.051645 0.479798
O O11 0.500000 0.629523 0.750000
O O12 0.696191 0.770518 0.302628
#
# Coordination Sequence:
#
# PCOD8120883 Si02
#       6
#     4   4   4   2   4   4
#     4  12  22  41  69 102 139 182 232 290 349 416
#     4  12  23  43  69 105 137 175 242 290 351 417
#     4  11  25  43  67 103 139 185 235 287 348 420
#     4  12  22  44  68  90 146 190 226 288 346 402
#     4  10  21  45  73 100 141 180 231 294 351 414
#     4  11  24  45  66  98 140 191 231 283 349 412
#
# _framework density 23.826991
#
# number of rings (size 3 to 8) (size 9 to 14) (size 15 to 20)
#    0.000    0.727    5.455    2.182    0.000    3.636 
#    3.273    4.545    0.000    0.000    0.000    0.000 
#    0.000    0.000    0.000    0.000    0.000    0.000 
#
# Total GULP energy -272572.222404 kJ/mol
# GULP energy per Si atom -12389.646473 kJ/mol
# Density = 2.377276 g / cm^3
# Si number density = 23.826991 Si / 1000 Ang^3
#
#
#
# Elastic Constant Matrix: (Units=GPa)
#
#
# Indices 1 2 3 4 5 6 
#
# 1 79.5416 24.3538 21.3336 0.0000 -2.4841 0.0000
# 2 24.3538 114.5498 29.3116 0.0000 16.4611 0.0000
# 3 21.3336 29.3116 100.4894 0.0000 -11.4381 0.0000
# 4 0.0000 0.0000 0.0000 32.3805 0.0000 -0.6024
# 5 -2.4841 16.4611 -11.4381 0.0000 26.1424 0.0000
# 6 0.0000 0.0000 0.0000 -0.6024 0.0000 32.4155
#
#
#
# Elastic Compliance Matrix: (Units=1/GPa)
#
#
# Indices 1 2 3 4 5 6 
#
# 1 0.014015 -0.002823 -0.001892 0.000000 0.002282 0.000000
# 2 -0.002823 0.011653 -0.003857 0.000000 -0.009293 0.000000
# 3 -0.001892 -0.003857 0.012349 0.000000 0.007652 0.000000
# 4 0.000000 0.000000 0.000000 0.030893 0.000000 0.000574
# 5 0.002282 -0.009293 0.007652 0.000000 0.047669 0.000000
# 6 0.000000 0.000000 0.000000 0.000574 0.000000 0.030860
#
#
# Mechanical properties :
#
#
# Convention : Reuss Voigt Hill
#
# Bulk Modulus (GPa) = 47.91285 49.39765 48.65525
# Shear Modulus (GPa) = 29.14738 32.82647 30.98693
#
# Velocity S-wave (km/s) = 3.50135 3.71577 3.61015
# Velocity P-wave (km/s) = 6.04138 6.25988 6.15160
#
# Compressibility (1/GPa) = 0.02087123
#
# Stress axis : x y z
#
# Youngs Moduli (GPa) = 71.35093 85.81768 80.97735
#
# Poissons Ratio (x) = 0.24230 0.15322
# Poissons Ratio (y) = 0.20145 0.31236
# Poissons Ratio (z) = 0.13500 0.33103
#
# Static dielectric constant tensor:
#      x y z
#    x 4.053790 0.000000 0.113720 
#    y 0.000000 4.173860 0.000000 
#    z 0.113720 0.000000 6.568310 
# 
# 
# High freq. dielectric constant tensor:
#      x y z
#    x 1.927180 0.000000 -0.014940 
#    y 0.000000 1.945060 0.000000 
#    z -0.014940 0.000000 1.963510 
# 
# From -- ./inp_files/22673.got.cif
#   From: 2010.06.25/outbox.cif.g09.slc.cpg/sg13_12_cif.got.tgz:22673.got - 2010.06.28 04:50:58.
