data_PCOD8120754
_publ_section_title
;
Structure prediction by ZEFSAII (Michael W. Deem and Ramdas Pophale) SiO2 
 PCOD8120754
Probable space group: P 2/C
;
_chemical_formula_sum "Si O2"
_cell_formula_units_Z 24
_cell_length_a 9.786445
_cell_length_b 10.666415
_cell_length_c 10.893235
_cell_angle_alpha 90.000000
_cell_angle_beta 100.899523
_cell_angle_gamma 90.000000
_cell_volume 1116.591284
_symmetry_space_group_name_H-M "P 2/C"
_symmetry_group_IT_number 13
_symmetry_cell_setting 'monoclinic'
loop_
_space_group_symop_operation_xyz
x,y,z
-x,y,1/2-z
-x,-y,-z
x,-y,1/2+z
loop_
_atom_site_type_symbol
_atom_site_label
_atom_site_fract_x
_atom_site_fract_y
_atom_site_fract_z
Si Si1 0.021542 0.692328 0.558437
Si Si2 0.777118 0.860019 0.540416
Si Si3 0.113707 0.452120 0.672723
Si Si4 0.488868 0.096358 0.384620
Si Si5 0.335806 0.740593 0.227340
Si Si6 0.755296 0.150249 0.537543
O O1 0.110501 0.605332 0.667986
O O2 0.119583 0.760703 0.478027
O O3 0.920196 0.792892 0.608320
O O4 0.919436 0.599648 0.467980
O O5 0.658648 0.832980 0.624211
O O6 0.722028 0.808642 0.402179
O O7 0.806608 0.007528 0.531751
O O8 0.264852 0.396800 0.734791
O O9 0.000000 0.402873 0.750000
O O10 0.500000 0.034709 0.250000
O O11 0.624176 0.184088 0.425820
O O12 0.500000 0.000000 0.500000
O O13 0.500000 0.719129 0.250000
O O14 0.292445 0.830627 0.331088
#
# Coordination Sequence:
#
# PCOD8120754 Si02
#       6
#     4   4   4   4   4   4
#     4  10  22  42  60  96 124 173 222 276 329 393
#     4  10  23  36  65  97 136 171 216 265 342 403
#     4  10  21  42  66  84 125 174 226 275 330 386
#     4  10  23  38  61  94 138 177 213 261 326 393
#     4  11  22  41  66  97 127 181 220 277 331 406
#     4  11  22  37  67  94 139 167 219 270 343 398
#
# _framework density 21.493987000000001
#
# number of rings (size 3 to 8) (size 9 to 14) (size 15 to 20)
#    0.000    1.667    3.333    0.500    9.333    1.333 
#    0.000    3.333    0.000    0.000    0.000    0.000 
#    0.000    0.000    0.000    0.000    0.000    0.000 
#
# Total GULP energy -297411.668398 kJ/mol
# GULP energy per Si atom -12392.152850 kJ/mol
# Density = 2.144507 g / cm^3
# Si number density = 21.493987 Si / 1000 Ang^3
#
#
#
# Elastic Constant Matrix: (Units=GPa)
#
#
# Indices 1 2 3 4 5 6 
#
# 1 142.1133 72.6043 37.6945 0.0000 -19.9855 0.0000
# 2 72.6043 116.7308 33.7428 0.0000 -3.8601 0.0000
# 3 37.6945 33.7428 104.5940 0.0000 -16.1815 0.0000
# 4 0.0000 0.0000 0.0000 22.4337 0.0000 4.5900
# 5 -19.9855 -3.8601 -16.1815 0.0000 29.1298 0.0000
# 6 0.0000 0.0000 0.0000 4.5900 0.0000 23.3652
#
#
#
# Elastic Compliance Matrix: (Units=1/GPa)
#
#
# Indices 1 2 3 4 5 6 
#
# 1 0.011678 -0.006753 -0.001016 0.000000 0.006552 0.000000
# 2 -0.006753 0.013359 -0.002537 0.000000 -0.004272 0.000000
# 3 -0.001016 -0.002537 0.011581 0.000000 0.005400 0.000000
# 4 0.000000 0.000000 0.000000 0.046442 0.000000 -0.009123
# 5 0.006552 -0.004272 0.005400 0.000000 0.041258 0.000000
# 6 0.000000 0.000000 0.000000 -0.009123 0.000000 0.044591
#
#
# Mechanical properties :
#
#
# Convention : Reuss Voigt Hill
#
# Bulk Modulus (GPa) = 62.47924 72.39126 67.43525
# Shear Modulus (GPa) = 25.65996 29.61217 27.63607
#
# Velocity S-wave (km/s) = 3.45892 3.71576 3.58964
# Velocity P-wave (km/s) = 6.71443 7.22233 6.97300
#
# Compressibility (1/GPa) = 0.01600532
#
# Stress axis : x y z
#
# Youngs Moduli (GPa) = 85.63394 74.85642 86.34948
#
# Poissons Ratio (x) = 0.50549 0.08775
# Poissons Ratio (y) = 0.57827 0.21907
# Poissons Ratio (z) = 0.08703 0.18991
#
# Static dielectric constant tensor:
#      x y z
#    x 4.626080 0.000000 0.043440 
#    y 0.000000 3.935570 0.000000 
#    z 0.043440 0.000000 3.782160 
# 
# 
# High freq. dielectric constant tensor:
#      x y z
#    x 1.854640 0.000000 -0.011020 
#    y 0.000000 1.824080 0.000000 
#    z -0.011020 0.000000 1.840380 
# 
# From -- ./inp_files/29440.got.cif
#   From: 2010.06.25/outbox.cif.g09.slc.cpg/sg13_15_cif.got.tgz:29440.got - 2010.06.28 04:50:58.
