data_PCOD8120645
_publ_section_title
;
Structure prediction by ZEFSAII (Michael W. Deem and Ramdas Pophale) SiO2 
 PCOD8120645
Probable space group: P 2/C
;
_chemical_formula_sum "Si O2"
_cell_formula_units_Z 28
_cell_length_a 27.247916
_cell_length_b 10.651056
_cell_length_c 21.447733
_cell_angle_alpha 90.000000
_cell_angle_beta 168.001225
_cell_angle_gamma 90.000000
_cell_volume 1294.024736
_symmetry_space_group_name_H-M "P 2/C"
_symmetry_group_IT_number 13
_symmetry_cell_setting 'monoclinic'
loop_
_space_group_symop_operation_xyz
x,y,z
-x,y,1/2-z
-x,-y,-z
x,-y,1/2+z
loop_
_atom_site_type_symbol
_atom_site_label
_atom_site_fract_x
_atom_site_fract_y
_atom_site_fract_z
Si Si1 0.418989 0.727359 0.822284
Si Si2 0.081010 0.772641 0.677715
Si Si3 0.000000 0.414280 0.750000
Si Si4 0.772303 0.521212 0.582627
Si Si5 0.500000 0.085720 0.750000
Si Si6 0.272303 0.021213 0.082628
Si Si7 0.862432 0.376939 0.809562
Si Si8 0.637566 0.876939 0.190437
O O1 0.160409 0.668231 0.495802
O O2 0.429979 0.861091 0.800412
O O3 0.607817 0.632446 0.026821
O O4 0.484652 0.755334 0.977121
O O5 0.070020 0.638908 0.699587
O O6 0.015346 0.744666 0.522878
O O7 0.892182 0.867553 0.473177
O O8 0.339589 0.831769 0.004196
O O9 0.166151 0.498148 0.912901
O O10 0.822680 0.393428 0.685762
O O11 0.500000 0.559042 0.250000
O O12 0.666149 0.001852 0.912899
O O13 0.322681 0.893428 0.185763
O O14 0.000000 0.059041 0.750000
O O15 0.000000 0.500000 0.000000
O O16 0.500000 0.000000 0.000000
#
# Coordination Sequence:
#
# PCOD8120645 Si02
#       8
#     4   4   2   4   2   4   4   4
#     4  10  21  41  63  91 125 165 206 255 309 364
#     4  10  21  41  63  91 125 165 206 255 309 364
#     4  12  24  36  66  96 120 168 214 242 316 370
#     4  11  22  39  61  92 128 160 204 262 302 362
#     4  12  24  36  66  96 120 168 214 242 316 370
#     4  11  22  39  61  92 128 160 204 262 302 362
#     4   9  20  41  66  87 127 165 203 257 307 361
#     4   9  20  41  66  87 127 165 203 257 307 361
#
# _framework density 21.637916000000001
#
# number of rings (size 3 to 8) (size 9 to 14) (size 15 to 20)
#    0.000    1.714    4.286    0.000    0.000    3.429 
#    0.000   12.857    0.000    0.000    0.000    0.000 
#    0.000    0.000    0.000    0.000    0.000    0.000 
#
# Total GULP energy -346950.105869 kJ/mol
# GULP energy per Si atom -12391.075210 kJ/mol
# Density = 2.158867 g / cm^3
# Si number density = 21.637916 Si / 1000 Ang^3
#
#
#
# Elastic Constant Matrix: (Units=GPa)
#
#
# Indices 1 2 3 4 5 6 
#
# 1 100.8397 30.7862 26.8564 0.0000 14.8287 0.0000
# 2 30.7862 68.9197 34.6549 0.0000 11.5985 0.0000
# 3 26.8564 34.6549 131.3018 0.0000 4.1850 0.0000
# 4 0.0000 0.0000 0.0000 28.0296 0.0000 -0.7964
# 5 14.8287 11.5985 4.1850 0.0000 29.9282 0.0000
# 6 0.0000 0.0000 0.0000 -0.7964 0.0000 20.6231
#
#
#
# Elastic Compliance Matrix: (Units=1/GPa)
#
#
# Indices 1 2 3 4 5 6 
#
# 1 0.012120 -0.004058 -0.001272 0.000000 -0.004255 0.000000
# 2 -0.004058 0.019191 -0.004080 0.000000 -0.004856 0.000000
# 3 -0.001272 -0.004080 0.008923 0.000000 0.000964 0.000000
# 4 0.000000 0.000000 0.000000 0.035716 0.000000 0.001379
# 5 -0.004255 -0.004856 0.000964 0.000000 0.037268 0.000000
# 6 0.000000 0.000000 0.000000 0.001379 0.000000 0.048543
#
#
# Mechanical properties :
#
#
# Convention : Reuss Voigt Hill
#
# Bulk Modulus (GPa) = 46.70251 53.96179 50.33215
# Shear Modulus (GPa) = 26.63534 29.63375 28.13455
#
# Velocity S-wave (km/s) = 3.51231 3.70473 3.60980
# Velocity P-wave (km/s) = 6.17081 6.57972 6.37854
#
# Compressibility (1/GPa) = 0.02141212
#
# Stress axis : x y z
#
# Youngs Moduli (GPa) = 82.50666 52.10651 112.07603
#
# Poissons Ratio (x) = 0.21146 0.14260
# Poissons Ratio (y) = 0.33484 0.45732
# Poissons Ratio (z) = 0.10498 0.21262
#
# Static dielectric constant tensor:
#      x y z
#    x 4.016450 0.000000 -0.461610 
#    y 0.000000 3.780140 0.000000 
#    z -0.461610 0.000000 4.119470 
# 
# 
# High freq. dielectric constant tensor:
#      x y z
#    x 1.832350 0.000000 -0.020810 
#    y 0.000000 1.828230 0.000000 
#    z -0.020810 0.000000 1.871890 
# 
# From -- ./inp_files/89708.got.cif
#   From: 2010.06.25/outbox.cif.g09.slc.cpg/sg13_45_cif.got.tgz:89708.got - 2010.06.28 04:50:58.
