data_PCOD8120601
_publ_section_title
;
Structure prediction by ZEFSAII (Michael W. Deem and Ramdas Pophale) SiO2 
 PCOD8120601
Probable space group: P 2/C
;
_chemical_formula_sum "Si O2"
_cell_formula_units_Z 20
_cell_length_a 12.322714
_cell_length_b 13.639000
_cell_length_c 17.624833
_cell_angle_alpha 90.000000
_cell_angle_beta 19.096138
_cell_angle_gamma 90.000000
_cell_volume 969.095138
_symmetry_space_group_name_H-M "P 2/C"
_symmetry_group_IT_number 13
_symmetry_cell_setting 'monoclinic'
loop_
_space_group_symop_operation_xyz
x,y,z
-x,y,1/2-z
-x,-y,-z
x,-y,1/2+z
loop_
_atom_site_type_symbol
_atom_site_label
_atom_site_fract_x
_atom_site_fract_y
_atom_site_fract_z
Si Si1 0.062452 0.388119 0.976224
Si Si2 0.243049 0.666242 0.526340
Si Si3 0.742631 0.193974 0.157885
Si Si4 0.519829 0.137529 0.824740
Si Si5 0.379342 0.051134 0.501278
O O1 0.378590 0.367361 0.714435
O O2 0.119633 0.369577 0.026735
O O3 0.000000 0.500000 0.000000
O O4 0.765838 0.312573 0.150777
O O5 0.260765 0.783423 0.529611
O O6 0.000000 0.619620 0.750000
O O7 0.500000 0.166454 0.250000
O O8 0.610448 0.143176 0.323643
O O9 0.101601 0.151402 0.898066
O O10 0.500000 0.159058 0.750000
O O11 0.399540 0.029601 0.922427
O O12 0.500000 0.000000 0.500000
O O13 0.000000 0.088546 0.750000
#
# Coordination Sequence:
#
# PCOD8120601 Si02
#       5
#     4   4   4   4   4
#     4  10  23  43  67  94 128 173 224 280 342 388
#     4  10  21  40  69  98 121 166 230 270 325 401
#     4  11  23  41  60  92 130 173 212 270 338 386
#     4  11  20  41  66  90 125 180 223 257 314 411
#     4  12  25  38  62  98 135 170 219 269 327 396
#
# _framework density 20.637809000000001
#
# number of rings (size 3 to 8) (size 9 to 14) (size 15 to 20)
#    0.000    1.200    4.000    4.200    5.600    0.800 
#    0.000    1.000    0.000    0.000    0.000    0.000 
#    0.000    0.000    0.000    0.000    0.000    0.000 
#
# Total GULP energy -247839.992546 kJ/mol
# GULP energy per Si atom -12391.999627 kJ/mol
# Density = 2.059084 g / cm^3
# Si number density = 20.637809 Si / 1000 Ang^3
#
#
#
# Elastic Constant Matrix: (Units=GPa)
#
#
# Indices 1 2 3 4 5 6 
#
# 1 84.9581 22.6283 51.3493 0.0000 -2.3886 0.0000
# 2 22.6283 147.3092 48.6849 0.0000 8.3707 0.0000
# 3 51.3493 48.6849 112.4104 0.0000 17.1576 0.0000
# 4 0.0000 0.0000 0.0000 20.1581 0.0000 -3.5912
# 5 -2.3886 8.3707 17.1576 0.0000 34.6964 0.0000
# 6 0.0000 0.0000 0.0000 -3.5912 0.0000 16.6657
#
#
#
# Elastic Compliance Matrix: (Units=1/GPa)
#
#
# Indices 1 2 3 4 5 6 
#
# 1 0.017171 -0.000094 -0.008639 0.000000 0.005477 0.000000
# 2 -0.000094 0.007925 -0.003349 0.000000 -0.000262 0.000000
# 3 -0.008639 -0.003349 0.015425 0.000000 -0.007414 0.000000
# 4 0.000000 0.000000 0.000000 0.051588 0.000000 0.011116
# 5 0.005477 -0.000262 -0.007414 0.000000 0.032928 0.000000
# 6 0.000000 0.000000 0.000000 0.011116 0.000000 0.062399
#
#
# Mechanical properties :
#
#
# Convention : Reuss Voigt Hill
#
# Bulk Modulus (GPa) = 61.13995 65.55586 63.34790
# Shear Modulus (GPa) = 23.03597 29.10505 26.07051
#
# Velocity S-wave (km/s) = 3.34459 3.75944 3.55807
# Velocity P-wave (km/s) = 6.67866 7.11888 6.90228
#
# Compressibility (1/GPa) = 0.01635592
#
# Stress axis : x y z
#
# Youngs Moduli (GPa) = 58.23781 126.18818 64.83148
#
# Poissons Ratio (x) = 0.01182 0.56009
# Poissons Ratio (y) = 0.00546 0.21715
# Poissons Ratio (z) = 0.50312 0.42265
#
# Static dielectric constant tensor:
#      x y z
#    x 3.561960 0.000000 0.086270 
#    y 0.000000 3.870960 0.000000 
#    z 0.086270 0.000000 3.773130 
# 
# 
# High freq. dielectric constant tensor:
#      x y z
#    x 1.799410 0.000000 -0.002860 
#    y 0.000000 1.803540 0.000000 
#    z -0.002860 0.000000 1.816080 
# 
# From -- ./inp_files/66776.got.cif
#   From: 2010.06.25/outbox.cif.g09.slc.cpg/sg13_34_cif.got.tgz:66776.got - 2010.06.28 04:50:58.
