data_PCOD8120098
_publ_section_title
;
Structure prediction by ZEFSAII (Michael W. Deem and Ramdas Pophale) SiO2 
 PCOD8120098
Probable space group: P 2/C
;
_chemical_formula_sum "Si O2"
_cell_formula_units_Z 30
_cell_length_a 14.328151
_cell_length_b 12.545815
_cell_length_c 8.588381
_cell_angle_alpha 90.000000
_cell_angle_beta 102.847912
_cell_angle_gamma 90.000000
_cell_volume 1505.181250
_symmetry_space_group_name_H-M "P 2/C"
_symmetry_group_IT_number 13
_symmetry_cell_setting 'monoclinic'
loop_
_space_group_symop_operation_xyz
x,y,z
-x,y,1/2-z
-x,-y,-z
x,-y,1/2+z
loop_
_atom_site_type_symbol
_atom_site_label
_atom_site_fract_x
_atom_site_fract_y
_atom_site_fract_z
Si Si1 0.966513 0.354676 0.909733
Si Si2 0.718278 0.499131 0.098037
Si Si3 0.851972 0.437199 0.396738
Si Si4 0.668521 0.128343 0.900393
Si Si5 0.109417 0.875341 0.067753
Si Si6 0.568409 0.050093 0.151468
Si Si7 0.000000 0.978342 0.750000
Si Si8 0.388421 0.366161 0.683776
O O1 0.893006 0.443933 0.939207
O O2 0.911139 0.244814 0.891385
O O3 0.000000 0.385447 0.750000
O O4 0.061678 0.352191 0.055138
O O5 0.799281 0.425759 0.211671
O O6 0.666471 0.576632 0.197859
O O7 0.770902 0.578689 0.997917
O O8 0.642461 0.420099 0.990053
O O9 0.780787 0.109943 0.932297
O O10 0.637312 0.242174 0.823627
O O11 0.621140 0.040304 0.771688
O O12 0.640961 0.121359 0.075350
O O13 0.082355 0.948805 0.204371
O O14 0.046524 0.903131 0.895306
O O15 0.500000 0.115211 0.250000
O O16 0.500000 0.000000 0.000000
O O17 0.500000 0.382395 0.750000
#
# Coordination Sequence:
#
# PCOD8120098 Si02
#       8
#     4   4   4   4   4   4   2   4
#     4  11  21  36  62  88 122 156 197 251 300 347
#     4  10  21  39  60  86 120 158 201 247 291 364
#     4  10  21  37  59  90 117 152 201 248 298 342
#     4  11  22  39  66  91 119 156 201 252 300 368
#     4  11  22  39  60  86 123 164 205 238 299 351
#     4   9  19  39  64  92 116 145 192 256 313 352
#     4  10  24  40  56  84 128 168 198 246 286 358
#     4  11  23  40  61  87 122 160 199 247 308 359
#
# _framework density 19.931152999999998
#
# number of rings (size 3 to 8) (size 9 to 14) (size 15 to 20)
#    0.000    1.600    2.000    4.000    0.000    2.133 
#    0.000    8.667    0.000    0.000    0.000    0.000 
#    0.000    0.000    0.000    0.000    0.000    0.000 
#
# Total GULP energy -371917.175472 kJ/mol
# GULP energy per Si atom -12397.239182 kJ/mol
# Density = 1.988579 g / cm^3
# Si number density = 19.931153 Si / 1000 Ang^3
#
#
#
# Elastic Constant Matrix: (Units=GPa)
#
#
# Indices 1 2 3 4 5 6 
#
# 1 130.7878 25.2351 43.9288 0.0000 -1.9329 0.0000
# 2 25.2351 66.0433 19.6914 0.0000 -0.3680 0.0000
# 3 43.9288 19.6914 96.9048 0.0000 -1.5647 0.0000
# 4 0.0000 0.0000 0.0000 19.8391 0.0000 -6.9509
# 5 -1.9329 -0.3680 -1.5647 0.0000 40.6399 0.0000
# 6 0.0000 0.0000 0.0000 -6.9509 0.0000 11.2482
#
#
#
# Elastic Compliance Matrix: (Units=1/GPa)
#
#
# Indices 1 2 3 4 5 6 
#
# 1 0.009385 -0.002467 -0.003749 0.000000 0.000280 0.000000
# 2 -0.002467 0.016767 -0.002290 0.000000 -0.000054 0.000000
# 3 -0.003749 -0.002290 0.012489 0.000000 0.000282 0.000000
# 4 0.000000 0.000000 0.000000 0.064334 0.000000 0.039756
# 5 0.000280 -0.000054 0.000282 0.000000 0.024630 0.000000
# 6 0.000000 0.000000 0.000000 0.039756 0.000000 0.113470
#
#
# Mechanical properties :
#
#
# Convention : Reuss Voigt Hill
#
# Bulk Modulus (GPa) = 46.23208 52.38294 49.30751
# Shear Modulus (GPa) = 18.84693 28.00415 23.42554
#
# Velocity S-wave (km/s) = 3.07840 3.75246 3.43202
# Velocity P-wave (km/s) = 5.99013 6.71667 6.36377
#
# Compressibility (1/GPa) = 0.02163000
#
# Stress axis : x y z
#
# Youngs Moduli (GPa) = 106.55096 59.64266 80.07315
#
# Poissons Ratio (x) = 0.14713 0.30017
# Poissons Ratio (y) = 0.26284 0.18334
# Poissons Ratio (z) = 0.39943 0.13656
#
# Static dielectric constant tensor:
#      x y z
#    x 4.168800 0.000000 -0.120720 
#    y 0.000000 3.344760 0.000000 
#    z -0.120720 0.000000 4.044440 
# 
# 
# High freq. dielectric constant tensor:
#      x y z
#    x 1.799430 0.000000 -0.003270 
#    y 0.000000 1.750430 0.000000 
#    z -0.003270 0.000000 1.792590 
# 
# From -- ./inp_files/19088.got.cif
#   From: 2010.06.25/outbox.cif.g09.slc.cpg/sg13_10_cif.got.tgz:19088.got - 2010.06.28 04:50:58.
