data_PCOD8120062
_publ_section_title
;
Structure prediction by ZEFSAII (Michael W. Deem and Ramdas Pophale) SiO2 
 PCOD8120062
Probable space group: P 2/C
;
_chemical_formula_sum "Si O2"
_cell_formula_units_Z 28
_cell_length_a 8.173383
_cell_length_b 11.949576
_cell_length_c 14.601594
_cell_angle_alpha 90.000000
_cell_angle_beta 66.763156
_cell_angle_gamma 90.000000
_cell_volume 1310.431355
_symmetry_space_group_name_H-M "P 2/C"
_symmetry_group_IT_number 13
_symmetry_cell_setting 'monoclinic'
loop_
_space_group_symop_operation_xyz
x,y,z
-x,y,1/2-z
-x,-y,-z
x,-y,1/2+z
loop_
_atom_site_type_symbol
_atom_site_label
_atom_site_fract_x
_atom_site_fract_y
_atom_site_fract_z
Si Si1 0.881169 0.828236 0.864607
Si Si2 0.300143 0.763670 0.263781
Si Si3 0.338120 0.617294 0.602502
Si Si4 0.749827 0.432021 0.020605
Si Si5 0.170325 0.921597 0.149039
Si Si6 0.984234 0.215705 0.967396
Si Si7 0.292360 0.518807 0.278922
O O1 0.719945 0.741923 0.908999
O O2 0.000000 0.801387 0.750000
O O3 0.784796 0.948066 0.873108
O O4 0.002807 0.819676 0.928980
O O5 0.500000 0.754746 0.250000
O O6 0.312414 0.849116 0.175219
O O7 0.231769 0.638887 0.250034
O O8 0.176569 0.798641 0.376782
O O9 0.248058 0.533479 0.550569
O O10 0.551635 0.619770 0.560030
O O11 0.251662 0.580654 0.717637
O O12 0.803867 0.487657 0.105388
O O13 0.898749 0.338150 0.969790
O O14 0.147178 0.872299 0.052567
O O15 0.000000 0.904205 0.250000
O O16 0.500000 0.526314 0.250000
#
# Coordination Sequence:
#
# PCOD8120062 Si02
#       7
#     4   4   4   4   4   4   4
#     4  11  23  39  59  87 121 157 202 247 290 355
#     4  10  21  40  65  90 115 151 203 253 298 359
#     4  10  21  37  57  84 121 156 192 242 294 349
#     4  10  21  37  58  88 120 153 195 241 298 365
#     4   9  21  41  60  84 117 155 199 248 300 352
#     4  11  22  38  62  86 119 160 196 245 305 355
#     4   9  18  34  56  82 115 149 183 235 295 348
#
# _framework density 21.367011000000002
#
# number of rings (size 3 to 8) (size 9 to 14) (size 15 to 20)
#    0.000    2.000    0.000    3.000    0.000    6.857 
#    0.000    9.286    0.000    0.000    0.000    0.000 
#    0.000    0.000    0.000    0.000    0.000    0.000 
#
# Total GULP energy -347029.808872 kJ/mol
# GULP energy per Si atom -12393.921745 kJ/mol
# Density = 2.131838 g / cm^3
# Si number density = 21.367011 Si / 1000 Ang^3
#
#
#
# Elastic Constant Matrix: (Units=GPa)
#
#
# Indices 1 2 3 4 5 6 
#
# 1 66.9614 51.4694 42.3934 0.0000 15.9051 0.0000
# 2 51.4694 159.4507 44.5832 0.0000 16.7747 0.0000
# 3 42.3934 44.5832 119.3005 0.0000 29.6546 0.0000
# 4 0.0000 0.0000 0.0000 28.8232 0.0000 7.4816
# 5 15.9051 16.7747 29.6546 0.0000 29.0977 0.0000
# 6 0.0000 0.0000 0.0000 7.4816 0.0000 29.3527
#
#
#
# Elastic Compliance Matrix: (Units=1/GPa)
#
#
# Indices 1 2 3 4 5 6 
#
# 1 0.023650 -0.005728 -0.005184 0.000000 -0.004342 0.000000
# 2 -0.005728 0.008464 -0.000928 0.000000 -0.000803 0.000000
# 3 -0.005184 -0.000928 0.013036 0.000000 -0.009917 0.000000
# 4 0.000000 0.000000 0.000000 0.037152 0.000000 -0.009470
# 5 -0.004342 -0.000803 -0.009917 0.000000 0.047310 0.000000
# 6 0.000000 0.000000 0.000000 -0.009470 0.000000 0.036482
#
#
# Mechanical properties :
#
#
# Convention : Reuss Voigt Hill
#
# Bulk Modulus (GPa) = 46.57613 69.17831 57.87722
# Shear Modulus (GPa) = 25.38942 31.27250 28.33096
#
# Velocity S-wave (km/s) = 3.45084 3.82984 3.64527
# Velocity P-wave (km/s) = 6.14193 7.21134 6.69801
#
# Compressibility (1/GPa) = 0.02147022
#
# Stress axis : x y z
#
# Youngs Moduli (GPa) = 42.28327 118.14192 76.70818
#
# Poissons Ratio (x) = 0.67668 0.39768
# Poissons Ratio (y) = 0.24219 0.07121
# Poissons Ratio (z) = 0.21921 0.10967
#
# Static dielectric constant tensor:
#      x y z
#    x 3.724680 0.000000 0.248780 
#    y 0.000000 4.062160 0.000000 
#    z 0.248780 0.000000 4.056720 
# 
# 
# High freq. dielectric constant tensor:
#      x y z
#    x 1.824740 0.000000 0.014530 
#    y 0.000000 1.842950 0.000000 
#    z 0.014530 0.000000 1.841700 
# 
# From -- ./inp_files/46857.got.cif
#   From: 2010.06.25/outbox.cif.g09.slc.cpg/sg13_24_cif.got.tgz:46857.got - 2010.06.28 04:50:58.
