data_PCOD8120727
_publ_section_title
;
Structure prediction by ZEFSAII (Michael W. Deem and Ramdas Pophale) SiO2 
 PCOD8120727
Probable space group: P 2/C
;
_chemical_formula_sum "Si O2"
_cell_formula_units_Z 32
_cell_length_a 9.537037
_cell_length_b 11.438825
_cell_length_c 21.725789
_cell_angle_alpha 90.000000
_cell_angle_beta 137.407971
_cell_angle_gamma 90.000000
_cell_volume 1604.034934
_symmetry_space_group_name_H-M "P 2/C"
_symmetry_group_IT_number 13
_symmetry_cell_setting 'monoclinic'
loop_
_space_group_symop_operation_xyz
x,y,z
-x,y,1/2-z
-x,-y,-z
x,-y,1/2+z
loop_
_atom_site_type_symbol
_atom_site_label
_atom_site_fract_x
_atom_site_fract_y
_atom_site_fract_z
Si Si1 0.729952 0.130172 0.551458
Si Si2 0.540549 0.245815 0.835587
Si Si3 0.972992 0.510414 0.109386
Si Si4 0.336488 0.876114 0.007913
Si Si5 0.908818 0.270638 0.783179
Si Si6 0.143574 0.302089 0.351205
Si Si7 0.415649 0.358071 0.055838
Si Si8 0.335452 0.501572 0.643783
O O1 0.568919 0.127967 0.555874
O O2 0.669439 0.227711 0.481666
O O3 0.955456 0.160353 0.651188
O O4 0.747548 0.007750 0.522178
O O5 0.500000 0.211038 0.750000
O O6 0.677730 0.160356 0.924000
O O7 0.324655 0.231787 0.801218
O O8 0.642776 0.372608 0.879074
O O9 0.992845 0.404102 0.162754
O O10 0.099293 0.623771 0.171542
O O11 0.096518 0.476453 0.087020
O O12 0.731462 0.543943 0.023637
O O13 0.191089 0.796128 0.917460
O O14 0.000000 0.322987 0.750000
O O15 0.351475 0.363837 0.393519
O O16 0.000000 0.248685 0.250000
O O17 0.405191 0.391310 0.123590
O O18 0.500000 0.507647 0.750000
#
# Coordination Sequence:
#
# PCOD8120727 Si02
#       8
#     4   4   4   4   4   4   4   4
#     4   9  21  40  62  87 116 157 211 258 300 359
#     4  11  22  39  63  93 125 159 204 252 311 369
#     4  11  21  36  58  88 125 159 198 248 307 372
#     4  10  21  42  62  88 122 162 206 257 305 355
#     4  11  20  35  63  94 117 156 207 256 302 361
#     4  11  23  38  59  92 125 160 204 253 304 364
#     4  10  22  37  60  86 120 158 205 252 302 361
#     4  11  21  36  57  87 125 164 195 244 309 375
#
# _framework density 19.949688999999999
#
# number of rings (size 3 to 8) (size 9 to 14) (size 15 to 20)
#    0.000    1.500    3.750    2.625    1.750    0.500 
#    2.250    1.250    0.000    0.000    0.000    0.000 
#    0.000    0.000    0.000    0.000    0.000    0.000 
#
# Total GULP energy -396585.666608 kJ/mol
# GULP energy per Si atom -12393.302082 kJ/mol
# Density = 1.990428 g / cm^3
# Si number density = 19.949689 Si / 1000 Ang^3
#
#
#
# Elastic Constant Matrix: (Units=GPa)
#
#
# Indices 1 2 3 4 5 6 
#
# 1 93.2568 40.6699 30.2944 0.0000 -1.8043 0.0000
# 2 40.6699 102.3089 34.7959 0.0000 -10.3394 0.0000
# 3 30.2944 34.7959 83.8373 0.0000 -7.7215 0.0000
# 4 0.0000 0.0000 0.0000 8.5516 0.0000 -14.5431
# 5 -1.8043 -10.3394 -7.7215 0.0000 34.1516 0.0000
# 6 0.0000 0.0000 0.0000 -14.5431 0.0000 19.0641
#
#
#
# Elastic Compliance Matrix: (Units=1/GPa)
#
#
# Indices 1 2 3 4 5 6 
#
# 1 0.013698 -0.004491 -0.003211 0.000000 -0.001362 0.000000
# 2 -0.004491 0.013054 -0.003526 0.000000 0.002917 0.000000
# 3 -0.003211 -0.003526 0.014745 0.000000 0.002096 0.000000
# 4 0.000000 0.000000 0.000000 -0.393299 0.000000 -0.300028
# 5 -0.001362 0.002917 0.002096 0.000000 0.030567 0.000000
# 6 0.000000 0.000000 0.000000 -0.300028 0.000000 -0.176422
#
#
# Mechanical properties :
#
#
# Convention : Reuss Voigt Hill
#
# Bulk Modulus (GPa) = 52.52147 54.54703 53.53425
# Shear Modulus (GPa) = -10.66433 23.92965 6.63266
#
# Velocity S-wave (km/s) = -2.31457 3.46714 1.82535
# Velocity P-wave (km/s) = 4.38647 6.59012 5.59781
#
# Compressibility (1/GPa) = 0.01903983
#
# Stress axis : x y z
#
# Youngs Moduli (GPa) = 73.00104 76.60666 67.81959
#
# Poissons Ratio (x) = 0.34403 0.21780
# Poissons Ratio (y) = 0.32783 0.23916
# Poissons Ratio (z) = 0.23444 0.27014
#
# Static dielectric constant tensor:
#      x y z
#    x 3.638770 0.000000 -0.015580 
#    y 0.000000 3.526970 0.000000 
#    z -0.015580 0.000000 3.710300 
# 
# 
# High freq. dielectric constant tensor:
#      x y z
#    x 1.773930 0.000000 0.000800 
#    y 0.000000 1.757940 0.000000 
#    z 0.000800 0.000000 1.788890 
# 
# From -- ./inp_files/76457.got.cif
#   From: 2010.06.25/outbox.cif.g09.slc.cpg/sg13_39_cif.got.tgz:76457.got - 2010.06.28 04:50:58.
