data_PCOD8120509
_publ_section_title
;
Structure prediction by ZEFSAII (Michael W. Deem and Ramdas Pophale) SiO2 
 PCOD8120509
Probable space group: P 2/C
;
_chemical_formula_sum "Si O2"
_cell_formula_units_Z 30
_cell_length_a 9.356613
_cell_length_b 12.154965
_cell_length_c 13.517995
_cell_angle_alpha 90.000000
_cell_angle_beta 95.726076
_cell_angle_gamma 90.000000
_cell_volume 1529.720978
_symmetry_space_group_name_H-M "P 2/C"
_symmetry_group_IT_number 13
_symmetry_cell_setting 'monoclinic'
loop_
_space_group_symop_operation_xyz
x,y,z
-x,y,1/2-z
-x,-y,-z
x,-y,1/2+z
loop_
_atom_site_type_symbol
_atom_site_label
_atom_site_fract_x
_atom_site_fract_y
_atom_site_fract_z
Si Si1 0.844875 0.998697 0.776506
Si Si2 0.671645 0.710681 0.067988
Si Si3 0.000000 0.577588 0.250000
Si Si4 0.637681 0.899873 0.601749
Si Si5 0.653737 0.308151 0.988044
Si Si6 0.776680 0.250940 0.789922
Si Si7 0.141336 0.507351 0.445336
Si Si8 0.677917 0.923356 0.944440
O O1 0.726924 0.957091 0.692458
O O2 0.809921 0.939543 0.878044
O O3 0.000000 0.959325 0.750000
O O4 0.843439 0.129855 0.786005
O O5 0.515985 0.667378 0.024148
O O6 0.679603 0.722172 0.187344
O O7 0.786952 0.625641 0.033020
O O8 0.715193 0.826800 0.023371
O O9 0.901558 0.658135 0.309571
O O10 0.905966 0.498483 0.172979
O O11 0.690752 0.776966 0.578933
O O12 0.470569 0.897295 0.623639
O O13 0.654958 0.963923 0.500468
O O14 0.683916 0.257441 0.882467
O O15 0.743064 0.416352 0.017985
O O16 0.000000 0.500000 0.500000
#
# Coordination Sequence:
#
# PCOD8120509 Si02
#       8
#     4   4   2   4   4   4   4   4
#     4  12  24  37  59  93 129 167 207 251 307 376
#     4  10  23  40  66  94 121 160 215 260 301 368
#     4  10  22  42  60  90 120 164 200 248 314 374
#     4  10  22  39  61  90 123 164 204 253 307 369
#     4  11  22  41  65  94 123 163 208 257 310 366
#     4  11  20  37  65  95 123 154 207 257 307 363
#     4  11  23  42  67  87 125 161 201 257 313 371
#     4  10  21  40  62  87 126 163 203 254 312 357
#
# _framework density 19.611419000000001
#
# number of rings (size 3 to 8) (size 9 to 14) (size 15 to 20)
#    0.000    1.333    4.667    1.200    0.000    2.667 
#    3.600    0.000    0.000    0.000    0.000    0.000 
#    0.000    0.000    0.000    0.000    0.000    0.000 
#
# Total GULP energy -371996.686898 kJ/mol
# GULP energy per Si atom -12399.889563 kJ/mol
# Density = 1.956678 g / cm^3
# Si number density = 19.611419 Si / 1000 Ang^3
#
#
#
# Elastic Constant Matrix: (Units=GPa)
#
#
# Indices 1 2 3 4 5 6 
#
# 1 94.6310 33.9941 33.6760 0.0000 -11.4247 0.0000
# 2 33.9941 79.8342 30.9241 0.0000 3.2619 0.0000
# 3 33.6760 30.9241 77.6094 0.0000 -2.3144 0.0000
# 4 0.0000 0.0000 0.0000 30.7905 0.0000 -1.0907
# 5 -11.4247 3.2619 -2.3144 0.0000 35.6042 0.0000
# 6 0.0000 0.0000 0.0000 -1.0907 0.0000 30.3133
#
#
#
# Elastic Compliance Matrix: (Units=1/GPa)
#
#
# Indices 1 2 3 4 5 6 
#
# 1 0.014312 -0.004656 -0.004214 0.000000 0.004745 0.000000
# 2 -0.004656 0.016436 -0.004627 0.000000 -0.003301 0.000000
# 3 -0.004214 -0.004627 0.016562 0.000000 0.000148 0.000000
# 4 0.000000 0.000000 0.000000 0.032519 0.000000 0.001170
# 5 0.004745 -0.003301 0.000148 0.000000 0.029921 0.000000
# 6 0.000000 0.000000 0.000000 0.001170 0.000000 0.033031
#
#
# Mechanical properties :
#
#
# Convention : Reuss Voigt Hill
#
# Bulk Modulus (GPa) = 49.22190 49.91810 49.57000
# Shear Modulus (GPa) = 28.32122 29.57363 28.94742
#
# Velocity S-wave (km/s) = 3.80428 3.88748 3.84611
# Velocity P-wave (km/s) = 6.66707 6.75714 6.71225
#
# Compressibility (1/GPa) = 0.02031616
#
# Stress axis : x y z
#
# Youngs Moduli (GPa) = 69.86991 60.84316 60.38099
#
# Poissons Ratio (x) = 0.28329 0.25442
# Poissons Ratio (y) = 0.32532 0.27938
# Poissons Ratio (z) = 0.29441 0.28152
#
# Static dielectric constant tensor:
#      x y z
#    x 3.691540 0.000000 -0.020450 
#    y 0.000000 3.552020 0.000000 
#    z -0.020450 0.000000 3.512350 
# 
# 
# High freq. dielectric constant tensor:
#      x y z
#    x 1.770430 0.000000 0.000010 
#    y 0.000000 1.761510 0.000000 
#    z 0.000010 0.000000 1.761800 
# 
# From -- ./inp_files/46931.got.cif
#   From: 2010.06.25/outbox.cif.g09.slc.cpg/sg13_24_cif.got.tgz:46931.got - 2010.06.28 04:50:58.
