data_PCOD8120325
_publ_section_title
;
Structure prediction by ZEFSAII (Michael W. Deem and Ramdas Pophale) SiO2 
 PCOD8120325
Probable space group: P 2/C
;
_chemical_formula_sum "Si O2"
_cell_formula_units_Z 28
_cell_length_a 14.963359
_cell_length_b 9.380625
_cell_length_c 20.789107
_cell_angle_alpha 90.000000
_cell_angle_beta 27.534128
_cell_angle_gamma 90.000000
_cell_volume 1348.959387
_symmetry_space_group_name_H-M "P 2/C"
_symmetry_group_IT_number 13
_symmetry_cell_setting 'monoclinic'
loop_
_space_group_symop_operation_xyz
x,y,z
-x,y,1/2-z
-x,-y,-z
x,-y,1/2+z
loop_
_atom_site_type_symbol
_atom_site_label
_atom_site_fract_x
_atom_site_fract_y
_atom_site_fract_z
Si Si1 0.763943 0.617384 0.058838
Si Si2 0.090800 0.544573 0.757614
Si Si3 0.361006 0.266123 0.150425
Si Si4 0.863621 0.018268 0.671299
Si Si5 0.715204 0.064515 0.628009
Si Si6 0.406825 0.532092 0.204592
Si Si7 0.706429 0.272867 0.843171
O O1 0.718955 0.784429 0.090236
O O2 0.615325 0.549179 0.103560
O O3 0.753563 0.554540 0.137489
O O4 0.973085 0.580739 0.897742
O O5 0.281296 0.638675 0.642652
O O6 0.139804 0.378119 0.721690
O O7 0.000000 0.598555 0.750000
O O8 0.392505 0.367857 0.191826
O O9 0.217922 0.138064 0.260462
O O10 0.560899 0.216397 0.991202
O O11 0.748213 0.076702 0.682973
O O12 0.817974 0.128971 0.755888
O O13 0.097623 0.023553 0.516353
O O14 0.500000 0.996579 0.750000
O O15 0.382532 0.644197 0.161800
#
# Coordination Sequence:
#
# PCOD8120325 Si02
#       7
#     4   4   4   4   4   4   4
#     4  11  19  38  67  95 127 165 224 272 330 382
#     4  11  23  39  64  94 128 168 220 277 327 388
#     4  11  23  41  64  97 130 174 222 268 333 391
#     4  11  24  43  67  97 133 179 220 260 340 397
#     4  11  22  43  68  96 133 172 220 277 328 397
#     4  10  21  38  68  95 123 170 219 277 325 382
#     4  11  22  42  63  88 138 172 214 268 328 391
#
# _framework density 20.756741000000002
#
# number of rings (size 3 to 8) (size 9 to 14) (size 15 to 20)
#    0.000    1.143    4.286    3.857    0.000    4.571 
#    7.714    0.714    0.000    0.000    0.000    0.000 
#    0.000    0.000    0.000    0.000    0.000    0.000 
#
# Total GULP energy -347037.243188 kJ/mol
# GULP energy per Si atom -12394.187257 kJ/mol
# Density = 2.070950 g / cm^3
# Si number density = 20.756741 Si / 1000 Ang^3
#
#
#
# Elastic Constant Matrix: (Units=GPa)
#
#
# Indices 1 2 3 4 5 6 
#
# 1 87.2402 14.6848 23.6580 0.0000 -7.9684 0.0000
# 2 14.6848 88.1444 19.9101 0.0000 -8.8575 0.0000
# 3 23.6580 19.9101 127.4001 0.0000 0.4375 0.0000
# 4 0.0000 0.0000 0.0000 28.3026 0.0000 -0.9914
# 5 -7.9684 -8.8575 0.4375 0.0000 33.3575 0.0000
# 6 0.0000 0.0000 0.0000 -0.9914 0.0000 5.1867
#
#
#
# Elastic Compliance Matrix: (Units=1/GPa)
#
#
# Indices 1 2 3 4 5 6 
#
# 1 0.012506 -0.001337 -0.002123 0.000000 0.002660 0.000000
# 2 -0.001337 0.012243 -0.001675 0.000000 0.002954 0.000000
# 3 -0.002123 -0.001675 0.008509 0.000000 -0.001063 0.000000
# 4 0.000000 0.000000 0.000000 0.035571 0.000000 0.006799
# 5 0.002660 0.002954 -0.001063 0.000000 0.031412 0.000000
# 6 0.000000 0.000000 0.000000 0.006799 0.000000 0.194102
#
#
# Mechanical properties :
#
#
# Convention : Reuss Voigt Hill
#
# Bulk Modulus (GPa) = 43.49929 46.58783 45.04356
# Shear Modulus (GPa) = 16.01155 29.67146 22.84151
#
# Velocity S-wave (km/s) = 2.78040 3.78496 3.32088
# Velocity P-wave (km/s) = 5.59551 6.44939 6.03756
#
# Compressibility (1/GPa) = 0.02298888
#
# Stress axis : x y z
#
# Youngs Moduli (GPa) = 79.96020 81.67985 117.52379
#
# Poissons Ratio (x) = 0.10918 0.24946
# Poissons Ratio (y) = 0.10689 0.19688
# Poissons Ratio (z) = 0.16972 0.13683
#
# Static dielectric constant tensor:
#      x y z
#    x 3.688030 0.000000 -0.016040 
#    y 0.000000 3.581670 0.000000 
#    z -0.016040 0.000000 3.984880 
# 
# 
# High freq. dielectric constant tensor:
#      x y z
#    x 1.808400 0.000000 0.002290 
#    y 0.000000 1.800100 0.000000 
#    z 0.002290 0.000000 1.830730 
# 
# From -- ./inp_files/79921.got.cif
#   From: 2010.06.25/outbox.cif.g09.slc.cpg/sg13_40_cif.got.tgz:79921.got - 2010.06.28 04:50:58.
