data_PCOD8120344
_publ_section_title
;
Structure prediction by ZEFSAII (Michael W. Deem and Ramdas Pophale) SiO2 
 PCOD8120344
Probable space group: P 2/C
;
_chemical_formula_sum "Si O2"
_cell_formula_units_Z 32
_cell_length_a 11.131772
_cell_length_b 10.501942
_cell_length_c 12.645653
_cell_angle_alpha 90.000000
_cell_angle_beta 86.563147
_cell_angle_gamma 90.000000
_cell_volume 1475.684059
_symmetry_space_group_name_H-M "P 2/C"
_symmetry_group_IT_number 13
_symmetry_cell_setting 'monoclinic'
loop_
_space_group_symop_operation_xyz
x,y,z
-x,y,1/2-z
-x,-y,-z
x,-y,1/2+z
loop_
_atom_site_type_symbol
_atom_site_label
_atom_site_fract_x
_atom_site_fract_y
_atom_site_fract_z
Si Si1 0.211366 0.013214 0.478449
Si Si2 0.027838 0.615767 0.865989
Si Si3 0.623475 0.382013 0.296637
Si Si4 0.570388 0.607342 0.432604
Si Si5 0.010586 0.892711 0.128904
Si Si6 0.890070 0.643714 0.072230
Si Si7 0.652955 0.755316 0.016498
Si Si8 0.257048 0.724558 0.909553
O O1 0.311250 0.904251 0.494352
O O2 0.096544 0.969489 0.419440
O O3 0.147533 0.068908 0.587878
O O4 0.286307 0.124927 0.414346
O O5 0.093825 0.479551 0.855970
O O6 0.112655 0.715123 0.924536
O O7 0.000000 0.664790 0.750000
O O8 0.909721 0.610274 0.946094
O O9 0.500000 0.336597 0.250000
O O10 0.618745 0.535033 0.324212
O O11 0.649047 0.298789 0.398513
O O12 0.720503 0.346351 0.203219
O O13 0.500000 0.500000 0.500000
O O14 0.476654 0.725713 0.419798
O O15 0.682693 0.652331 0.495713
O O16 0.000000 0.929399 0.250000
O O17 0.986131 0.744165 0.110878
O O18 0.752272 0.688777 0.085803
#
# Coordination Sequence:
#
# PCOD8120344 Si02
#       8
#     4   4   4   4   4   4   4   4
#     4  10  24  40  65  97 130 177 220 276 319 396
#     4  11  22  35  59  96 128 166 214 276 330 385
#     4  11  22  40  68  95 122 172 218 266 336 398
#     4  10  21  42  64  91 128 168 208 280 332 388
#     4  10  21  43  63  88 135 180 220 259 331 395
#     4  10  21  39  58  91 132 165 217 269 331 392
#     4  10  21  42  65  90 134 172 213 270 330 394
#     4  12  23  41  66  96 132 172 222 272 330 395
#
# _framework density 21.68486
#
# number of rings (size 3 to 8) (size 9 to 14) (size 15 to 20)
#    0.000    1.500    3.750    2.625    1.750    2.000 
#    2.250    0.000    0.000    0.000    0.000    0.000 
#    0.000    0.000    0.000    0.000    0.000    0.000 
#
# Total GULP energy -396524.039009 kJ/mol
# GULP energy per Si atom -12391.376219 kJ/mol
# Density = 2.163550 g / cm^3
# Si number density = 21.684860 Si / 1000 Ang^3
#
#
#
# Elastic Constant Matrix: (Units=GPa)
#
#
# Indices 1 2 3 4 5 6 
#
# 1 81.3667 38.0142 28.5442 0.0000 13.0438 0.0000
# 2 38.0142 129.4322 27.0947 0.0000 3.1604 0.0000
# 3 28.5442 27.0947 63.2271 0.0000 -7.2128 0.0000
# 4 0.0000 0.0000 0.0000 -0.9547 0.0000 -39.7124
# 5 13.0438 3.1604 -7.2128 0.0000 28.8140 0.0000
# 6 0.0000 0.0000 0.0000 -39.7124 0.0000 -10.9279
#
#
#
# Elastic Compliance Matrix: (Units=1/GPa)
#
#
# Indices 1 2 3 4 5 6 
#
# 1 0.018256 -0.003472 -0.007878 0.000000 -0.009855 0.000000
# 2 -0.003472 0.009249 -0.002401 0.000000 -0.000044 0.000000
# 3 -0.007878 -0.002401 0.021451 0.000000 0.009199 0.000000
# 4 0.000000 0.000000 0.000000 0.006975 0.000000 -0.025349
# 5 -0.009855 -0.000044 0.009199 0.000000 0.041474 0.000000
# 6 0.000000 0.000000 0.000000 -0.025349 0.000000 0.000609
#
#
# Mechanical properties :
#
#
# Convention : Reuss Voigt Hill
#
# Bulk Modulus (GPa) = 46.61197 51.25914 48.93555
# Shear Modulus (GPa) = 37.68768 15.41115 26.54942
#
# Velocity S-wave (km/s) = 4.17342 2.66876 3.50284
# Velocity P-wave (km/s) = 6.69067 5.76072 6.24304
#
# Compressibility (1/GPa) = 0.02145372
#
# Stress axis : x y z
#
# Youngs Moduli (GPa) = 54.77729 108.11402 46.61766
#
# Poissons Ratio (x) = 0.37536 0.36726
# Poissons Ratio (y) = 0.19018 0.11194
# Poissons Ratio (z) = 0.43154 0.25961
#
# Static dielectric constant tensor:
#      x y z
#    x 4.114390 0.000000 -0.245990 
#    y 0.000000 4.325250 0.000000 
#    z -0.245990 0.000000 4.518270 
# 
# 
# High freq. dielectric constant tensor:
#      x y z
#    x 1.853020 0.000000 0.006810 
#    y 0.000000 1.848900 0.000000 
#    z 0.006810 0.000000 1.836510 
# 
# From -- ./inp_files/33871.got.cif
#   From: 2010.06.25/outbox.cif.g09.slc.cpg/sg13_17_cif.got.tgz:33871.got - 2010.06.28 04:50:58.
