data_PCOD8120794
_publ_section_title
;
Structure prediction by ZEFSAII (Michael W. Deem and Ramdas Pophale) SiO2 
 PCOD8120794
Probable space group: P 2/C
;
_chemical_formula_sum "Si O2"
_cell_formula_units_Z 24
_cell_length_a 13.738018
_cell_length_b 8.702868
_cell_length_c 14.297080
_cell_angle_alpha 90.000000
_cell_angle_beta 38.994897
_cell_angle_gamma 90.000000
_cell_volume 1075.617497
_symmetry_space_group_name_H-M "P 2/C"
_symmetry_group_IT_number 13
_symmetry_cell_setting 'monoclinic'
loop_
_space_group_symop_operation_xyz
x,y,z
-x,y,1/2-z
-x,-y,-z
x,-y,1/2+z
loop_
_atom_site_type_symbol
_atom_site_label
_atom_site_fract_x
_atom_site_fract_y
_atom_site_fract_z
Si Si1 0.344120 0.348667 0.806428
Si Si2 0.350832 0.186958 0.605085
Si Si3 0.697738 0.155043 0.335248
Si Si4 0.859701 0.384396 0.078116
Si Si5 0.848199 0.180750 0.912231
Si Si6 0.168339 0.844028 0.577140
O O1 0.500000 0.329827 0.750000
O O2 0.358721 0.290739 0.690046
O O3 0.298233 0.525545 0.827016
O O4 0.198680 0.266057 0.966082
O O5 0.521700 0.170433 0.433747
O O6 0.260258 0.263230 0.584870
O O7 0.264258 0.027454 0.697362
O O8 0.820603 0.255100 0.184495
O O9 0.710315 0.206996 0.433590
O O10 0.901181 0.296063 0.952799
O O11 0.000000 0.500000 0.000000
O O12 0.000000 0.121428 0.750000
O O13 0.782686 0.015604 0.996163
O O14 0.000000 0.822941 0.750000
#
# Coordination Sequence:
#
# PCOD8120794 Si02
#       6
#     4   4   4   4   4   4
#     4  12  25  41  63 101 136 176 217 273 344 411
#     4  10  22  43  70  96 130 170 235 287 328 394
#     4  10  22  42  68  98 128 177 227 285 338 389
#     4  12  27  43  64  98 139 181 218 272 347 421
#     4  10  23  43  68  96 126 175 226 278 330 391
#     4  10  21  42  70  97 129 172 229 278 330 394
#
# _framework density 22.312764000000001
#
# number of rings (size 3 to 8) (size 9 to 14) (size 15 to 20)
#    0.000    1.333    1.667    3.000    2.333    4.000 
#    0.000    6.667    0.000    0.000    0.000    0.000 
#    0.000    0.000    0.000    0.000    0.000    0.000 
#
# Total GULP energy -297373.766350 kJ/mol
# GULP energy per Si atom -12390.573598 kJ/mol
# Density = 2.226198 g / cm^3
# Si number density = 22.312764 Si / 1000 Ang^3
#
#
#
# Elastic Constant Matrix: (Units=GPa)
#
#
# Indices 1 2 3 4 5 6 
#
# 1 108.1630 30.8369 22.0496 0.0000 3.4034 0.0000
# 2 30.8369 95.9979 37.6816 0.0000 11.3809 0.0000
# 3 22.0496 37.6816 73.5760 0.0000 1.2655 0.0000
# 4 0.0000 0.0000 0.0000 4.4713 0.0000 -15.4701
# 5 3.4034 11.3809 1.2655 0.0000 34.6816 0.0000
# 6 0.0000 0.0000 0.0000 -15.4701 0.0000 29.3444
#
#
#
# Elastic Compliance Matrix: (Units=1/GPa)
#
#
# Indices 1 2 3 4 5 6 
#
# 1 0.010355 -0.002626 -0.001757 0.000000 -0.000090 0.000000
# 2 -0.002626 0.014294 -0.006462 0.000000 -0.004197 0.000000
# 3 -0.001757 -0.006462 0.017399 0.000000 0.001658 0.000000
# 4 0.000000 0.000000 0.000000 -0.271416 0.000000 -0.143088
# 5 -0.000090 -0.004197 0.001658 0.000000 0.030159 0.000000
# 6 0.000000 0.000000 0.000000 -0.143088 0.000000 -0.041356
#
#
# Mechanical properties :
#
#
# Convention : Reuss Voigt Hill
#
# Bulk Modulus (GPa) = 49.11791 50.98590 50.05190
# Shear Modulus (GPa) = -23.57494 26.17739 1.30122
#
# Velocity S-wave (km/s) = -3.25401 3.42892 0.76449
# Velocity P-wave (km/s) = 2.81833 6.21102 4.82285
#
# Compressibility (1/GPa) = 0.02035917
#
# Stress axis : x y z
#
# Youngs Moduli (GPa) = 96.57237 69.95759 57.47575
#
# Poissons Ratio (x) = 0.18371 0.10097
# Poissons Ratio (y) = 0.25360 0.37139
# Poissons Ratio (z) = 0.16966 0.45204
#
# Static dielectric constant tensor:
#      x y z
#    x 4.250580 0.000000 -0.063900 
#    y 0.000000 3.946490 0.000000 
#    z -0.063900 0.000000 3.754900 
# 
# 
# High freq. dielectric constant tensor:
#      x y z
#    x 1.897470 0.000000 -0.003220 
#    y 0.000000 1.870950 0.000000 
#    z -0.003220 0.000000 1.867620 
# 
# From -- ./inp_files/52870.got.cif
#   From: 2010.06.25/outbox.cif.g09.slc.cpg/sg13_27_cif.got.tgz:52870.got - 2010.06.28 04:50:58.
