data_PCOD8120469
_publ_section_title
;
Structure prediction by ZEFSAII (Michael W. Deem and Ramdas Pophale) SiO2 
 PCOD8120469
Probable space group: P 2/C
;
_chemical_formula_sum "Si O2"
_cell_formula_units_Z 16
_cell_length_a 8.791083
_cell_length_b 7.485868
_cell_length_c 10.395425
_cell_angle_alpha 90.000000
_cell_angle_beta 89.600517
_cell_angle_gamma 90.000000
_cell_volume 684.094720
_symmetry_space_group_name_H-M "P 2/C"
_symmetry_group_IT_number 13
_symmetry_cell_setting 'monoclinic'
loop_
_space_group_symop_operation_xyz
x,y,z
-x,y,1/2-z
-x,-y,-z
x,-y,1/2+z
loop_
_atom_site_type_symbol
_atom_site_label
_atom_site_fract_x
_atom_site_fract_y
_atom_site_fract_z
Si Si1 0.213715 0.338363 0.528245
Si Si2 0.085731 0.312996 0.121116
Si Si3 0.170973 0.944274 0.224870
Si Si4 0.589425 0.094069 0.115252
O O1 0.212310 0.545300 0.570849
O O2 0.346076 0.292222 0.423552
O O3 0.044470 0.283678 0.483893
O O4 0.255722 0.211089 0.647448
O O5 0.175467 0.130316 0.145449
O O6 0.000000 0.383974 0.250000
O O7 0.261549 0.971259 0.357933
O O8 0.000000 0.883094 0.250000
O O9 0.500000 0.111548 0.250000
O O10 0.500000 0.000000 0.000000
#
# Coordination Sequence:
#
# PCOD8120469 Si02
#       4
#     4   4   4   4
#     4  11  22  41  69 102 140 177 232 295 350 412
#     4  10  21  39  69 109 133 167 237 302 345 402
#     4  11  22  42  74 102 134 185 239 293 348 412
#     4  12  25  44  70 102 148 190 232 284 356 429
#
# _framework density 23.388573000000001
#
# number of rings (size 3 to 8) (size 9 to 14) (size 15 to 20)
#    0.000    1.000    7.500    1.500    0.000    0.000 
#    0.000    1.250    5.500    0.000    0.000    0.000 
#    0.000    0.000    0.000    0.000    0.000    0.000 
#
# Total GULP energy -198319.788450 kJ/mol
# GULP energy per Si atom -12394.986778 kJ/mol
# Density = 2.333534 g / cm^3
# Si number density = 23.388573 Si / 1000 Ang^3
#
#
#
# Elastic Constant Matrix: (Units=GPa)
#
#
# Indices 1 2 3 4 5 6 
#
# 1 82.2305 20.1168 24.8454 0.0000 -11.4137 0.0000
# 2 20.1168 96.1432 31.1297 0.0000 -8.8379 0.0000
# 3 24.8454 31.1297 103.5802 0.0000 -3.5395 0.0000
# 4 0.0000 0.0000 0.0000 33.7342 0.0000 -10.2860
# 5 -11.4137 -8.8379 -3.5395 0.0000 50.5167 0.0000
# 6 0.0000 0.0000 0.0000 -10.2860 0.0000 28.9028
#
#
#
# Elastic Compliance Matrix: (Units=1/GPa)
#
#
# Indices 1 2 3 4 5 6 
#
# 1 0.013767 -0.001773 -0.002680 0.000000 0.002613 0.000000
# 2 -0.001773 0.011912 -0.003105 0.000000 0.001466 0.000000
# 3 -0.002680 -0.003105 0.011218 0.000000 -0.000363 0.000000
# 4 0.000000 0.000000 0.000000 0.033252 0.000000 0.011834
# 5 0.002613 0.001466 -0.000363 0.000000 0.020617 0.000000
# 6 0.000000 0.000000 0.000000 0.011834 0.000000 0.038810
#
#
# Mechanical properties :
#
#
# Convention : Reuss Voigt Hill
#
# Bulk Modulus (GPa) = 45.90971 48.23754 47.07362
# Shear Modulus (GPa) = 32.90525 36.35488 34.63006
#
# Velocity S-wave (km/s) = 3.75493 3.94685 3.85208
# Velocity P-wave (km/s) = 6.20250 6.43734 6.32101
#
# Compressibility (1/GPa) = 0.02178189
#
# Stress axis : x y z
#
# Youngs Moduli (GPa) = 72.63732 83.94839 89.14286
#
# Poissons Ratio (x) = 0.14881 0.23892
# Poissons Ratio (y) = 0.12876 0.27677
# Poissons Ratio (z) = 0.19469 0.26064
#
# Static dielectric constant tensor:
#      x y z
#    x 4.261170 0.000000 0.078920 
#    y 0.000000 3.960450 0.000000 
#    z 0.078920 0.000000 4.531300 
# 
# 
# High freq. dielectric constant tensor:
#      x y z
#    x 1.913070 0.000000 0.002990 
#    y 0.000000 1.902780 0.000000 
#    z 0.002990 0.000000 1.939830 
# 
# From -- ./inp_files/27450.got.cif
#   From: 2010.06.25/outbox.cif.g09.slc.cpg/sg13_14_cif.got.tgz:27450.got - 2010.06.28 04:50:58.
