data_PCOD8120922
_publ_section_title
;
Structure prediction by ZEFSAII (Michael W. Deem and Ramdas Pophale) SiO2 
 PCOD8120922
Probable space group: P 2/C
;
_chemical_formula_sum "Si O2"
_cell_formula_units_Z 26
_cell_length_a 12.211262
_cell_length_b 9.049639
_cell_length_c 13.760494
_cell_angle_alpha 90.000000
_cell_angle_beta 125.706027
_cell_angle_gamma 90.000000
_cell_volume 1234.791695
_symmetry_space_group_name_H-M "P 2/C"
_symmetry_group_IT_number 13
_symmetry_cell_setting 'monoclinic'
loop_
_space_group_symop_operation_xyz
x,y,z
-x,y,1/2-z
-x,-y,-z
x,-y,1/2+z
loop_
_atom_site_type_symbol
_atom_site_label
_atom_site_fract_x
_atom_site_fract_y
_atom_site_fract_z
Si Si1 0.206411 0.696439 0.860516
Si Si2 0.324437 0.177360 0.077532
Si Si3 0.211079 0.138526 0.816176
Si Si4 0.370540 0.099473 0.309124
Si Si5 0.893896 0.438000 0.821056
Si Si6 0.803666 0.478635 0.483067
Si Si7 0.000000 0.928299 0.750000
O O1 0.324557 0.778625 0.863770
O O2 0.127831 0.592688 0.743713
O O3 0.261032 0.599862 0.978138
O O4 0.107263 0.819147 0.856965
O O5 0.289431 0.109508 0.164716
O O6 0.473440 0.129409 0.124949
O O7 0.224599 0.124961 0.940440
O O8 0.310395 0.353821 0.083388
O O9 0.186081 0.307108 0.774537
O O10 0.343662 0.067653 0.834026
O O11 0.083770 0.034417 0.719700
O O12 0.054903 0.409897 0.903741
O O13 0.832075 0.443104 0.895993
#
# Coordination Sequence:
#
# PCOD8120922 Si02
#       7
#     4   4   4   4   4   4   2
#     4  11  20  41  61  90 126 160 207 253 311 369
#     4  11  22  43  65  86 124 172 208 257 314 367
#     4  11  23  40  64  92 127 164 205 260 314 375
#     4  10  25  42  63  89 126 165 213 256 311 379
#     4  11  22  38  63  99 125 157 211 258 311 369
#     4  11  22  37  68  94 128 166 206 262 307 371
#     4  10  22  36  62  92 126 158 196 254 318 372
#
# _framework density 21.056180999999999
#
# number of rings (size 3 to 8) (size 9 to 14) (size 15 to 20)
#    0.000    1.231    4.615    1.385    0.000    3.077 
#    0.000    3.077    0.000    0.000    0.000    0.000 
#    0.000    0.000    0.000    0.000    0.000    0.000 
#
# Total GULP energy -322228.749532 kJ/mol
# GULP energy per Si atom -12393.413444 kJ/mol
# Density = 2.100826 g / cm^3
# Si number density = 21.056181 Si / 1000 Ang^3
#
#
#
# Elastic Constant Matrix: (Units=GPa)
#
#
# Indices 1 2 3 4 5 6 
#
# 1 94.1931 34.0310 16.4807 0.0000 -9.8656 0.0000
# 2 34.0310 100.2145 20.8208 0.0000 0.0282 0.0000
# 3 16.4807 20.8208 78.8132 0.0000 -20.9689 0.0000
# 4 0.0000 0.0000 0.0000 23.2011 0.0000 -0.7813
# 5 -9.8656 0.0282 -20.9689 0.0000 33.3071 0.0000
# 6 0.0000 0.0000 0.0000 -0.7813 0.0000 32.9724
#
#
#
# Elastic Compliance Matrix: (Units=1/GPa)
#
#
# Indices 1 2 3 4 5 6 
#
# 1 0.012572 -0.004134 -0.000655 0.000000 0.003315 0.000000
# 2 -0.004134 0.012044 -0.003178 0.000000 -0.003235 0.000000
# 3 -0.000655 -0.003178 0.016353 0.000000 0.010104 0.000000
# 4 0.000000 0.000000 0.000000 0.043136 0.000000 0.001022
# 5 0.003315 -0.003235 0.010104 0.000000 0.037369 0.000000
# 6 0.000000 0.000000 0.000000 0.001022 0.000000 0.030353
#
#
# Mechanical properties :
#
#
# Convention : Reuss Voigt Hill
#
# Bulk Modulus (GPa) = 39.94455 46.20956 43.07705
# Shear Modulus (GPa) = 28.39218 31.35534 29.87376
#
# Velocity S-wave (km/s) = 3.67604 3.86311 3.77074
# Velocity P-wave (km/s) = 6.08518 6.47237 6.28176
#
# Compressibility (1/GPa) = 0.02503470
#
# Stress axis : x y z
#
# Youngs Moduli (GPa) = 79.54267 83.03142 61.15111
#
# Poissons Ratio (x) = 0.34326 0.04004
# Poissons Ratio (y) = 0.32884 0.19434
# Poissons Ratio (z) = 0.05208 0.26388
#
# Static dielectric constant tensor:
#      x y z
#    x 3.834640 0.000000 -0.256700 
#    y 0.000000 3.856270 0.000000 
#    z -0.256700 0.000000 3.831060 
# 
# 
# High freq. dielectric constant tensor:
#      x y z
#    x 1.825390 0.000000 -0.014700 
#    y 0.000000 1.833320 0.000000 
#    z -0.014700 0.000000 1.807270 
# 
# From -- ./inp_files/50161.got.cif
#   From: 2010.06.25/outbox.cif.g09.slc.cpg/sg13_26_cif.got.tgz:50161.got - 2010.06.28 04:50:58.
