data_PCOD8120074
_publ_section_title
;
Structure prediction by ZEFSAII (Michael W. Deem and Ramdas Pophale) SiO2 
 PCOD8120074
Probable space group: P 2/C
;
_chemical_formula_sum "Si O2"
_cell_formula_units_Z 32
_cell_length_a 18.787959
_cell_length_b 9.228696
_cell_length_c 14.084743
_cell_angle_alpha 90.000000
_cell_angle_beta 138.290879
_cell_angle_gamma 90.000000
_cell_volume 1624.869598
_symmetry_space_group_name_H-M "P 2/C"
_symmetry_group_IT_number 13
_symmetry_cell_setting 'monoclinic'
loop_
_space_group_symop_operation_xyz
x,y,z
-x,y,1/2-z
-x,-y,-z
x,-y,1/2+z
loop_
_atom_site_type_symbol
_atom_site_label
_atom_site_fract_x
_atom_site_fract_y
_atom_site_fract_z
Si Si1 0.802406 0.087221 0.465983
Si Si2 0.286798 0.610249 0.833774
Si Si3 0.177461 0.822547 0.307189
Si Si4 0.144886 0.872458 0.691132
Si Si5 0.063695 0.811465 0.908346
Si Si6 0.390372 0.725588 0.751707
Si Si7 0.373686 0.362966 0.035698
Si Si8 0.897676 0.401399 0.903104
O O1 0.852184 0.160770 0.610670
O O2 0.855271 0.151815 0.423090
O O3 0.673494 0.120180 0.330646
O O4 0.835637 0.918792 0.507164
O O5 0.217508 0.743313 0.809860
O O6 0.362101 0.665286 0.825694
O O7 0.206806 0.494954 0.711187
O O8 0.363997 0.527639 0.986024
O O9 0.287970 0.740083 0.401793
O O10 0.090237 0.723794 0.165787
O O11 0.195234 0.975360 0.272363
O O12 0.022417 0.874414 0.602806
O O13 0.000000 0.774940 0.750000
O O14 0.111267 0.666055 0.000382
O O15 0.518421 0.728696 0.877278
O O16 0.354295 0.620167 0.629567
O O17 0.000000 0.500000 0.000000
#
# Coordination Sequence:
#
# PCOD8120074 Si02
#       8
#     4   4   4   4   4   4   4   4
#     4  10  21  37  58  90 108 158 200 243 299 357
#     4  10  21  37  61  84 119 156 198 242 299 359
#     4  10  21  38  63  83 118 157 199 251 299 357
#     4  11  21  37  58  83 120 154 197 251 284 359
#     4  12  23  37  59  84 121 156 197 245 299 348
#     4   9  19  37  63  86 117 153 199 245 298 367
#     4   9  19  38  62  87 117 153 197 248 305 352
#     4  11  23  41  56  87 123 160 202 247 298 358
#
# _framework density 19.693888999999999
#
# number of rings (size 3 to 8) (size 9 to 14) (size 15 to 20)
#    0.000    1.750    3.750    0.750    0.000    1.000 
#    4.500    2.500    2.750    1.500    0.000    0.000 
#    0.000    0.000    0.000    0.000    0.000    0.000 
#
# Total GULP energy -396431.786534 kJ/mol
# GULP energy per Si atom -12388.493329 kJ/mol
# Density = 1.964906 g / cm^3
# Si number density = 19.693889 Si / 1000 Ang^3
#
#
#
# Elastic Constant Matrix: (Units=GPa)
#
#
# Indices 1 2 3 4 5 6 
#
# 1 70.4270 31.7908 32.5057 0.0000 -9.2554 0.0000
# 2 31.7908 121.1614 54.7020 0.0000 -0.0897 0.0000
# 3 32.5057 54.7020 99.0058 0.0000 -7.2997 0.0000
# 4 0.0000 0.0000 0.0000 25.9663 0.0000 0.6316
# 5 -9.2554 -0.0897 -7.2997 0.0000 31.9686 0.0000
# 6 0.0000 0.0000 0.0000 0.6316 0.0000 29.9846
#
#
#
# Elastic Compliance Matrix: (Units=1/GPa)
#
#
# Indices 1 2 3 4 5 6 
#
# 1 0.017898 -0.002907 -0.003955 0.000000 0.004271 0.000000
# 2 -0.002907 0.011529 -0.005569 0.000000 -0.002081 0.000000
# 3 -0.003955 -0.005569 0.014637 0.000000 0.002181 0.000000
# 4 0.000000 0.000000 0.000000 0.038531 0.000000 -0.000812
# 5 0.004271 -0.002081 0.002181 0.000000 0.033009 0.000000
# 6 0.000000 0.000000 0.000000 -0.000812 0.000000 0.033368
#
#
# Mechanical properties :
#
#
# Convention : Reuss Voigt Hill
#
# Bulk Modulus (GPa) = 52.07998 58.73236 55.40617
# Shear Modulus (GPa) = 27.74159 29.02362 28.38261
#
# Velocity S-wave (km/s) = 3.75726 3.84309 3.80042
# Velocity P-wave (km/s) = 6.73237 7.04130 6.88856
#
# Compressibility (1/GPa) = 0.01920124
#
# Stress axis : x y z
#
# Youngs Moduli (GPa) = 55.87154 86.73815 68.32169
#
# Poissons Ratio (x) = 0.25218 0.27022
# Poissons Ratio (y) = 0.16244 0.38047
# Poissons Ratio (z) = 0.22098 0.48303
#
# Static dielectric constant tensor:
#      x y z
#    x 3.630330 0.000000 -0.162060 
#    y 0.000000 3.781100 0.000000 
#    z -0.162060 0.000000 3.689160 
# 
# 
# High freq. dielectric constant tensor:
#      x y z
#    x 1.760420 0.000000 -0.011780 
#    y 0.000000 1.757860 0.000000 
#    z -0.011780 0.000000 1.775020 
# 
# From -- ./inp_files/57276.got.cif
#   From: 2010.06.25/outbox.cif.g09.slc.cpg/sg13_29_cif.got.tgz:57276.got - 2010.06.28 04:50:58.
