data_PCOD8120367
_publ_section_title
;
Structure prediction by ZEFSAII (Michael W. Deem and Ramdas Pophale) SiO2 
 PCOD8120367
Probable space group: P 2/C
;
_chemical_formula_sum "Si O2"
_cell_formula_units_Z 32
_cell_length_a 18.132681
_cell_length_b 11.703572
_cell_length_c 14.166631
_cell_angle_alpha 90.000000
_cell_angle_beta 150.277715
_cell_angle_gamma 90.000000
_cell_volume 1490.563477
_symmetry_space_group_name_H-M "P 2/C"
_symmetry_group_IT_number 13
_symmetry_cell_setting 'monoclinic'
loop_
_space_group_symop_operation_xyz
x,y,z
-x,y,1/2-z
-x,-y,-z
x,-y,1/2+z
loop_
_atom_site_type_symbol
_atom_site_label
_atom_site_fract_x
_atom_site_fract_y
_atom_site_fract_z
Si Si1 0.836694 0.685616 0.429689
Si Si2 0.662705 0.651052 0.414300
Si Si3 0.098482 0.256833 0.698054
Si Si4 0.708118 0.111765 0.064297
Si Si5 0.033991 0.912593 0.888086
Si Si6 0.068018 0.514665 0.724348
Si Si7 0.337464 0.125452 0.084556
Si Si8 0.207486 0.115747 0.144394
O O1 0.698781 0.642939 0.341106
O O2 0.805287 0.741006 0.292410
O O3 0.905184 0.786794 0.569774
O O4 0.952859 0.584337 0.530212
O O5 0.500000 0.598877 0.250000
O O6 0.661997 0.780806 0.450504
O O7 0.770258 0.573315 0.597867
O O8 0.074905 0.383232 0.709718
O O9 0.935237 0.200733 0.507007
O O10 0.201274 0.189113 0.884085
O O11 0.670026 0.126818 0.133781
O O12 0.883823 0.100045 0.278474
O O13 0.646065 0.002261 0.940173
O O14 0.000000 0.975108 0.750000
O O15 0.148684 0.985524 0.076737
O O16 0.000000 0.537625 0.750000
O O17 0.500000 0.183621 0.250000
O O18 0.303755 0.133942 0.157621
#
# Coordination Sequence:
#
# PCOD8120367 Si02
#       8
#     4   4   4   4   4   4   4   4
#     4  11  21  38  65  93 115 149 200 257 296 340
#     4  11  23  40  62  89 121 158 197 242 296 356
#     4  12  23  40  64  90 118 157 202 247 296 351
#     4  12  22  38  63  91 119 152 200 251 296 345
#     4  12  17  35  63  91 118 146 192 252 300 336
#     4  10  21  39  61  88 120 151 198 252 298 342
#     4  12  27  41  56  87 130 165 193 235 298 365
#     4  12  23  38  65  90 118 156 202 247 297 351
#
# _framework density 21.468392999999999
#
# number of rings (size 3 to 8) (size 9 to 14) (size 15 to 20)
#    0.000    0.500    6.250    3.375    0.000    2.000 
#    0.000    0.625    0.000    0.000    0.000    0.000 
#    0.000    0.000    0.000    0.000    0.000    0.000 
#
# Total GULP energy -396557.090426 kJ/mol
# GULP energy per Si atom -12392.409076 kJ/mol
# Density = 2.141953 g / cm^3
# Si number density = 21.468393 Si / 1000 Ang^3
#
#
#
# Elastic Constant Matrix: (Units=GPa)
#
#
# Indices 1 2 3 4 5 6 
#
# 1 95.9703 1.1877 36.6077 0.0000 4.7770 0.0000
# 2 1.1877 113.6592 15.6477 0.0000 2.5865 0.0000
# 3 36.6077 15.6477 57.6039 0.0000 11.3100 0.0000
# 4 0.0000 0.0000 0.0000 7.2422 0.0000 -1.9385
# 5 4.7770 2.5865 11.3100 0.0000 37.1759 0.0000
# 6 0.0000 0.0000 0.0000 -1.9385 0.0000 22.4720
#
#
#
# Elastic Compliance Matrix: (Units=1/GPa)
#
#
# Indices 1 2 3 4 5 6 
#
# 1 0.013921 0.001119 -0.009342 0.000000 0.000976 0.000000
# 2 0.001119 0.009230 -0.003259 0.000000 0.000205 0.000000
# 3 -0.009342 -0.003259 0.025420 0.000000 -0.006306 0.000000
# 4 0.000000 0.000000 0.000000 0.141344 0.000000 0.012193
# 5 0.000976 0.000205 -0.006306 0.000000 0.028678 0.000000
# 6 0.000000 0.000000 0.000000 0.012193 0.000000 0.045552
#
#
# Mechanical properties :
#
#
# Convention : Reuss Voigt Hill
#
# Bulk Modulus (GPa) = 39.05141 41.56882 40.31011
# Shear Modulus (GPa) = 16.91212 27.63070 22.27141
#
# Velocity S-wave (km/s) = 2.80977 3.59143 3.22437
# Velocity P-wave (km/s) = 5.36247 6.05001 5.71659
#
# Compressibility (1/GPa) = 0.02560727
#
# Stress axis : x y z
#
# Youngs Moduli (GPa) = 71.83333 108.33671 39.33840
#
# Poissons Ratio (x) = -0.12118 0.36751
# Poissons Ratio (y) = -0.08035 0.12819
# Poissons Ratio (z) = 0.67109 0.35302
#
# Static dielectric constant tensor:
#      x y z
#    x 4.167220 0.000000 -0.064610 
#    y 0.000000 3.805420 0.000000 
#    z -0.064610 0.000000 3.792040 
# 
# 
# High freq. dielectric constant tensor:
#      x y z
#    x 1.859350 0.000000 -0.012810 
#    y 0.000000 1.837550 0.000000 
#    z -0.012810 0.000000 1.820620 
# 
# From -- ./inp_files/55831.got.cif
#   From: 2010.06.25/outbox.cif.g09.slc.cpg/sg13_28_cif.got.tgz:55831.got - 2010.06.28 04:50:58.
