data_PCOD8120051
_publ_section_title
;
Structure prediction by ZEFSAII (Michael W. Deem and Ramdas Pophale) SiO2 
 PCOD8120051
Probable space group: P 2/C
;
_chemical_formula_sum "Si O2"
_cell_formula_units_Z 24
_cell_length_a 14.100656
_cell_length_b 10.591111
_cell_length_c 8.975000
_cell_angle_alpha 90.000000
_cell_angle_beta 119.073922
_cell_angle_gamma 90.000000
_cell_volume 1171.449282
_symmetry_space_group_name_H-M "P 2/C"
_symmetry_group_IT_number 13
_symmetry_cell_setting 'monoclinic'
loop_
_space_group_symop_operation_xyz
x,y,z
-x,y,1/2-z
-x,-y,-z
x,-y,1/2+z
loop_
_atom_site_type_symbol
_atom_site_label
_atom_site_fract_x
_atom_site_fract_y
_atom_site_fract_z
Si Si1 0.774873 0.566104 0.891161
Si Si2 0.399006 0.730173 0.573360
Si Si3 0.874680 0.356706 0.161495
Si Si4 0.586134 0.609624 0.211537
Si Si5 0.372019 0.023628 0.891067
Si Si6 0.699048 0.166417 0.941587
O O1 0.701445 0.664932 0.923049
O O2 0.839907 0.633369 0.808042
O O3 0.693812 0.466119 0.755727
O O4 0.854832 0.490838 0.063719
O O5 0.500000 0.770608 0.750000
O O6 0.455362 0.648507 0.483143
O O7 0.342601 0.854672 0.466333
O O8 0.000000 0.322424 0.250000
O O9 0.813792 0.240407 0.031821
O O10 0.500000 0.530191 0.250000
O O11 0.607511 0.729882 0.335207
O O12 0.318262 0.051364 0.688801
O O13 0.500000 0.000000 0.000000
O O14 0.316158 0.895784 0.907969
#
# Coordination Sequence:
#
# PCOD8120051 Si02
#       6
#     4   4   4   4   4   4
#     4  11  23  40  64  90 125 162 211 266 325 383
#     4  11  23  34  59  95 129 171 205 245 314 389
#     4  11  25  46  68  89 120 167 220 277 327 370
#     4  10  21  37  56  91 133 164 199 250 313 392
#     4  11  22  40  62  93 132 171 205 245 307 391
#     4  10  23  39  64  90 128 164 213 255 308 376
#
# _framework density 20.487444
#
# number of rings (size 3 to 8) (size 9 to 14) (size 15 to 20)
#    0.000    1.333    1.667    4.500    9.333    1.333 
#    0.000    0.833    0.000    0.000    0.000    0.000 
#    0.000    0.000    0.000    0.000    0.000    0.000 
#
# Total GULP energy -297465.849122 kJ/mol
# GULP energy per Si atom -12394.410380 kJ/mol
# Density = 2.044081 g / cm^3
# Si number density = 20.487444 Si / 1000 Ang^3
#
#
#
# Elastic Constant Matrix: (Units=GPa)
#
#
# Indices 1 2 3 4 5 6 
#
# 1 128.8826 28.0350 52.3162 0.0000 -3.6910 0.0000
# 2 28.0350 52.0038 19.3417 0.0000 -7.8989 0.0000
# 3 52.3162 19.3417 83.3654 0.0000 -3.4572 0.0000
# 4 0.0000 0.0000 0.0000 41.2397 0.0000 -7.5381
# 5 -3.6910 -7.8989 -3.4572 0.0000 34.6598 0.0000
# 6 0.0000 0.0000 0.0000 -7.5381 0.0000 23.8207
#
#
#
# Elastic Compliance Matrix: (Units=1/GPa)
#
#
# Indices 1 2 3 4 5 6 
#
# 1 0.011024 -0.003730 -0.006064 0.000000 -0.000281 0.000000
# 2 -0.003730 0.022974 -0.002800 0.000000 0.004559 0.000000
# 3 -0.006064 -0.002800 0.016466 0.000000 0.000358 0.000000
# 4 0.000000 0.000000 0.000000 0.025737 0.000000 0.008145
# 5 -0.000281 0.004559 0.000358 0.000000 0.029897 0.000000
# 6 0.000000 0.000000 0.000000 0.008145 0.000000 0.044558
#
#
# Mechanical properties :
#
#
# Convention : Reuss Voigt Hill
#
# Bulk Modulus (GPa) = 39.56596 51.51529 45.54063
# Shear Modulus (GPa) = 27.13409 30.91463 29.02436
#
# Velocity S-wave (km/s) = 3.64321 3.88874 3.76798
# Velocity P-wave (km/s) = 6.08700 6.73517 6.41927
#
# Compressibility (1/GPa) = 0.02527425
#
# Stress axis : x y z
#
# Youngs Moduli (GPa) = 90.71119 43.52684 60.73250
#
# Poissons Ratio (x) = 0.16236 0.36830
# Poissons Ratio (y) = 0.33837 0.17007
# Poissons Ratio (z) = 0.55010 0.12189
#
# Static dielectric constant tensor:
#      x y z
#    x 3.410970 0.000000 -0.153270 
#    y 0.000000 3.948030 0.000000 
#    z -0.153270 0.000000 3.881470 
# 
# 
# High freq. dielectric constant tensor:
#      x y z
#    x 1.771120 0.000000 -0.022640 
#    y 0.000000 1.808880 0.000000 
#    z -0.022640 0.000000 1.808450 
# 
# From -- ./inp_files/15883.got.cif
#   From: 2010.06.25/outbox.cif.g09.slc.cpg/sg13_8_cif.got.tgz:15883.got - 2010.06.28 04:50:58.
