data_PCOD8120037
_publ_section_title
;
Structure prediction by ZEFSAII (Michael W. Deem and Ramdas Pophale) SiO2 
 PCOD8120037
Probable space group: P 2/C
;
_chemical_formula_sum "Si O2"
_cell_formula_units_Z 26
_cell_length_a 14.237849
_cell_length_b 8.874568
_cell_length_c 11.042216
_cell_angle_alpha 90.000000
_cell_angle_beta 119.156378
_cell_angle_gamma 90.000000
_cell_volume 1218.450662
_symmetry_space_group_name_H-M "P 2/C"
_symmetry_group_IT_number 13
_symmetry_cell_setting 'monoclinic'
loop_
_space_group_symop_operation_xyz
x,y,z
-x,y,1/2-z
-x,-y,-z
x,-y,1/2+z
loop_
_atom_site_type_symbol
_atom_site_label
_atom_site_fract_x
_atom_site_fract_y
_atom_site_fract_z
Si Si1 0.500000 0.641314 0.250000
Si Si2 0.878376 0.682926 0.680789
Si Si3 0.664267 0.744472 0.177309
Si Si4 0.758492 0.792098 0.827887
Si Si5 0.772549 0.891039 0.447904
Si Si6 0.620273 0.950751 0.554829
Si Si7 0.299884 0.459145 0.017118
O O1 0.545485 0.740800 0.166497
O O2 0.402649 0.540267 0.138385
O O3 0.848526 0.710922 0.802143
O O4 0.865317 0.841821 0.600201
O O5 0.802436 0.565905 0.563079
O O6 0.000000 0.624386 0.750000
O O7 0.756388 0.758092 0.338493
O O8 0.684284 0.893170 0.111213
O O9 0.675142 0.596183 0.103480
O O10 0.654702 0.828355 0.678135
O O11 0.726913 0.681586 0.915212
O O12 0.804299 0.947905 0.911984
O O13 0.655430 0.895092 0.443646
O O14 0.500000 0.000000 0.500000
#
# Coordination Sequence:
#
# PCOD8120037 Si02
#       7
#     2   4   4   4   4   4   4
#     4  12  24  38  62  96 142 174 212 260 322 400
#     4  11  26  47  70  96 128 170 225 279 327 391
#     4  11  22  39  63  94 132 175 212 262 317 390
#     4  10  24  43  67  97 132 171 218 276 328 393
#     4  10  21  46  65  96 130 169 220 271 325 383
#     4  10  21  36  66  95 136 172 219 260 321 385
#     4  12  25  43  65  99 135 176 218 263 334 395
#
# _framework density 21.338574000000001
#
# number of rings (size 3 to 8) (size 9 to 14) (size 15 to 20)
#    0.000    1.231    3.077    2.308    4.308    3.077 
#    0.000    0.769    0.000    0.000    0.000    0.000 
#    0.000    0.000    0.000    0.000    0.000    0.000 
#
# Total GULP energy -322265.532863 kJ/mol
# GULP energy per Si atom -12394.828187 kJ/mol
# Density = 2.129001 g / cm^3
# Si number density = 21.338574 Si / 1000 Ang^3
#
#
#
# Elastic Constant Matrix: (Units=GPa)
#
#
# Indices 1 2 3 4 5 6 
#
# 1 97.9504 34.7408 51.0955 0.0000 6.7654 0.0000
# 2 34.7408 83.4155 37.7906 0.0000 -3.9118 0.0000
# 3 51.0955 37.7906 92.8560 0.0000 -5.4116 0.0000
# 4 0.0000 0.0000 0.0000 36.8835 0.0000 -14.4887
# 5 6.7654 -3.9118 -5.4116 0.0000 37.8130 0.0000
# 6 0.0000 0.0000 0.0000 -14.4887 0.0000 23.7758
#
#
#
# Elastic Compliance Matrix: (Units=1/GPa)
#
#
# Indices 1 2 3 4 5 6 
#
# 1 0.015563 -0.003295 -0.007467 0.000000 -0.004194 0.000000
# 2 -0.003295 0.015413 -0.004369 0.000000 0.001559 0.000000
# 3 -0.007467 -0.004369 0.016848 0.000000 0.003295 0.000000
# 4 0.000000 0.000000 0.000000 0.035645 0.000000 0.021722
# 5 -0.004194 0.001559 0.003295 0.000000 0.027829 0.000000
# 6 0.000000 0.000000 0.000000 0.021722 0.000000 0.055296
#
#
# Mechanical properties :
#
#
# Convention : Reuss Voigt Hill
#
# Bulk Modulus (GPa) = 56.94106 57.94175 57.44140
# Shear Modulus (GPa) = 24.66572 29.73412 27.19992
#
# Velocity S-wave (km/s) = 3.40357 3.73694 3.57414
# Velocity P-wave (km/s) = 6.49525 6.76994 6.63401
#
# Compressibility (1/GPa) = 0.01756202
#
# Stress axis : x y z
#
# Youngs Moduli (GPa) = 64.25551 64.88075 59.35381
#
# Poissons Ratio (x) = 0.21381 0.44319
# Poissons Ratio (y) = 0.21175 0.25929
# Poissons Ratio (z) = 0.47979 0.28343
#
# Static dielectric constant tensor:
#      x y z
#    x 3.628120 0.000000 -0.406670 
#    y 0.000000 4.173150 0.000000 
#    z -0.406670 0.000000 4.118900 
# 
# 
# High freq. dielectric constant tensor:
#      x y z
#    x 1.807360 0.000000 -0.028680 
#    y 0.000000 1.849060 0.000000 
#    z -0.028680 0.000000 1.845910 
# 
# From -- ./inp_files/36282.got.cif
#   From: 2010.06.25/outbox.cif.g09.slc.cpg/sg13_19_cif.got.tgz:36282.got - 2010.06.28 04:50:58.
