data_PCOD8120976
_publ_section_title
;
Structure prediction by ZEFSAII (Michael W. Deem and Ramdas Pophale) SiO2 
 PCOD8120976
Probable space group: P 2/C
;
_chemical_formula_sum "Si O2"
_cell_formula_units_Z 26
_cell_length_a 19.075569
_cell_length_b 10.566824
_cell_length_c 9.224008
_cell_angle_alpha 90.000000
_cell_angle_beta 136.516756
_cell_angle_gamma 90.000000
_cell_volume 1279.440140
_symmetry_space_group_name_H-M "P 2/C"
_symmetry_group_IT_number 13
_symmetry_cell_setting 'monoclinic'
loop_
_space_group_symop_operation_xyz
x,y,z
-x,y,1/2-z
-x,-y,-z
x,-y,1/2+z
loop_
_atom_site_type_symbol
_atom_site_label
_atom_site_fract_x
_atom_site_fract_y
_atom_site_fract_z
Si Si1 0.118076 0.866687 0.441536
Si Si2 0.279158 0.922953 0.150751
Si Si3 0.802772 0.496471 0.331885
Si Si4 0.251972 0.332011 0.997606
Si Si5 0.157417 0.741160 0.792074
Si Si6 0.000000 0.378213 0.250000
Si Si7 0.383214 0.110689 0.112443
O O1 0.150002 0.745423 0.391596
O O2 0.142989 0.844517 0.646748
O O3 0.000000 0.895028 0.250000
O O4 0.179469 0.989784 0.485820
O O5 0.314547 0.904553 0.367294
O O6 0.369883 0.987018 0.193537
O O7 0.245240 0.787981 0.034554
O O8 0.735104 0.447199 0.366850
O O9 0.803623 0.390434 0.211128
O O10 0.916552 0.529533 0.553947
O O11 0.755470 0.618099 0.179049
O O12 0.347548 0.235924 0.147235
O O13 0.050239 0.715838 0.709394
O O14 0.500000 0.127558 0.250000
#
# Coordination Sequence:
#
# PCOD8120976 Si02
#       7
#     4   4   4   4   4   2   4
#     4  10  22  38  59  88 135 169 206 248 304 369
#     4  11  23  44  64  95 127 159 209 263 312 380
#     4  11  22  40  59  88 132 166 214 253 300 357
#     4  10  23  40  63  89 125 164 209 261 304 369
#     4  11  23  36  59  90 129 168 215 247 302 362
#     4  12  22  34  60  92 124 182 214 238 294 372
#     4  11  24  46  71  92 118 162 210 268 331 375
#
# _framework density 20.321390000000001
#
# number of rings (size 3 to 8) (size 9 to 14) (size 15 to 20)
#    0.000    1.231    3.077    2.769    5.385    1.846 
#    0.000    0.769    0.000    0.000    0.000    0.000 
#    0.000    0.000    0.000    0.000    0.000    0.000 
#
# Total GULP energy -322412.230152 kJ/mol
# GULP energy per Si atom -12400.470390 kJ/mol
# Density = 2.027514 g / cm^3
# Si number density = 20.321390 Si / 1000 Ang^3
#
#
#
# Elastic Constant Matrix: (Units=GPa)
#
#
# Indices 1 2 3 4 5 6 
#
# 1 117.2985 38.4653 29.3582 0.0000 2.7829 0.0000
# 2 38.4653 73.3324 25.1347 0.0000 -3.2992 0.0000
# 3 29.3582 25.1347 50.0339 0.0000 -9.3757 0.0000
# 4 0.0000 0.0000 0.0000 26.5733 0.0000 -8.5031
# 5 2.7829 -3.2992 -9.3757 0.0000 35.6540 0.0000
# 6 0.0000 0.0000 0.0000 -8.5031 0.0000 32.4691
#
#
#
# Elastic Compliance Matrix: (Units=1/GPa)
#
#
# Indices 1 2 3 4 5 6 
#
# 1 0.011231 -0.004328 -0.004896 0.000000 -0.002565 0.000000
# 2 -0.004328 0.018157 -0.006525 0.000000 0.000302 0.000000
# 3 -0.004896 -0.006525 0.027448 0.000000 0.006996 0.000000
# 4 0.000000 0.000000 0.000000 0.041074 0.000000 0.010756
# 5 -0.002565 0.000302 0.006996 0.000000 0.030115 0.000000
# 6 0.000000 0.000000 0.000000 0.010756 0.000000 0.033615
#
#
# Mechanical properties :
#
#
# Convention : Reuss Voigt Hill
#
# Bulk Modulus (GPa) = 39.46745 47.39792 43.43268
# Shear Modulus (GPa) = 24.80350 28.78640 26.79495
#
# Velocity S-wave (km/s) = 3.49744 3.76780 3.63514
# Velocity P-wave (km/s) = 5.98108 6.50409 6.24806
#
# Compressibility (1/GPa) = 0.02533733
#
# Stress axis : x y z
#
# Youngs Moduli (GPa) = 89.04009 55.07570 36.43231
#
# Poissons Ratio (x) = 0.23838 0.17838
# Poissons Ratio (y) = 0.38538 0.23772
# Poissons Ratio (z) = 0.43596 0.35936
#
# Static dielectric constant tensor:
#      x y z
#    x 3.804860 0.000000 -0.402040 
#    y 0.000000 3.783390 0.000000 
#    z -0.402040 0.000000 3.549880 
# 
# 
# High freq. dielectric constant tensor:
#      x y z
#    x 1.792390 0.000000 -0.033040 
#    y 0.000000 1.804930 0.000000 
#    z -0.033040 0.000000 1.774600 
# 
# From -- ./inp_files/23304.got.cif
#   From: 2010.06.25/outbox.cif.g09.slc.cpg/sg13_12_cif.got.tgz:23304.got - 2010.06.28 04:50:58.
