data_PCOD8120773
_publ_section_title
;
Structure prediction by ZEFSAII (Michael W. Deem and Ramdas Pophale) SiO2 
 PCOD8120773
Probable space group: P 2/C
;
_chemical_formula_sum "Si O2"
_cell_formula_units_Z 24
_cell_length_a 8.887306
_cell_length_b 5.485894
_cell_length_c 23.266791
_cell_angle_alpha 90.000000
_cell_angle_beta 96.652558
_cell_angle_gamma 90.000000
_cell_volume 1126.730378
_symmetry_space_group_name_H-M "P 2/C"
_symmetry_group_IT_number 13
_symmetry_cell_setting 'monoclinic'
loop_
_space_group_symop_operation_xyz
x,y,z
-x,y,1/2-z
-x,-y,-z
x,-y,1/2+z
loop_
_atom_site_type_symbol
_atom_site_label
_atom_site_fract_x
_atom_site_fract_y
_atom_site_fract_z
Si Si1 0.572241 0.752402 0.478521
Si Si2 0.259096 0.505529 0.279474
Si Si3 0.563121 0.131543 0.645018
Si Si4 0.000000 0.161634 0.750000
Si Si5 0.073822 0.247608 0.479895
Si Si6 0.130160 0.858332 0.855673
Si Si7 0.500000 0.173087 0.250000
O O1 0.500000 0.500000 0.500000
O O2 0.549228 0.776238 0.409255
O O3 0.749569 0.743026 0.498076
O O4 0.500000 0.000000 0.500000
O O5 0.396001 0.627961 0.318891
O O6 0.151707 0.689711 0.240382
O O7 0.152967 0.389611 0.322749
O O8 0.340146 0.315731 0.240988
O O9 0.711052 0.997492 0.624936
O O10 0.481874 0.968268 0.689347
O O11 0.978124 0.014868 0.690178
O O12 0.049347 0.222421 0.410557
O O13 0.000000 0.500000 0.500000
O O14 0.000000 0.000000 0.500000
#
# Coordination Sequence:
#
# PCOD8120773 Si02
#       7
#     4   4   4   2   4   4   2
#     4  12  25  48  80 104 137 201 256 288 366 443
#     4  10  21  42  67  98 139 181 228 293 358 429
#     4  10  22  42  71 101 134 181 242 300 346 440
#     4  10  22  40  70 102 130 192 234 276 362 446
#     4  12  28  50  70 110 152 189 241 316 362 421
#     4  10  22  44  70  97 139 185 239 288 361 433
#     4  10  22  42  66 106 144 170 232 304 366 398
#
# _framework density 21.300571000000001
#
# number of rings (size 3 to 8) (size 9 to 14) (size 15 to 20)
#    0.000    1.333    1.667    3.000    7.000    0.000 
#   15.000    0.000    0.000    0.000    0.000    0.000 
#    0.000    0.000    0.000    0.000    0.000    0.000 
#
# Total GULP energy -297401.048478 kJ/mol
# GULP energy per Si atom -12391.710353 kJ/mol
# Density = 2.125209 g / cm^3
# Si number density = 21.300571 Si / 1000 Ang^3
#
#
#
# Elastic Constant Matrix: (Units=GPa)
#
#
# Indices 1 2 3 4 5 6 
#
# 1 125.4682 73.8398 80.2456 0.0000 7.4913 0.0000
# 2 73.8398 169.1952 77.9333 0.0000 -9.1105 0.0000
# 3 80.2456 77.9333 173.8970 0.0000 -2.7287 0.0000
# 4 0.0000 0.0000 0.0000 -6.2085 0.0000 -1.8580
# 5 7.4913 -9.1105 -2.7287 0.0000 44.3121 0.0000
# 6 0.0000 0.0000 0.0000 -1.8580 0.0000 38.7301
#
#
#
# Elastic Compliance Matrix: (Units=1/GPa)
#
#
# Indices 1 2 3 4 5 6 
#
# 1 0.013333 -0.003957 -0.004431 0.000000 -0.003341 0.000000
# 2 -0.003957 0.008701 -0.002037 0.000000 0.002333 0.000000
# 3 -0.004431 -0.002037 0.008722 0.000000 0.000867 0.000000
# 4 0.000000 0.000000 0.000000 -0.158789 0.000000 -0.007618
# 5 -0.003341 0.002333 0.000867 0.000000 0.023665 0.000000
# 6 0.000000 0.000000 0.000000 -0.007618 0.000000 0.025454
#
#
# Mechanical properties :
#
#
# Convention : Reuss Voigt Hill
#
# Bulk Modulus (GPa) = 100.96169 103.62198 102.29184
# Shear Modulus (GPa) = -91.30500 31.13618 -30.08441
#
# Velocity S-wave (km/s) = -6.55424 3.82744 -3.76224
# Velocity P-wave (km/s) = 3.12666 8.26350 5.40877
#
# Compressibility (1/GPa) = 0.00990475
#
# Stress axis : x y z
#
# Youngs Moduli (GPa) = 75.00346 114.92729 114.65549
#
# Poissons Ratio (x) = 0.45481 0.50808
# Poissons Ratio (y) = 0.29682 0.23352
# Poissons Ratio (z) = 0.33237 0.23408
#
# Static dielectric constant tensor:
#      x y z
#    x 3.538020 0.000000 0.267630 
#    y 0.000000 4.275630 0.000000 
#    z 0.267630 0.000000 3.606120 
# 
# 
# High freq. dielectric constant tensor:
#      x y z
#    x 1.832310 0.000000 0.003120 
#    y 0.000000 1.859220 0.000000 
#    z 0.003120 0.000000 1.836990 
# 
# From -- ./inp_files/84363.got.cif
#   From: 2010.06.25/outbox.cif.g09.slc.cpg/sg13_43_cif.got.tgz:84363.got - 2010.06.28 04:50:58.
