data_PCOD8120929
_publ_section_title
;
Structure prediction by ZEFSAII (Michael W. Deem and Ramdas Pophale) SiO2 
 PCOD8120929
Probable space group: P 2/C
;
_chemical_formula_sum "Si O2"
_cell_formula_units_Z 26
_cell_length_a 10.622375
_cell_length_b 6.714222
_cell_length_c 18.612596
_cell_angle_alpha 90.000000
_cell_angle_beta 69.814422
_cell_angle_gamma 90.000000
_cell_volume 1245.935413
_symmetry_space_group_name_H-M "P 2/C"
_symmetry_group_IT_number 13
_symmetry_cell_setting 'monoclinic'
loop_
_space_group_symop_operation_xyz
x,y,z
-x,y,1/2-z
-x,-y,-z
x,-y,1/2+z
loop_
_atom_site_type_symbol
_atom_site_label
_atom_site_fract_x
_atom_site_fract_y
_atom_site_fract_z
Si Si1 0.609298 0.441262 0.376873
Si Si2 0.151062 0.117088 0.525581
Si Si3 0.143860 0.217459 0.917316
Si Si4 0.209557 0.723370 0.250041
Si Si5 0.000000 0.581791 0.750000
Si Si6 0.798706 0.891493 0.841321
Si Si7 0.316268 0.511199 0.975653
O O1 0.668960 0.619579 0.316511
O O2 0.660022 0.219529 0.342927
O O3 0.657861 0.436208 0.449475
O O4 0.451508 0.480037 0.401591
O O5 0.272240 0.264297 0.490688
O O6 0.014969 0.242213 0.569868
O O7 0.145787 0.000272 0.451814
O O8 0.199497 0.970508 0.578553
O O9 0.237104 0.220698 0.827607
O O10 0.201122 0.381695 0.960317
O O11 0.090330 0.563270 0.280266
O O12 0.168632 0.927126 0.218517
O O13 0.912759 0.721785 0.818539
#
# Coordination Sequence:
#
# PCOD8120929 Si02
#       7
#     4   4   4   4   2   4   4
#     4  10  24  41  68  91 122 177 223 260 316 392
#     4  11  23  40  66  97 129 170 211 273 331 386
#     4  11  25  39  63  97 133 165 212 273 336 385
#     4  11  23  41  63  94 130 169 212 276 326 377
#     4  10  22  36  64  94 130 168 212 264 326 392
#     4  11  21  40  65  96 125 169 225 261 320 402
#     4  11  23  44  63  92 129 170 219 266 320 392
#
# _framework density 20.867854999999999
#
# number of rings (size 3 to 8) (size 9 to 14) (size 15 to 20)
#    0.000    1.231    3.077    2.769    2.154    7.385 
#    0.000    0.000    0.000    0.000    0.000    0.000 
#    0.000    0.000    0.000    0.000    0.000    0.000 
#
# Total GULP energy -322243.982955 kJ/mol
# GULP energy per Si atom -12393.999344 kJ/mol
# Density = 2.082036 g / cm^3
# Si number density = 20.867855 Si / 1000 Ang^3
#
#
#
# Elastic Constant Matrix: (Units=GPa)
#
#
# Indices 1 2 3 4 5 6 
#
# 1 57.0953 39.3685 27.5942 0.0000 -12.8788 0.0000
# 2 39.3685 128.0640 43.7929 0.0000 -13.0369 0.0000
# 3 27.5942 43.7929 100.8634 0.0000 -6.2575 0.0000
# 4 0.0000 0.0000 0.0000 37.9768 0.0000 2.8374
# 5 -12.8788 -13.0369 -6.2575 0.0000 30.0244 0.0000
# 6 0.0000 0.0000 0.0000 2.8374 0.0000 16.2346
#
#
#
# Elastic Compliance Matrix: (Units=1/GPa)
#
#
# Indices 1 2 3 4 5 6 
#
# 1 0.024936 -0.005557 -0.003947 0.000000 0.007461 0.000000
# 2 -0.005557 0.010721 -0.003033 0.000000 0.001640 0.000000
# 3 -0.003947 -0.003033 0.012283 0.000000 -0.000450 0.000000
# 4 0.000000 0.000000 0.000000 0.026680 0.000000 -0.004663
# 5 0.007461 0.001640 -0.000450 0.000000 0.037125 0.000000
# 6 0.000000 0.000000 0.000000 -0.004663 0.000000 0.062412
#
#
# Mechanical properties :
#
#
# Convention : Reuss Voigt Hill
#
# Bulk Modulus (GPa) = 43.72932 56.39265 50.06099
# Shear Modulus (GPa) = 24.17186 28.53163 26.35174
#
# Velocity S-wave (km/s) = 3.40712 3.70165 3.55743
# Velocity P-wave (km/s) = 6.03977 6.73439 6.39651
#
# Compressibility (1/GPa) = 0.02286795
#
# Stress axis : x y z
#
# Youngs Moduli (GPa) = 40.10203 93.27668 81.41314
#
# Poissons Ratio (x) = 0.51830 0.32131
# Poissons Ratio (y) = 0.22283 0.24692
# Poissons Ratio (z) = 0.15827 0.28290
#
# Static dielectric constant tensor:
#      x y z
#    x 3.738340 0.000000 -0.161470 
#    y 0.000000 3.934820 0.000000 
#    z -0.161470 0.000000 3.775930 
# 
# 
# High freq. dielectric constant tensor:
#      x y z
#    x 1.797680 0.000000 -0.009960 
#    y 0.000000 1.831480 0.000000 
#    z -0.009960 0.000000 1.821610 
# 
# From -- ./inp_files/77215.got.cif
#   From: 2010.06.25/outbox.cif.g09.slc.cpg/sg13_39_cif.got.tgz:77215.got - 2010.06.28 04:50:58.
