data_PCOD8120864
_publ_section_title
;
Structure prediction by ZEFSAII (Michael W. Deem and Ramdas Pophale) SiO2 
 PCOD8120864
Probable space group: P 2/C
;
_chemical_formula_sum "Si O2"
_cell_formula_units_Z 18
_cell_length_a 7.940774
_cell_length_b 7.003511
_cell_length_c 18.491466
_cell_angle_alpha 90.000000
_cell_angle_beta 122.337217
_cell_angle_gamma 90.000000
_cell_volume 868.885979
_symmetry_space_group_name_H-M "P 2/C"
_symmetry_group_IT_number 13
_symmetry_cell_setting 'monoclinic'
loop_
_space_group_symop_operation_xyz
x,y,z
-x,y,1/2-z
-x,-y,-z
x,-y,1/2+z
loop_
_atom_site_type_symbol
_atom_site_label
_atom_site_fract_x
_atom_site_fract_y
_atom_site_fract_z
Si Si1 0.711375 0.849994 0.928835
Si Si2 0.583310 0.854091 0.190242
Si Si3 0.088150 0.125354 0.421732
Si Si4 0.623799 0.439427 0.959738
Si Si5 0.000000 0.992294 0.250000
O O1 0.694262 0.624660 0.932765
O O2 0.865161 0.895942 0.900129
O O3 0.501820 0.942714 0.857251
O O4 0.782879 0.944725 0.020653
O O5 0.500000 0.806174 0.250000
O O6 0.515744 0.683413 0.123641
O O7 0.823612 0.861577 0.242659
O O8 0.181843 0.322361 0.471246
O O9 0.085635 0.123772 0.334197
O O10 0.500000 0.500000 0.000000
#
# Coordination Sequence:
#
# PCOD8120864 Si02
#       5
#     4   4   4   4   2
#     4  10  21  44  68  89 131 173 213 260 323 380
#     4  11  24  44  66  94 131 170 212 269 320 375
#     4  10  22  40  68  96 127 172 214 262 319 384
#     4  11  23  42  64  96 128 172 218 259 318 388
#     4  12  22  42  68  94 130 168 214 266 324 376
#
# _framework density 20.716180999999999
#
# number of rings (size 3 to 8) (size 9 to 14) (size 15 to 20)
#    0.000    1.333    2.222    3.333    0.000    4.444 
#    8.000    2.222    0.000    0.000    0.000    0.000 
#    0.000    0.000    0.000    0.000    0.000    0.000 
#
# Total GULP energy -223289.938125 kJ/mol
# GULP energy per Si atom -12404.996562 kJ/mol
# Density = 2.066903 g / cm^3
# Si number density = 20.716181 Si / 1000 Ang^3
#
#
#
# Elastic Constant Matrix: (Units=GPa)
#
#
# Indices 1 2 3 4 5 6 
#
# 1 125.1295 28.2284 49.9896 0.0000 4.9377 0.0000
# 2 28.2284 129.3512 43.7764 0.0000 2.8265 0.0000
# 3 49.9896 43.7764 115.2058 0.0000 -16.5713 0.0000
# 4 0.0000 0.0000 0.0000 18.0959 0.0000 -6.8446
# 5 4.9377 2.8265 -16.5713 0.0000 37.4506 0.0000
# 6 0.0000 0.0000 0.0000 -6.8446 0.0000 22.8682
#
#
#
# Elastic Compliance Matrix: (Units=1/GPa)
#
#
# Indices 1 2 3 4 5 6 
#
# 1 0.010110 -0.000557 -0.004658 0.000000 -0.003352 0.000000
# 2 -0.000557 0.009093 -0.003526 0.000000 -0.002173 0.000000
# 3 -0.004658 -0.003526 0.012995 0.000000 0.006630 0.000000
# 4 0.000000 0.000000 0.000000 0.062316 0.000000 0.018652
# 5 -0.003352 -0.002173 0.006630 0.000000 0.030242 0.000000
# 6 0.000000 0.000000 0.000000 0.018652 0.000000 0.049312
#
#
# Mechanical properties :
#
#
# Convention : Reuss Voigt Hill
#
# Bulk Modulus (GPa) = 67.94892 68.18614 68.06753
# Shear Modulus (GPa) = 25.45117 32.19574 28.82346
#
# Velocity S-wave (km/s) = 3.50889 3.94653 3.73413
# Velocity P-wave (km/s) = 7.02051 7.33162 7.17775
#
# Compressibility (1/GPa) = 0.01471694
#
# Stress axis : x y z
#
# Youngs Moduli (GPa) = 98.90877 109.97106 76.95430
#
# Poissons Ratio (x) = 0.06124 0.35842
# Poissons Ratio (y) = 0.05508 0.27136
# Poissons Ratio (z) = 0.46067 0.38779
#
# Static dielectric constant tensor:
#      x y z
#    x 4.097270 0.000000 0.250130 
#    y 0.000000 3.959450 0.000000 
#    z 0.250130 0.000000 3.989540 
# 
# 
# High freq. dielectric constant tensor:
#      x y z
#    x 1.827000 0.000000 -0.002720 
#    y 0.000000 1.798170 0.000000 
#    z -0.002720 0.000000 1.818160 
# 
# From -- ./inp_files/62253.got.cif
#   From: 2010.06.25/outbox.cif.g09.slc.cpg/sg13_32_cif.got.tgz:62253.got - 2010.06.28 04:50:58.
