data_PCOD8120581
_publ_section_title
;
Structure prediction by ZEFSAII (Michael W. Deem and Ramdas Pophale) SiO2 
 PCOD8120581
Probable space group: P 2/C
;
_chemical_formula_sum "Si O2"
_cell_formula_units_Z 14
_cell_length_a 15.199888
_cell_length_b 8.700175
_cell_length_c 15.253310
_cell_angle_alpha 90.000000
_cell_angle_beta 160.363726
_cell_angle_gamma 90.000000
_cell_volume 677.850131
_symmetry_space_group_name_H-M "P 2/C"
_symmetry_group_IT_number 13
_symmetry_cell_setting 'monoclinic'
loop_
_space_group_symop_operation_xyz
x,y,z
-x,y,1/2-z
-x,-y,-z
x,-y,1/2+z
loop_
_atom_site_type_symbol
_atom_site_label
_atom_site_fract_x
_atom_site_fract_y
_atom_site_fract_z
Si Si1 0.036914 0.319509 0.532362
Si Si2 0.506986 0.846039 0.948149
Si Si3 0.771907 0.733990 0.478921
Si Si4 0.500000 0.027509 0.250000
O O1 0.179632 0.276661 0.577283
O O2 0.000000 0.500000 0.500000
O O3 0.752200 0.246020 0.270189
O O4 0.232057 0.254572 0.789689
O O5 0.509592 0.871228 0.846403
O O6 0.500000 0.000000 0.000000
O O7 0.000000 0.655594 0.750000
O O8 0.753784 0.915490 0.486056
O O9 0.500000 0.648804 0.250000
#
# Coordination Sequence:
#
# PCOD8120581 Si02
#       4
#     4   4   4   2
#     4  12  26  46  67 100 143 179 216 278 354 405
#     4  12  24  44  74  99 133 180 233 281 327 404
#     4  10  21  40  67  95 131 174 224 272 340 392
#     4  10  24  38  72 102 132 166 244 280 330 376
#
# _framework density 20.653531000000001
#
# number of rings (size 3 to 8) (size 9 to 14) (size 15 to 20)
#    0.857    0.000    2.857    5.143    4.000    0.000 
#    7.714    0.000    0.000    0.000    0.000    0.000 
#    0.000    0.000    0.000    0.000    0.000    0.000 
#
# Total GULP energy -173525.120083 kJ/mol
# GULP energy per Si atom -12394.651434 kJ/mol
# Density = 2.060652 g / cm^3
# Si number density = 20.653531 Si / 1000 Ang^3
#
#
#
# Elastic Constant Matrix: (Units=GPa)
#
#
# Indices 1 2 3 4 5 6 
#
# 1 128.0061 36.6447 22.6547 0.0000 -9.2757 0.0000
# 2 36.6447 121.9781 52.4589 0.0000 12.0091 0.0000
# 3 22.6547 52.4589 158.0007 0.0000 6.3893 0.0000
# 4 0.0000 0.0000 0.0000 27.0410 0.0000 -5.5692
# 5 -9.2757 12.0091 6.3893 0.0000 33.8021 0.0000
# 6 0.0000 0.0000 0.0000 -5.5692 0.0000 -37.2601
#
#
#
# Elastic Compliance Matrix: (Units=1/GPa)
#
#
# Indices 1 2 3 4 5 6 
#
# 1 0.008968 -0.002835 -0.000489 0.000000 0.003560 0.000000
# 2 -0.002835 0.010734 -0.002995 0.000000 -0.004025 0.000000
# 3 -0.000489 -0.002995 0.007412 0.000000 -0.000471 0.000000
# 4 0.000000 0.000000 0.000000 0.035877 0.000000 -0.005362
# 5 0.003560 -0.004025 -0.000471 0.000000 0.032080 0.000000
# 6 0.000000 0.000000 0.000000 -0.005362 0.000000 -0.026037
#
#
# Mechanical properties :
#
#
# Convention : Reuss Voigt Hill
#
# Bulk Modulus (GPa) = 69.06707 70.16683 69.61695
# Shear Modulus (GPa) = 57.80583 24.46502 41.13542
#
# Velocity S-wave (km/s) = 5.29614 3.44545 4.46768
# Velocity P-wave (km/s) = 8.42094 7.06224 7.77134
#
# Compressibility (1/GPa) = 0.01447868
#
# Stress axis : x y z
#
# Youngs Moduli (GPa) = 111.50679 93.16231 134.90727
#
# Poissons Ratio (x) = 0.26407 0.06593
# Poissons Ratio (y) = 0.31607 0.40400
# Poissons Ratio (z) = 0.05450 0.27899
#
# Static dielectric constant tensor:
#      x y z
#    x 3.802730 0.000000 0.065230 
#    y 0.000000 4.221480 0.000000 
#    z 0.065230 0.000000 4.045470 
# 
# 
# High freq. dielectric constant tensor:
#      x y z
#    x 1.822550 0.000000 0.003310 
#    y 0.000000 1.783500 0.000000 
#    z 0.003310 0.000000 1.827740 
# 
# From -- ./inp_files/43020.got.cif
#   From: 2010.06.25/outbox.cif.g09.slc.cpg/sg13_22_cif.got.tgz:43020.got - 2010.06.28 04:50:58.
