data_PCOD8120049
_publ_section_title
;
Structure prediction by ZEFSAII (Michael W. Deem and Ramdas Pophale) SiO2 
 PCOD8120049
Probable space group: P 2/C
;
_chemical_formula_sum "Si O2"
_cell_formula_units_Z 28
_cell_length_a 22.268702
_cell_length_b 5.281083
_cell_length_c 10.784576
_cell_angle_alpha 90.000000
_cell_angle_beta 74.287114
_cell_angle_gamma 90.000000
_cell_volume 1220.901855
_symmetry_space_group_name_H-M "P 2/C"
_symmetry_group_IT_number 13
_symmetry_cell_setting 'monoclinic'
loop_
_space_group_symop_operation_xyz
x,y,z
-x,y,1/2-z
-x,-y,-z
x,-y,1/2+z
loop_
_atom_site_type_symbol
_atom_site_label
_atom_site_fract_x
_atom_site_fract_y
_atom_site_fract_z
Si Si1 0.791623 0.300428 0.351560
Si Si2 0.334999 0.168772 0.175535
Si Si3 0.168712 0.201823 0.583830
Si Si4 0.384628 0.945911 0.911970
Si Si5 0.091617 0.309555 0.386153
Si Si6 0.434050 0.438198 0.978339
Si Si7 0.946183 0.189206 0.681554
O O1 0.735813 0.272718 0.282916
O O2 0.782522 0.563488 0.431702
O O3 0.858295 0.324127 0.250712
O O4 0.792613 0.061570 0.446348
O O5 0.348814 0.037714 0.300200
O O6 0.384000 0.396368 0.118263
O O7 0.339016 0.970137 0.057503
O O8 0.124863 0.249845 0.493992
O O9 0.123898 0.178341 0.727025
O O10 0.417589 0.674271 0.899846
O O11 0.434333 0.181044 0.893337
O O12 0.053055 0.572821 0.413867
O O13 0.042385 0.080466 0.391811
O O14 0.500000 0.500000 0.000000
O O15 0.000000 0.239570 0.750000
#
# Coordination Sequence:
#
# PCOD8120049 Si02
#       7
#     4   4   4   4   4   4   4
#     4  10  23  37  60  87 120 157 197 258 302 374
#     4  10  26  42  69  97 133 169 222 265 330 387
#     4  10  22  39  57  87 117 158 203 245 313 364
#     4  10  25  43  66  99 130 169 218 266 324 385
#     4  10  21  37  57  84 117 156 199 247 310 366
#     4  10  24  44  66  96 133 171 216 264 324 387
#     4  10  21  37  56  85 117 152 203 252 299 368
#
# _framework density 22.933865999999998
#
# number of rings (size 3 to 8) (size 9 to 14) (size 15 to 20)
#    0.857    1.143    0.000    1.714    6.000    1.714 
#    0.000    0.000    0.000    0.000    0.000    0.000 
#    0.000    0.000    0.000    0.000    0.000    0.000 
#
# Total GULP energy -346920.917377 kJ/mol
# GULP energy per Si atom -12390.032763 kJ/mol
# Density = 2.288167 g / cm^3
# Si number density = 22.933866 Si / 1000 Ang^3
#
#
#
# Elastic Constant Matrix: (Units=GPa)
#
#
# Indices 1 2 3 4 5 6 
#
# 1 78.2468 27.9391 -0.3553 0.0000 18.6606 0.0000
# 2 27.9391 186.1381 19.9673 0.0000 8.7419 0.0000
# 3 -0.3553 19.9673 73.1272 0.0000 23.6534 0.0000
# 4 0.0000 0.0000 0.0000 17.8687 0.0000 20.5939
# 5 18.6606 8.7419 23.6534 0.0000 26.1465 0.0000
# 6 0.0000 0.0000 0.0000 20.5939 0.0000 37.7643
#
#
#
# Elastic Compliance Matrix: (Units=1/GPa)
#
#
# Indices 1 2 3 4 5 6 
#
# 1 0.018012 -0.002568 0.006600 0.000000 -0.017967 0.000000
# 2 -0.002568 0.005909 -0.002233 0.000000 0.001877 0.000000
# 3 0.006600 -0.002233 0.022051 0.000000 -0.023913 0.000000
# 4 0.000000 0.000000 0.000000 0.150643 0.000000 -0.082150
# 5 -0.017967 0.001877 -0.023913 0.000000 0.072074 0.000000
# 6 0.000000 0.000000 0.000000 -0.082150 0.000000 0.071279
#
#
# Mechanical properties :
#
#
# Convention : Reuss Voigt Hill
#
# Bulk Modulus (GPa) = 20.17303 48.06827 34.12065
# Shear Modulus (GPa) = 14.16861 35.68663 24.92762
#
# Velocity S-wave (km/s) = 2.48826 3.94898 3.30045
# Velocity P-wave (km/s) = 4.13165 6.46511 5.42532
#
# Compressibility (1/GPa) = 0.04957114
#
# Stress axis : x y z
#
# Youngs Moduli (GPa) = 55.51905 169.22864 45.34878
#
# Poissons Ratio (x) = 0.43454 -0.29932
# Poissons Ratio (y) = 0.14256 0.10127
# Poissons Ratio (z) = -0.36644 0.37791
#
# Static dielectric constant tensor:
#      x y z
#    x 3.941520 0.000000 -0.050860 
#    y 0.000000 3.906500 0.000000 
#    z -0.050860 0.000000 3.944590 
# 
# 
# High freq. dielectric constant tensor:
#      x y z
#    x 1.897510 0.000000 0.014300 
#    y 0.000000 1.924980 0.000000 
#    z 0.014300 0.000000 1.880420 
# 
# From -- ./inp_files/39851.got.cif
#   From: 2010.06.25/outbox.cif.g09.slc.cpg/sg13_20_cif.got.tgz:39851.got - 2010.06.28 04:50:58.
