data_PCOD8120229
_publ_section_title
;
Structure prediction by ZEFSAII (Michael W. Deem and Ramdas Pophale) SiO2 
 PCOD8120229
Probable space group: P 2/C
;
_chemical_formula_sum "Si O2"
_cell_formula_units_Z 20
_cell_length_a 18.440599
_cell_length_b 12.673475
_cell_length_c 9.366134
_cell_angle_alpha 90.000000
_cell_angle_beta 152.899330
_cell_angle_gamma 90.000000
_cell_volume 997.176932
_symmetry_space_group_name_H-M "P 2/C"
_symmetry_group_IT_number 13
_symmetry_cell_setting 'monoclinic'
loop_
_space_group_symop_operation_xyz
x,y,z
-x,y,1/2-z
-x,-y,-z
x,-y,1/2+z
loop_
_atom_site_type_symbol
_atom_site_label
_atom_site_fract_x
_atom_site_fract_y
_atom_site_fract_z
Si Si1 0.615153 0.507979 0.832114
Si Si2 0.192822 0.096981 0.422739
Si Si3 0.813793 0.102020 0.765169
Si Si4 0.829939 0.694987 0.123606
Si Si5 0.200229 0.299392 0.258761
O O1 0.500000 0.554714 0.750000
O O2 0.500000 0.500000 0.500000
O O3 0.758651 0.585897 0.051966
O O4 0.688393 0.395730 0.002519
O O5 0.256348 0.097399 0.697046
O O6 0.257114 0.198470 0.449556
O O7 0.257280 0.994073 0.452568
O O8 0.003230 0.095035 0.095673
O O9 0.761542 0.211545 0.601751
O O10 0.017134 0.677153 0.472226
O O11 0.781404 0.723402 0.877034
#
# Coordination Sequence:
#
# PCOD8120229 Si02
#       5
#     4   4   4   4   4
#     4  12  25  42  59  82 116 156 194 239 292 345
#     4   9  17  30  53  85 117 148 185 233 287 336
#     4   9  17  30  53  85 117 148 185 234 285 337
#     4  10  21  38  60  86 116 151 194 239 285 339
#     4  10  21  38  60  86 116 151 194 240 283 340
#
# _framework density 20.056619999999999
#
# number of rings (size 3 to 8) (size 9 to 14) (size 15 to 20)
#    0.000    2.000    2.000    1.800    2.800    4.800 
#    0.000    0.000    0.000    2.400    0.000    0.000 
#    0.000    0.000    0.000    0.000    0.000    0.000 
#
# Total GULP energy -247985.584920 kJ/mol
# GULP energy per Si atom -12399.279246 kJ/mol
# Density = 2.001097 g / cm^3
# Si number density = 20.056620 Si / 1000 Ang^3
#
#
#
# Elastic Constant Matrix: (Units=GPa)
#
#
# Indices 1 2 3 4 5 6 
#
# 1 118.7771 46.5851 38.8547 0.0000 -31.3846 0.0000
# 2 46.5851 117.8173 40.7828 0.0000 -14.1006 0.0000
# 3 38.8547 40.7828 69.9146 0.0000 -24.3615 0.0000
# 4 0.0000 0.0000 0.0000 13.3193 0.0000 -16.7591
# 5 -31.3846 -14.1006 -24.3615 0.0000 32.1834 0.0000
# 6 0.0000 0.0000 0.0000 -16.7591 0.0000 31.7071
#
#
#
# Elastic Compliance Matrix: (Units=1/GPa)
#
#
# Indices 1 2 3 4 5 6 
#
# 1 0.012884 -0.003289 -0.001855 0.000000 0.009719 0.000000
# 2 -0.003289 0.011475 -0.005747 0.000000 -0.002530 0.000000
# 3 -0.001855 -0.005747 0.023333 0.000000 0.013335 0.000000
# 4 0.000000 0.000000 0.000000 0.224162 0.000000 0.118483
# 5 0.009719 -0.002530 0.013335 0.000000 0.049535 0.000000
# 6 0.000000 0.000000 0.000000 0.118483 0.000000 0.094164
#
#
# Mechanical properties :
#
#
# Convention : Reuss Voigt Hill
#
# Bulk Modulus (GPa) = 38.59654 62.10602 50.35128
# Shear Modulus (GPa) = 11.21147 27.46105 19.33626
#
# Velocity S-wave (km/s) = 2.36686 3.70425 3.10834
# Velocity P-wave (km/s) = 5.17252 7.02338 6.16777
#
# Compressibility (1/GPa) = 0.02590906
#
# Stress axis : x y z
#
# Youngs Moduli (GPa) = 77.61562 87.14724 42.85724
#
# Poissons Ratio (x) = 0.28663 0.07951
# Poissons Ratio (y) = 0.25528 0.24632
# Poissons Ratio (z) = 0.14399 0.50087
#
# Static dielectric constant tensor:
#      x y z
#    x 3.841240 0.000000 -0.285200 
#    y 0.000000 3.702050 0.000000 
#    z -0.285200 0.000000 3.378310 
# 
# 
# High freq. dielectric constant tensor:
#      x y z
#    x 1.790090 0.000000 -0.024010 
#    y 0.000000 1.790870 0.000000 
#    z -0.024010 0.000000 1.758120 
# 
# From -- ./inp_files/11653.got.cif
#   From: 2010.06.25/outbox.cif.g09.slc.cpg/sg13_6_cif.got.tgz:11653.got - 2010.06.28 04:50:58.
