data_PCOD8120842
_publ_section_title
;
Structure prediction by ZEFSAII (Michael W. Deem and Ramdas Pophale) SiO2 
 PCOD8120842
Probable space group: P 2/C
;
_chemical_formula_sum "Si O2"
_cell_formula_units_Z 28
_cell_length_a 9.193806
_cell_length_b 11.099370
_cell_length_c 13.720450
_cell_angle_alpha 90.000000
_cell_angle_beta 60.773791
_cell_angle_gamma 90.000000
_cell_volume 1221.873961
_symmetry_space_group_name_H-M "P 2/C"
_symmetry_group_IT_number 13
_symmetry_cell_setting 'monoclinic'
loop_
_space_group_symop_operation_xyz
x,y,z
-x,y,1/2-z
-x,-y,-z
x,-y,1/2+z
loop_
_atom_site_type_symbol
_atom_site_label
_atom_site_fract_x
_atom_site_fract_y
_atom_site_fract_z
Si Si1 0.685446 0.716574 0.834223
Si Si2 0.826579 0.676926 0.278682
Si Si3 0.623484 0.416162 0.018248
Si Si4 0.118839 0.722037 0.536982
Si Si5 0.838347 0.460110 0.127703
Si Si6 0.885509 0.076996 0.199734
Si Si7 0.690727 0.141197 0.689932
O O1 0.486543 0.697892 0.908685
O O2 0.783551 0.677095 0.899817
O O3 0.754618 0.637434 0.724410
O O4 0.724691 0.856330 0.799641
O O5 0.764866 0.621892 0.398687
O O6 0.859727 0.580481 0.182749
O O7 0.701753 0.780529 0.284668
O O8 0.000000 0.739591 0.250000
O O9 0.710574 0.484110 0.080195
O O10 0.500000 0.500000 0.000000
O O11 0.253655 0.771891 0.416367
O O12 0.015399 0.602006 0.532760
O O13 0.989490 0.829087 0.600948
O O14 0.000000 0.025633 0.250000
O O15 0.816418 0.971607 0.153445
O O16 0.500000 0.097212 0.750000
#
# Coordination Sequence:
#
# PCOD8120842 Si02
#       7
#     4   4   4   4   4   4   4
#     4  10  21  43  70 100 132 174 223 282 334 396
#     4  12  27  44  63  96 136 178 226 274 335 407
#     4  12  26  41  65  99 138 172 218 277 337 399
#     4  10  22  44  72  97 130 179 236 273 331 404
#     4  11  24  41  69  97 130 181 221 273 336 411
#     4   9  21  44  70  95 132 178 231 278 329 406
#     4  12  26  41  65 100 139 176 222 286 345 389
#
# _framework density 22.915621000000002
#
# number of rings (size 3 to 8) (size 9 to 14) (size 15 to 20)
#    0.000    1.143    1.429    5.143    4.000    3.429 
#    0.000    9.286    0.000    0.000    0.000    0.000 
#    0.000    0.000    0.000    0.000    0.000    0.000 
#
# Total GULP energy -347199.554244 kJ/mol
# GULP energy per Si atom -12399.984080 kJ/mol
# Density = 2.286346 g / cm^3
# Si number density = 22.915621 Si / 1000 Ang^3
#
#
#
# Elastic Constant Matrix: (Units=GPa)
#
#
# Indices 1 2 3 4 5 6 
#
# 1 128.5270 27.7484 31.5570 0.0000 -1.7370 0.0000
# 2 27.7484 56.5331 -9.2618 0.0000 -3.9207 0.0000
# 3 31.5570 -9.2618 61.0318 0.0000 -10.1868 0.0000
# 4 0.0000 0.0000 0.0000 21.4905 0.0000 -2.0855
# 5 -1.7370 -3.9207 -10.1868 0.0000 41.1218 0.0000
# 6 0.0000 0.0000 0.0000 -2.0855 0.0000 37.4019
#
#
#
# Elastic Compliance Matrix: (Units=1/GPa)
#
#
# Indices 1 2 3 4 5 6 
#
# 1 0.010889 -0.006615 -0.006950 0.000000 -0.001892 0.000000
# 2 -0.006615 0.022411 0.007439 0.000000 0.003700 0.000000
# 3 -0.006950 0.007439 0.022090 0.000000 0.005888 0.000000
# 4 0.000000 0.000000 0.000000 0.046785 0.000000 0.002609
# 5 -0.001892 0.003700 0.005888 0.000000 0.026049 0.000000
# 6 0.000000 0.000000 0.000000 0.002609 0.000000 0.026882
#
#
# Mechanical properties :
#
#
# Convention : Reuss Voigt Hill
#
# Bulk Modulus (GPa) = 23.18143 38.46433 30.82288
# Shear Modulus (GPa) = 27.51200 33.07276 30.29238
#
# Velocity S-wave (km/s) = 3.46870 3.80312 3.63975
# Velocity P-wave (km/s) = 5.11668 6.00888 5.58064
#
# Compressibility (1/GPa) = 0.04313797
#
# Stress axis : x y z
#
# Youngs Moduli (GPa) = 91.83189 44.62126 45.26909
#
# Poissons Ratio (x) = 0.29516 0.31463
# Poissons Ratio (y) = 0.60745 -0.33675
# Poissons Ratio (z) = 0.63825 -0.33193
#
# Static dielectric constant tensor:
#      x y z
#    x 4.182660 0.000000 -0.003870 
#    y 0.000000 4.097330 0.000000 
#    z -0.003870 0.000000 4.342390 
# 
# 
# High freq. dielectric constant tensor:
#      x y z
#    x 1.913570 0.000000 0.002170 
#    y 0.000000 1.897100 0.000000 
#    z 0.002170 0.000000 1.918370 
# 
# From -- ./inp_files/47110.got.cif
#   From: 2010.06.25/outbox.cif.g09.slc.cpg/sg13_24_cif.got.tgz:47110.got - 2010.06.28 04:50:58.
