data_PCOD8120838
_publ_section_title
;
Structure prediction by ZEFSAII (Michael W. Deem and Ramdas Pophale) SiO2 
 PCOD8120838
Probable space group: P 2/C
;
_chemical_formula_sum "Si O2"
_cell_formula_units_Z 14
_cell_length_a 11.563209
_cell_length_b 7.678823
_cell_length_c 15.775672
_cell_angle_alpha 90.000000
_cell_angle_beta 152.570175
_cell_angle_gamma 90.000000
_cell_volume 645.272514
_symmetry_space_group_name_H-M "P 2/C"
_symmetry_group_IT_number 13
_symmetry_cell_setting 'monoclinic'
loop_
_space_group_symop_operation_xyz
x,y,z
-x,y,1/2-z
-x,-y,-z
x,-y,1/2+z
loop_
_atom_site_type_symbol
_atom_site_label
_atom_site_fract_x
_atom_site_fract_y
_atom_site_fract_z
Si Si1 0.287885 0.681288 0.771827
Si Si2 0.500000 0.154691 0.250000
Si Si3 0.968543 0.989021 0.630568
Si Si4 0.808977 0.661998 0.203364
O O1 0.360956 0.710848 0.722085
O O2 0.172466 0.490925 0.714870
O O3 0.076237 0.823574 0.652977
O O4 0.529463 0.697090 0.988895
O O5 0.679845 0.023213 0.418400
O O6 0.116915 0.162695 0.699210
O O7 0.000000 0.955259 0.750000
O O8 0.000000 0.622620 0.250000
#
# Coordination Sequence:
#
# PCOD8120838 Si02
#       4
#     4   2   4   4
#     4  11  23  42  68  95 131 172 214 268 326 379
#     4  12  24  42  66 104 132 166 222 264 322 396
#     4  11  23  44  67  94 134 171 214 269 319 388
#     4  10  21  43  69  92 126 174 216 263 323 381
#
# _framework density 21.696259000000001
#
# number of rings (size 3 to 8) (size 9 to 14) (size 15 to 20)
#    0.000    1.143    5.714    2.571    0.000    1.143 
#    0.000    2.857    0.000    0.000    0.000    0.000 
#    0.000    0.000    0.000    0.000    0.000    0.000 
#
# Total GULP energy -173585.652978 kJ/mol
# GULP energy per Si atom -12398.975213 kJ/mol
# Density = 2.164688 g / cm^3
# Si number density = 21.696259 Si / 1000 Ang^3
#
#
#
# Elastic Constant Matrix: (Units=GPa)
#
#
# Indices 1 2 3 4 5 6 
#
# 1 83.8023 31.4629 -8.5902 0.0000 -16.1347 0.0000
# 2 31.4629 107.1352 -11.6040 0.0000 -5.9177 0.0000
# 3 -8.5902 -11.6040 40.6994 0.0000 -7.2240 0.0000
# 4 0.0000 0.0000 0.0000 3.1296 0.0000 7.3328
# 5 -16.1347 -5.9177 -7.2240 0.0000 31.1019 0.0000
# 6 0.0000 0.0000 0.0000 7.3328 0.0000 19.0627
#
#
#
# Elastic Compliance Matrix: (Units=1/GPa)
#
#
# Indices 1 2 3 4 5 6 
#
# 1 0.015214 -0.003634 0.003602 0.000000 0.008038 0.000000
# 2 -0.003634 0.010702 0.002410 0.000000 0.000711 0.000000
# 3 0.003602 0.002410 0.027567 0.000000 0.008730 0.000000
# 4 0.000000 0.000000 0.000000 3.236782 0.000000 -1.245078
# 5 0.008038 0.000711 0.008730 0.000000 0.038485 0.000000
# 6 0.000000 0.000000 0.000000 -1.245078 0.000000 0.531397
#
#
# Mechanical properties :
#
#
# Convention : Reuss Voigt Hill
#
# Bulk Modulus (GPa) = 17.17060 28.24160 22.70610
# Shear Modulus (GPa) = 1.29039 25.35007 13.32023
#
# Velocity S-wave (km/s) = 0.77204 3.42191 2.48047
# Velocity P-wave (km/s) = 2.95398 5.35328 4.32340
#
# Compressibility (1/GPa) = 0.05823908
#
# Stress axis : x y z
#
# Youngs Moduli (GPa) = 65.72961 93.44483 36.27482
#
# Poissons Ratio (x) = 0.33956 -0.13065
# Poissons Ratio (y) = 0.23885 -0.08743
# Poissons Ratio (z) = -0.23674 -0.22523
#
# Static dielectric constant tensor:
#      x y z
#    x 4.006300 0.000000 0.128550 
#    y 0.000000 4.045640 0.000000 
#    z 0.128550 0.000000 3.984790 
# 
# 
# High freq. dielectric constant tensor:
#      x y z
#    x 1.848580 0.000000 0.007320 
#    y 0.000000 1.852590 0.000000 
#    z 0.007320 0.000000 1.860140 
# 
# From -- ./inp_files/27311.got.cif
#   From: 2010.06.25/outbox.cif.g09.slc.cpg/sg13_14_cif.got.tgz:27311.got - 2010.06.28 04:50:58.
