data_PCOD8120642
_publ_section_title
;
Structure prediction by ZEFSAII (Michael W. Deem and Ramdas Pophale) SiO2 
 PCOD8120642
Probable space group: P 2/C
;
_chemical_formula_sum "Si O2"
_cell_formula_units_Z 22
_cell_length_a 6.894910
_cell_length_b 5.942040
_cell_length_c 25.261457
_cell_angle_alpha 90.000000
_cell_angle_beta 81.317789
_cell_angle_gamma 90.000000
_cell_volume 1023.097840
_symmetry_space_group_name_H-M "P 2/C"
_symmetry_group_IT_number 13
_symmetry_cell_setting 'monoclinic'
loop_
_space_group_symop_operation_xyz
x,y,z
-x,y,1/2-z
-x,-y,-z
x,-y,1/2+z
loop_
_atom_site_type_symbol
_atom_site_label
_atom_site_fract_x
_atom_site_fract_y
_atom_site_fract_z
Si Si1 0.834630 0.571257 0.076984
Si Si2 0.153877 0.114497 0.614794
Si Si3 0.811524 0.816093 0.787418
Si Si4 0.500000 0.889336 0.250000
Si Si5 0.888656 0.810052 0.973303
Si Si6 0.453604 0.576405 0.154594
O O1 0.645236 0.487069 0.116682
O O2 0.955812 0.760747 0.104182
O O3 0.963019 0.350319 0.064177
O O4 0.766959 0.666826 0.021811
O O5 0.325253 0.293375 0.616607
O O6 0.108803 0.981932 0.670569
O O7 0.235911 0.937847 0.567049
O O8 0.673103 0.624788 0.816538
O O9 0.000000 0.707835 0.750000
O O10 0.691347 0.956430 0.748876
O O11 0.531391 0.737772 0.197317
O O12 0.000000 0.000000 0.000000
#
# Coordination Sequence:
#
# PCOD8120642 Si02
#       6
#     4   4   4   2   4   4
#     4  10  21  41  63  88 122 157 198 246 296 352
#     4  10  22  40  62  89 119 157 200 246 299 353
#     4  11  24  41  61  88 123 159 197 246 301 355
#     4  10  24  42  60  88 120 158 200 246 300 352
#     4   9  20  39  63  88 121 160 195 243 299 351
#     4  11  24  39  63  92 117 155 204 248 294 354
#
# _framework density 21.503319999999999
#
# number of rings (size 3 to 8) (size 9 to 14) (size 15 to 20)
#    0.000    1.818    0.000    2.727    0.000   15.273 
#    0.000   12.727    0.000    0.000    0.000    0.000 
#    0.000    0.000    0.000    0.000    0.000    0.000 
#
# Total GULP energy -272730.763179 kJ/mol
# GULP energy per Si atom -12396.852872 kJ/mol
# Density = 2.145438 g / cm^3
# Si number density = 21.503320 Si / 1000 Ang^3
#
#
#
# Elastic Constant Matrix: (Units=GPa)
#
#
# Indices 1 2 3 4 5 6 
#
# 1 102.6564 54.9447 85.3292 0.0000 -13.7166 0.0000
# 2 54.9447 125.2930 57.0391 0.0000 -9.7009 0.0000
# 3 85.3292 57.0391 116.9719 0.0000 -12.9933 0.0000
# 4 0.0000 0.0000 0.0000 19.4148 0.0000 -9.3583
# 5 -13.7166 -9.7009 -12.9933 0.0000 41.2844 0.0000
# 6 0.0000 0.0000 0.0000 -9.3583 0.0000 17.5361
#
#
#
# Elastic Compliance Matrix: (Units=1/GPa)
#
#
# Indices 1 2 3 4 5 6 
#
# 1 0.026160 -0.003493 -0.017104 0.000000 0.002488 0.000000
# 2 -0.003493 0.010755 -0.002637 0.000000 0.000537 0.000000
# 3 -0.017104 -0.002637 0.022395 0.000000 0.000746 0.000000
# 4 0.000000 0.000000 0.000000 0.069345 0.000000 0.037006
# 5 0.002488 0.000537 0.000746 0.000000 0.025410 0.000000
# 6 0.000000 0.000000 0.000000 0.037006 0.000000 0.076774
#
#
# Mechanical properties :
#
#
# Convention : Reuss Voigt Hill
#
# Bulk Modulus (GPa) = 77.86517 82.17193 80.01855
# Shear Modulus (GPa) = 17.75657 25.48761 21.62209
#
# Velocity S-wave (km/s) = 2.87672 3.44654 3.17444
# Velocity P-wave (km/s) = 6.87920 7.35763 7.12243
#
# Compressibility (1/GPa) = 0.01284271
#
# Stress axis : x y z
#
# Youngs Moduli (GPa) = 38.22637 92.97999 44.65361
#
# Poissons Ratio (x) = 0.32477 0.76374
# Poissons Ratio (y) = 0.13352 0.11774
# Poissons Ratio (z) = 0.65381 0.24517
#
# Static dielectric constant tensor:
#      x y z
#    x 3.695270 0.000000 0.436680 
#    y 0.000000 4.231500 0.000000 
#    z 0.436680 0.000000 4.374180 
# 
# 
# High freq. dielectric constant tensor:
#      x y z
#    x 1.819740 0.000000 0.018140 
#    y 0.000000 1.857720 0.000000 
#    z 0.018140 0.000000 1.861340 
# 
# From -- ./inp_files/88800.got.cif
#   From: 2010.06.25/outbox.cif.g09.slc.cpg/sg13_45_cif.got.tgz:88800.got - 2010.06.28 04:50:58.
