data_PCOD8120781
_publ_section_title
;
Structure prediction by ZEFSAII (Michael W. Deem and Ramdas Pophale) SiO2 
 PCOD8120781
Probable space group: P 2/C
;
_chemical_formula_sum "Si O2"
_cell_formula_units_Z 24
_cell_length_a 10.630477
_cell_length_b 9.631131
_cell_length_c 10.762256
_cell_angle_alpha 90.000000
_cell_angle_beta 83.875775
_cell_angle_gamma 90.000000
_cell_volume 1095.589119
_symmetry_space_group_name_H-M "P 2/C"
_symmetry_group_IT_number 13
_symmetry_cell_setting 'monoclinic'
loop_
_space_group_symop_operation_xyz
x,y,z
-x,y,1/2-z
-x,-y,-z
x,-y,1/2+z
loop_
_atom_site_type_symbol
_atom_site_label
_atom_site_fract_x
_atom_site_fract_y
_atom_site_fract_z
Si Si1 0.527778 0.350879 0.938187
Si Si2 0.142836 0.768715 0.702601
Si Si3 0.856422 0.547020 0.006110
Si Si4 0.697721 0.706404 0.196293
Si Si5 0.250612 0.258953 0.457508
Si Si6 0.138582 0.912642 0.179497
O O1 0.397711 0.274028 0.910823
O O2 0.620112 0.372202 0.810766
O O3 0.500000 0.500000 0.000000
O O4 0.599395 0.244943 0.026858
O O5 0.180071 0.662051 0.591831
O O6 0.230433 0.749794 0.813498
O O7 0.000000 0.733560 0.750000
O O8 0.158861 0.925170 0.653972
O O9 0.815315 0.609017 0.144024
O O10 0.776509 0.411294 0.984044
O O11 0.000000 0.500000 0.000000
O O12 0.754718 0.853190 0.237759
O O13 0.157436 0.153584 0.540403
O O14 0.000000 0.880613 0.250000
#
# Coordination Sequence:
#
# PCOD8120781 Si02
#       6
#     4   4   4   4   4   4
#     4  10  21  42  68  95 131 178 226 287 344 405
#     4  11  26  41  65  98 141 184 226 280 352 430
#     4  12  24  40  67 105 139 169 223 293 350 405
#     4  10  23  41  69  95 136 180 227 282 352 411
#     4  11  24  41  67  98 132 177 236 278 350 414
#     4  10  24  43  66  94 137 186 229 283 350 420
#
# _framework density 21.906023000000001
#
# number of rings (size 3 to 8) (size 9 to 14) (size 15 to 20)
#    0.000    1.333    3.333    1.000    7.000    2.000 
#    0.000    0.833    7.333    0.000    0.000    0.000 
#    0.000    0.000    0.000    0.000    0.000    0.000 
#
# Total GULP energy -297502.887000 kJ/mol
# GULP energy per Si atom -12395.953625 kJ/mol
# Density = 2.185616 g / cm^3
# Si number density = 21.906023 Si / 1000 Ang^3
#
#
#
# Elastic Constant Matrix: (Units=GPa)
#
#
# Indices 1 2 3 4 5 6 
#
# 1 94.2587 21.0945 41.7174 0.0000 8.4509 0.0000
# 2 21.0945 116.6512 44.2293 0.0000 -8.4983 0.0000
# 3 41.7174 44.2293 105.8620 0.0000 8.2942 0.0000
# 4 0.0000 0.0000 0.0000 27.9688 0.0000 13.6909
# 5 8.4509 -8.4983 8.2942 0.0000 41.2499 0.0000
# 6 0.0000 0.0000 0.0000 13.6909 0.0000 7.2126
#
#
#
# Elastic Compliance Matrix: (Units=1/GPa)
#
#
# Indices 1 2 3 4 5 6 
#
# 1 0.013009 -0.000714 -0.004682 0.000000 -0.001871 0.000000
# 2 -0.000714 0.010605 -0.004401 0.000000 0.003216 0.000000
# 3 -0.004682 -0.004401 0.013336 0.000000 -0.002629 0.000000
# 4 0.000000 0.000000 0.000000 0.504901 0.000000 -0.958408
# 5 -0.001871 0.003216 -0.002629 0.000000 0.025817 0.000000
# 6 0.000000 0.000000 0.000000 -0.958408 0.000000 1.957904
#
#
# Mechanical properties :
#
#
# Convention : Reuss Voigt Hill
#
# Bulk Modulus (GPa) = 57.61674 58.98381 58.30028
# Shear Modulus (GPa) = 1.96005 29.26831 15.61418
#
# Velocity S-wave (km/s) = 0.94694 3.65922 2.67269
# Velocity P-wave (km/s) = 5.24924 6.69608 6.01631
#
# Compressibility (1/GPa) = 0.01735607
#
# Stress axis : x y z
#
# Youngs Moduli (GPa) = 76.87269 94.29745 74.98465
#
# Poissons Ratio (x) = 0.06729 0.35105
# Poissons Ratio (y) = 0.05486 0.33004
# Poissons Ratio (z) = 0.35989 0.41504
#
# Static dielectric constant tensor:
#      x y z
#    x 4.475230 0.000000 0.156460 
#    y 0.000000 3.836890 0.000000 
#    z 0.156460 0.000000 4.022570 
# 
# 
# High freq. dielectric constant tensor:
#      x y z
#    x 1.873840 0.000000 0.007700 
#    y 0.000000 1.845780 0.000000 
#    z 0.007700 0.000000 1.866650 
# 
# From -- ./inp_files/32587.got.cif
#   From: 2010.06.25/outbox.cif.g09.slc.cpg/sg13_17_cif.got.tgz:32587.got - 2010.06.28 04:50:58.
