data_PCOD8120484
_publ_section_title
;
Structure prediction by ZEFSAII (Michael W. Deem and Ramdas Pophale) SiO2 
 PCOD8120484
Probable space group: P 2/C
;
_chemical_formula_sum "Si O2"
_cell_formula_units_Z 30
_cell_length_a 10.932767
_cell_length_b 11.941101
_cell_length_c 10.700112
_cell_angle_alpha 90.000000
_cell_angle_beta 74.790002
_cell_angle_gamma 90.000000
_cell_volume 1347.959759
_symmetry_space_group_name_H-M "P 2/C"
_symmetry_group_IT_number 13
_symmetry_cell_setting 'monoclinic'
loop_
_space_group_symop_operation_xyz
x,y,z
-x,y,1/2-z
-x,-y,-z
x,-y,1/2+z
loop_
_atom_site_type_symbol
_atom_site_label
_atom_site_fract_x
_atom_site_fract_y
_atom_site_fract_z
Si Si1 0.160755 0.736651 0.535455
Si Si2 0.858710 0.902996 0.748416
Si Si3 0.691577 0.477587 0.273042
Si Si4 0.119952 0.311177 0.386746
Si Si5 0.233769 0.143296 0.778167
Si Si6 0.500000 0.244510 0.750000
Si Si7 0.395540 0.420182 0.945686
Si Si8 0.139439 0.334255 0.662668
O O1 0.203925 0.829950 0.624292
O O2 0.144542 0.805665 0.410703
O O3 0.258455 0.636338 0.497197
O O4 0.028588 0.675809 0.607576
O O5 0.855164 0.822627 0.627327
O O6 0.000000 0.939801 0.750000
O O7 0.777438 0.011277 0.737580
O O8 0.791217 0.374377 0.239334
O O9 0.583698 0.466845 0.415573
O O10 0.618348 0.487367 0.160885
O O11 0.767276 0.590520 0.279908
O O12 0.149304 0.363040 0.514001
O O13 0.379694 0.165082 0.772353
O O14 0.186294 0.206174 0.666269
O O15 0.495293 0.324971 0.874693
O O16 0.000000 0.356026 0.750000
#
# Coordination Sequence:
#
# PCOD8120484 Si02
#       8
#     4   4   4   4   4   2   4   4
#     4  10  21  40  59  94 134 168 204 250 329 389
#     4  10  23  37  66  96 130 167 204 262 321 391
#     4  12  23  38  66  95 136 167 215 256 325 392
#     4  11  23  37  60  99 137 167 197 262 324 393
#     4  11  23  43  64  89 121 172 219 264 316 382
#     4  10  24  48  66  84 128 170 224 270 324 366
#     4  11  23  42  63  94 126 175 216 270 316 377
#     4  12  23  37  62  99 134 166 208 258 320 396
#
# _framework density 22.255859000000001
#
# number of rings (size 3 to 8) (size 9 to 14) (size 15 to 20)
#    0.000    1.067    6.667    0.400    3.733    2.667 
#    0.000    2.667    0.000    0.800    0.000    0.000 
#    0.000    0.000    0.000    0.000    0.000    0.000 
#
# Total GULP energy -371968.145563 kJ/mol
# GULP energy per Si atom -12398.938185 kJ/mol
# Density = 2.220520 g / cm^3
# Si number density = 22.255859 Si / 1000 Ang^3
#
#
#
# Elastic Constant Matrix: (Units=GPa)
#
#
# Indices 1 2 3 4 5 6 
#
# 1 67.6428 28.1239 42.6902 0.0000 -7.3419 0.0000
# 2 28.1239 94.7937 32.1928 0.0000 -2.5414 0.0000
# 3 42.6902 32.1928 143.9707 0.0000 -2.2328 0.0000
# 4 0.0000 0.0000 0.0000 25.3106 0.0000 -8.9900
# 5 -7.3419 -2.5414 -2.2328 0.0000 38.7916 0.0000
# 6 0.0000 0.0000 0.0000 -8.9900 0.0000 -13.4658
#
#
#
# Elastic Compliance Matrix: (Units=1/GPa)
#
#
# Indices 1 2 3 4 5 6 
#
# 1 0.019986 -0.004164 -0.004945 0.000000 0.003225 0.000000
# 2 -0.004164 0.012298 -0.001516 0.000000 -0.000070 0.000000
# 3 -0.004945 -0.001516 0.008743 0.000000 -0.000532 0.000000
# 4 0.000000 0.000000 0.000000 0.031936 0.000000 -0.021321
# 5 0.003225 -0.000070 -0.000532 0.000000 0.026354 0.000000
# 6 0.000000 0.000000 0.000000 -0.021321 0.000000 -0.060028
#
#
# Mechanical properties :
#
#
# Convention : Reuss Voigt Hill
#
# Bulk Modulus (GPa) = 50.56585 56.93566 53.75076
# Shear Modulus (GPa) = 74.48172 23.68732 49.08452
#
# Velocity S-wave (km/s) = 5.79127 3.26593 4.70133
# Velocity P-wave (km/s) = 8.21510 6.31344 7.32624
#
# Compressibility (1/GPa) = 0.01977619
#
# Stress axis : x y z
#
# Youngs Moduli (GPa) = 50.03602 81.31686 114.37740
#
# Poissons Ratio (x) = 0.33857 0.56561
# Poissons Ratio (y) = 0.20833 0.17343
# Poissons Ratio (z) = 0.24743 0.12330
#
# Static dielectric constant tensor:
#      x y z
#    x 3.912060 0.000000 -0.117870 
#    y 0.000000 3.834110 0.000000 
#    z -0.117870 0.000000 4.630600 
# 
# 
# High freq. dielectric constant tensor:
#      x y z
#    x 1.874570 0.000000 -0.006690 
#    y 0.000000 1.864750 0.000000 
#    z -0.006690 0.000000 1.899140 
# 
# From -- ./inp_files/33807.got.cif
#   From: 2010.06.25/outbox.cif.g09.slc.cpg/sg13_17_cif.got.tgz:33807.got - 2010.06.28 04:50:58.
