data_PCOD8120964
_publ_section_title
;
Structure prediction by ZEFSAII (Michael W. Deem and Ramdas Pophale) SiO2 
 PCOD8120964
Probable space group: P 2/C
;
_chemical_formula_sum "Si O2"
_cell_formula_units_Z 28
_cell_length_a 21.829703
_cell_length_b 11.280850
_cell_length_c 12.585909
_cell_angle_alpha 90.000000
_cell_angle_beta 27.769012
_cell_angle_gamma 90.000000
_cell_volume 1444.024458
_symmetry_space_group_name_H-M "P 2/C"
_symmetry_group_IT_number 13
_symmetry_cell_setting 'monoclinic'
loop_
_space_group_symop_operation_xyz
x,y,z
-x,y,1/2-z
-x,-y,-z
x,-y,1/2+z
loop_
_atom_site_type_symbol
_atom_site_label
_atom_site_fract_x
_atom_site_fract_y
_atom_site_fract_z
Si Si1 0.629743 0.212696 0.100124
Si Si2 0.175744 0.583402 0.233990
Si Si3 0.627961 0.595708 0.998195
Si Si4 0.287003 0.780204 0.456293
Si Si5 0.645809 0.042403 0.494696
Si Si6 0.929227 0.604684 0.750746
Si Si7 0.566712 0.796992 0.938971
O O1 0.500000 0.274381 0.250000
O O2 0.603921 0.178939 0.261008
O O3 0.752811 0.297482 0.907632
O O4 0.661601 0.098685 0.976678
O O5 0.261420 0.506110 0.187253
O O6 0.158638 0.506287 0.152779
O O7 0.037716 0.625809 0.493469
O O8 0.672096 0.692343 0.013998
O O9 0.500000 0.535545 0.250000
O O10 0.604446 0.663981 0.922443
O O11 0.253004 0.900893 0.573865
O O12 0.159143 0.723464 0.594874
O O13 0.407282 0.805786 0.190973
O O14 0.653280 0.100109 0.365450
O O15 0.500000 0.085055 0.750000
O O16 0.000000 0.569354 0.750000
#
# Coordination Sequence:
#
# PCOD8120964 Si02
#       7
#     4   4   4   4   4   4   4
#     4  11  23  34  54  91 117 136 174 234 279 323
#     4  10  22  38  52  82 115 139 188 237 262 324
#     4   8  15  33  56  79 108 142 179 221 278 330
#     4   8  16  34  57  79 103 143 189 219 262 330
#     4   8  17  35  57  83 112 142 172 222 281 334
#     4  10  22  38  57  75 105 159 190 223 269 315
#     4   9  18  34  60  83 108 148 176 216 287 340
#
# _framework density 19.390253000000001
#
# number of rings (size 3 to 8) (size 9 to 14) (size 15 to 20)
#    0.000    2.857    0.000    2.143    4.000    5.143 
#    0.000    3.571    0.000    0.857    0.000    0.000 
#    0.000    0.000    0.000    0.000    0.000    0.000 
#
# Total GULP energy -346906.788431 kJ/mol
# GULP energy per Si atom -12389.528158 kJ/mol
# Density = 1.934612 g / cm^3
# Si number density = 19.390253 Si / 1000 Ang^3
#
#
#
# Elastic Constant Matrix: (Units=GPa)
#
#
# Indices 1 2 3 4 5 6 
#
# 1 98.2976 42.0994 25.2903 0.0000 1.2917 0.0000
# 2 42.0994 91.4649 48.4588 0.0000 -7.1413 0.0000
# 3 25.2903 48.4588 58.7286 0.0000 -6.6818 0.0000
# 4 0.0000 0.0000 0.0000 18.8639 0.0000 -5.3147
# 5 1.2917 -7.1413 -6.6818 0.0000 27.7508 0.0000
# 6 0.0000 0.0000 0.0000 -5.3147 0.0000 13.9490
#
#
#
# Elastic Compliance Matrix: (Units=1/GPa)
#
#
# Indices 1 2 3 4 5 6 
#
# 1 0.012857 -0.005375 -0.001364 0.000000 -0.002310 0.000000
# 2 -0.005375 0.021710 -0.015355 0.000000 0.002140 0.000000
# 3 -0.001364 -0.015355 0.030683 0.000000 0.003500 0.000000
# 4 0.000000 0.000000 0.000000 0.059386 0.000000 0.022626
# 5 -0.002310 0.002140 0.003500 0.000000 0.037536 0.000000
# 6 0.000000 0.000000 0.000000 0.022626 0.000000 0.080311
#
#
# Mechanical properties :
#
#
# Convention : Reuss Voigt Hill
#
# Bulk Modulus (GPa) = 47.48211 53.35424 50.41817
# Shear Modulus (GPa) = 17.02472 20.95558 18.99015
#
# Velocity S-wave (km/s) = 2.96633 3.29101 3.13288
# Velocity P-wave (km/s) = 6.02270 6.48203 6.25658
#
# Compressibility (1/GPa) = 0.02106056
#
# Stress axis : x y z
#
# Youngs Moduli (GPa) = 77.78073 46.06246 32.59140
#
# Poissons Ratio (x) = 0.24761 0.04445
# Poissons Ratio (y) = 0.41811 0.50044
# Poissons Ratio (z) = 0.10608 0.70729
#
# Static dielectric constant tensor:
#      x y z
#    x 3.624090 0.000000 -0.272990 
#    y 0.000000 3.604380 0.000000 
#    z -0.272990 0.000000 3.478110 
# 
# 
# High freq. dielectric constant tensor:
#      x y z
#    x 1.749160 0.000000 -0.000030 
#    y 0.000000 1.748800 0.000000 
#    z -0.000030 0.000000 1.722690 
# 
# From -- ./inp_files/40748.got.cif
#   From: 2010.06.25/outbox.cif.g09.slc.cpg/sg13_21_cif.got.tgz:40748.got - 2010.06.28 04:50:58.
