data_PCOD8120685
_publ_section_title
;
Structure prediction by ZEFSAII (Michael W. Deem and Ramdas Pophale) SiO2 
 PCOD8120685
Probable space group: P 2/C
;
_chemical_formula_sum "Si O2"
_cell_formula_units_Z 32
_cell_length_a 13.633919
_cell_length_b 11.271658
_cell_length_c 10.862004
_cell_angle_alpha 90.000000
_cell_angle_beta 108.436572
_cell_angle_gamma 90.000000
_cell_volume 1583.564015
_symmetry_space_group_name_H-M "P 2/C"
_symmetry_group_IT_number 13
_symmetry_cell_setting 'monoclinic'
loop_
_space_group_symop_operation_xyz
x,y,z
-x,y,1/2-z
-x,-y,-z
x,-y,1/2+z
loop_
_atom_site_type_symbol
_atom_site_label
_atom_site_fract_x
_atom_site_fract_y
_atom_site_fract_z
Si Si1 0.596294 0.068433 0.380506
Si Si2 0.653245 0.186633 0.994087
Si Si3 0.440735 0.277945 0.957071
Si Si4 0.265447 0.781321 0.716728
Si Si5 0.713973 0.334734 0.810645
Si Si6 0.065196 0.380139 0.657170
Si Si7 0.388632 0.430623 0.160009
Si Si8 0.951995 0.341032 0.362797
O O1 0.500000 0.084679 0.250000
O O2 0.577738 0.149577 0.491425
O O3 0.704450 0.109850 0.361205
O O4 0.603565 0.935130 0.428880
O O5 0.562776 0.285054 0.977347
O O6 0.731354 0.240145 0.925594
O O7 0.721880 0.168047 0.141681
O O8 0.380593 0.287681 0.806392
O O9 0.400549 0.386630 0.024585
O O10 0.348939 0.677129 0.728564
O O11 0.149564 0.736365 0.648716
O O12 0.818628 0.335473 0.773053
O O13 0.692884 0.463126 0.863236
O O14 0.073725 0.521241 0.656114
O O15 0.000000 0.337497 0.750000
O O16 0.025049 0.324864 0.511842
O O17 0.500000 0.474428 0.250000
O O18 0.000000 0.299175 0.250000
#
# Coordination Sequence:
#
# PCOD8120685 Si02
#       8
#     4   4   4   4   4   4   4   4
#     4  11  23  42  66  89 127 173 225 262 307 382
#     4  12  24  40  64  95 128 170 218 261 308 384
#     4  11  23  39  61  89 131 174 208 259 314 384
#     4  11  22  40  66  92 125 170 210 265 328 376
#     4  12  26  36  62  97 130 164 211 262 325 391
#     4  10  23  40  63  94 128 169 214 271 317 393
#     4  11  22  39  57  91 136 173 197 248 324 400
#     4  10  21  41  67  91 124 167 222 265 326 390
#
# _framework density 20.207581999999999
#
# number of rings (size 3 to 8) (size 9 to 14) (size 15 to 20)
#    0.000    1.000    3.750    3.750    7.000    2.000 
#    0.000    0.000    0.000    3.750    0.000    0.000 
#    0.000    0.000    0.000    0.000    0.000    0.000 
#
# Total GULP energy -396819.526908 kJ/mol
# GULP energy per Si atom -12400.610216 kJ/mol
# Density = 2.016159 g / cm^3
# Si number density = 20.207582 Si / 1000 Ang^3
#
#
#
# Elastic Constant Matrix: (Units=GPa)
#
#
# Indices 1 2 3 4 5 6 
#
# 1 109.5840 24.6729 23.0468 0.0000 -3.2813 0.0000
# 2 24.6729 67.3791 26.0463 0.0000 -5.5043 0.0000
# 3 23.0468 26.0463 81.8198 0.0000 -11.4789 0.0000
# 4 0.0000 0.0000 0.0000 26.6448 0.0000 -2.1019
# 5 -3.2813 -5.5043 -11.4789 0.0000 32.7902 0.0000
# 6 0.0000 0.0000 0.0000 -2.1019 0.0000 20.5114
#
#
#
# Elastic Compliance Matrix: (Units=1/GPa)
#
#
# Indices 1 2 3 4 5 6 
#
# 1 0.010204 -0.002999 -0.001942 0.000000 -0.000162 0.000000
# 2 -0.002999 0.017837 -0.004686 0.000000 0.001054 0.000000
# 3 -0.001942 -0.004686 0.014853 0.000000 0.004219 0.000000
# 4 0.000000 0.000000 0.000000 0.037837 0.000000 0.003877
# 5 -0.000162 0.001054 0.004219 0.000000 0.032134 0.000000
# 6 0.000000 0.000000 0.000000 0.003877 0.000000 0.049151
#
#
# Mechanical properties :
#
#
# Convention : Reuss Voigt Hill
#
# Bulk Modulus (GPa) = 42.30149 45.14609 43.72379
# Shear Modulus (GPa) = 26.43416 28.32376 27.37896
#
# Velocity S-wave (km/s) = 3.62073 3.74791 3.68487
# Velocity P-wave (km/s) = 6.20149 6.41239 6.30782
#
# Compressibility (1/GPa) = 0.02363983
#
# Stress axis : x y z
#
# Youngs Moduli (GPa) = 97.99797 56.06350 67.32862
#
# Poissons Ratio (x) = 0.16813 0.13078
# Poissons Ratio (y) = 0.29390 0.31547
# Poissons Ratio (z) = 0.19035 0.26269
#
# Static dielectric constant tensor:
#      x y z
#    x 3.730130 0.000000 -0.260180 
#    y 0.000000 3.472580 0.000000 
#    z -0.260180 0.000000 3.682970 
# 
# 
# High freq. dielectric constant tensor:
#      x y z
#    x 1.789770 0.000000 -0.017980 
#    y 0.000000 1.768740 0.000000 
#    z -0.017980 0.000000 1.794270 
# 
# From -- ./inp_files/34173.got.cif
#   From: 2010.06.25/outbox.cif.g09.slc.cpg/sg13_18_cif.got.tgz:34173.got - 2010.06.28 04:50:58.
