data_PCOD8120439
_publ_section_title
;
Structure prediction by ZEFSAII (Michael W. Deem and Ramdas Pophale) SiO2 
 PCOD8120439
Probable space group: P 2/C
;
_chemical_formula_sum "Si O2"
_cell_formula_units_Z 22
_cell_length_a 25.336235
_cell_length_b 5.258534
_cell_length_c 11.647814
_cell_angle_alpha 90.000000
_cell_angle_beta 143.573162
_cell_angle_gamma 90.000000
_cell_volume 921.485158
_symmetry_space_group_name_H-M "P 2/C"
_symmetry_group_IT_number 13
_symmetry_cell_setting 'monoclinic'
loop_
_space_group_symop_operation_xyz
x,y,z
-x,y,1/2-z
-x,-y,-z
x,-y,1/2+z
loop_
_atom_site_type_symbol
_atom_site_label
_atom_site_fract_x
_atom_site_fract_y
_atom_site_fract_z
Si Si1 0.329693 0.844609 0.854374
Si Si2 0.431651 0.310089 0.316345
Si Si3 0.890064 0.733439 0.264799
Si Si4 0.278962 0.362875 0.875662
Si Si5 0.950561 0.766044 0.781816
Si Si6 0.500000 0.962969 0.250000
O O1 0.363118 0.827974 0.782443
O O2 0.262060 0.614455 0.767563
O O3 0.289970 0.122718 0.809666
O O4 0.413002 0.792043 0.085619
O O5 0.500000 0.500000 0.500000
O O6 0.496848 0.118088 0.364367
O O7 0.366114 0.422229 0.104569
O O8 0.806093 0.694112 0.197547
O O9 0.895140 0.496795 0.184963
O O10 0.979469 0.752103 0.493623
O O11 0.882305 0.997218 0.180048
O O12 0.000000 0.807897 0.750000
#
# Coordination Sequence:
#
# PCOD8120439 Si02
#       6
#     4   4   4   4   4   2
#     4  11  23  39  59  85 116 158 200 250 306 357
#     4  11  22  40  63  87 119 162 206 253 308 362
#     4  10  22  40  60  92 124 155 200 248 297 361
#     4  11  25  40  60  90 124 156 201 254 301 360
#     4  10  21  39  66  90 121 161 198 242 300 364
#     4  10  22  40  60  86 118 156 210 260 302 362
#
# _framework density 23.874503000000001
#
# number of rings (size 3 to 8) (size 9 to 14) (size 15 to 20)
#    0.000    1.455    0.000    5.455    0.000    8.000 
#    0.000    0.000    0.000    0.000    0.000    0.000 
#    0.000    0.000    0.000    0.000    0.000    0.000 
#
# Total GULP energy -272649.072522 kJ/mol
# GULP energy per Si atom -12393.139660 kJ/mol
# Density = 2.382016 g / cm^3
# Si number density = 23.874503 Si / 1000 Ang^3
#
#
#
# Elastic Constant Matrix: (Units=GPa)
#
#
# Indices 1 2 3 4 5 6 
#
# 1 196.1462 90.2187 -0.5628 0.0000 -1.2686 0.0000
# 2 90.2187 183.8802 19.7860 0.0000 -7.3262 0.0000
# 3 -0.5628 19.7860 19.1410 0.0000 0.9888 0.0000
# 4 0.0000 0.0000 0.0000 23.0773 0.0000 -6.8455
# 5 -1.2686 -7.3262 0.9888 0.0000 35.0469 0.0000
# 6 0.0000 0.0000 0.0000 -6.8455 0.0000 48.5571
#
#
#
# Elastic Compliance Matrix: (Units=1/GPa)
#
#
# Indices 1 2 3 4 5 6 
#
# 1 0.006880 -0.003857 0.004224 0.000000 -0.000676 0.000000
# 2 -0.003857 0.008357 -0.008848 0.000000 0.001857 0.000000
# 3 0.004224 -0.008848 0.061692 0.000000 -0.003437 0.000000
# 4 0.000000 0.000000 0.000000 0.045224 0.000000 0.006376
# 5 -0.000676 0.001857 -0.003437 0.000000 0.028994 0.000000
# 6 0.000000 0.000000 0.000000 0.006376 0.000000 0.021493
#
#
# Mechanical properties :
#
#
# Convention : Reuss Voigt Hill
#
# Bulk Modulus (GPa) = 16.67573 68.67236 42.67404
# Shear Modulus (GPa) = 23.85614 40.65127 32.25371
#
# Velocity S-wave (km/s) = 3.16449 4.13086 3.67954
# Velocity P-wave (km/s) = 4.51131 7.18181 5.99709
#
# Compressibility (1/GPa) = 0.05996740
#
# Stress axis : x y z
#
# Youngs Moduli (GPa) = 145.34672 119.66283 16.20967
#
# Poissons Ratio (x) = 0.46156 -0.06848
# Poissons Ratio (y) = 0.56062 0.14342
# Poissons Ratio (z) = -0.61400 1.05875
#
# Static dielectric constant tensor:
#      x y z
#    x 4.393080 0.000000 -0.003810 
#    y 0.000000 4.730410 0.000000 
#    z -0.003810 0.000000 4.137900 
# 
# 
# High freq. dielectric constant tensor:
#      x y z
#    x 1.963100 0.000000 0.000230 
#    y 0.000000 1.957180 0.000000 
#    z 0.000230 0.000000 1.928620 
# 
# From -- ./inp_files/41340.got.cif
#   From: 2010.06.25/outbox.cif.g09.slc.cpg/sg13_21_cif.got.tgz:41340.got - 2010.06.28 04:50:58.
