data_PCOD8120453
_publ_section_title
;
Structure prediction by ZEFSAII (Michael W. Deem and Ramdas Pophale) SiO2 
 PCOD8120453
Probable space group: P 2/C
;
_chemical_formula_sum "Si O2"
_cell_formula_units_Z 24
_cell_length_a 21.755860
_cell_length_b 9.479341
_cell_length_c 16.096971
_cell_angle_alpha 90.000000
_cell_angle_beta 20.110528
_cell_angle_gamma 90.000000
_cell_volume 1141.419183
_symmetry_space_group_name_H-M "P 2/C"
_symmetry_group_IT_number 13
_symmetry_cell_setting 'monoclinic'
loop_
_space_group_symop_operation_xyz
x,y,z
-x,y,1/2-z
-x,-y,-z
x,-y,1/2+z
loop_
_atom_site_type_symbol
_atom_site_label
_atom_site_fract_x
_atom_site_fract_y
_atom_site_fract_z
Si Si1 0.350101 0.304940 0.005774
Si Si2 0.985274 0.952832 0.359840
Si Si3 0.686448 0.170618 0.965919
Si Si4 0.189368 0.437035 0.779578
Si Si5 0.987728 0.278804 0.359172
Si Si6 0.641764 0.952049 0.887800
O O1 0.331054 0.434191 0.095879
O O2 0.167978 0.284709 0.184816
O O3 0.418292 0.167035 0.969705
O O4 0.500000 0.346022 0.750000
O O5 0.933297 0.116535 0.420498
O O6 0.000000 0.884939 0.250000
O O7 0.174659 0.925192 0.160595
O O8 0.821535 0.885228 0.618992
O O9 0.759147 0.327386 0.858695
O O10 0.672461 0.098670 0.894834
O O11 0.500000 0.174877 0.250000
O O12 0.000000 0.500000 0.000000
O O13 0.173638 0.363269 0.890064
O O14 0.000000 0.342532 0.250000
O O15 0.500000 0.000000 0.000000
#
# Coordination Sequence:
#
# PCOD8120453 Si02
#       6
#     4   4   4   4   4   4
#     4  11  24  42  65  95 133 173 217 272 334 401
#     4  11  22  39  65  97 131 170 218 275 339 394
#     4  12  23  41  67  99 132 170 220 283 335 396
#     4  10  22  43  65  94 132 179 220 266 334 402
#     4  10  21  39  67  93 127 174 219 268 332 399
#     4  12  25  41  65  98 130 173 224 279 333 396
#
# _framework density 21.026454999999999
#
# number of rings (size 3 to 8) (size 9 to 14) (size 15 to 20)
#    0.000    1.000    3.333    4.500    4.667    0.000 
#    0.000   14.167    0.000    0.000    0.000    0.000 
#    0.000    0.000    0.000    0.000    0.000    0.000 
#
# Total GULP energy -297510.861732 kJ/mol
# GULP energy per Si atom -12396.285905 kJ/mol
# Density = 2.097860 g / cm^3
# Si number density = 21.026455 Si / 1000 Ang^3
#
#
#
# Elastic Constant Matrix: (Units=GPa)
#
#
# Indices 1 2 3 4 5 6 
#
# 1 135.3349 31.2577 43.6239 0.0000 4.8180 0.0000
# 2 31.2577 95.6219 33.0273 0.0000 6.0704 0.0000
# 3 43.6239 33.0273 147.1787 0.0000 17.3486 0.0000
# 4 0.0000 0.0000 0.0000 44.9275 0.0000 20.8959
# 5 4.8180 6.0704 17.3486 0.0000 34.6409 0.0000
# 6 0.0000 0.0000 0.0000 20.8959 0.0000 42.0550
#
#
#
# Elastic Compliance Matrix: (Units=1/GPa)
#
#
# Indices 1 2 3 4 5 6 
#
# 1 0.008536 -0.002083 -0.002089 0.000000 0.000224 0.000000
# 2 -0.002083 0.011864 -0.001949 0.000000 -0.000813 0.000000
# 3 -0.002089 -0.001949 0.008264 0.000000 -0.003507 0.000000
# 4 0.000000 0.000000 0.000000 0.028948 0.000000 -0.014383
# 5 0.000224 -0.000813 -0.003507 0.000000 0.030735 0.000000
# 6 0.000000 0.000000 0.000000 -0.014383 0.000000 0.030925
#
#
# Mechanical properties :
#
#
# Convention : Reuss Voigt Hill
#
# Bulk Modulus (GPa) = 60.89476 65.99481 63.44479
# Shear Modulus (GPa) = 36.49981 42.33978 39.41979
#
# Velocity S-wave (km/s) = 4.17093 4.49223 4.33456
# Velocity P-wave (km/s) = 7.22630 7.63947 7.43576
#
# Compressibility (1/GPa) = 0.01642177
#
# Stress axis : x y z
#
# Youngs Moduli (GPa) = 117.15741 84.29205 121.00169
#
# Poissons Ratio (x) = 0.17557 0.25276
# Poissons Ratio (y) = 0.24402 0.23583
# Poissons Ratio (z) = 0.24473 0.16428
#
# Static dielectric constant tensor:
#      x y z
#    x 3.924740 0.000000 0.379720 
#    y 0.000000 4.009570 0.000000 
#    z 0.379720 0.000000 4.078140 
# 
# 
# High freq. dielectric constant tensor:
#      x y z
#    x 1.815380 0.000000 0.019920 
#    y 0.000000 1.820860 0.000000 
#    z 0.019920 0.000000 1.837990 
# 
# From -- ./inp_files/57657.got.cif
#   From: 2010.06.25/outbox.cif.g09.slc.cpg/sg13_29_cif.got.tgz:57657.got - 2010.06.28 04:50:58.
