data_PCOD8120698
_publ_section_title
;
Structure prediction by ZEFSAII (Michael W. Deem and Ramdas Pophale) SiO2 
 PCOD8120698
Probable space group: P 2/C
;
_chemical_formula_sum "Si O2"
_cell_formula_units_Z 16
_cell_length_a 9.604282
_cell_length_b 8.615066
_cell_length_c 16.678375
_cell_angle_alpha 90.000000
_cell_angle_beta 146.864374
_cell_angle_gamma 90.000000
_cell_volume 754.336187
_symmetry_space_group_name_H-M "P 2/C"
_symmetry_group_IT_number 13
_symmetry_cell_setting 'monoclinic'
loop_
_space_group_symop_operation_xyz
x,y,z
-x,y,1/2-z
-x,-y,-z
x,-y,1/2+z
loop_
_atom_site_type_symbol
_atom_site_label
_atom_site_fract_x
_atom_site_fract_y
_atom_site_fract_z
Si Si1 0.774440 0.470323 0.506127
Si Si2 0.500000 0.972604 0.250000
Si Si3 0.095578 0.287596 0.551780
Si Si4 0.000000 0.674620 0.750000
Si Si5 0.343877 0.772014 0.782450
O O1 0.726563 0.595746 0.412597
O O2 0.825236 0.561166 0.612675
O O3 0.521985 0.370361 0.392604
O O4 0.020580 0.362851 0.601576
O O5 0.757680 0.873665 0.369095
O O6 0.495775 0.075013 0.165599
O O7 0.824855 0.265411 0.376930
O O8 0.835329 0.791999 0.726028
#
# Coordination Sequence:
#
# PCOD8120698 Si02
#       5
#     4   2   4   2   4
#     4  10  21  41  68  92 126 163 219 264 304 369
#     4  12  24  38  68  94 132 164 208 264 318 376
#     4  10  23  38  68  98 119 165 221 262 309 364
#     4  10  24  40  66  96 130 166 210 258 318 374
#     4  11  22  43  63  96 129 165 208 263 317 372
#
# _framework density 21.210701
#
# number of rings (size 3 to 8) (size 9 to 14) (size 15 to 20)
#    0.000    1.500    2.500    1.500   10.500    0.000 
#    0.000    6.250    0.000    0.000    0.000    0.000 
#    0.000    0.000    0.000    0.000    0.000    0.000 
#
# Total GULP energy -198345.003808 kJ/mol
# GULP energy per Si atom -12396.562738 kJ/mol
# Density = 2.116242 g / cm^3
# Si number density = 21.210701 Si / 1000 Ang^3
#
#
#
# Elastic Constant Matrix: (Units=GPa)
#
#
# Indices 1 2 3 4 5 6 
#
# 1 126.1402 49.1099 17.0637 0.0000 2.0173 0.0000
# 2 49.1099 105.9688 28.0372 0.0000 8.4684 0.0000
# 3 17.0637 28.0372 60.3030 0.0000 0.3333 0.0000
# 4 0.0000 0.0000 0.0000 36.6588 0.0000 6.1334
# 5 2.0173 8.4684 0.3333 0.0000 23.2885 0.0000
# 6 0.0000 0.0000 0.0000 6.1334 0.0000 16.6783
#
#
#
# Elastic Compliance Matrix: (Units=1/GPa)
#
#
# Indices 1 2 3 4 5 6 
#
# 1 0.009715 -0.004372 -0.000720 0.000000 0.000759 0.000000
# 2 -0.004372 0.013083 -0.004822 0.000000 -0.004310 0.000000
# 3 -0.000720 -0.004822 0.019020 0.000000 0.001544 0.000000
# 4 0.000000 0.000000 0.000000 0.029067 0.000000 -0.010689
# 5 0.000759 -0.004310 0.001544 0.000000 0.044419 0.000000
# 6 0.000000 0.000000 0.000000 -0.010689 0.000000 0.063889
#
#
# Mechanical properties :
#
#
# Convention : Reuss Voigt Hill
#
# Bulk Modulus (GPa) = 45.47661 53.42595 49.45128
# Shear Modulus (GPa) = 24.23035 28.53855 26.38445
#
# Velocity S-wave (km/s) = 3.38355 3.67206 3.53075
# Velocity P-wave (km/s) = 6.06231 6.57431 6.32349
#
# Compressibility (1/GPa) = 0.02198933
#
# Stress axis : x y z
#
# Youngs Moduli (GPa) = 102.93014 76.43349 52.57594
#
# Poissons Ratio (x) = 0.33420 0.03787
# Poissons Ratio (y) = 0.45006 0.25351
# Poissons Ratio (z) = 0.07415 0.36855
#
# Static dielectric constant tensor:
#      x y z
#    x 3.909610 0.000000 0.155780 
#    y 0.000000 3.966540 0.000000 
#    z 0.155780 0.000000 3.561280 
# 
# 
# High freq. dielectric constant tensor:
#      x y z
#    x 1.835000 0.000000 0.024370 
#    y 0.000000 1.827510 0.000000 
#    z 0.024370 0.000000 1.818220 
# 
# From -- ./inp_files/14718.got.cif
#   From: 2010.06.25/outbox.cif.g09.slc.cpg/sg13_8_cif.got.tgz:14718.got - 2010.06.28 04:50:58.
