data_PCOD8120022
_publ_section_title
;
Structure prediction by ZEFSAII (Michael W. Deem and Ramdas Pophale) SiO2 
 PCOD8120022
Probable space group: P 2/C
;
_chemical_formula_sum "Si O2"
_cell_formula_units_Z 30
_cell_length_a 14.249794
_cell_length_b 11.193045
_cell_length_c 8.540016
_cell_angle_alpha 90.000000
_cell_angle_beta 87.395718
_cell_angle_gamma 90.000000
_cell_volume 1360.713642
_symmetry_space_group_name_H-M "P 2/C"
_symmetry_group_IT_number 13
_symmetry_cell_setting 'monoclinic'
loop_
_space_group_symop_operation_xyz
x,y,z
-x,y,1/2-z
-x,-y,-z
x,-y,1/2+z
loop_
_atom_site_type_symbol
_atom_site_label
_atom_site_fract_x
_atom_site_fract_y
_atom_site_fract_z
Si Si1 0.000000 0.297337 0.250000
Si Si2 0.504716 0.129215 0.574946
Si Si3 0.413523 0.631233 0.142897
Si Si4 0.694554 0.501509 0.103007
Si Si5 0.199126 0.366766 0.155914
Si Si6 0.202285 0.045643 0.709584
Si Si7 0.289377 0.144618 0.002370
Si Si8 0.075560 0.902065 0.949892
O O1 0.089087 0.379911 0.202863
O O2 0.023968 0.217945 0.400599
O O3 0.500000 0.087147 0.750000
O O4 0.425435 0.234802 0.566372
O O5 0.602913 0.189361 0.512729
O O6 0.500000 0.000000 0.500000
O O7 0.500000 0.596137 0.250000
O O8 0.329646 0.611708 0.276611
O O9 0.394695 0.542723 0.996678
O O10 0.735695 0.390970 0.197916
O O11 0.778529 0.542704 0.985247
O O12 0.223123 0.233957 0.100278
O O13 0.138612 0.125553 0.598020
O O14 0.281233 0.980280 0.596869
O O15 0.253870 0.131698 0.827092
O O16 0.138308 0.948377 0.801694
O O17 0.000000 0.000000 0.000000
#
# Coordination Sequence:
#
# PCOD8120022 Si02
#       8
#     2   4   4   4   4   4   4   4
#     4  12  22  40  66  92 130 166 226 270 340 390
#     4  11  24  41  60  96 139 177 212 267 330 404
#     4  10  21  43  72 100 127 170 223 279 329 399
#     4  10  24  45  71  94 127 168 228 279 342 387
#     4  11  24  45  66  92 124 172 218 286 329 392
#     4  10  21  36  62  91 131 174 212 255 326 395
#     4  11  22  41  62  95 134 174 218 265 329 400
#     4  11  18  36  60  92 127 169 218 268 311 395
#
# _framework density 22.047253999999999
#
# number of rings (size 3 to 8) (size 9 to 14) (size 15 to 20)
#    0.000    1.333    2.667    3.600    0.000    3.733 
#    9.600    0.000    0.000    0.000    0.000    0.000 
#    0.000    0.000    0.000    0.000    0.000    0.000 
#
# Total GULP energy -371677.035567 kJ/mol
# GULP energy per Si atom -12389.234519 kJ/mol
# Density = 2.199707 g / cm^3
# Si number density = 22.047254 Si / 1000 Ang^3
#
#
#
# Elastic Constant Matrix: (Units=GPa)
#
#
# Indices 1 2 3 4 5 6 
#
# 1 113.3023 41.3540 49.1890 0.0000 -9.2160 0.0000
# 2 41.3540 104.4906 49.8087 0.0000 4.3078 0.0000
# 3 49.1890 49.8087 121.6167 0.0000 2.3026 0.0000
# 4 0.0000 0.0000 0.0000 18.7711 0.0000 -10.5923
# 5 -9.2160 4.3078 2.3026 0.0000 34.8126 0.0000
# 6 0.0000 0.0000 0.0000 -10.5923 0.0000 32.1493
#
#
#
# Elastic Compliance Matrix: (Units=1/GPa)
#
#
# Indices 1 2 3 4 5 6 
#
# 1 0.011825 -0.003133 -0.003571 0.000000 0.003754 0.000000
# 2 -0.003133 0.012768 -0.003921 0.000000 -0.002150 0.000000
# 3 -0.003571 -0.003921 0.011296 0.000000 -0.001207 0.000000
# 4 0.000000 0.000000 0.000000 0.065440 0.000000 0.021561
# 5 0.003754 -0.002150 -0.001207 0.000000 0.030065 0.000000
# 6 0.000000 0.000000 0.000000 0.021561 0.000000 0.038209
#
#
# Mechanical properties :
#
#
# Convention : Reuss Voigt Hill
#
# Bulk Modulus (GPa) = 68.31133 68.90146 68.60639
# Shear Modulus (GPa) = 25.54523 30.41712 27.98118
#
# Velocity S-wave (km/s) = 3.40760 3.71837 3.56637
# Velocity P-wave (km/s) = 6.82156 7.05369 6.93860
#
# Compressibility (1/GPa) = 0.01463886
#
# Stress axis : x y z
#
# Youngs Moduli (GPa) = 84.56733 78.32132 88.52906
#
# Poissons Ratio (x) = 0.24534 0.31612
# Poissons Ratio (y) = 0.26491 0.34716
# Poissons Ratio (z) = 0.30198 0.30714
#
# Static dielectric constant tensor:
#      x y z
#    x 4.152850 0.000000 -0.099920 
#    y 0.000000 3.724470 0.000000 
#    z -0.099920 0.000000 4.302170 
# 
# 
# High freq. dielectric constant tensor:
#      x y z
#    x 1.865090 0.000000 -0.011830 
#    y 0.000000 1.844860 0.000000 
#    z -0.011830 0.000000 1.884720 
# 
# From -- ./inp_files/18800.got.cif
#   From: 2010.06.25/outbox.cif.g09.slc.cpg/sg13_10_cif.got.tgz:18800.got - 2010.06.28 04:50:58.
