data_PCOD8120954
_publ_section_title
;
Structure prediction by ZEFSAII (Michael W. Deem and Ramdas Pophale) SiO2 
 PCOD8120954
Probable space group: P 2/C
;
_chemical_formula_sum "Si O2"
_cell_formula_units_Z 16
_cell_length_a 5.200801
_cell_length_b 7.666501
_cell_length_c 21.499785
_cell_angle_alpha 90.000000
_cell_angle_beta 73.071801
_cell_angle_gamma 90.000000
_cell_volume 820.094472
_symmetry_space_group_name_H-M "P 2/C"
_symmetry_group_IT_number 13
_symmetry_cell_setting 'monoclinic'
loop_
_space_group_symop_operation_xyz
x,y,z
-x,y,1/2-z
-x,-y,-z
x,-y,1/2+z
loop_
_atom_site_type_symbol
_atom_site_label
_atom_site_fract_x
_atom_site_fract_y
_atom_site_fract_z
Si Si1 0.381880 0.605867 0.565161
Si Si2 0.832525 0.744919 0.612962
Si Si3 0.013225 0.558581 0.321574
Si Si4 0.195391 0.938296 0.293366
O O1 0.500000 0.500000 0.500000
O O2 0.605303 0.737994 0.576254
O O3 0.127714 0.722790 0.560553
O O4 0.279383 0.470352 0.625685
O O5 0.780415 0.582948 0.664021
O O6 0.826027 0.925350 0.649715
O O7 0.000000 0.520932 0.250000
O O8 0.111668 0.753456 0.328226
O O9 0.500000 0.927590 0.250000
O O10 0.000000 0.991547 0.250000
#
# Coordination Sequence:
#
# PCOD8120954 Si02
#       4
#     4   4   4   4
#     4  10  22  40  62  83 120 161 202 241 298 356
#     4  10  22  37  62  82 121 153 200 241 304 344
#     4   9  23  36  62  87 120 153 197 245 303 352
#     4  11  23  36  59  93 125 150 199 251 305 360
#
# _framework density 19.509948000000001
#
# number of rings (size 3 to 8) (size 9 to 14) (size 15 to 20)
#    1.500    0.500    0.000    3.000   10.500    0.000 
#    0.000    2.500    0.000    0.000    0.000    0.000 
#    0.000    0.000    0.000    0.000    0.000    0.000 
#
# Total GULP energy -198281.270563 kJ/mol
# GULP energy per Si atom -12392.579410 kJ/mol
# Density = 1.946554 g / cm^3
# Si number density = 19.509948 Si / 1000 Ang^3
#
#
#
# Elastic Constant Matrix: (Units=GPa)
#
#
# Indices 1 2 3 4 5 6 
#
# 1 132.0002 5.9351 18.4012 0.0000 -16.4520 0.0000
# 2 5.9351 50.7456 1.2860 0.0000 -3.6401 0.0000
# 3 18.4012 1.2860 87.6649 0.0000 -15.6081 0.0000
# 4 0.0000 0.0000 0.0000 5.8121 0.0000 -2.7669
# 5 -16.4520 -3.6401 -15.6081 0.0000 28.3070 0.0000
# 6 0.0000 0.0000 0.0000 -2.7669 0.0000 13.1317
#
#
#
# Elastic Compliance Matrix: (Units=1/GPa)
#
#
# Indices 1 2 3 4 5 6 
#
# 1 0.008262 -0.000642 -0.000981 0.000000 0.004179 0.000000
# 2 -0.000642 0.019942 0.000258 0.000000 0.002334 0.000000
# 3 -0.000981 0.000258 0.012767 0.000000 0.006503 0.000000
# 4 0.000000 0.000000 0.000000 0.191239 0.000000 0.040295
# 5 0.004179 0.002334 0.006503 0.000000 0.041641 0.000000
# 6 0.000000 0.000000 0.000000 0.040295 0.000000 0.084642
#
#
# Mechanical properties :
#
#
# Convention : Reuss Voigt Hill
#
# Bulk Modulus (GPa) = 26.14983 35.73947 30.94465
# Shear Modulus (GPa) = 13.37006 25.76937 19.56971
#
# Velocity S-wave (km/s) = 2.62065 3.63827 3.17055
# Velocity P-wave (km/s) = 4.75284 6.00064 5.41282
#
# Compressibility (1/GPa) = 0.03824117
#
# Stress axis : x y z
#
# Youngs Moduli (GPa) = 121.03402 50.14527 78.32745
#
# Poissons Ratio (x) = 0.03218 0.07683
# Poissons Ratio (y) = 0.07767 -0.02018
# Poissons Ratio (z) = 0.11872 -0.01292
#
# Static dielectric constant tensor:
#      x y z
#    x 3.855120 0.000000 0.020400 
#    y 0.000000 3.488890 0.000000 
#    z 0.020400 0.000000 3.462760 
# 
# 
# High freq. dielectric constant tensor:
#      x y z
#    x 1.770350 0.000000 -0.007560 
#    y 0.000000 1.753030 0.000000 
#    z -0.007560 0.000000 1.743420 
# 
# From -- ./inp_files/60518.got.cif
#   From: 2010.06.25/outbox.cif.g09.slc.cpg/sg13_31_cif.got.tgz:60518.got - 2010.06.28 04:50:58.
