data_PCOD8120415
_publ_section_title
;
Structure prediction by ZEFSAII (Michael W. Deem and Ramdas Pophale) SiO2 
 PCOD8120415
Probable space group: P 2/C
;
_chemical_formula_sum "Si O2"
_cell_formula_units_Z 28
_cell_length_a 13.626280
_cell_length_b 8.732339
_cell_length_c 12.340462
_cell_angle_alpha 90.000000
_cell_angle_beta 62.648887
_cell_angle_gamma 90.000000
_cell_volume 1304.229021
_symmetry_space_group_name_H-M "P 2/C"
_symmetry_group_IT_number 13
_symmetry_cell_setting 'monoclinic'
loop_
_space_group_symop_operation_xyz
x,y,z
-x,y,1/2-z
-x,-y,-z
x,-y,1/2+z
loop_
_atom_site_type_symbol
_atom_site_label
_atom_site_fract_x
_atom_site_fract_y
_atom_site_fract_z
Si Si1 0.727437 0.287409 0.231557
Si Si2 0.489158 0.177739 0.045821
Si Si3 0.286630 0.874258 0.975632
Si Si4 0.404979 0.822898 0.371593
Si Si5 0.126724 0.381653 0.155313
Si Si6 0.775426 0.628435 0.126252
Si Si7 0.126182 0.724231 0.209792
O O1 0.604307 0.227438 0.320946
O O2 0.764308 0.180315 0.113046
O O3 0.801680 0.271156 0.302240
O O4 0.746607 0.458370 0.178597
O O5 0.604959 0.224482 0.042543
O O6 0.459886 0.263471 0.947768
O O7 0.500000 0.000000 0.000000
O O8 0.315875 0.052398 0.954459
O O9 0.195536 0.855151 0.114581
O O10 0.500000 0.902761 0.250000
O O11 0.345683 0.697622 0.328579
O O12 0.160906 0.558063 0.149109
O O13 0.000000 0.354200 0.250000
O O14 0.150419 0.348435 0.018210
O O15 0.846236 0.725199 0.176959
O O16 0.000000 0.762196 0.250000
#
# Coordination Sequence:
#
# PCOD8120415 Si02
#       7
#     4   4   4   4   4   4   4
#     4  11  22  39  69  98 127 165 218 266 320 381
#     4  10  21  39  64  92 129 168 213 258 318 388
#     4  11  22  40  64  95 126 172 218 258 321 393
#     4  11  23  42  65  92 133 173 208 266 328 389
#     4  10  22  41  68  96 127 174 216 268 324 381
#     4  11  23  43  64  99 132 162 218 270 323 381
#     4  10  23  40  65  94 130 169 213 272 325 378
#
# _framework density 21.468623000000001
#
# number of rings (size 3 to 8) (size 9 to 14) (size 15 to 20)
#    0.000    1.429    2.857    3.000    2.000    4.000 
#    0.000    4.286    0.000    0.000    0.000    0.000 
#    0.000    0.000    0.000    0.000    0.000    0.000 
#
# Total GULP energy -346990.404769 kJ/mol
# GULP energy per Si atom -12392.514456 kJ/mol
# Density = 2.141976 g / cm^3
# Si number density = 21.468623 Si / 1000 Ang^3
#
#
#
# Elastic Constant Matrix: (Units=GPa)
#
#
# Indices 1 2 3 4 5 6 
#
# 1 63.1417 -0.9062 50.6509 0.0000 5.4570 0.0000
# 2 -0.9062 27.9469 35.4305 0.0000 -5.7463 0.0000
# 3 50.6509 35.4305 167.2516 0.0000 9.1394 0.0000
# 4 0.0000 0.0000 0.0000 28.4927 0.0000 -2.1612
# 5 5.4570 -5.7463 9.1394 0.0000 43.8480 0.0000
# 6 0.0000 0.0000 0.0000 -2.1612 0.0000 24.6375
#
#
#
# Elastic Compliance Matrix: (Units=1/GPa)
#
#
# Indices 1 2 3 4 5 6 
#
# 1 0.024326 0.014228 -0.010436 0.000000 0.001012 0.000000
# 2 0.014228 0.060733 -0.017714 0.000000 0.009881 0.000000
# 3 -0.010436 -0.017714 0.013097 0.000000 -0.003753 0.000000
# 4 0.000000 0.000000 0.000000 0.035332 0.000000 0.003099
# 5 0.001012 0.009881 -0.003753 0.000000 0.024757 0.000000
# 6 0.000000 0.000000 0.000000 0.003099 0.000000 0.040860
#
#
# Mechanical properties :
#
#
# Convention : Reuss Voigt Hill
#
# Bulk Modulus (GPa) = 14.22264 47.63229 30.92746
# Shear Modulus (GPa) = 19.96903 30.93997 25.45450
#
# Velocity S-wave (km/s) = 3.05314 3.80040 3.44708
# Velocity P-wave (km/s) = 4.36671 6.44146 5.50275
#
# Compressibility (1/GPa) = 0.07031045
#
# Stress axis : x y z
#
# Youngs Moduli (GPa) = 41.10862 16.46550 76.35221
#
# Poissons Ratio (x) = -0.23427 0.79683
# Poissons Ratio (y) = -0.58488 1.35253
# Poissons Ratio (z) = 0.42902 0.29168
#
# Static dielectric constant tensor:
#      x y z
#    x 4.285840 0.000000 0.402050 
#    y 0.000000 3.528210 0.000000 
#    z 0.402050 0.000000 4.040470 
# 
# 
# High freq. dielectric constant tensor:
#      x y z
#    x 1.851110 0.000000 0.017840 
#    y 0.000000 1.810520 0.000000 
#    z 0.017840 0.000000 1.860900 
# 
# From -- ./inp_files/36330.got.cif
#   From: 2010.06.25/outbox.cif.g09.slc.cpg/sg13_19_cif.got.tgz:36330.got - 2010.06.28 04:50:58.
