data_PCOD8120689
_publ_section_title
;
Structure prediction by ZEFSAII (Michael W. Deem and Ramdas Pophale) SiO2 
 PCOD8120689
Probable space group: P 2/C
;
_chemical_formula_sum "Si O2"
_cell_formula_units_Z 22
_cell_length_a 24.330559
_cell_length_b 8.870898
_cell_length_c 14.250014
_cell_angle_alpha 90.000000
_cell_angle_beta 159.631578
_cell_angle_gamma 90.000000
_cell_volume 1070.491851
_symmetry_space_group_name_H-M "P 2/C"
_symmetry_group_IT_number 13
_symmetry_cell_setting 'monoclinic'
loop_
_space_group_symop_operation_xyz
x,y,z
-x,y,1/2-z
-x,-y,-z
x,-y,1/2+z
loop_
_atom_site_type_symbol
_atom_site_label
_atom_site_fract_x
_atom_site_fract_y
_atom_site_fract_z
Si Si1 0.000000 0.883918 0.750000
Si Si2 0.864395 0.394096 0.748269
Si Si3 0.730585 0.685133 0.227845
Si Si4 0.566078 0.865585 0.667863
Si Si5 0.329560 0.565791 0.733464
Si Si6 0.107381 0.073961 0.751365
O O1 0.875222 0.782292 0.496534
O O2 0.086063 0.991646 0.815074
O O3 0.747442 0.338548 0.643751
O O4 0.764593 0.484385 0.510914
O O5 0.945973 0.248435 0.830712
O O6 0.000000 0.500000 0.000000
O O7 0.746503 0.516875 0.298309
O O8 0.568766 0.774719 0.991396
O O9 0.656426 0.748411 0.741197
O O10 0.500000 0.000000 0.500000
O O11 0.699826 0.928117 0.955077
O O12 0.500000 0.500000 0.000000
O O13 0.000000 0.000000 0.500000
#
# Coordination Sequence:
#
# PCOD8120689 Si02
#       6
#     2   4   4   4   4   4
#     4  12  22  40  70  94 136 178 228 284 356 408
#     4  11  24  42  66  95 135 175 229 278 336 419
#     4  11  22  42  69  93 131 188 221 280 358 403
#     4  10  21  41  67  93 136 173 222 283 343 412
#     4   9  22  38  63  95 130 170 223 280 333 410
#     4  11  24  41  64 102 131 172 229 284 335 418
#
# _framework density 20.551302
#
# number of rings (size 3 to 8) (size 9 to 14) (size 15 to 20)
#    0.000    1.455    3.636    1.091    0.000    9.455 
#    0.000    0.000    0.000    8.727    0.000    0.000 
#    0.000    0.000    0.000    0.000    0.000    0.000 
#
# Total GULP energy -272569.786855 kJ/mol
# GULP energy per Si atom -12389.535766 kJ/mol
# Density = 2.050453 g / cm^3
# Si number density = 20.551302 Si / 1000 Ang^3
#
#
#
# Elastic Constant Matrix: (Units=GPa)
#
#
# Indices 1 2 3 4 5 6 
#
# 1 55.8786 16.8166 8.1518 0.0000 4.1985 0.0000
# 2 16.8166 100.2833 44.2906 0.0000 1.5584 0.0000
# 3 8.1518 44.2906 148.4773 0.0000 -17.0053 0.0000
# 4 0.0000 0.0000 0.0000 47.7724 0.0000 -1.8191
# 5 4.1985 1.5584 -17.0053 0.0000 32.9599 0.0000
# 6 0.0000 0.0000 0.0000 -1.8191 0.0000 34.5353
#
#
#
# Elastic Compliance Matrix: (Units=1/GPa)
#
#
# Indices 1 2 3 4 5 6 
#
# 1 0.019040 -0.002954 -0.000453 0.000000 -0.002519 0.000000
# 2 -0.002954 0.012133 -0.003698 0.000000 -0.002106 0.000000
# 3 -0.000453 -0.003698 0.008385 0.000000 0.004559 0.000000
# 4 0.000000 0.000000 0.000000 0.020975 0.000000 0.001105
# 5 -0.002519 -0.002106 0.004559 0.000000 0.033112 0.000000
# 6 0.000000 0.000000 0.000000 0.001105 0.000000 0.029014
#
#
# Mechanical properties :
#
#
# Convention : Reuss Voigt Hill
#
# Bulk Modulus (GPa) = 39.44941 49.23968 44.34455
# Shear Modulus (GPa) = 34.40707 38.74555 36.57631
#
# Velocity S-wave (km/s) = 4.09614 4.34672 4.22329
# Velocity P-wave (km/s) = 6.45046 7.01452 6.73839
#
# Compressibility (1/GPa) = 0.02534892
#
# Stress axis : x y z
#
# Youngs Moduli (GPa) = 52.52047 82.41882 119.25756
#
# Poissons Ratio (x) = 0.24344 0.05400
# Poissons Ratio (y) = 0.15513 0.44105
# Poissons Ratio (z) = 0.02378 0.30481
#
# Static dielectric constant tensor:
#      x y z
#    x 3.994310 0.000000 -0.076440 
#    y 0.000000 4.575440 0.000000 
#    z -0.076440 0.000000 4.040890 
# 
# 
# High freq. dielectric constant tensor:
#      x y z
#    x 1.781190 0.000000 -0.013470 
#    y 0.000000 1.814410 0.000000 
#    z -0.013470 0.000000 1.828530 
# 
# From -- ./inp_files/58757.got.cif
#   From: 2010.06.25/outbox.cif.g09.slc.cpg/sg13_30_cif.got.tgz:58757.got - 2010.06.28 04:50:58.
