data_PCOD8120034
_publ_section_title
;
Structure prediction by ZEFSAII (Michael W. Deem and Ramdas Pophale) SiO2 
 PCOD8120034
Probable space group: P 2/C
;
_chemical_formula_sum "Si O2"
_cell_formula_units_Z 28
_cell_length_a 16.669854
_cell_length_b 6.290930
_cell_length_c 14.589064
_cell_angle_alpha 90.000000
_cell_angle_beta 113.350251
_cell_angle_gamma 90.000000
_cell_volume 1404.635525
_symmetry_space_group_name_H-M "P 2/C"
_symmetry_group_IT_number 13
_symmetry_cell_setting 'monoclinic'
loop_
_space_group_symop_operation_xyz
x,y,z
-x,y,1/2-z
-x,-y,-z
x,-y,1/2+z
loop_
_atom_site_type_symbol
_atom_site_label
_atom_site_fract_x
_atom_site_fract_y
_atom_site_fract_z
Si Si1 0.500000 0.894245 0.750000
Si Si2 0.137817 0.093626 0.888871
Si Si3 0.141418 0.291079 0.261431
Si Si4 0.362184 0.593626 0.611129
Si Si5 0.000000 0.394245 0.750000
Si Si6 0.285529 0.608121 0.383887
Si Si7 0.641418 0.791079 0.261431
Si Si8 0.214471 0.108121 0.116113
O O1 0.444727 0.750810 0.654723
O O2 0.435305 0.036224 0.782166
O O3 0.055273 0.250810 0.845277
O O4 0.222929 0.195263 0.880043
O O5 0.115294 0.874290 0.828604
O O6 0.154987 0.044895 0.002888
O O7 0.232642 0.400084 0.329773
O O8 0.149879 0.174984 0.168207
O O9 0.064695 0.463776 0.217834
O O10 0.345013 0.544895 0.497112
O O11 0.384706 0.374290 0.671396
O O12 0.277071 0.695263 0.619957
O O13 0.350121 0.674983 0.331793
O O14 0.732642 0.900084 0.329773
#
# Coordination Sequence:
#
# PCOD8120034 Si02
#       8
#     2   4   4   4   2   4   4   4
#     4  10  24  38  58  86 128 156 190 240 298 344
#     4  10  21  40  58  90 120 154 196 244 287 355
#     4  11  20  40  61  89 119 155 195 246 288 351
#     4  10  21  40  58  90 120 154 196 244 287 355
#     4  10  24  38  58  86 128 156 190 240 298 344
#     4  10  21  36  66  87 115 156 200 240 294 341
#     4  11  20  40  61  89 119 155 195 246 288 351
#     4  10  21  36  66  87 115 156 200 240 294 341
#
# _framework density 19.933993999999998
#
# number of rings (size 3 to 8) (size 9 to 14) (size 15 to 20)
#    0.000    1.714    2.857    1.714    0.000    1.143 
#    0.000    5.714    0.000    0.000    0.000    0.000 
#    0.000    0.000    0.000    0.000    0.000    0.000 
#
# Total GULP energy -347381.940879 kJ/mol
# GULP energy per Si atom -12406.497889 kJ/mol
# Density = 1.988862 g / cm^3
# Si number density = 19.933994 Si / 1000 Ang^3
#
#
#
# Elastic Constant Matrix: (Units=GPa)
#
#
# Indices 1 2 3 4 5 6 
#
# 1 95.9770 49.9536 70.6028 0.0000 1.0704 0.0000
# 2 49.9536 101.0389 44.7652 0.0000 -8.7513 0.0000
# 3 70.6028 44.7652 135.9781 0.0000 -18.9143 0.0000
# 4 0.0000 0.0000 0.0000 24.6974 0.0000 3.4177
# 5 1.0704 -8.7513 -18.9143 0.0000 27.1198 0.0000
# 6 0.0000 0.0000 0.0000 3.4177 0.0000 32.0951
#
#
#
# Elastic Compliance Matrix: (Units=1/GPa)
#
#
# Indices 1 2 3 4 5 6 
#
# 1 0.021992 -0.007114 -0.010539 0.000000 -0.010514 0.000000
# 2 -0.007114 0.013924 -0.000250 0.000000 0.004599 0.000000
# 3 -0.010539 -0.000250 0.014347 0.000000 0.010341 0.000000
# 4 0.000000 0.000000 0.000000 0.041096 0.000000 -0.004376
# 5 -0.010514 0.004599 0.010341 0.000000 0.045985 0.000000
# 6 0.000000 0.000000 0.000000 -0.004376 0.000000 0.031623
#
#
# Mechanical properties :
#
#
# Convention : Reuss Voigt Hill
#
# Bulk Modulus (GPa) = 69.17675 73.73747 71.45711
# Shear Modulus (GPa) = 23.85583 27.96063 25.90823
#
# Velocity S-wave (km/s) = 3.46315 3.74927 3.60905
# Velocity P-wave (km/s) = 7.12527 7.47087 7.30011
#
# Compressibility (1/GPa) = 0.01445572
#
# Stress axis : x y z
#
# Youngs Moduli (GPa) = 45.47109 71.82040 69.70026
#
# Poissons Ratio (x) = 0.51094 0.73458
# Poissons Ratio (y) = 0.32349 0.01744
# Poissons Ratio (z) = 0.47923 0.01797
#
# Static dielectric constant tensor:
#      x y z
#    x 3.460710 0.000000 0.094860 
#    y 0.000000 3.693100 0.000000 
#    z 0.094860 0.000000 3.610530 
# 
# 
# High freq. dielectric constant tensor:
#      x y z
#    x 1.767980 0.000000 0.004450 
#    y 0.000000 1.788050 0.000000 
#    z 0.004450 0.000000 1.773680 
# 
# From -- ./inp_files/54288.got.cif
#   From: 2010.06.25/outbox.cif.g09.slc.cpg/sg13_28_cif.got.tgz:54288.got - 2010.06.28 04:50:58.
