data_PCOD8120268
_publ_section_title
;
Structure prediction by ZEFSAII (Michael W. Deem and Ramdas Pophale) SiO2 
 PCOD8120268
Probable space group: P 2/C
;
_chemical_formula_sum "Si O2"
_cell_formula_units_Z 28
_cell_length_a 14.857781
_cell_length_b 10.249403
_cell_length_c 8.896771
_cell_angle_alpha 90.000000
_cell_angle_beta 77.433594
_cell_angle_gamma 90.000000
_cell_volume 1322.374761
_symmetry_space_group_name_H-M "P 2/C"
_symmetry_group_IT_number 13
_symmetry_cell_setting 'monoclinic'
loop_
_space_group_symop_operation_xyz
x,y,z
-x,y,1/2-z
-x,-y,-z
x,-y,1/2+z
loop_
_atom_site_type_symbol
_atom_site_label
_atom_site_fract_x
_atom_site_fract_y
_atom_site_fract_z
Si Si1 0.104812 0.655619 0.886659
Si Si2 0.219021 0.819220 0.387467
Si Si3 0.278547 0.816104 0.848608
Si Si4 0.593663 0.405111 0.302274
Si Si5 0.248817 0.987254 0.115794
Si Si6 0.403754 0.672939 0.347636
Si Si7 0.897725 0.392257 0.443679
O O1 0.168256 0.780867 0.906139
O O2 0.108723 0.542260 0.008810
O O3 0.141688 0.609282 0.710598
O O4 0.995669 0.682829 0.915393
O O5 0.190747 0.889024 0.242280
O O6 0.328588 0.788020 0.360935
O O7 0.167230 0.683730 0.418039
O O8 0.187544 0.919669 0.530574
O O9 0.329315 0.681694 0.805407
O O10 0.304669 0.914204 0.703188
O O11 0.310958 0.892941 0.987136
O O12 0.500000 0.370090 0.250000
O O13 0.622301 0.553675 0.255032
O O14 0.586585 0.380379 0.484073
O O15 0.500000 0.731554 0.250000
#
# Coordination Sequence:
#
# PCOD8120268 Si02
#       7
#     4   4   4   4   4   4   4
#     4  10  21  38  62  92 120 150 194 244 298 355
#     4  11  22  43  61  85 120 159 195 245 292 339
#     4  11  22  43  61  85 120 159 195 245 292 339
#     4  11  23  39  63  92 120 149 195 244 300 355
#     4  10  24  40  62  84 118 160 206 238 278 352
#     4  11  23  39  63  92 120 149 195 244 300 355
#     4  10  21  38  62  92 120 150 194 244 298 355
#
# _framework density 21.174028
#
# number of rings (size 3 to 8) (size 9 to 14) (size 15 to 20)
#    0.000    1.429    2.857    2.571    6.000    0.000 
#    0.000    8.571    0.000    0.000    0.000    0.000 
#    0.000    0.000    0.000    0.000    0.000    0.000 
#
# Total GULP energy -346879.457475 kJ/mol
# GULP energy per Si atom -12388.552053 kJ/mol
# Density = 2.112583 g / cm^3
# Si number density = 21.174028 Si / 1000 Ang^3
#
#
#
# Elastic Constant Matrix: (Units=GPa)
#
#
# Indices 1 2 3 4 5 6 
#
# 1 62.0940 33.4160 27.3864 0.0000 -7.5601 0.0000
# 2 33.4160 73.8449 37.4660 0.0000 -3.5454 0.0000
# 3 27.3864 37.4660 119.4461 0.0000 10.7241 0.0000
# 4 0.0000 0.0000 0.0000 37.0807 0.0000 0.8935
# 5 -7.5601 -3.5454 10.7241 0.0000 28.1728 0.0000
# 6 0.0000 0.0000 0.0000 0.8935 0.0000 6.9884
#
#
#
# Elastic Compliance Matrix: (Units=1/GPa)
#
#
# Indices 1 2 3 4 5 6 
#
# 1 0.022780 -0.008412 -0.003146 0.000000 0.006252 0.000000
# 2 -0.008412 0.019680 -0.004415 0.000000 0.001900 0.000000
# 3 -0.003146 -0.004415 0.010979 0.000000 -0.005579 0.000000
# 4 0.000000 0.000000 0.000000 0.027052 0.000000 -0.003459
# 5 0.006252 0.001900 -0.005579 0.000000 0.039535 0.000000
# 6 0.000000 0.000000 0.000000 -0.003459 0.000000 0.143537
#
#
# Mechanical properties :
#
#
# Convention : Reuss Voigt Hill
#
# Bulk Modulus (GPa) = 46.52559 50.21352 48.36956
# Shear Modulus (GPa) = 16.51954 24.92282 20.72118
#
# Velocity S-wave (km/s) = 2.79620 3.43453 3.13167
# Velocity P-wave (km/s) = 5.69611 6.28444 5.99749
#
# Compressibility (1/GPa) = 0.02149355
#
# Stress axis : x y z
#
# Youngs Moduli (GPa) = 43.89760 50.81410 91.08479
#
# Poissons Ratio (x) = 0.42746 0.28653
# Poissons Ratio (y) = 0.36928 0.40210
# Poissons Ratio (z) = 0.13809 0.22432
#
# Static dielectric constant tensor:
#      x y z
#    x 3.605310 0.000000 0.042310 
#    y 0.000000 3.826710 0.000000 
#    z 0.042310 0.000000 4.182910 
# 
# 
# High freq. dielectric constant tensor:
#      x y z
#    x 1.793220 0.000000 0.008430 
#    y 0.000000 1.832830 0.000000 
#    z 0.008430 0.000000 1.853490 
# 
# From -- ./inp_files/18736.got.cif
#   From: 2010.06.25/outbox.cif.g09.slc.cpg/sg13_10_cif.got.tgz:18736.got - 2010.06.28 04:50:58.
