data_PCOD8120070
_publ_section_title
;
Structure prediction by ZEFSAII (Michael W. Deem and Ramdas Pophale) SiO2 
 PCOD8120070
Probable space group: P 2/C
;
_chemical_formula_sum "Si O2"
_cell_formula_units_Z 16
_cell_length_a 8.843923
_cell_length_b 18.001993
_cell_length_c 9.814645
_cell_angle_alpha 90.000000
_cell_angle_beta 149.220549
_cell_angle_gamma 90.000000
_cell_volume 799.622602
_symmetry_space_group_name_H-M "P 2/C"
_symmetry_group_IT_number 13
_symmetry_cell_setting 'monoclinic'
loop_
_space_group_symop_operation_xyz
x,y,z
-x,y,1/2-z
-x,-y,-z
x,-y,1/2+z
loop_
_atom_site_type_symbol
_atom_site_label
_atom_site_fract_x
_atom_site_fract_y
_atom_site_fract_z
Si Si1 0.820493 0.030770 0.736274
Si Si2 0.327744 0.717146 0.977147
Si Si3 0.671834 0.546243 0.521208
Si Si4 0.683587 0.192155 0.531330
O O1 0.786718 0.119134 0.693997
O O2 0.000000 0.996396 0.750000
O O3 0.500000 0.000000 0.500000
O O4 0.000000 0.000000 0.000000
O O5 0.313366 0.631556 0.919811
O O6 0.000000 0.748670 0.750000
O O7 0.500000 0.729104 0.250000
O O8 0.477140 0.759455 0.967956
O O9 0.500000 0.500000 0.500000
O O10 0.000000 0.514295 0.750000
O O11 0.500000 0.537294 0.250000
O O12 0.000000 0.233959 0.750000
O O13 0.500000 0.174482 0.250000
#
# Coordination Sequence:
#
# PCOD8120070 Si02
#       4
#     4   4   4   4
#     4  11  23  40  59  84 114 146 187 235 286 346
#     4  10  22  39  59  88 120 154 198 245 290 346
#     4  10  21  37  58  86 121 157 199 244 289 344
#     4  11  23  40  60  86 117 151 193 242 292 350
#
# _framework density 20.009440000000001
#
# number of rings (size 3 to 8) (size 9 to 14) (size 15 to 20)
#    0.000    1.500    0.000    6.000    0.000    5.000 
#    0.000    0.000    0.000    0.000    0.000    0.000 
#    0.000    0.000    0.000    0.000    0.000    0.000 
#
# Total GULP energy -198330.149044 kJ/mol
# GULP energy per Si atom -12395.634315 kJ/mol
# Density = 1.996390 g / cm^3
# Si number density = 20.009440 Si / 1000 Ang^3
#
#
#
# Elastic Constant Matrix: (Units=GPa)
#
#
# Indices 1 2 3 4 5 6 
#
# 1 205.2450 80.5956 83.5499 0.0000 29.1528 0.0000
# 2 80.5956 79.4977 47.4139 0.0000 0.2369 0.0000
# 3 83.5499 47.4139 160.0534 0.0000 23.2868 0.0000
# 4 0.0000 0.0000 0.0000 -20.5162 0.0000 9.2671
# 5 29.1528 0.2369 23.2868 0.0000 49.0304 0.0000
# 6 0.0000 0.0000 0.0000 9.2671 0.0000 41.4458
#
#
#
# Elastic Compliance Matrix: (Units=1/GPa)
#
#
# Indices 1 2 3 4 5 6 
#
# 1 0.009752 -0.008821 -0.001762 0.000000 -0.004919 0.000000
# 2 -0.008821 0.023488 -0.003330 0.000000 0.006713 0.000000
# 3 -0.001762 -0.003330 0.008593 0.000000 -0.003018 0.000000
# 4 0.000000 0.000000 0.000000 -0.044271 0.000000 0.009899
# 5 -0.004919 0.006713 -0.003018 0.000000 0.024721 0.000000
# 6 0.000000 0.000000 0.000000 0.009899 0.000000 0.021915
#
#
# Mechanical properties :
#
#
# Convention : Reuss Voigt Hill
#
# Bulk Modulus (GPa) = 71.39193 96.43499 83.91346
# Shear Modulus (GPa) = 65.19461 29.54111 47.36786
#
# Velocity S-wave (km/s) = 5.71425 3.84651 4.87074
# Velocity P-wave (km/s) = 8.90469 8.24784 8.58255
#
# Compressibility (1/GPa) = 0.01400719
#
# Stress axis : x y z
#
# Youngs Moduli (GPa) = 102.54248 42.57461 116.37234
#
# Poissons Ratio (x) = 0.37556 0.20502
# Poissons Ratio (y) = 0.90456 0.38752
# Poissons Ratio (z) = 0.18066 0.14177
#
# Static dielectric constant tensor:
#      x y z
#    x 3.947040 0.000000 0.347050 
#    y 0.000000 3.688630 0.000000 
#    z 0.347050 0.000000 3.877860 
# 
# 
# High freq. dielectric constant tensor:
#      x y z
#    x 1.803060 0.000000 0.013810 
#    y 0.000000 1.763760 0.000000 
#    z 0.013810 0.000000 1.805950 
# 
# From -- ./inp_files/9234.got.cif
#   From: 2010.06.25/outbox.cif.g09.slc.cpg/sg13_5_cif.got.tgz:9234.got - 2010.06.28 04:50:58.
