data_PCOD8120014
_publ_section_title
;
Structure prediction by ZEFSAII (Michael W. Deem and Ramdas Pophale) SiO2 
 PCOD8120014
Probable space group: P 2/C
;
_chemical_formula_sum "Si O2"
_cell_formula_units_Z 28
_cell_length_a 15.658101
_cell_length_b 9.005301
_cell_length_c 22.043604
_cell_angle_alpha 90.000000
_cell_angle_beta 25.421717
_cell_angle_gamma 90.000000
_cell_volume 1334.314013
_symmetry_space_group_name_H-M "P 2/C"
_symmetry_group_IT_number 13
_symmetry_cell_setting 'monoclinic'
loop_
_space_group_symop_operation_xyz
x,y,z
-x,y,1/2-z
-x,-y,-z
x,-y,1/2+z
loop_
_atom_site_type_symbol
_atom_site_label
_atom_site_fract_x
_atom_site_fract_y
_atom_site_fract_z
Si Si1 0.764817 0.541397 0.818428
Si Si2 0.043638 0.988940 0.316459
Si Si3 0.690457 0.177888 0.285044
Si Si4 0.500713 0.619819 0.821060
Si Si5 0.669572 0.045335 0.478517
Si Si6 0.067138 0.679538 0.138212
Si Si7 0.473018 0.630286 0.427863
O O1 0.714178 0.696504 0.820770
O O2 0.631633 0.405877 0.878750
O O3 0.989695 0.481690 0.664988
O O4 0.732528 0.561775 0.912092
O O5 0.114143 0.071792 0.333694
O O6 0.209234 0.042643 0.161770
O O7 0.822651 0.034382 0.436585
O O8 0.039327 0.812751 0.331101
O O9 0.677123 0.267474 0.229493
O O10 0.487158 0.087731 0.424170
O O11 0.500000 0.609409 0.750000
O O12 0.531019 0.453739 0.828276
O O13 0.300677 0.688648 0.977263
O O14 0.543771 0.194652 0.570796
O O15 0.000000 0.714897 0.250000
#
# Coordination Sequence:
#
# PCOD8120014 Si02
#       7
#     4   4   4   4   4   4   4
#     4  10  22  33  62  97 121 164 210 271 319 386
#     4  11  22  32  62  97 129 165 211 267 326 388
#     4  11  22  41  60  95 134 168 212 269 333 386
#     4  11  25  45  65  88 132 181 218 266 327 384
#     4  11  21  35  59  98 135 163 203 271 335 383
#     4  12  21  39  64  99 129 167 218 272 324 383
#     4  10  21  36  60  91 129 164 209 264 330 378
#
# _framework density 20.984565
#
# number of rings (size 3 to 8) (size 9 to 14) (size 15 to 20)
#    0.000    1.143    5.714    1.286    6.000    0.000 
#    0.000    4.286    0.000    0.000    0.000    0.000 
#    0.000    0.000    0.000    0.000    0.000    0.000 
#
# Total GULP energy -346912.804831 kJ/mol
# GULP energy per Si atom -12389.743030 kJ/mol
# Density = 2.093680 g / cm^3
# Si number density = 20.984565 Si / 1000 Ang^3
#
#
#
# Elastic Constant Matrix: (Units=GPa)
#
#
# Indices 1 2 3 4 5 6 
#
# 1 107.0085 54.1258 26.1852 0.0000 1.8711 0.0000
# 2 54.1258 147.1863 24.5347 0.0000 -11.1390 0.0000
# 3 26.1852 24.5347 32.9924 0.0000 -3.4891 0.0000
# 4 0.0000 0.0000 0.0000 14.7900 0.0000 -15.8056
# 5 1.8711 -11.1390 -3.4891 0.0000 35.3123 0.0000
# 6 0.0000 0.0000 0.0000 -15.8056 0.0000 36.7941
#
#
#
# Elastic Compliance Matrix: (Units=1/GPa)
#
#
# Indices 1 2 3 4 5 6 
#
# 1 0.013243 -0.003736 -0.008015 0.000000 -0.002672 0.000000
# 2 -0.003736 0.008937 -0.003397 0.000000 0.002681 0.000000
# 3 -0.008015 -0.003397 0.039542 0.000000 0.003260 0.000000
# 4 0.000000 0.000000 0.000000 0.124993 0.000000 0.053693
# 5 -0.002672 0.002681 0.003260 0.000000 0.029628 0.000000
# 6 0.000000 0.000000 0.000000 0.053693 0.000000 0.050243
#
#
# Mechanical properties :
#
#
# Convention : Reuss Voigt Hill
#
# Bulk Modulus (GPa) = 31.82074 55.20870 43.51472
# Shear Modulus (GPa) = 16.26767 29.53538 22.90153
#
# Velocity S-wave (km/s) = 2.78730 3.75571 3.30714
# Velocity P-wave (km/s) = 5.05525 6.72112 5.94681
#
# Compressibility (1/GPa) = 0.03142605
#
# Stress axis : x y z
#
# Youngs Moduli (GPa) = 75.51316 111.89131 25.28940
#
# Poissons Ratio (x) = 0.41804 0.20269
# Poissons Ratio (y) = 0.28212 0.08592
# Poissons Ratio (z) = 0.60521 0.38013
#
# Static dielectric constant tensor:
#      x y z
#    x 3.931670 0.000000 -0.442780 
#    y 0.000000 4.022700 0.000000 
#    z -0.442780 0.000000 3.336590 
# 
# 
# High freq. dielectric constant tensor:
#      x y z
#    x 1.816700 0.000000 -0.043400 
#    y 0.000000 1.845810 0.000000 
#    z -0.043400 0.000000 1.763390 
# 
# From -- ./inp_files/79941.got.cif
#   From: 2010.06.25/outbox.cif.g09.slc.cpg/sg13_40_cif.got.tgz:79941.got - 2010.06.28 04:50:58.
