data_PCOD8120619
_publ_section_title
;
Structure prediction by ZEFSAII (Michael W. Deem and Ramdas Pophale) SiO2 
 PCOD8120619
Probable space group: P 2/C
;
_chemical_formula_sum "Si O2"
_cell_formula_units_Z 20
_cell_length_a 16.388631
_cell_length_b 8.753844
_cell_length_c 25.831156
_cell_angle_alpha 90.000000
_cell_angle_beta 14.154829
_cell_angle_gamma 90.000000
_cell_volume 906.234488
_symmetry_space_group_name_H-M "P 2/C"
_symmetry_group_IT_number 13
_symmetry_cell_setting 'monoclinic'
loop_
_space_group_symop_operation_xyz
x,y,z
-x,y,1/2-z
-x,-y,-z
x,-y,1/2+z
loop_
_atom_site_type_symbol
_atom_site_label
_atom_site_fract_x
_atom_site_fract_y
_atom_site_fract_z
Si Si1 0.195684 0.646966 0.468743
Si Si2 0.226956 0.194284 0.356057
Si Si3 0.062103 0.319215 0.566866
Si Si4 0.363186 0.922883 0.426054
Si Si5 0.334705 0.934975 0.152940
O O1 0.500000 0.571605 0.250000
O O2 0.979995 0.500321 0.618809
O O3 0.362567 0.742351 0.413248
O O4 0.989583 0.764283 0.560508
O O5 0.029396 0.238987 0.530032
O O6 0.566307 0.291554 0.140733
O O7 0.334978 0.013220 0.289628
O O8 0.779771 0.243531 0.777832
O O9 0.397470 0.956428 0.465980
O O10 0.005966 0.977493 0.625638
O O11 0.500000 0.000000 0.000000
#
# Coordination Sequence:
#
# PCOD8120619 Si02
#       5
#     4   4   4   4   4
#     4  12  23  36  66 102 141 173 209 275 353 405
#     4  10  21  41  59  99 137 175 214 273 337 407
#     4  10  23  39  63  97 139 171 219 272 338 402
#     4  11  24  41  69  98 130 173 232 274 334 396
#     4  11  24  45  68  92 129 180 232 280 320 387
#
# _framework density 22.069341999999999
#
# number of rings (size 3 to 8) (size 9 to 14) (size 15 to 20)
#    0.000    1.200    4.000    2.400    8.400    1.600 
#    0.000    1.000    0.000    2.400    0.000    0.000 
#    0.000    0.000    0.000    0.000    0.000    0.000 
#
# Total GULP energy -247901.882544 kJ/mol
# GULP energy per Si atom -12395.094127 kJ/mol
# Density = 2.201911 g / cm^3
# Si number density = 22.069342 Si / 1000 Ang^3
#
#
#
# Elastic Constant Matrix: (Units=GPa)
#
#
# Indices 1 2 3 4 5 6 
#
# 1 130.3521 56.5620 36.1577 0.0000 0.6483 0.0000
# 2 56.5620 185.2017 36.6588 0.0000 21.3146 0.0000
# 3 36.1577 36.6588 69.0246 0.0000 11.2573 0.0000
# 4 0.0000 0.0000 0.0000 23.3168 0.0000 7.8838
# 5 0.6483 21.3146 11.2573 0.0000 27.6228 0.0000
# 6 0.0000 0.0000 0.0000 7.8838 0.0000 22.1295
#
#
#
# Elastic Compliance Matrix: (Units=1/GPa)
#
#
# Indices 1 2 3 4 5 6 
#
# 1 0.010012 -0.002588 -0.004454 0.000000 0.003577 0.000000
# 2 -0.002588 0.007054 -0.001621 0.000000 -0.004722 0.000000
# 3 -0.004454 -0.001621 0.018703 0.000000 -0.006267 0.000000
# 4 0.000000 0.000000 0.000000 0.048761 0.000000 -0.017371
# 5 0.003577 -0.004722 -0.006267 0.000000 0.042316 0.000000
# 6 0.000000 0.000000 0.000000 -0.017371 0.000000 0.051377
#
#
# Mechanical properties :
#
#
# Convention : Reuss Voigt Hill
#
# Bulk Modulus (GPa) = 54.21462 71.48171 62.84817
# Shear Modulus (GPa) = 24.78973 31.62715 28.20844
#
# Velocity S-wave (km/s) = 3.35515 3.78971 3.57903
# Velocity P-wave (km/s) = 6.29510 7.18395 6.75416
#
# Compressibility (1/GPa) = 0.01844521
#
# Stress axis : x y z
#
# Youngs Moduli (GPa) = 99.87990 141.76133 53.46605
#
# Poissons Ratio (x) = 0.36686 0.23812
# Poissons Ratio (y) = 0.25847 0.08665
# Poissons Ratio (z) = 0.44483 0.22975
#
# Static dielectric constant tensor:
#      x y z
#    x 3.835700 0.000000 -0.396030 
#    y 0.000000 4.039060 0.000000 
#    z -0.396030 0.000000 3.956120 
# 
# 
# High freq. dielectric constant tensor:
#      x y z
#    x 1.859680 0.000000 -0.043480 
#    y 0.000000 1.874090 0.000000 
#    z -0.043480 0.000000 1.847660 
# 
# From -- ./inp_files/87216.got.cif
#   From: 2010.06.25/outbox.cif.g09.slc.cpg/sg13_44_cif.got.tgz:87216.got - 2010.06.28 04:50:58.
