data_PCOD8120942
_publ_section_title
;
Structure prediction by ZEFSAII (Michael W. Deem and Ramdas Pophale) SiO2 
 PCOD8120942
Probable space group: P 2/C
;
_chemical_formula_sum "Si O2"
_cell_formula_units_Z 28
_cell_length_a 16.647537
_cell_length_b 11.042108
_cell_length_c 23.302414
_cell_angle_alpha 90.000000
_cell_angle_beta 159.000976
_cell_angle_gamma 90.000000
_cell_volume 1535.015560
_symmetry_space_group_name_H-M "P 2/C"
_symmetry_group_IT_number 13
_symmetry_cell_setting 'monoclinic'
loop_
_space_group_symop_operation_xyz
x,y,z
-x,y,1/2-z
-x,-y,-z
x,-y,1/2+z
loop_
_atom_site_type_symbol
_atom_site_label
_atom_site_fract_x
_atom_site_fract_y
_atom_site_fract_z
Si Si1 0.692200 0.943804 0.667351
Si Si2 0.155935 0.950810 0.488792
Si Si3 0.836159 0.541401 0.194357
Si Si4 0.832079 0.664195 0.004224
Si Si5 0.365855 0.663487 0.743288
Si Si6 0.623778 0.339767 0.124572
Si Si7 0.619730 0.949683 0.747319
O O1 0.673163 0.800477 0.648268
O O2 0.670456 0.996777 0.717433
O O3 0.500000 0.000000 0.500000
O O4 0.942477 0.984803 0.816711
O O5 0.130133 0.807217 0.464523
O O6 0.374470 0.998833 0.600970
O O7 0.192335 0.989336 0.580287
O O8 0.735516 0.412253 0.146709
O O9 0.000000 0.522213 0.250000
O O10 0.957074 0.595335 0.330182
O O11 0.642379 0.636711 0.049760
O O12 0.612882 0.615600 0.891599
O O13 0.812712 0.625522 0.924345
O O14 0.284561 0.617662 0.751580
O O15 0.390499 0.806521 0.759755
#
# Coordination Sequence:
#
# PCOD8120942 Si02
#       7
#     4   4   4   4   4   4   4
#     4  11  21  34  52  81 111 138 172 219 261 312
#     4   9  17  33  55  80 106 135 175 218 263 307
#     4  11  21  36  56  73 105 144 175 214 261 312
#     4   9  16  30  57  83  99 134 173 218 259 296
#     4   8  15  31  54  80 104 123 182 223 242 302
#     4  10  22  37  52  79 105 139 181 209 259 317
#     4   8  17  32  53  77 104 144 173 209 261 313
#
# _framework density 18.240857999999999
#
# number of rings (size 3 to 8) (size 9 to 14) (size 15 to 20)
#    0.000    2.571    1.429    3.000    0.000    1.143 
#    2.571    0.000    0.000    3.429    0.000    0.000 
#    0.000    0.000    0.000    0.000    0.000    0.000 
#
# Total GULP energy -346995.547921 kJ/mol
# GULP energy per Si atom -12392.698140 kJ/mol
# Density = 1.819934 g / cm^3
# Si number density = 18.240858 Si / 1000 Ang^3
#
#
#
# Elastic Constant Matrix: (Units=GPa)
#
#
# Indices 1 2 3 4 5 6 
#
# 1 74.1784 20.6426 40.2407 0.0000 -2.3449 0.0000
# 2 20.6426 52.8541 37.8487 0.0000 1.6456 0.0000
# 3 40.2407 37.8487 128.6525 0.0000 -7.7828 0.0000
# 4 0.0000 0.0000 0.0000 19.1230 0.0000 -5.8215
# 5 -2.3449 1.6456 -7.7828 0.0000 27.2091 0.0000
# 6 0.0000 0.0000 0.0000 -5.8215 0.0000 18.4827
#
#
#
# Elastic Compliance Matrix: (Units=1/GPa)
#
#
# Indices 1 2 3 4 5 6 
#
# 1 0.016747 -0.003579 -0.004157 0.000000 0.000471 0.000000
# 2 -0.003579 0.025072 -0.006479 0.000000 -0.003678 0.000000
# 3 -0.004157 -0.006479 0.011175 0.000000 0.003230 0.000000
# 4 0.000000 0.000000 0.000000 0.057839 0.000000 0.018217
# 5 0.000471 -0.003678 0.003230 0.000000 0.037939 0.000000
# 6 0.000000 0.000000 0.000000 0.018217 0.000000 0.059843
#
#
# Mechanical properties :
#
#
# Convention : Reuss Voigt Hill
#
# Bulk Modulus (GPa) = 40.70980 50.34988 45.52984
# Shear Modulus (GPa) = 20.38891 23.42649 21.90770
#
# Velocity S-wave (km/s) = 3.34692 3.58758 3.46934
# Velocity P-wave (km/s) = 6.10755 6.69505 6.40804
#
# Compressibility (1/GPa) = 0.02456411
#
# Stress axis : x y z
#
# Youngs Moduli (GPa) = 59.71294 39.88535 89.48848
#
# Poissons Ratio (x) = 0.14273 0.37200
# Poissons Ratio (y) = 0.21368 0.57981
# Poissons Ratio (z) = 0.24822 0.25842
#
# Static dielectric constant tensor:
#      x y z
#    x 3.757120 0.000000 -0.231060 
#    y 0.000000 2.930720 0.000000 
#    z -0.231060 0.000000 3.476490 
# 
# 
# High freq. dielectric constant tensor:
#      x y z
#    x 1.709180 0.000000 -0.010770 
#    y 0.000000 1.666080 0.000000 
#    z -0.010770 0.000000 1.718120 
# 
# From -- ./inp_files/88106.got.cif
#   From: 2010.06.25/outbox.cif.g09.slc.cpg/sg13_45_cif.got.tgz:88106.got - 2010.06.28 04:50:58.
