data_PCOD8120169
_publ_section_title
;
Structure prediction by ZEFSAII (Michael W. Deem and Ramdas Pophale) SiO2 
 PCOD8120169
Probable space group: P 2/C
;
_chemical_formula_sum "Si O2"
_cell_formula_units_Z 26
_cell_length_a 13.775580
_cell_length_b 8.899157
_cell_length_c 17.514178
_cell_angle_alpha 90.000000
_cell_angle_beta 149.064683
_cell_angle_gamma 90.000000
_cell_volume 1103.750302
_symmetry_space_group_name_H-M "P 2/C"
_symmetry_group_IT_number 13
_symmetry_cell_setting 'monoclinic'
loop_
_space_group_symop_operation_xyz
x,y,z
-x,y,1/2-z
-x,-y,-z
x,-y,1/2+z
loop_
_atom_site_type_symbol
_atom_site_label
_atom_site_fract_x
_atom_site_fract_y
_atom_site_fract_z
Si Si1 0.138195 0.487228 0.734914
Si Si2 0.365254 0.006617 0.756825
Si Si3 0.000000 0.002124 0.750000
Si Si4 0.742013 0.140461 0.962781
Si Si5 0.698069 0.178805 0.635077
Si Si6 0.272135 0.467814 0.495195
Si Si7 0.406839 0.310630 0.326070
O O1 0.199113 0.318966 0.756357
O O2 0.219400 0.542817 0.870726
O O3 0.224542 0.593987 0.728202
O O4 0.911154 0.485800 0.579406
O O5 0.584310 0.025918 0.885066
O O6 0.231942 0.104964 0.610056
O O7 0.338727 0.054841 0.826133
O O8 0.326851 0.827693 0.721676
O O9 0.171102 0.108847 0.842057
O O10 0.938029 0.893318 0.638478
O O11 0.665004 0.306761 0.929296
O O12 0.505860 0.237815 0.467349
O O13 0.444760 0.585466 0.621297
#
# Coordination Sequence:
#
# PCOD8120169 Si02
#       7
#     4   4   2   4   4   4   4
#     4  10  21  37  69 104 131 178 238 279 347 408
#     4  11  25  43  66 100 142 179 233 282 358 410
#     4  12  24  40  74  96 136 182 236 284 348 402
#     4  11  25  44  66 100 135 187 229 287 349 415
#     4  11  22  40  69 100 138 184 228 287 341 417
#     4  10  21  40  67  96 140 177 235 286 335 414
#     4  11  21  41  69  99 135 185 231 285 345 421
#
# _framework density 23.556051
#
# number of rings (size 3 to 8) (size 9 to 14) (size 15 to 20)
#    0.000    1.231    1.538    6.923    4.308    0.615 
#    0.000    6.923    0.000    0.000    0.000    0.000 
#    0.000    0.000    0.000    0.000    0.000    0.000 
#
# Total GULP energy -322415.221141 kJ/mol
# GULP energy per Si atom -12400.585428 kJ/mol
# Density = 2.350244 g / cm^3
# Si number density = 23.556051 Si / 1000 Ang^3
#
#
#
# Elastic Constant Matrix: (Units=GPa)
#
#
# Indices 1 2 3 4 5 6 
#
# 1 84.3262 42.3799 24.2044 0.0000 13.9657 0.0000
# 2 42.3799 166.6944 22.0010 0.0000 -0.7356 0.0000
# 3 24.2044 22.0010 64.7301 0.0000 -2.3135 0.0000
# 4 0.0000 0.0000 0.0000 211.2232 0.0000 -62.1654
# 5 13.9657 -0.7356 -2.3135 0.0000 35.0792 0.0000
# 6 0.0000 0.0000 0.0000 -62.1654 0.0000 58.7076
#
#
#
# Elastic Compliance Matrix: (Units=1/GPa)
#
#
# Indices 1 2 3 4 5 6 
#
# 1 0.016214 -0.003476 -0.005127 0.000000 -0.006866 0.000000
# 2 -0.003476 0.007026 -0.001036 0.000000 0.001463 0.000000
# 3 -0.005127 -0.001036 0.017832 0.000000 0.003195 0.000000
# 4 0.000000 0.000000 0.000000 0.006878 0.000000 0.007283
# 5 -0.006866 0.001463 0.003195 0.000000 0.031482 0.000000
# 6 0.000000 0.000000 0.000000 0.007283 0.000000 0.024745
#
#
# Mechanical properties :
#
#
# Convention : Reuss Voigt Hill
#
# Bulk Modulus (GPa) = 45.88275 54.76904 50.32589
# Shear Modulus (GPa) = 38.24962 76.14636 57.19799
#
# Velocity S-wave (km/s) = 4.03397 5.69173 4.93299
# Velocity P-wave (km/s) = 6.42010 8.15447 7.33870
#
# Compressibility (1/GPa) = 0.02179468
#
# Stress axis : x y z
#
# Youngs Moduli (GPa) = 61.67364 142.33059 56.07823
#
# Poissons Ratio (x) = 0.49473 0.28751
# Poissons Ratio (y) = 0.21437 0.05810
# Poissons Ratio (z) = 0.31620 0.14745
#
# Static dielectric constant tensor:
#      x y z
#    x 4.195580 0.000000 0.059370 
#    y 0.000000 4.425230 0.000000 
#    z 0.059370 0.000000 4.070070 
# 
# 
# High freq. dielectric constant tensor:
#      x y z
#    x 1.922030 0.000000 0.011890 
#    y 0.000000 1.948730 0.000000 
#    z 0.011890 0.000000 1.910570 
# 
# From -- ./inp_files/79851.got.cif
#   From: 2010.06.25/outbox.cif.g09.slc.cpg/sg13_40_cif.got.tgz:79851.got - 2010.06.28 04:50:58.
