data_PCOD8120279
_publ_section_title
;
Structure prediction by ZEFSAII (Michael W. Deem and Ramdas Pophale) SiO2 
 PCOD8120279
Probable space group: P 2/C
;
_chemical_formula_sum "Si O2"
_cell_formula_units_Z 32
_cell_length_a 29.727863
_cell_length_b 6.706310
_cell_length_c 18.137179
_cell_angle_alpha 90.000000
_cell_angle_beta 152.117568
_cell_angle_gamma 90.000000
_cell_volume 1691.010006
_symmetry_space_group_name_H-M "P 2/C"
_symmetry_group_IT_number 13
_symmetry_cell_setting 'monoclinic'
loop_
_space_group_symop_operation_xyz
x,y,z
-x,y,1/2-z
-x,-y,-z
x,-y,1/2+z
loop_
_atom_site_type_symbol
_atom_site_label
_atom_site_fract_x
_atom_site_fract_y
_atom_site_fract_z
Si Si1 0.745692 0.094742 0.950905
Si Si2 0.243747 0.293599 0.775413
Si Si3 0.123177 0.447473 0.353729
Si Si4 0.902496 0.539436 0.018563
Si Si5 0.274466 0.293685 0.991995
Si Si6 0.221297 0.100085 0.158898
Si Si7 0.380645 0.576177 0.895488
Si Si8 0.406424 0.563567 0.271310
O O1 0.652696 0.233182 0.807181
O O2 0.770212 0.986626 0.910379
O O3 0.837592 0.227434 0.110695
O O4 0.719023 0.936412 0.975028
O O5 0.150026 0.427302 0.624004
O O6 0.267276 0.306043 0.894677
O O7 0.334859 0.373124 0.861008
O O8 0.219065 0.069507 0.716959
O O9 0.141577 0.464857 0.467806
O O10 0.180627 0.617206 0.394733
O O11 0.013576 0.484659 0.173368
O O12 0.879113 0.775868 0.980142
O O13 0.367932 0.421101 0.150559
O O14 0.310889 0.239402 0.309884
O O15 0.396209 0.562248 0.831040
O O16 0.482386 0.616060 0.083080
#
# Coordination Sequence:
#
# PCOD8120279 Si02
#       8
#     4   4   4   4   4   4   4   4
#     4  11  19  37  61  88 118 153 199 243 292 352
#     4  11  23  39  58  86 122 156 193 246 299 349
#     4  10  21  39  62  87 115 155 200 245 295 352
#     4  10  21  39  62  87 115 155 200 245 295 352
#     4  11  23  39  58  86 122 156 193 246 299 349
#     4  11  19  37  61  88 118 153 199 243 292 352
#     4  10  21  38  63  89 115 153 197 241 293 354
#     4  10  21  38  63  89 115 153 197 241 293 354
#
# _framework density 18.923601000000001
#
# number of rings (size 3 to 8) (size 9 to 14) (size 15 to 20)
#    0.000    1.500    5.000    1.500    0.000    7.500 
#    0.000    1.250    0.000    0.000    0.000    0.000 
#    0.000    0.000    0.000    0.000    0.000    0.000 
#
# Total GULP energy -396845.674885 kJ/mol
# GULP energy per Si atom -12401.427340 kJ/mol
# Density = 1.888053 g / cm^3
# Si number density = 18.923601 Si / 1000 Ang^3
#
#
#
# Elastic Constant Matrix: (Units=GPa)
#
#
# Indices 1 2 3 4 5 6 
#
# 1 31.0172 11.3819 48.3035 0.0000 -5.1737 0.0000
# 2 11.3819 120.1291 59.7042 0.0000 5.2708 0.0000
# 3 48.3035 59.7042 139.5044 0.0000 3.6610 0.0000
# 4 0.0000 0.0000 0.0000 24.1893 0.0000 -6.1785
# 5 -5.1737 5.2708 3.6610 0.0000 38.7022 0.0000
# 6 0.0000 0.0000 0.0000 -6.1785 0.0000 20.5753
#
#
#
# Elastic Compliance Matrix: (Units=1/GPa)
#
#
# Indices 1 2 3 4 5 6 
#
# 1 0.080521 0.007412 -0.031386 0.000000 0.012724 0.000000
# 2 0.007412 0.011295 -0.007404 0.000000 0.000153 0.000000
# 3 -0.031386 -0.007404 0.021341 0.000000 -0.005206 0.000000
# 4 0.000000 0.000000 0.000000 0.044775 0.000000 0.013445
# 5 0.012724 0.000153 -0.005206 0.000000 0.028011 0.000000
# 6 0.000000 0.000000 0.000000 0.013445 0.000000 0.052639
#
#
# Mechanical properties :
#
#
# Convention : Reuss Voigt Hill
#
# Bulk Modulus (GPa) = 19.84145 58.82554 39.33349
# Shear Modulus (GPa) = 15.71628 28.11078 21.91353
#
# Velocity S-wave (km/s) = 2.88499 3.85838 3.40663
# Velocity P-wave (km/s) = 4.64815 7.14162 6.02529
#
# Compressibility (1/GPa) = 0.05039954
#
# Stress axis : x y z
#
# Youngs Moduli (GPa) = 12.41909 88.53122 46.85746
#
# Poissons Ratio (x) = -0.65616 1.47069
# Poissons Ratio (y) = -0.09205 0.34695
# Poissons Ratio (z) = 0.38979 0.65553
#
# Static dielectric constant tensor:
#      x y z
#    x 3.259390 0.000000 0.052360 
#    y 0.000000 3.665250 0.000000 
#    z 0.052360 0.000000 3.581820 
# 
# 
# High freq. dielectric constant tensor:
#      x y z
#    x 1.715280 0.000000 0.002450 
#    y 0.000000 1.744860 0.000000 
#    z 0.002450 0.000000 1.740710 
# 
# From -- ./inp_files/72234.got.cif
#   From: 2010.06.25/outbox.cif.g09.slc.cpg/sg13_37_cif.got.tgz:72234.got - 2010.06.28 04:50:58.
