data_PCOD8120880
_publ_section_title
;
Structure prediction by ZEFSAII (Michael W. Deem and Ramdas Pophale) SiO2 
 PCOD8120880
Probable space group: P 2/C
;
_chemical_formula_sum "Si O2"
_cell_formula_units_Z 20
_cell_length_a 11.177526
_cell_length_b 12.158856
_cell_length_c 15.008828
_cell_angle_alpha 90.000000
_cell_angle_beta 26.875737
_cell_angle_gamma 90.000000
_cell_volume 922.100807
_symmetry_space_group_name_H-M "P 2/C"
_symmetry_group_IT_number 13
_symmetry_cell_setting 'monoclinic'
loop_
_space_group_symop_operation_xyz
x,y,z
-x,y,1/2-z
-x,-y,-z
x,-y,1/2+z
loop_
_atom_site_type_symbol
_atom_site_label
_atom_site_fract_x
_atom_site_fract_y
_atom_site_fract_z
Si Si1 0.499568 0.901845 0.929639
Si Si2 0.757547 0.666628 0.965316
Si Si3 0.941072 0.810823 0.993275
Si Si4 0.000000 0.455455 0.750000
Si Si5 0.774962 0.728213 0.278206
Si Si6 0.500000 0.015778 0.750000
O O1 0.404935 0.942673 0.896106
O O2 0.783230 0.842754 0.734794
O O3 0.282076 0.812672 0.104128
O O4 0.500000 0.000000 0.000000
O O5 0.000000 0.721817 0.750000
O O6 0.775723 0.533292 0.944884
O O7 0.798529 0.707610 0.039110
O O8 0.487652 0.710889 0.105084
O O9 0.986936 0.776388 0.066334
O O10 0.749551 0.915393 0.117644
O O11 0.125897 0.384696 0.745231
#
# Coordination Sequence:
#
# PCOD8120880 Si02
#       6
#     4   4   4   2   4   2
#     4  12  26  43  66  99 141 179 229 289 335 412
#     4  10  21  45  70  94 133 179 229 276 346 411
#     4  12  24  45  68 100 129 183 234 274 343 416
#     4  10  26  40  72 102 136 180 218 292 352 396
#     4  12  24  45  69  98 139 177 226 286 340 409
#     4  12  26  42  68 100 132 184 228 276 350 406
#
# _framework density 21.689602000000001
#
# number of rings (size 3 to 8) (size 9 to 14) (size 15 to 20)
#    0.600    0.000    6.000    1.200    2.800    0.800 
#    0.000    2.000    0.000    0.000    0.000    0.000 
#    0.000    0.000    0.000    0.000    0.000    0.000 
#
# Total GULP energy -247997.860531 kJ/mol
# GULP energy per Si atom -12399.893027 kJ/mol
# Density = 2.164024 g / cm^3
# Si number density = 21.689602 Si / 1000 Ang^3
#
#
#
# Elastic Constant Matrix: (Units=GPa)
#
#
# Indices 1 2 3 4 5 6 
#
# 1 99.3465 48.2230 33.2414 0.0000 35.6406 0.0000
# 2 48.2230 123.7951 34.7502 0.0000 26.9441 0.0000
# 3 33.2414 34.7502 89.4763 0.0000 25.4203 0.0000
# 4 0.0000 0.0000 0.0000 16.4458 0.0000 10.8878
# 5 35.6406 26.9441 25.4203 0.0000 40.3081 0.0000
# 6 0.0000 0.0000 0.0000 10.8878 0.0000 42.2141
#
#
#
# Elastic Compliance Matrix: (Units=1/GPa)
#
#
# Indices 1 2 3 4 5 6 
#
# 1 0.016241 -0.003488 -0.001537 0.000000 -0.011059 0.000000
# 2 -0.003488 0.010602 -0.002052 0.000000 -0.002709 0.000000
# 3 -0.001537 -0.002052 0.014337 0.000000 -0.006311 0.000000
# 4 0.000000 0.000000 0.000000 0.073326 0.000000 -0.018912
# 5 -0.011059 -0.002709 -0.006311 0.000000 0.040378 0.000000
# 6 0.000000 0.000000 0.000000 -0.018912 0.000000 0.028567
#
#
# Mechanical properties :
#
#
# Convention : Reuss Voigt Hill
#
# Bulk Modulus (GPa) = 37.00188 60.56079 48.78133
# Shear Modulus (GPa) = 24.19972 32.88715 28.54343
#
# Velocity S-wave (km/s) = 3.34388 3.89815 3.63160
# Velocity P-wave (km/s) = 5.65734 6.94571 6.33437
#
# Compressibility (1/GPa) = 0.02702565
#
# Stress axis : x y z
#
# Youngs Moduli (GPa) = 61.57414 94.32021 69.74903
#
# Poissons Ratio (x) = 0.32897 0.10721
# Poissons Ratio (y) = 0.21476 0.14314
# Poissons Ratio (z) = 0.09464 0.19357
#
# Static dielectric constant tensor:
#      x y z
#    x 3.808600 0.000000 0.242200 
#    y 0.000000 3.922560 0.000000 
#    z 0.242200 0.000000 4.066830 
# 
# 
# High freq. dielectric constant tensor:
#      x y z
#    x 1.855410 0.000000 0.013060 
#    y 0.000000 1.850670 0.000000 
#    z 0.013060 0.000000 1.856260 
# 
# From -- ./inp_files/51091.got.cif
#   From: 2010.06.25/outbox.cif.g09.slc.cpg/sg13_26_cif.got.tgz:51091.got - 2010.06.28 04:50:58.
