data_PCOD8120306
_publ_section_title
;
Structure prediction by ZEFSAII (Michael W. Deem and Ramdas Pophale) SiO2 
 PCOD8120306
Probable space group: P 2/C
;
_chemical_formula_sum "Si O2"
_cell_formula_units_Z 26
_cell_length_a 14.848060
_cell_length_b 8.379752
_cell_length_c 21.510390
_cell_angle_alpha 90.000000
_cell_angle_beta 155.665259
_cell_angle_gamma 90.000000
_cell_volume 1102.851156
_symmetry_space_group_name_H-M "P 2/C"
_symmetry_group_IT_number 13
_symmetry_cell_setting 'monoclinic'
loop_
_space_group_symop_operation_xyz
x,y,z
-x,y,1/2-z
-x,-y,-z
x,-y,1/2+z
loop_
_atom_site_type_symbol
_atom_site_label
_atom_site_fract_x
_atom_site_fract_y
_atom_site_fract_z
Si Si1 0.475751 0.312570 0.482665
Si Si2 0.578089 0.288630 0.918912
Si Si3 0.975913 0.180251 0.339230
Si Si4 0.500000 0.883984 0.250000
Si Si5 0.082651 0.675293 0.568123
Si Si6 0.584099 0.337432 0.418165
Si Si7 0.117458 0.878470 0.476173
O O1 0.500000 0.500000 0.500000
O O2 0.556923 0.248667 0.601573
O O3 0.224724 0.260780 0.321110
O O4 0.597658 0.257054 0.496259
O O5 0.444746 0.227666 0.775095
O O6 0.629545 0.475636 0.947463
O O7 0.811116 0.200349 0.069597
O O8 0.026297 0.270436 0.436233
O O9 0.938311 0.988932 0.327581
O O10 0.705773 0.993790 0.390595
O O11 0.345984 0.689545 0.738455
O O12 0.006217 0.792199 0.464704
O O13 0.000000 0.500000 0.500000
O O14 0.774955 0.255215 0.499585
#
# Coordination Sequence:
#
# PCOD8120306 Si02
#       7
#     4   4   4   2   4   4   4
#     4   9  20  42  67  91 124 171 220 271 320 389
#     4  10  21  38  67  93 128 168 225 262 326 392
#     4  10  22  37  61  95 128 170 213 269 334 386
#     4  10  22  34  62  92 126 172 202 266 334 382
#     4  11  22  36  60  94 133 172 219 268 325 388
#     4  10  21  38  65  93 124 174 223 264 322 394
#     4  11  21  39  60  93 136 168 212 274 333 391
#
# _framework density 23.575256
#
# number of rings (size 3 to 8) (size 9 to 14) (size 15 to 20)
#    0.000    1.846    1.538    1.846    6.462    0.000 
#    0.000    3.077    3.385   27.692    0.000    0.000 
#    0.000    0.000    0.000    0.000    0.000    0.000 
#
# Total GULP energy -322207.911109 kJ/mol
# GULP energy per Si atom -12392.611966 kJ/mol
# Density = 2.352160 g / cm^3
# Si number density = 23.575256 Si / 1000 Ang^3
#
#
#
# Elastic Constant Matrix: (Units=GPa)
#
#
# Indices 1 2 3 4 5 6 
#
# 1 128.8707 32.3267 10.0806 0.0000 -42.4779 0.0000
# 2 32.3267 120.5295 19.6628 0.0000 -16.8571 0.0000
# 3 10.0806 19.6628 42.2192 0.0000 -23.4559 0.0000
# 4 0.0000 0.0000 0.0000 36.1909 0.0000 2.2258
# 5 -42.4779 -16.8571 -23.4559 0.0000 36.3266 0.0000
# 6 0.0000 0.0000 0.0000 2.2258 0.0000 35.2920
#
#
#
# Elastic Compliance Matrix: (Units=1/GPa)
#
#
# Indices 1 2 3 4 5 6 
#
# 1 0.015371 -0.002552 0.010676 0.000000 0.023684 0.000000
# 2 -0.002552 0.009526 -0.004724 0.000000 -0.001614 0.000000
# 3 0.010676 -0.004724 0.045308 0.000000 0.039548 0.000000
# 4 0.000000 0.000000 0.000000 0.027739 0.000000 -0.001749
# 5 0.023684 -0.001614 0.039548 0.000000 0.080009 0.000000
# 6 0.000000 0.000000 0.000000 -0.001749 0.000000 0.028445
#
#
# Mechanical properties :
#
#
# Convention : Reuss Voigt Hill
#
# Bulk Modulus (GPa) = 12.98588 46.19553 29.59070
# Shear Modulus (GPa) = 22.19591 36.86517 29.53054
#
# Velocity S-wave (km/s) = 3.07170 3.95868 3.54306
# Velocity P-wave (km/s) = 4.25449 6.36650 5.41447
#
# Compressibility (1/GPa) = 0.07700669
#
# Stress axis : x y z
#
# Youngs Moduli (GPa) = 65.05657 104.97455 22.07097
#
# Poissons Ratio (x) = 0.26790 -0.23564
# Poissons Ratio (y) = 0.16603 0.10426
# Poissons Ratio (z) = -0.69457 0.49588
#
# Static dielectric constant tensor:
#      x y z
#    x 4.663090 0.000000 -0.440050 
#    y 0.000000 4.369310 0.000000 
#    z -0.440050 0.000000 4.283340 
# 
# 
# High freq. dielectric constant tensor:
#      x y z
#    x 1.950900 0.000000 -0.014570 
#    y 0.000000 1.936350 0.000000 
#    z -0.014570 0.000000 1.912450 
# 
# From -- ./inp_files/79865.got.cif
#   From: 2010.06.25/outbox.cif.g09.slc.cpg/sg13_40_cif.got.tgz:79865.got - 2010.06.28 04:50:58.
