data_PCOD8120907
_publ_section_title
;
Structure prediction by ZEFSAII (Michael W. Deem and Ramdas Pophale) SiO2 
 PCOD8120907
Probable space group: P 2/C
;
_chemical_formula_sum "Si O2"
_cell_formula_units_Z 28
_cell_length_a 11.819132
_cell_length_b 22.892723
_cell_length_c 5.299064
_cell_angle_alpha 90.000000
_cell_angle_beta 110.741498
_cell_angle_gamma 90.000000
_cell_volume 1340.852545
_symmetry_space_group_name_H-M "P 2/C"
_symmetry_group_IT_number 13
_symmetry_cell_setting 'monoclinic'
loop_
_space_group_symop_operation_xyz
x,y,z
-x,y,1/2-z
-x,-y,-z
x,-y,1/2+z
loop_
_atom_site_type_symbol
_atom_site_label
_atom_site_fract_x
_atom_site_fract_y
_atom_site_fract_z
Si Si1 0.863211 0.752156 0.565893
Si Si2 0.219472 0.877802 0.037606
Si Si3 0.351644 0.741447 0.735632
Si Si4 0.858914 0.465347 0.648690
Si Si5 0.000000 0.961553 0.750000
Si Si6 0.728520 0.347342 0.693031
Si Si7 0.635297 0.867632 0.864074
Si Si8 0.500000 0.686372 0.250000
O O1 0.844141 0.816522 0.433478
O O2 0.777932 0.748968 0.738080
O O3 0.831355 0.699145 0.352327
O O4 0.000000 0.742047 0.750000
O O5 0.118834 0.922585 0.866373
O O6 0.310429 0.874220 0.873670
O O7 0.289036 0.898653 0.348885
O O8 0.346233 0.679982 0.591838
O O9 0.371604 0.798390 0.577080
O O10 0.469155 0.733057 0.005233
O O11 0.824591 0.489172 0.344112
O O12 0.785648 0.407627 0.653863
O O13 0.000000 0.450052 0.750000
O O14 0.000000 0.000000 0.500000
O O15 0.620527 0.354202 0.814786
O O16 0.500000 0.894570 0.750000
#
# Coordination Sequence:
#
# PCOD8120907 Si02
#       8
#     4   4   4   4   2   4   4   2
#     4  10  22  36  58  97 136 165 200 273 335 380
#     4  11  23  43  64 102 137 171 224 277 316 391
#     4  10  22  35  59  91 134 177 209 253 331 415
#     4  10  25  45  66  88 122 166 220 274 322 394
#     4  12  26  48  76  96 134 192 224 268 330 396
#     4  11  22  39  64  91 125 173 210 264 336 394
#     4  11  22  38  66  98 140 179 214 268 337 394
#     4  10  22  38  58  90 132 166 220 266 312 410
#
# _framework density 20.882238000000001
#
# number of rings (size 3 to 8) (size 9 to 14) (size 15 to 20)
#    0.000    1.429    2.143    2.571   10.000    0.571 
#    0.000    0.714    0.000    8.571    0.000    0.000 
#    0.000    0.000    0.000    0.000    0.000    0.000 
#
# Total GULP energy -346944.360194 kJ/mol
# GULP energy per Si atom -12390.870007 kJ/mol
# Density = 2.083471 g / cm^3
# Si number density = 20.882238 Si / 1000 Ang^3
#
#
#
# Elastic Constant Matrix: (Units=GPa)
#
#
# Indices 1 2 3 4 5 6 
#
# 1 115.7542 52.3384 42.5751 0.0000 22.7468 0.0000
# 2 52.3384 79.1671 25.7494 0.0000 8.1551 0.0000
# 3 42.5751 25.7494 129.8582 0.0000 13.2357 0.0000
# 4 0.0000 0.0000 0.0000 25.4936 0.0000 -6.3201
# 5 22.7468 8.1551 13.2357 0.0000 37.0159 0.0000
# 6 0.0000 0.0000 0.0000 -6.3201 0.0000 14.4915
#
#
#
# Elastic Compliance Matrix: (Units=1/GPa)
#
#
# Indices 1 2 3 4 5 6 
#
# 1 0.014433 -0.008092 -0.002496 0.000000 -0.006194 0.000000
# 2 -0.008092 0.018197 -0.001093 0.000000 0.001354 0.000000
# 3 -0.002496 -0.001093 0.008879 0.000000 -0.001400 0.000000
# 4 0.000000 0.000000 0.000000 0.043981 0.000000 0.019181
# 5 -0.006194 0.001354 -0.001400 0.000000 0.031024 0.000000
# 6 0.000000 0.000000 0.000000 0.019181 0.000000 0.077371
#
#
# Mechanical properties :
#
#
# Convention : Reuss Voigt Hill
#
# Bulk Modulus (GPa) = 55.10845 62.90059 59.00452
# Shear Modulus (GPa) = 22.39176 29.00796 25.69986
#
# Velocity S-wave (km/s) = 3.27813 3.73114 3.51195
# Velocity P-wave (km/s) = 6.38558 6.98203 6.69046
#
# Compressibility (1/GPa) = 0.01814604
#
# Stress axis : x y z
#
# Youngs Moduli (GPa) = 69.28538 54.95324 112.63077
#
# Poissons Ratio (x) = 0.44468 0.28114
# Poissons Ratio (y) = 0.56065 0.12315
# Poissons Ratio (z) = 0.17295 0.06008
#
# Static dielectric constant tensor:
#      x y z
#    x 4.094810 0.000000 -0.126810 
#    y 0.000000 3.560860 0.000000 
#    z -0.126810 0.000000 3.957500 
# 
# 
# High freq. dielectric constant tensor:
#      x y z
#    x 1.835660 0.000000 0.000570 
#    y 0.000000 1.786480 0.000000 
#    z 0.000570 0.000000 1.828620 
# 
# From -- ./inp_files/4186.got.cif
#   From: 2010.06.25/outbox.cif.g09.slc.cpg/sg13_3_cif.got.tgz:4186.got - 2010.06.28 04:50:58.
