data_PCOD8120429
_publ_section_title
;
Structure prediction by ZEFSAII (Michael W. Deem and Ramdas Pophale) SiO2 
 PCOD8120429
Probable space group: P 2/C
;
_chemical_formula_sum "Si O2"
_cell_formula_units_Z 32
_cell_length_a 11.946421
_cell_length_b 15.225779
_cell_length_c 8.877269
_cell_angle_alpha 90.000000
_cell_angle_beta 95.845776
_cell_angle_gamma 90.000000
_cell_volume 1606.321020
_symmetry_space_group_name_H-M "P 2/C"
_symmetry_group_IT_number 13
_symmetry_cell_setting 'monoclinic'
loop_
_space_group_symop_operation_xyz
x,y,z
-x,y,1/2-z
-x,-y,-z
x,-y,1/2+z
loop_
_atom_site_type_symbol
_atom_site_label
_atom_site_fract_x
_atom_site_fract_y
_atom_site_fract_z
Si Si1 0.705113 0.445203 0.100895
Si Si2 0.626694 0.713308 0.767377
Si Si3 0.378698 0.090219 0.293618
Si Si4 0.625040 0.600136 0.262557
Si Si5 0.245290 0.012564 0.539114
Si Si6 0.922855 0.447519 0.603075
Si Si7 0.868569 0.893306 0.209054
Si Si8 0.771585 0.288345 0.577776
O O1 0.704468 0.352928 0.186162
O O2 0.616227 0.515325 0.153385
O O3 0.828592 0.484348 0.144477
O O4 0.675194 0.432567 0.924952
O O5 0.500000 0.675147 0.750000
O O6 0.625333 0.805830 0.681705
O O7 0.675374 0.725616 0.940500
O O8 0.500000 0.058117 0.250000
O O9 0.348533 0.049512 0.452422
O O10 0.289388 0.063677 0.154302
O O11 0.500000 0.641132 0.250000
O O12 0.710431 0.673710 0.216283
O O13 0.190429 0.088151 0.637006
O O14 0.153590 0.971637 0.412953
O O15 0.865172 0.358269 0.530351
O O16 0.000000 0.415706 0.750000
O O17 0.000000 0.500000 0.500000
O O18 0.825404 0.803280 0.131355
O O19 0.000000 0.885876 0.250000
#
# Coordination Sequence:
#
# PCOD8120429 Si02
#       8
#     4   4   4   4   4   4   4   4
#     4  11  22  37  61  86 121 158 207 248 296 369
#     4  11  22  39  61  88 126 159 195 250 310 362
#     4  10  21  39  65  94 130 162 201 254 315 377
#     4  11  22  38  60  89 122 161 200 243 306 368
#     4  10  22  42  65  94 123 165 213 251 317 378
#     4  11  22  40  61  84 119 161 202 251 303 353
#     4  11  23  42  67  90 126 166 210 267 311 362
#     4  11  23  41  60  93 122 159 204 257 305 367
#
# _framework density 19.921296999999999
#
# number of rings (size 3 to 8) (size 9 to 14) (size 15 to 20)
#    0.000    1.250    1.250    6.375    1.750    0.000 
#    0.000    0.625    0.000    0.000    0.000    0.000 
#    0.000    0.000    0.000    0.000    0.000    0.000 
#
# Total GULP energy -396825.484911 kJ/mol
# GULP energy per Si atom -12400.796403 kJ/mol
# Density = 1.987596 g / cm^3
# Si number density = 19.921297 Si / 1000 Ang^3
#
#
#
# Elastic Constant Matrix: (Units=GPa)
#
#
# Indices 1 2 3 4 5 6 
#
# 1 120.1151 44.0960 40.0317 0.0000 2.7550 0.0000
# 2 44.0960 105.5349 33.7894 0.0000 -9.7634 0.0000
# 3 40.0317 33.7894 100.3465 0.0000 -2.4065 0.0000
# 4 0.0000 0.0000 0.0000 204.2208 0.0000 -45.9163
# 5 2.7550 -9.7634 -2.4065 0.0000 37.3019 0.0000
# 6 0.0000 0.0000 0.0000 -45.9163 0.0000 38.6272
#
#
#
# Elastic Compliance Matrix: (Units=1/GPa)
#
#
# Indices 1 2 3 4 5 6 
#
# 1 0.010755 -0.003683 -0.003097 0.000000 -0.001958 0.000000
# 2 -0.003683 0.012130 -0.002537 0.000000 0.003283 0.000000
# 3 -0.003097 -0.002537 0.012063 0.000000 0.000343 0.000000
# 4 0.000000 0.000000 0.000000 0.006683 0.000000 0.007944
# 5 -0.001958 0.003283 0.000343 0.000000 0.027834 0.000000
# 6 0.000000 0.000000 0.000000 0.007944 0.000000 0.035331
#
#
# Mechanical properties :
#
#
# Convention : Reuss Voigt Hill
#
# Bulk Modulus (GPa) = 61.29448 62.42563 61.86005
# Shear Modulus (GPa) = 38.79919 69.90193 54.35056
#
# Velocity S-wave (km/s) = 4.41798 5.93003 5.22895
# Velocity P-wave (km/s) = 7.54054 8.84823 8.22043
#
# Compressibility (1/GPa) = 0.01631468
#
# Stress axis : x y z
#
# Youngs Moduli (GPa) = 92.98341 82.43765 82.89554
#
# Poissons Ratio (x) = 0.30363 0.25674
# Poissons Ratio (y) = 0.34247 0.21027
# Poissons Ratio (z) = 0.28798 0.20911
#
# Static dielectric constant tensor:
#      x y z
#    x 3.721240 0.000000 -0.065590 
#    y 0.000000 3.646810 0.000000 
#    z -0.065590 0.000000 3.710720 
# 
# 
# High freq. dielectric constant tensor:
#      x y z
#    x 1.781880 0.000000 0.005590 
#    y 0.000000 1.777570 0.000000 
#    z 0.005590 0.000000 1.784240 
# 
# From -- ./inp_files/16766.got.cif
#   From: 2010.06.25/outbox.cif.g09.slc.cpg/sg13_9_cif.got.tgz:16766.got - 2010.06.28 04:50:58.
