data_PCOD8120266
_publ_section_title
;
Structure prediction by ZEFSAII (Michael W. Deem and Ramdas Pophale) SiO2 
 PCOD8120266
Probable space group: P 2/C
;
_chemical_formula_sum "Si O2"
_cell_formula_units_Z 22
_cell_length_a 6.743574
_cell_length_b 7.878427
_cell_length_c 22.864048
_cell_angle_alpha 90.000000
_cell_angle_beta 118.967247
_cell_angle_gamma 90.000000
_cell_volume 1062.770637
_symmetry_space_group_name_H-M "P 2/C"
_symmetry_group_IT_number 13
_symmetry_cell_setting 'monoclinic'
loop_
_space_group_symop_operation_xyz
x,y,z
-x,y,1/2-z
-x,-y,-z
x,-y,1/2+z
loop_
_atom_site_type_symbol
_atom_site_label
_atom_site_fract_x
_atom_site_fract_y
_atom_site_fract_z
Si Si1 0.601897 0.419721 0.132199
Si Si2 0.897847 0.374985 0.068441
Si Si3 0.658540 0.776640 0.820021
Si Si4 0.737161 0.839748 0.305809
Si Si5 0.821386 0.666110 0.433385
Si Si6 0.000000 0.627046 0.250000
O O1 0.677602 0.374907 0.077436
O O2 0.498477 0.243090 0.144173
O O3 0.399157 0.550784 0.099340
O O4 0.802680 0.503744 0.198849
O O5 0.104479 0.316498 0.138362
O O6 0.951735 0.563225 0.052066
O O7 0.854890 0.258944 0.004184
O O8 0.500000 0.679323 0.750000
O O9 0.720492 0.957772 0.800930
O O10 0.500000 0.759945 0.250000
O O11 0.787007 0.813216 0.381475
O O12 0.927771 0.753430 0.292518
#
# Coordination Sequence:
#
# PCOD8120266 Si02
#       6
#     4   4   4   4   4   2
#     4  11  21  37  63  90 115 158 208 251 295 368
#     4  10  21  39  61  90 120 159 203 249 305 364
#     4  10  24  39  59  87 126 153 199 254 311 356
#     4  11  23  41  59  90 124 161 199 257 308 363
#     4  10  21  38  62  88 123 157 202 254 299 361
#     4  12  22  36  72  90 118 166 216 246 306 364
#
# _framework density 20.700609
#
# number of rings (size 3 to 8) (size 9 to 14) (size 15 to 20)
#    0.000    1.455    3.636    1.636    2.545    3.636 
#    0.000    0.909    0.000    0.000    0.000    0.000 
#    0.000    0.000    0.000    0.000    0.000    0.000 
#
# Total GULP energy -272556.842269 kJ/mol
# GULP energy per Si atom -12388.947376 kJ/mol
# Density = 2.065349 g / cm^3
# Si number density = 20.700609 Si / 1000 Ang^3
#
#
#
# Elastic Constant Matrix: (Units=GPa)
#
#
# Indices 1 2 3 4 5 6 
#
# 1 93.1064 12.7557 3.1891 0.0000 -20.2015 0.0000
# 2 12.7557 44.9447 2.0758 0.0000 -8.1834 0.0000
# 3 3.1891 2.0758 92.1192 0.0000 -8.8997 0.0000
# 4 0.0000 0.0000 0.0000 20.0127 0.0000 -5.2330
# 5 -20.2015 -8.1834 -8.8997 0.0000 38.8888 0.0000
# 6 0.0000 0.0000 0.0000 -5.2330 0.0000 25.1732
#
#
#
# Elastic Compliance Matrix: (Units=1/GPa)
#
#
# Indices 1 2 3 4 5 6 
#
# 1 0.012359 -0.002433 0.000202 0.000000 0.005954 0.000000
# 2 -0.002433 0.023615 -0.000092 0.000000 0.003685 0.000000
# 3 0.000202 -0.000092 0.011104 0.000000 0.002627 0.000000
# 4 0.000000 0.000000 0.000000 0.052840 0.000000 0.010984
# 5 0.005954 0.003685 0.002627 0.000000 0.030184 0.000000
# 6 0.000000 0.000000 0.000000 0.010984 0.000000 0.042008
#
#
# Mechanical properties :
#
#
# Convention : Reuss Voigt Hill
#
# Bulk Modulus (GPa) = 23.56640 29.57906 26.57273
# Shear Modulus (GPa) = 26.19173 30.95827 28.57500
#
# Velocity S-wave (km/s) = 3.56091 3.87140 3.71940
# Velocity P-wave (km/s) = 5.32127 5.85693 5.59551
#
# Compressibility (1/GPa) = 0.04243329
#
# Stress axis : x y z
#
# Youngs Moduli (GPa) = 80.91482 42.34581 90.05470
#
# Poissons Ratio (x) = 0.10301 -0.01821
# Poissons Ratio (y) = 0.19684 0.00828
# Poissons Ratio (z) = -0.01636 0.00389
#
# Static dielectric constant tensor:
#      x y z
#    x 3.921990 0.000000 -0.000910 
#    y 0.000000 3.323600 0.000000 
#    z -0.000910 0.000000 4.402210 
# 
# 
# High freq. dielectric constant tensor:
#      x y z
#    x 1.818610 0.000000 0.000390 
#    y 0.000000 1.765770 0.000000 
#    z 0.000390 0.000000 1.834920 
# 
# From -- ./inp_files/73001.got.cif
#   From: 2010.06.25/outbox.cif.g09.slc.cpg/sg13_37_cif.got.tgz:73001.got - 2010.06.28 04:50:58.
