data_PCOD8120451
_publ_section_title
;
Structure prediction by ZEFSAII (Michael W. Deem and Ramdas Pophale) SiO2 
 PCOD8120451
Probable space group: P 2/C
;
_chemical_formula_sum "Si O2"
_cell_formula_units_Z 32
_cell_length_a 19.105070
_cell_length_b 9.267732
_cell_length_c 24.519841
_cell_angle_alpha 90.000000
_cell_angle_beta 21.514542
_cell_angle_gamma 90.000000
_cell_volume 1592.190045
_symmetry_space_group_name_H-M "P 2/C"
_symmetry_group_IT_number 13
_symmetry_cell_setting 'monoclinic'
loop_
_space_group_symop_operation_xyz
x,y,z
-x,y,1/2-z
-x,-y,-z
x,-y,1/2+z
loop_
_atom_site_type_symbol
_atom_site_label
_atom_site_fract_x
_atom_site_fract_y
_atom_site_fract_z
Si Si1 0.156465 0.145641 0.278366
Si Si2 0.013893 0.347914 0.679251
Si Si3 0.841549 0.038886 0.826481
Si Si4 0.544645 0.384360 0.157008
Si Si5 0.741492 0.402336 0.671291
Si Si6 0.095297 0.529264 0.841649
Si Si7 0.555461 0.116932 0.334654
Si Si8 0.837021 0.921752 0.083387
O O1 0.168022 0.317349 0.267494
O O2 0.310837 0.092271 0.210151
O O3 0.937502 0.099986 0.451750
O O4 0.214592 0.073680 0.179478
O O5 0.233082 0.362965 0.507214
O O6 0.000000 0.414917 0.750000
O O7 0.932491 0.185555 0.736509
O O8 0.897307 0.432797 0.717933
O O9 0.000000 0.964152 0.750000
O O10 0.658104 0.071227 0.996310
O O11 0.500000 0.335717 0.250000
O O12 0.467346 0.546557 0.199378
O O13 0.437439 0.280244 0.191710
O O14 0.761067 0.465421 0.717838
O O15 0.770625 0.231836 0.655681
O O16 0.888938 0.467543 0.520218
O O17 0.645411 0.018057 0.220874
O O18 0.000000 0.000000 0.000000
#
# Coordination Sequence:
#
# PCOD8120451 Si02
#       8
#     4   4   4   4   4   4   4   4
#     4  10  22  41  65  94 125 165 218 271 324 388
#     4  11  24  43  62  93 130 175 215 260 328 402
#     4  11  24  43  61  89 134 175 215 269 325 393
#     4  12  23  41  69  93 129 171 215 269 329 389
#     4  10  21  41  65 101 127 160 218 274 326 379
#     4  10  21  39  67  92 127 167 209 269 323 388
#     4  11  22  43  63  97 125 169 219 266 322 394
#     4   9  22  38  66  99 124 160 214 270 323 385
#
# _framework density 20.098103999999999
#
# number of rings (size 3 to 8) (size 9 to 14) (size 15 to 20)
#    0.000    1.500    5.000    0.375    7.000    0.500 
#    4.500    1.875    0.000    0.000    0.000    0.000 
#    0.000    0.000    0.000    0.000    0.000    0.000 
#
# Total GULP energy -396597.347617 kJ/mol
# GULP energy per Si atom -12393.667113 kJ/mol
# Density = 2.005236 g / cm^3
# Si number density = 20.098104 Si / 1000 Ang^3
#
#
#
# Elastic Constant Matrix: (Units=GPa)
#
#
# Indices 1 2 3 4 5 6 
#
# 1 95.5386 21.7901 20.3316 0.0000 9.6592 0.0000
# 2 21.7901 88.6758 29.2934 0.0000 0.6566 0.0000
# 3 20.3316 29.2934 109.0684 0.0000 -5.9162 0.0000
# 4 0.0000 0.0000 0.0000 18.4817 0.0000 5.8310
# 5 9.6592 0.6566 -5.9162 0.0000 28.3427 0.0000
# 6 0.0000 0.0000 0.0000 5.8310 0.0000 32.5668
#
#
#
# Elastic Compliance Matrix: (Units=1/GPa)
#
#
# Indices 1 2 3 4 5 6 
#
# 1 0.011814 -0.002266 -0.001830 0.000000 -0.004356 0.000000
# 2 -0.002266 0.012837 -0.003034 0.000000 -0.000158 0.000000
# 3 -0.001830 -0.003034 0.010481 0.000000 0.002882 0.000000
# 4 0.000000 0.000000 0.000000 0.057347 0.000000 -0.010268
# 5 -0.004356 -0.000158 0.002882 0.000000 0.037372 0.000000
# 6 0.000000 0.000000 0.000000 -0.010268 0.000000 0.032545
#
#
# Mechanical properties :
#
#
# Convention : Reuss Voigt Hill
#
# Bulk Modulus (GPa) = 47.91158 48.45702 48.18430
# Shear Modulus (GPa) = 27.23125 30.66941 28.95033
#
# Velocity S-wave (km/s) = 3.68491 3.91062 3.79944
# Velocity P-wave (km/s) = 6.48038 6.67482 6.57832
#
# Compressibility (1/GPa) = 0.02087178
#
# Stress axis : x y z
#
# Youngs Moduli (GPa) = 84.64819 77.89781 95.41234
#
# Poissons Ratio (x) = 0.17653 0.17458
# Poissons Ratio (y) = 0.19183 0.28948
# Poissons Ratio (z) = 0.15489 0.23634
#
# Static dielectric constant tensor:
#      x y z
#    x 3.615350 0.000000 0.057750 
#    y 0.000000 3.726990 0.000000 
#    z 0.057750 0.000000 3.733310 
# 
# 
# High freq. dielectric constant tensor:
#      x y z
#    x 1.780990 0.000000 0.002930 
#    y 0.000000 1.780070 0.000000 
#    z 0.002930 0.000000 1.784870 
# 
# From -- ./inp_files/93550.got.cif
#   From: 2010.06.25/outbox.cif.g09.slc.cpg/sg13_47_cif.got.tgz:93550.got - 2010.06.28 04:50:58.
