data_PCOD8120958
_publ_section_title
;
Structure prediction by ZEFSAII (Michael W. Deem and Ramdas Pophale) SiO2 
 PCOD8120958
Probable space group: P 2/C
;
_chemical_formula_sum "Si O2"
_cell_formula_units_Z 18
_cell_length_a 7.634082
_cell_length_b 13.023386
_cell_length_c 10.036066
_cell_angle_alpha 90.000000
_cell_angle_beta 54.274955
_cell_angle_gamma 90.000000
_cell_volume 810.043735
_symmetry_space_group_name_H-M "P 2/C"
_symmetry_group_IT_number 13
_symmetry_cell_setting 'monoclinic'
loop_
_space_group_symop_operation_xyz
x,y,z
-x,y,1/2-z
-x,-y,-z
x,-y,1/2+z
loop_
_atom_site_type_symbol
_atom_site_label
_atom_site_fract_x
_atom_site_fract_y
_atom_site_fract_z
Si Si1 0.295781 0.962546 0.754541
Si Si2 0.045912 0.855062 0.414831
Si Si3 0.544314 0.403071 0.888422
Si Si4 0.237622 0.782689 0.585764
Si Si5 0.000000 0.681526 0.250000
O O1 0.500000 0.992637 0.750000
O O2 0.338155 0.882503 0.616426
O O3 0.179596 0.068313 0.754993
O O4 0.139598 0.913956 0.930337
O O5 0.223470 0.812771 0.438733
O O6 0.931826 0.757859 0.398528
O O7 0.500000 0.421756 0.750000
O O8 0.798927 0.385671 0.793314
O O9 0.500000 0.500000 0.000000
O O10 0.402470 0.312280 0.017422
O O11 0.000000 0.753535 0.750000
#
# Coordination Sequence:
#
# PCOD8120958 Si02
#       5
#     4   4   4   4   2
#     4  10  22  37  65 102 146 193 235 284 343 429
#     4  10  23  39  65 104 143 189 234 282 355 423
#     4  12  29  51  79 108 142 190 245 313 372 427
#     4  10  23  46  70 102 148 189 244 298 352 432
#     4  12  26  46  74 102 144 182 238 296 364 440
#
# _framework density 22.221022000000001
#
# number of rings (size 3 to 8) (size 9 to 14) (size 15 to 20)
#    0.000    1.333    2.222    1.333   12.444    6.222 
#    0.000    0.000    0.000    0.000    0.000    0.000 
#    0.000    0.000    0.000    0.000    0.000    0.000 
#
# Total GULP energy -223033.832053 kJ/mol
# GULP energy per Si atom -12390.768447 kJ/mol
# Density = 2.217045 g / cm^3
# Si number density = 22.221022 Si / 1000 Ang^3
#
#
#
# Elastic Constant Matrix: (Units=GPa)
#
#
# Indices 1 2 3 4 5 6 
#
# 1 133.6091 42.8878 32.3687 0.0000 -1.2985 0.0000
# 2 42.8878 119.4276 43.0286 0.0000 3.6917 0.0000
# 3 32.3687 43.0286 48.9252 0.0000 18.7842 0.0000
# 4 0.0000 0.0000 0.0000 43.5001 0.0000 14.5621
# 5 -1.2985 3.6917 18.7842 0.0000 36.8374 0.0000
# 6 0.0000 0.0000 0.0000 14.5621 0.0000 22.1630
#
#
#
# Elastic Compliance Matrix: (Units=1/GPa)
#
#
# Indices 1 2 3 4 5 6 
#
# 1 0.009534 -0.001063 -0.006892 0.000000 0.003957 0.000000
# 2 -0.001063 0.013271 -0.012986 0.000000 0.005254 0.000000
# 3 -0.006892 -0.012986 0.044780 0.000000 -0.021776 0.000000
# 4 0.000000 0.000000 0.000000 0.029471 0.000000 -0.019364
# 5 0.003957 0.005254 -0.021776 0.000000 0.037863 0.000000
# 6 0.000000 0.000000 0.000000 -0.019364 0.000000 0.057843
#
#
# Mechanical properties :
#
#
# Convention : Reuss Voigt Hill
#
# Bulk Modulus (GPa) = 38.90433 59.83691 49.37062
# Shear Modulus (GPa) = 20.55822 32.74524 26.65173
#
# Velocity S-wave (km/s) = 3.04496 3.84293 3.46698
# Velocity P-wave (km/s) = 5.46885 6.83208 6.18812
#
# Compressibility (1/GPa) = 0.02570408
#
# Stress axis : x y z
#
# Youngs Moduli (GPa) = 104.88958 75.35092 22.33118
#
# Poissons Ratio (x) = 0.08009 0.15391
# Poissons Ratio (y) = 0.11149 0.28999
# Poissons Ratio (z) = 0.72289 0.97850
#
# Static dielectric constant tensor:
#      x y z
#    x 3.957150 0.000000 0.395340 
#    y 0.000000 4.286930 0.000000 
#    z 0.395340 0.000000 3.702070 
# 
# 
# High freq. dielectric constant tensor:
#      x y z
#    x 1.893360 0.000000 0.000180 
#    y 0.000000 1.872890 0.000000 
#    z 0.000180 0.000000 1.871730 
# 
# From -- ./inp_files/29262.got.cif
#   From: 2010.06.25/outbox.cif.g09.slc.cpg/sg13_15_cif.got.tgz:29262.got - 2010.06.28 04:50:58.
