data_PCOD8120192
_publ_section_title
;
Structure prediction by ZEFSAII (Michael W. Deem and Ramdas Pophale) SiO2 
 PCOD8120192
Probable space group: P 2/C
;
_chemical_formula_sum "Si O2"
_cell_formula_units_Z 24
_cell_length_a 5.275486
_cell_length_b 10.975582
_cell_length_c 20.820074
_cell_angle_alpha 90.000000
_cell_angle_beta 96.841448
_cell_angle_gamma 90.000000
_cell_volume 1196.930373
_symmetry_space_group_name_H-M "P 2/C"
_symmetry_group_IT_number 13
_symmetry_cell_setting 'monoclinic'
loop_
_space_group_symop_operation_xyz
x,y,z
-x,y,1/2-z
-x,-y,-z
x,-y,1/2+z
loop_
_atom_site_type_symbol
_atom_site_label
_atom_site_fract_x
_atom_site_fract_y
_atom_site_fract_z
Si Si1 0.968922 0.177341 0.174183
Si Si2 0.465264 0.969231 0.673869
Si Si3 0.602797 0.239142 0.859449
Si Si4 0.968940 0.576662 0.596191
Si Si5 0.679974 0.579698 0.463279
Si Si6 0.896417 0.636709 0.180312
O O1 0.000000 0.202222 0.250000
O O2 0.971699 0.306759 0.140405
O O3 0.209723 0.106283 0.153236
O O4 0.707744 0.103811 0.152771
O O5 0.500000 0.997757 0.750000
O O6 0.426174 0.094667 0.634973
O O7 0.571031 0.295172 0.930469
O O8 0.358487 0.286108 0.811166
O O9 0.880870 0.274403 0.840103
O O10 0.896384 0.615810 0.521552
O O11 0.807245 0.471117 0.628616
O O12 0.238176 0.506691 0.594435
O O13 0.500000 0.500000 0.500000
O O14 0.000000 0.579232 0.250000
#
# Coordination Sequence:
#
# PCOD8120192 Si02
#       6
#     4   4   4   4   4   4
#     4  10  22  39  61  87 120 156 190 238 293 351
#     4  10  21  38  58  84 118 155 191 235 292 349
#     4  11  22  38  60  86 118 155 196 238 293 346
#     4  10  22  38  59  87 116 153 196 239 297 350
#     4  10  21  40  61  83 117 158 194 246 293 339
#     4  11  21  34  59  90 116 145 189 248 299 350
#
# _framework density 20.051290999999999
#
# number of rings (size 3 to 8) (size 9 to 14) (size 15 to 20)
#    0.000    1.667    1.667    3.000    2.333    1.333 
#    0.000    5.000    0.000    0.000    0.000    0.000 
#    0.000    0.000    0.000    0.000    0.000    0.000 
#
# Total GULP energy -297384.245946 kJ/mol
# GULP energy per Si atom -12391.010248 kJ/mol
# Density = 2.000565 g / cm^3
# Si number density = 20.051291 Si / 1000 Ang^3
#
#
#
# Elastic Constant Matrix: (Units=GPa)
#
#
# Indices 1 2 3 4 5 6 
#
# 1 128.6018 61.5812 14.8611 0.0000 -4.3889 0.0000
# 2 61.5812 169.3830 42.4471 0.0000 -4.9042 0.0000
# 3 14.8611 42.4471 51.7500 0.0000 -1.7326 0.0000
# 4 0.0000 0.0000 0.0000 35.9775 0.0000 -1.8661
# 5 -4.3889 -4.9042 -1.7326 0.0000 22.0305 0.0000
# 6 0.0000 0.0000 0.0000 -1.8661 0.0000 18.7883
#
#
#
# Elastic Compliance Matrix: (Units=1/GPa)
#
#
# Indices 1 2 3 4 5 6 
#
# 1 0.009443 -0.003437 0.000145 0.000000 0.001128 0.000000
# 2 -0.003437 0.008713 -0.006134 0.000000 0.000772 0.000000
# 3 0.000145 -0.006134 0.024332 0.000000 0.000577 0.000000
# 4 0.000000 0.000000 0.000000 0.027939 0.000000 0.002775
# 5 0.001128 0.000772 0.000577 0.000000 0.045834 0.000000
# 6 0.000000 0.000000 0.000000 0.002775 0.000000 0.053500
#
#
# Mechanical properties :
#
#
# Convention : Reuss Voigt Hill
#
# Bulk Modulus (GPa) = 42.30595 65.27927 53.79261
# Shear Modulus (GPa) = 25.44636 30.74897 28.09767
#
# Velocity S-wave (km/s) = 3.56626 3.92026 3.74744
# Velocity P-wave (km/s) = 6.17270 7.28822 6.75353
#
# Compressibility (1/GPa) = 0.02363734
#
# Stress axis : x y z
#
# Youngs Moduli (GPa) = 105.89329 114.77397 41.09754
#
# Poissons Ratio (x) = 0.39447 -0.00596
# Poissons Ratio (y) = 0.36395 0.25208
# Poissons Ratio (z) = -0.01535 0.70398
#
# Static dielectric constant tensor:
#      x y z
#    x 3.838700 0.000000 -0.256710 
#    y 0.000000 3.410360 0.000000 
#    z -0.256710 0.000000 2.680390 
# 
# 
# High freq. dielectric constant tensor:
#      x y z
#    x 1.794960 0.000000 -0.001090 
#    y 0.000000 1.775240 0.000000 
#    z -0.001090 0.000000 1.771820 
# 
# From -- ./inp_files/83336.got.cif
#   From: 2010.06.25/outbox.cif.g09.slc.cpg/sg13_42_cif.got.tgz:83336.got - 2010.06.28 04:50:58.
