data_PCOD8120293
_publ_section_title
;
Structure prediction by ZEFSAII (Michael W. Deem and Ramdas Pophale) SiO2 
 PCOD8120293
Probable space group: P 2/C
;
_chemical_formula_sum "Si O2"
_cell_formula_units_Z 22
_cell_length_a 12.098754
_cell_length_b 5.432699
_cell_length_c 28.808486
_cell_angle_alpha 90.000000
_cell_angle_beta 143.245568
_cell_angle_gamma 90.000000
_cell_volume 1133.074768
_symmetry_space_group_name_H-M "P 2/C"
_symmetry_group_IT_number 13
_symmetry_cell_setting 'monoclinic'
loop_
_space_group_symop_operation_xyz
x,y,z
-x,y,1/2-z
-x,-y,-z
x,-y,1/2+z
loop_
_atom_site_type_symbol
_atom_site_label
_atom_site_fract_x
_atom_site_fract_y
_atom_site_fract_z
Si Si1 0.824218 0.705623 0.223332
Si Si2 0.978999 0.696543 0.533010
Si Si3 0.159316 0.475153 0.178532
Si Si4 0.312614 0.986900 0.608639
Si Si5 0.654694 0.212501 0.183600
Si Si6 0.500000 0.278859 0.750000
O O1 0.888941 0.684693 0.299280
O O2 0.697344 0.463449 0.168453
O O3 0.000000 0.705043 0.250000
O O4 0.713094 0.960033 0.177327
O O5 0.983468 0.579050 0.586197
O O6 0.000000 0.500000 0.500000
O O7 0.785469 0.836531 0.462067
O O8 0.155213 0.876870 0.588710
O O9 0.226810 0.230800 0.228654
O O10 0.322575 0.554173 0.198967
O O11 0.461950 0.125363 0.690650
O O12 0.434503 0.789795 0.620656
#
# Coordination Sequence:
#
# PCOD8120293 Si02
#       6
#     4   4   4   4   4   2
#     4  10  22  39  63  90 116 152 210 266 303 341
#     4  11  23  35  53  86 131 164 189 239 301 374
#     4  10  22  35  61  88 121 159 195 250 297 359
#     4  11  22  34  56  87 127 162 198 237 302 365
#     4  10  21  38  64  88 114 158 204 255 292 359
#     4  12  18  38  58  90 122 156 206 242 300 362
#
# _framework density 19.416195999999999
#
# number of rings (size 3 to 8) (size 9 to 14) (size 15 to 20)
#    1.091    0.364    3.636    2.727    2.545    0.000 
#    0.000    0.000    0.000    2.182    0.000    0.000 
#    0.000    0.000    0.000    0.000    0.000    0.000 
#
# Total GULP energy -272607.110992 kJ/mol
# GULP energy per Si atom -12391.232318 kJ/mol
# Density = 1.937200 g / cm^3
# Si number density = 19.416196 Si / 1000 Ang^3
#
#
#
# Elastic Constant Matrix: (Units=GPa)
#
#
# Indices 1 2 3 4 5 6 
#
# 1 75.6784 11.8396 2.2072 0.0000 9.3623 0.0000
# 2 11.8396 101.2057 9.7509 0.0000 7.0783 0.0000
# 3 2.2072 9.7509 70.5493 0.0000 1.6651 0.0000
# 4 0.0000 0.0000 0.0000 23.3936 0.0000 4.5833
# 5 9.3623 7.0783 1.6651 0.0000 19.6725 0.0000
# 6 0.0000 0.0000 0.0000 4.5833 0.0000 27.6783
#
#
#
# Elastic Compliance Matrix: (Units=1/GPa)
#
#
# Indices 1 2 3 4 5 6 
#
# 1 0.014186 -0.001206 -0.000128 0.000000 -0.006307 0.000000
# 2 -0.001206 0.010362 -0.001323 0.000000 -0.003042 0.000000
# 3 -0.000128 -0.001323 0.014377 0.000000 -0.000680 0.000000
# 4 0.000000 0.000000 0.000000 0.044180 0.000000 -0.007316
# 5 -0.006307 -0.003042 -0.000680 0.000000 0.054986 0.000000
# 6 0.000000 0.000000 0.000000 -0.007316 0.000000 0.037341
#
#
# Mechanical properties :
#
#
# Convention : Reuss Voigt Hill
#
# Bulk Modulus (GPa) = 29.75149 32.78098 31.26623
# Shear Modulus (GPa) = 26.04830 29.05792 27.55311
#
# Velocity S-wave (km/s) = 3.66673 3.87276 3.77115
# Velocity P-wave (km/s) = 5.76913 6.07599 5.92455
#
# Compressibility (1/GPa) = 0.03361177
#
# Stress axis : x y z
#
# Youngs Moduli (GPa) = 70.48977 96.50464 69.55385
#
# Poissons Ratio (x) = 0.11640 0.00892
# Poissons Ratio (y) = 0.08502 0.09200
# Poissons Ratio (z) = 0.00904 0.12764
#
# Static dielectric constant tensor:
#      x y z
#    x 3.433650 0.000000 0.185370 
#    y 0.000000 3.718320 0.000000 
#    z 0.185370 0.000000 3.574600 
# 
# 
# High freq. dielectric constant tensor:
#      x y z
#    x 1.725460 0.000000 0.009720 
#    y 0.000000 1.766840 0.000000 
#    z 0.009720 0.000000 1.731750 
# 
# From -- ./inp_files/56641.got.cif
#   From: 2010.06.25/outbox.cif.g09.slc.cpg/sg13_29_cif.got.tgz:56641.got - 2010.06.28 04:50:58.
