data_PCOD8120065
_publ_section_title
;
Structure prediction by ZEFSAII (Michael W. Deem and Ramdas Pophale) SiO2 
 PCOD8120065
Probable space group: P 2/C
;
_chemical_formula_sum "Si O2"
_cell_formula_units_Z 22
_cell_length_a 13.767287
_cell_length_b 16.125005
_cell_length_c 5.112669
_cell_angle_alpha 90.000000
_cell_angle_beta 68.771548
_cell_angle_gamma 90.000000
_cell_volume 1057.983661
_symmetry_space_group_name_H-M "P 2/C"
_symmetry_group_IT_number 13
_symmetry_cell_setting 'monoclinic'
loop_
_space_group_symop_operation_xyz
x,y,z
-x,y,1/2-z
-x,-y,-z
x,-y,1/2+z
loop_
_atom_site_type_symbol
_atom_site_label
_atom_site_fract_x
_atom_site_fract_y
_atom_site_fract_z
Si Si1 0.168526 0.943696 0.075147
Si Si2 0.000000 0.556391 0.750000
Si Si3 0.604234 0.947774 0.725204
Si Si4 0.116515 0.763393 0.142197
Si Si5 0.806825 0.322801 0.432710
Si Si6 0.379895 0.555190 0.353503
O O1 0.098150 0.862234 0.135865
O O2 0.145204 0.994646 0.359952
O O3 0.285956 0.905182 0.946816
O O4 0.895333 0.608660 0.857776
O O5 0.000000 0.500000 0.500000
O O6 0.500000 0.893942 0.750000
O O7 0.599377 0.028042 0.534769
O O8 0.176879 0.741670 0.348200
O O9 0.000000 0.723552 0.250000
O O10 0.185935 0.728721 0.840091
O O11 0.693033 0.364184 0.557403
O O12 0.500000 0.585127 0.250000
O O13 0.354674 0.491194 0.608862
#
# Coordination Sequence:
#
# PCOD8120065 Si02
#       6
#     4   2   4   4   4   4
#     4  10  21  37  58  82 107 150 210 254 298 368
#     4  12  22  36  62  90 116 152 196 236 278 344
#     4   8  14  27  48  73 100 128 168 233 296 338
#     4  12  24  41  59  84 124 166 197 256 328 355
#     4  12  23  41  60  90 127 160 199 247 305 375
#     4  10  21  40  66  94 126 165 204 247 295 353
#
# _framework density 20.794273
#
# number of rings (size 3 to 8) (size 9 to 14) (size 15 to 20)
#    0.000    1.455    1.818    4.364    0.000    0.727 
#    0.000    1.818    0.000    2.182    0.000    0.000 
#    0.000    0.000    0.000    0.000    0.000    0.000 
#
# Total GULP energy -272712.471968 kJ/mol
# GULP energy per Si atom -12396.021453 kJ/mol
# Density = 2.074694 g / cm^3
# Si number density = 20.794273 Si / 1000 Ang^3
#
#
#
# Elastic Constant Matrix: (Units=GPa)
#
#
# Indices 1 2 3 4 5 6 
#
# 1 70.2528 26.4829 42.9778 0.0000 -22.9878 0.0000
# 2 26.4829 93.6467 41.5314 0.0000 -6.7524 0.0000
# 3 42.9778 41.5314 125.6828 0.0000 13.3433 0.0000
# 4 0.0000 0.0000 0.0000 29.6015 0.0000 3.9865
# 5 -22.9878 -6.7524 13.3433 0.0000 29.0631 0.0000
# 6 0.0000 0.0000 0.0000 3.9865 0.0000 27.8312
#
#
#
# Elastic Compliance Matrix: (Units=1/GPa)
#
#
# Indices 1 2 3 4 5 6 
#
# 1 0.035608 -0.000547 -0.015740 0.000000 0.035264 0.000000
# 2 -0.000547 0.013268 -0.004708 0.000000 0.004812 0.000000
# 3 -0.015740 -0.004708 0.017169 0.000000 -0.021426 0.000000
# 4 0.000000 0.000000 0.000000 0.034447 0.000000 -0.004934
# 5 0.035264 0.004812 -0.021426 0.000000 0.073255 0.000000
# 6 0.000000 0.000000 0.000000 -0.004934 0.000000 0.036638
#
#
# Mechanical properties :
#
#
# Convention : Reuss Voigt Hill
#
# Bulk Modulus (GPa) = 41.56910 56.84074 49.20492
# Shear Modulus (GPa) = 19.20178 29.20518 24.20348
#
# Velocity S-wave (km/s) = 3.04207 3.75171 3.41537
# Velocity P-wave (km/s) = 5.68973 6.79420 6.26635
#
# Compressibility (1/GPa) = 0.02405633
#
# Stress axis : x y z
#
# Youngs Moduli (GPa) = 28.08349 75.36881 58.24359
#
# Poissons Ratio (x) = 0.04121 0.91673
# Poissons Ratio (y) = 0.01536 0.27423
# Poissons Ratio (z) = 0.44202 0.35486
#
# Static dielectric constant tensor:
#      x y z
#    x 4.190670 0.000000 -0.038650 
#    y 0.000000 3.381630 0.000000 
#    z -0.038650 0.000000 4.082160 
# 
# 
# High freq. dielectric constant tensor:
#      x y z
#    x 1.829460 0.000000 0.001160 
#    y 0.000000 1.774620 0.000000 
#    z 0.001160 0.000000 1.839720 
# 
# From -- ./inp_files/4910.got.cif
#   From: 2010.06.25/outbox.cif.g09.slc.cpg/sg13_3_cif.got.tgz:4910.got - 2010.06.28 04:50:58.
