data_PCOD8120904
_publ_section_title
;
Structure prediction by ZEFSAII (Michael W. Deem and Ramdas Pophale) SiO2 
 PCOD8120904
Probable space group: P 2/C
;
_chemical_formula_sum "Si O2"
_cell_formula_units_Z 26
_cell_length_a 9.162486
_cell_length_b 11.029172
_cell_length_c 21.392665
_cell_angle_alpha 90.000000
_cell_angle_beta 142.399202
_cell_angle_gamma 90.000000
_cell_volume 1319.052714
_symmetry_space_group_name_H-M "P 2/C"
_symmetry_group_IT_number 13
_symmetry_cell_setting 'monoclinic'
loop_
_space_group_symop_operation_xyz
x,y,z
-x,y,1/2-z
-x,-y,-z
x,-y,1/2+z
loop_
_atom_site_type_symbol
_atom_site_label
_atom_site_fract_x
_atom_site_fract_y
_atom_site_fract_z
Si Si1 0.000000 0.911841 0.750000
Si Si2 0.883897 0.185914 0.078631
Si Si3 0.454206 0.948434 0.365414
Si Si4 0.187859 0.894031 0.573424
Si Si5 0.656673 0.290010 0.741384
Si Si6 0.720884 0.413345 0.957903
Si Si7 0.066066 0.340554 0.962929
O O1 0.033569 0.828695 0.822302
O O2 0.238450 0.992836 0.830452
O O3 0.125958 0.163364 0.119852
O O4 0.668685 0.095523 0.984192
O O5 0.794156 0.324576 0.039709
O O6 0.336400 0.840185 0.287644
O O7 0.552477 0.045096 0.347181
O O8 0.178343 0.789257 0.517292
O O9 0.000000 0.000000 0.500000
O O10 0.500000 0.279211 0.750000
O O11 0.549561 0.388164 0.656556
O O12 0.924476 0.329014 0.849592
O O13 0.891656 0.381722 0.958417
O O14 0.736158 0.554816 0.981452
#
# Coordination Sequence:
#
# PCOD8120904 Si02
#       7
#     2   4   4   4   4   4   4
#     4  12  24  34  56  78 116 164 182 224 296 356
#     4   9  20  38  54  82 113 147 187 240 286 339
#     4  10  22  35  55  83 114 144 192 241 284 343
#     4   9  18  34  57  86 116 135 184 246 288 324
#     4   9  17  30  55  82 108 147 182 231 287 336
#     4   8  16  33  52  80 116 138 183 237 279 326
#     4   9  16  30  57  83 110 147 178 228 289 345
#
# _framework density 19.711116000000001
#
# number of rings (size 3 to 8) (size 9 to 14) (size 15 to 20)
#    0.000    2.769    0.000    3.231    6.462    0.000 
#    2.769    0.000    0.000    1.846    0.000    0.000 
#    0.000    0.000    0.000    0.000    0.000    0.000 
#
# Total GULP energy -322184.036822 kJ/mol
# GULP energy per Si atom -12391.693724 kJ/mol
# Density = 1.966625 g / cm^3
# Si number density = 19.711116 Si / 1000 Ang^3
#
#
#
# Elastic Constant Matrix: (Units=GPa)
#
#
# Indices 1 2 3 4 5 6 
#
# 1 61.3631 31.3977 39.2194 0.0000 -0.5094 0.0000
# 2 31.3977 145.5295 60.2142 0.0000 -9.4742 0.0000
# 3 39.2194 60.2142 111.1892 0.0000 -23.4843 0.0000
# 4 0.0000 0.0000 0.0000 18.6645 0.0000 -5.0108
# 5 -0.5094 -9.4742 -23.4843 0.0000 27.4339 0.0000
# 6 0.0000 0.0000 0.0000 -5.0108 0.0000 9.1370
#
#
#
# Elastic Compliance Matrix: (Units=1/GPa)
#
#
# Indices 1 2 3 4 5 6 
#
# 1 0.022669 -0.001822 -0.008610 0.000000 -0.007579 0.000000
# 2 -0.001822 0.009039 -0.004395 0.000000 -0.000674 0.000000
# 3 -0.008610 -0.004395 0.017159 0.000000 0.013011 0.000000
# 4 0.000000 0.000000 0.000000 0.062828 0.000000 0.034455
# 5 -0.007579 -0.000674 0.013011 0.000000 0.047215 0.000000
# 6 0.000000 0.000000 0.000000 0.034455 0.000000 0.128341
#
#
# Mechanical properties :
#
#
# Convention : Reuss Voigt Hill
#
# Bulk Modulus (GPa) = 52.04763 64.41604 58.23184
# Shear Modulus (GPa) = 15.46513 23.53044 19.49779
#
# Velocity S-wave (km/s) = 2.80409 3.45884 3.14853
# Velocity P-wave (km/s) = 6.07836 6.97871 6.54404
#
# Compressibility (1/GPa) = 0.01921317
#
# Stress axis : x y z
#
# Youngs Moduli (GPa) = 44.11400 110.63139 58.27928
#
# Poissons Ratio (x) = 0.20153 0.50178
# Poissons Ratio (y) = 0.08036 0.25614
# Poissons Ratio (z) = 0.37982 0.48622
#
# Static dielectric constant tensor:
#      x y z
#    x 3.368890 0.000000 0.128940 
#    y 0.000000 3.806720 0.000000 
#    z 0.128940 0.000000 3.779070 
# 
# 
# High freq. dielectric constant tensor:
#      x y z
#    x 1.727030 0.000000 -0.001910 
#    y 0.000000 1.768370 0.000000 
#    z -0.001910 0.000000 1.764130 
# 
# From -- ./inp_files/76381.got.cif
#   From: 2010.06.25/outbox.cif.g09.slc.cpg/sg13_39_cif.got.tgz:76381.got - 2010.06.28 04:50:58.
