data_PCOD8120330
_publ_section_title
;
Structure prediction by ZEFSAII (Michael W. Deem and Ramdas Pophale) SiO2 
 PCOD8120330
Probable space group: P 2/C
;
_chemical_formula_sum "Si O2"
_cell_formula_units_Z 30
_cell_length_a 16.537898
_cell_length_b 8.565801
_cell_length_c 17.201703
_cell_angle_alpha 90.000000
_cell_angle_beta 143.391926
_cell_angle_gamma 90.000000
_cell_volume 1453.155933
_symmetry_space_group_name_H-M "P 2/C"
_symmetry_group_IT_number 13
_symmetry_cell_setting 'monoclinic'
loop_
_space_group_symop_operation_xyz
x,y,z
-x,y,1/2-z
-x,-y,-z
x,-y,1/2+z
loop_
_atom_site_type_symbol
_atom_site_label
_atom_site_fract_x
_atom_site_fract_y
_atom_site_fract_z
Si Si1 0.701028 0.337042 0.793361
Si Si2 0.612621 0.877272 0.100208
Si Si3 0.500000 0.505233 0.250000
Si Si4 0.328948 0.330171 0.993736
Si Si5 0.341987 0.548352 0.877287
Si Si6 0.853709 0.945722 0.101920
Si Si7 0.209847 0.865797 0.805514
Si Si8 0.061558 0.891185 0.980497
O O1 0.601163 0.216757 0.671672
O O2 0.622620 0.389040 0.810729
O O3 0.727170 0.484314 0.755670
O O4 0.844523 0.253034 0.920151
O O5 0.755152 0.971864 0.212156
O O6 0.593707 0.766337 0.012298
O O7 0.500000 0.000000 0.000000
O O8 0.441152 0.393492 0.138906
O O9 0.265636 0.473892 0.894556
O O10 0.221774 0.221264 0.954855
O O11 0.320940 0.733878 0.870469
O O12 0.500000 0.500000 0.000000
O O13 0.000000 0.910987 0.250000
O O14 0.785238 0.086228 0.099194
O O15 0.854126 0.997606 0.012645
O O16 0.061559 0.811842 0.662911
O O17 0.000000 0.000000 0.000000
#
# Coordination Sequence:
#
# PCOD8120330 Si02
#       8
#     4   4   2   4   4   4   4   4
#     4  11  25  41  63  94 134 171 206 276 322 390
#     4  10  21  38  69  93 117 171 226 261 317 372
#     4  12  26  40  60  96 144 166 214 260 340 390
#     4  10  23  41  61  89 132 166 205 268 317 381
#     4  11  22  42  66  92 132 167 210 260 327 391
#     4   9  22  43  66  91 123 165 221 266 316 378
#     4  10  21  41  68  92 124 167 215 265 315 386
#     4  11  23  43  67  94 129 165 219 270 318 376
#
# _framework density 20.644722000000002
#
# number of rings (size 3 to 8) (size 9 to 14) (size 15 to 20)
#    0.000    1.600    2.667    1.600    3.733    3.733 
#    2.400    0.000    0.000    0.000    0.000    0.000 
#    0.000    0.000    0.000    0.000    0.000    0.000 
#
# Total GULP energy -371753.317380 kJ/mol
# GULP energy per Si atom -12391.777246 kJ/mol
# Density = 2.059773 g / cm^3
# Si number density = 20.644722 Si / 1000 Ang^3
#
#
#
# Elastic Constant Matrix: (Units=GPa)
#
#
# Indices 1 2 3 4 5 6 
#
# 1 97.9848 53.7586 38.0374 0.0000 -7.8094 0.0000
# 2 53.7586 121.7428 42.1609 0.0000 -3.3019 0.0000
# 3 38.0374 42.1609 83.2097 0.0000 -4.5141 0.0000
# 4 0.0000 0.0000 0.0000 39.2224 0.0000 3.3445
# 5 -7.8094 -3.3019 -4.5141 0.0000 30.5503 0.0000
# 6 0.0000 0.0000 0.0000 3.3445 0.0000 38.1064
#
#
#
# Elastic Compliance Matrix: (Units=1/GPa)
#
#
# Indices 1 2 3 4 5 6 
#
# 1 0.014752 -0.005041 -0.004047 0.000000 0.002628 0.000000
# 2 -0.005041 0.011688 -0.003648 0.000000 -0.000565 0.000000
# 3 -0.004047 -0.003648 0.015765 0.000000 0.000901 0.000000
# 4 0.000000 0.000000 0.000000 0.025688 0.000000 -0.002255
# 5 0.002628 -0.000565 0.000901 0.000000 0.033477 0.000000
# 6 0.000000 0.000000 0.000000 -0.002255 0.000000 0.026440
#
#
# Mechanical properties :
#
#
# Convention : Reuss Voigt Hill
#
# Bulk Modulus (GPa) = 59.76318 63.42790 61.59554
# Shear Modulus (GPa) = 31.47419 32.84119 32.15769
#
# Velocity S-wave (km/s) = 3.90880 3.99278 3.95102
# Velocity P-wave (km/s) = 7.02730 7.21434 7.12143
#
# Compressibility (1/GPa) = 0.01673271
#
# Stress axis : x y z
#
# Youngs Moduli (GPa) = 67.78774 85.55514 63.43164
#
# Poissons Ratio (x) = 0.43132 0.25668
# Poissons Ratio (y) = 0.34175 0.23142
# Poissons Ratio (z) = 0.27430 0.31213
#
# Static dielectric constant tensor:
#      x y z
#    x 4.501650 0.000000 0.325400 
#    y 0.000000 4.909560 0.000000 
#    z 0.325400 0.000000 3.946800 
# 
# 
# High freq. dielectric constant tensor:
#      x y z
#    x 1.808570 0.000000 -0.007600 
#    y 0.000000 1.815060 0.000000 
#    z -0.007600 0.000000 1.799400 
# 
# From -- ./inp_files/69485.got.cif
#   From: 2010.06.25/outbox.cif.g09.slc.cpg/sg13_35_cif.got.tgz:69485.got - 2010.06.28 04:50:58.
