data_PCOD8120695
_publ_section_title
;
Structure prediction by ZEFSAII (Michael W. Deem and Ramdas Pophale) SiO2 
 PCOD8120695
Probable space group: P 2/C
;
_chemical_formula_sum "Si O2"
_cell_formula_units_Z 28
_cell_length_a 8.586038
_cell_length_b 11.382417
_cell_length_c 16.540354
_cell_angle_alpha 90.000000
_cell_angle_beta 57.293134
_cell_angle_gamma 90.000000
_cell_volume 1360.186211
_symmetry_space_group_name_H-M "P 2/C"
_symmetry_group_IT_number 13
_symmetry_cell_setting 'monoclinic'
loop_
_space_group_symop_operation_xyz
x,y,z
-x,y,1/2-z
-x,-y,-z
x,-y,1/2+z
loop_
_atom_site_type_symbol
_atom_site_label
_atom_site_fract_x
_atom_site_fract_y
_atom_site_fract_z
Si Si1 0.645006 0.921911 0.914748
Si Si2 0.363497 0.535803 0.717744
Si Si3 0.420199 0.692014 0.958319
Si Si4 0.786543 0.687445 0.318214
Si Si5 0.332521 0.088497 0.734596
Si Si6 0.976692 0.029770 0.099337
Si Si7 0.708646 0.759189 0.670774
O O1 0.580984 0.786672 0.934194
O O2 0.835092 0.943722 0.907948
O O3 0.653921 0.969241 0.821246
O O4 0.500000 0.000000 0.000000
O O5 0.500000 0.491138 0.750000
O O6 0.477145 0.576735 0.605948
O O7 0.232576 0.428886 0.730634
O O8 0.243761 0.643366 0.789025
O O9 0.280307 0.738416 0.928647
O O10 0.288495 0.661478 0.070757
O O11 0.660763 0.793967 0.320703
O O12 0.000000 0.724345 0.250000
O O13 0.500000 0.092189 0.750000
O O14 0.132953 0.082757 0.834721
O O15 0.854682 0.143412 0.151342
O O16 0.000000 0.000000 0.000000
O O17 0.500000 0.799381 0.750000
#
# Coordination Sequence:
#
# PCOD8120695 Si02
#       7
#     4   4   4   4   4   4   4
#     4  12  23  41  62  94 129 167 208 257 313 383
#     4   9  21  44  66  87 120 168 213 262 315 375
#     4  10  21  41  68  89 125 167 214 262 317 372
#     4  12  25  39  62  94 129 165 212 265 318 377
#     4  12  25  42  63  91 131 171 207 262 324 377
#     4  12  25  38  65  97 128 165 212 258 316 383
#     4   9  20  42  68  91 123 166 212 262 317 374
#
# _framework density 20.585415999999999
#
# number of rings (size 3 to 8) (size 9 to 14) (size 15 to 20)
#    0.000    1.429    1.429    6.857    2.000    1.714 
#    0.000    2.857    0.000    0.000    0.000    0.000 
#    0.000    0.000    0.000    0.000    0.000    0.000 
#
# Total GULP energy -347104.181907 kJ/mol
# GULP energy per Si atom -12396.577925 kJ/mol
# Density = 2.053856 g / cm^3
# Si number density = 20.585416 Si / 1000 Ang^3
#
#
#
# Elastic Constant Matrix: (Units=GPa)
#
#
# Indices 1 2 3 4 5 6 
#
# 1 126.0426 47.0947 45.5039 0.0000 1.9570 0.0000
# 2 47.0947 83.0930 32.6340 0.0000 -0.2366 0.0000
# 3 45.5039 32.6340 133.8224 0.0000 9.5595 0.0000
# 4 0.0000 0.0000 0.0000 23.1470 0.0000 12.4375
# 5 1.9570 -0.2366 9.5595 0.0000 29.9391 0.0000
# 6 0.0000 0.0000 0.0000 12.4375 0.0000 20.5474
#
#
#
# Elastic Compliance Matrix: (Units=1/GPa)
#
#
# Indices 1 2 3 4 5 6 
#
# 1 0.010716 -0.005133 -0.002394 0.000000 0.000023 0.000000
# 2 -0.005133 0.015808 -0.002193 0.000000 0.001161 0.000000
# 3 -0.002394 -0.002193 0.009017 0.000000 -0.002740 0.000000
# 4 0.000000 0.000000 0.000000 0.064027 0.000000 -0.038756
# 5 0.000023 0.001161 -0.002740 0.000000 0.034284 0.000000
# 6 0.000000 0.000000 0.000000 -0.038756 0.000000 0.072127
#
#
# Mechanical properties :
#
#
# Convention : Reuss Voigt Hill
#
# Bulk Modulus (GPa) = 62.10235 65.93591 64.01913
# Shear Modulus (GPa) = 21.66525 29.24171 25.45348
#
# Velocity S-wave (km/s) = 3.24768 3.77305 3.52018
# Velocity P-wave (km/s) = 6.65559 7.14711 6.90572
#
# Compressibility (1/GPa) = 0.01610245
#
# Stress axis : x y z
#
# Youngs Moduli (GPa) = 93.32253 63.25745 110.90335
#
# Poissons Ratio (x) = 0.32471 0.26545
# Poissons Ratio (y) = 0.47904 0.24316
# Poissons Ratio (z) = 0.22337 0.13869
#
# Static dielectric constant tensor:
#      x y z
#    x 3.511300 0.000000 0.261590 
#    y 0.000000 3.576970 0.000000 
#    z 0.261590 0.000000 3.940060 
# 
# 
# High freq. dielectric constant tensor:
#      x y z
#    x 1.797010 0.000000 0.013030 
#    y 0.000000 1.803870 0.000000 
#    z 0.013030 0.000000 1.822510 
# 
# From -- ./inp_files/47137.got.cif
#   From: 2010.06.25/outbox.cif.g09.slc.cpg/sg13_24_cif.got.tgz:47137.got - 2010.06.28 04:50:58.
