data_PCOD8120476
_publ_section_title
;
Structure prediction by ZEFSAII (Michael W. Deem and Ramdas Pophale) SiO2 
 PCOD8120476
Probable space group: P 2/C
;
_chemical_formula_sum "Si O2"
_cell_formula_units_Z 22
_cell_length_a 26.974684
_cell_length_b 7.026948
_cell_length_c 5.303698
_cell_angle_alpha 90.000000
_cell_angle_beta 73.634743
_cell_angle_gamma 90.000000
_cell_volume 964.584067
_symmetry_space_group_name_H-M "P 2/C"
_symmetry_group_IT_number 13
_symmetry_cell_setting 'monoclinic'
loop_
_space_group_symop_operation_xyz
x,y,z
-x,y,1/2-z
-x,-y,-z
x,-y,1/2+z
loop_
_atom_site_type_symbol
_atom_site_label
_atom_site_fract_x
_atom_site_fract_y
_atom_site_fract_z
Si Si1 0.142686 0.724841 0.324110
Si Si2 0.500000 0.619555 0.250000
Si Si3 0.978168 0.215086 0.531403
Si Si4 0.814246 0.296604 0.238201
Si Si5 0.596450 0.884269 0.066328
Si Si6 0.289185 0.878243 0.543056
O O1 0.082765 0.763554 0.375367
O O2 0.160816 0.504943 0.323242
O O3 0.160207 0.818330 0.563789
O O4 0.171391 0.815340 0.040547
O O5 0.500000 0.500000 0.500000
O O6 0.552119 0.737197 0.186780
O O7 0.000000 0.319010 0.750000
O O8 0.000000 0.000000 0.500000
O O9 0.000000 0.318906 0.250000
O O10 0.752133 0.293343 0.362822
O O11 0.590372 0.047788 0.286485
O O12 0.653221 0.789943 0.018406
O O13 0.281254 0.967774 0.277069
#
# Coordination Sequence:
#
# PCOD8120476 Si02
#       6
#     4   2   4   4   4   4
#     4  10  21  40  62  85 120 154 197 236 308 392
#     4  12  24  40  60 106 140 178 226 288 338 380
#     4  10  21  40  59  86 116 147 193 247 297 362
#     4  10  21  40  58  90 117 156 197 249 312 372
#     4  10  21  41  68  90 131 183 233 269 330 401
#     4  10  21  40  62  94 122 162 216 267 307 372
#
# _framework density 22.807756999999999
#
# number of rings (size 3 to 8) (size 9 to 14) (size 15 to 20)
#    0.000    1.818    0.000    3.818    0.000    0.000 
#   26.182   10.909    0.000    0.000    0.000    0.000 
#    0.000    0.000    0.000    0.000    0.000    0.000 
#
# Total GULP energy -272567.276787 kJ/mol
# GULP energy per Si atom -12389.421672 kJ/mol
# Density = 2.275585 g / cm^3
# Si number density = 22.807757 Si / 1000 Ang^3
#
#
#
# Elastic Constant Matrix: (Units=GPa)
#
#
# Indices 1 2 3 4 5 6 
#
# 1 151.6854 33.5120 51.9592 0.0000 -28.7496 0.0000
# 2 33.5120 49.4807 -4.5966 0.0000 -19.1265 0.0000
# 3 51.9592 -4.5966 194.7775 0.0000 17.0651 0.0000
# 4 0.0000 0.0000 0.0000 21.5915 0.0000 -41.1228
# 5 -28.7496 -19.1265 17.0651 0.0000 64.1697 0.0000
# 6 0.0000 0.0000 0.0000 -41.1228 0.0000 76.8667
#
#
#
# Elastic Compliance Matrix: (Units=1/GPa)
#
#
# Indices 1 2 3 4 5 6 
#
# 1 0.009426 -0.005337 -0.002939 0.000000 0.003414 0.000000
# 2 -0.005337 0.025864 0.001606 0.000000 0.004891 0.000000
# 3 -0.002939 0.001606 0.006173 0.000000 -0.002480 0.000000
# 4 0.000000 0.000000 0.000000 -2.446919 0.000000 -1.309072
# 5 0.003414 0.004891 -0.002480 0.000000 0.019231 0.000000
# 6 0.000000 0.000000 0.000000 -1.309072 0.000000 -0.687328
#
#
# Mechanical properties :
#
#
# Convention : Reuss Voigt Hill
#
# Bulk Modulus (GPa) = 35.56015 61.96585 48.76300
# Shear Modulus (GPa) = -1.63889 53.53019 25.94565
#
# Velocity S-wave (km/s) = -0.84860 4.84986 3.37646
# Velocity P-wave (km/s) = 3.82948 7.65436 6.05203
#
# Compressibility (1/GPa) = 0.02812136
#
# Stress axis : x y z
#
# Youngs Moduli (GPa) = 106.09297 38.66314 161.98576
#
# Poissons Ratio (x) = 0.20635 0.47615
# Poissons Ratio (y) = 0.56624 -0.26009
# Poissons Ratio (z) = 0.31186 -0.06208
#
# Static dielectric constant tensor:
#      x y z
#    x 3.964490 0.000000 -0.191450 
#    y 0.000000 2.460070 0.000000 
#    z -0.191450 0.000000 4.203670 
# 
# 
# High freq. dielectric constant tensor:
#      x y z
#    x 1.917260 0.000000 0.009120 
#    y 0.000000 1.856240 0.000000 
#    z 0.009120 0.000000 1.947050 
# 
# From -- ./inp_files/7327.got.cif
#   From: 2010.06.25/outbox.cif.g09.slc.cpg/sg13_4_cif.got.tgz:7327.got - 2010.06.28 04:50:58.
