data_PCOD8120263
_publ_section_title
;
Structure prediction by ZEFSAII (Michael W. Deem and Ramdas Pophale) SiO2 
 PCOD8120263
Probable space group: P 2/C
;
_chemical_formula_sum "Si O2"
_cell_formula_units_Z 18
_cell_length_a 13.359064
_cell_length_b 9.080025
_cell_length_c 17.176506
_cell_angle_alpha 90.000000
_cell_angle_beta 154.396151
_cell_angle_gamma 90.000000
_cell_volume 900.385993
_symmetry_space_group_name_H-M "P 2/C"
_symmetry_group_IT_number 13
_symmetry_cell_setting 'monoclinic'
loop_
_space_group_symop_operation_xyz
x,y,z
-x,y,1/2-z
-x,-y,-z
x,-y,1/2+z
loop_
_atom_site_type_symbol
_atom_site_label
_atom_site_fract_x
_atom_site_fract_y
_atom_site_fract_z
Si Si1 0.604635 0.153085 0.051979
Si Si2 0.853411 0.264434 0.542914
Si Si3 0.307225 0.588421 0.316289
Si Si4 0.367629 0.680433 0.771312
Si Si5 0.000000 0.001471 0.750000
O O1 0.691688 0.230256 0.192276
O O2 0.416339 0.252210 0.873755
O O3 0.806114 0.117117 0.133845
O O4 0.500000 0.000000 0.000000
O O5 0.765897 0.242990 0.393308
O O6 0.645278 0.323671 0.451349
O O7 0.934359 0.105466 0.631000
O O8 0.065527 0.382117 0.692830
O O9 0.500000 0.500000 0.500000
O O10 0.272535 0.487954 0.214785
#
# Coordination Sequence:
#
# PCOD8120263 Si02
#       5
#     4   4   4   4   2
#     4  11  21  39  61  91 120 161 206 245 311 371
#     4  11  21  39  64  88 125 165 203 252 324 361
#     4  10  21  38  62  86 122 158 205 255 301 366
#     4  10  23  39  64  91 122 162 208 260 307 370
#     4  12  22  38  64  90 126 168 202 256 308 388
#
# _framework density 19.991426000000001
#
# number of rings (size 3 to 8) (size 9 to 14) (size 15 to 20)
#    0.000    1.333    4.444    2.000    0.000    4.444 
#    0.000    0.000    0.000    0.000    0.000    0.000 
#    0.000    0.000    0.000    0.000    0.000    0.000 
#
# Total GULP energy -223049.430268 kJ/mol
# GULP energy per Si atom -12391.635015 kJ/mol
# Density = 1.994592 g / cm^3
# Si number density = 19.991426 Si / 1000 Ang^3
#
#
#
# Elastic Constant Matrix: (Units=GPa)
#
#
# Indices 1 2 3 4 5 6 
#
# 1 76.5807 42.7276 32.7084 0.0000 4.4796 0.0000
# 2 42.7276 131.3869 36.4421 0.0000 6.8187 0.0000
# 3 32.7084 36.4421 99.9750 0.0000 14.5096 0.0000
# 4 0.0000 0.0000 0.0000 27.3284 0.0000 9.9432
# 5 4.4796 6.8187 14.5096 0.0000 49.1042 0.0000
# 6 0.0000 0.0000 0.0000 9.9432 0.0000 42.9488
#
#
#
# Elastic Compliance Matrix: (Units=1/GPa)
#
#
# Indices 1 2 3 4 5 6 
#
# 1 0.017290 -0.004513 -0.004047 0.000000 0.000245 0.000000
# 2 -0.004513 0.009649 -0.001991 0.000000 -0.000340 0.000000
# 3 -0.004047 -0.001991 0.012495 0.000000 -0.003046 0.000000
# 4 0.000000 0.000000 0.000000 0.039958 0.000000 -0.009251
# 5 0.000245 -0.000340 -0.003046 0.000000 0.021290 0.000000
# 6 0.000000 0.000000 0.000000 -0.009251 0.000000 0.025425
#
#
# Mechanical properties :
#
#
# Convention : Reuss Voigt Hill
#
# Bulk Modulus (GPa) = 54.55417 59.07765 56.81591
# Shear Modulus (GPa) = 32.61150 36.94725 34.77937
#
# Velocity S-wave (km/s) = 4.04329 4.30368 4.17551
# Velocity P-wave (km/s) = 7.01039 7.36961 7.19224
#
# Compressibility (1/GPa) = 0.01833040
#
# Stress axis : x y z
#
# Youngs Moduli (GPa) = 57.83530 103.64077 80.03448
#
# Poissons Ratio (x) = 0.46774 0.32393
# Poissons Ratio (y) = 0.26101 0.15937
# Poissons Ratio (z) = 0.23408 0.20637
#
# Static dielectric constant tensor:
#      x y z
#    x 3.735890 0.000000 0.042890 
#    y 0.000000 3.836450 0.000000 
#    z 0.042890 0.000000 3.717430 
# 
# 
# High freq. dielectric constant tensor:
#      x y z
#    x 1.773610 0.000000 0.013590 
#    y 0.000000 1.781300 0.000000 
#    z 0.013590 0.000000 1.786790 
# 
# From -- ./inp_files/27805.got.cif
#   From: 2010.06.25/outbox.cif.g09.slc.cpg/sg13_14_cif.got.tgz:27805.got - 2010.06.28 04:50:58.
