data_PCOD8120553
_publ_section_title
;
Structure prediction by ZEFSAII (Michael W. Deem and Ramdas Pophale) SiO2 
 PCOD8120553
Probable space group: P 2/C
;
_chemical_formula_sum "Si O2"
_cell_formula_units_Z 32
_cell_length_a 15.641116
_cell_length_b 13.757377
_cell_length_c 21.801299
_cell_angle_alpha 90.000000
_cell_angle_beta 160.863082
_cell_angle_gamma 90.000000
_cell_volume 1537.906983
_symmetry_space_group_name_H-M "P 2/C"
_symmetry_group_IT_number 13
_symmetry_cell_setting 'monoclinic'
loop_
_space_group_symop_operation_xyz
x,y,z
-x,y,1/2-z
-x,-y,-z
x,-y,1/2+z
loop_
_atom_site_type_symbol
_atom_site_label
_atom_site_fract_x
_atom_site_fract_y
_atom_site_fract_z
Si Si1 0.796043 0.432194 0.013934
Si Si2 0.280602 0.730113 0.274182
Si Si3 0.838536 0.733706 0.691914
Si Si4 0.927702 0.355658 0.631411
Si Si5 0.792076 0.416224 0.872885
Si Si6 0.151837 0.918663 0.239560
Si Si7 0.361035 0.882397 0.846607
Si Si8 0.610702 0.173561 0.393429
O O1 0.896959 0.541866 0.077063
O O2 0.995106 0.364420 0.185369
O O3 0.795633 0.386201 0.945891
O O4 0.506710 0.443059 0.847040
O O5 0.581672 0.702336 0.480897
O O6 0.135451 0.678144 0.118958
O O7 0.229137 0.845920 0.235906
O O8 0.169231 0.697908 0.264271
O O9 0.777883 0.792677 0.712509
O O10 0.000000 0.796436 0.750000
O O11 0.676071 0.286275 0.452827
O O12 0.000000 0.374775 0.750000
O O13 0.000000 0.500000 0.000000
O O14 0.356344 0.905552 0.433677
O O15 0.166255 0.026727 0.221971
O O16 0.863736 0.896097 0.069961
O O17 0.397305 0.859407 0.799113
O O18 0.500000 0.165155 0.250000
#
# Coordination Sequence:
#
# PCOD8120553 Si02
#       8
#     4   4   4   4   4   4   4   4
#     4  11  25  39  61  90 125 169 216 265 319 395
#     4  10  21  40  65  91 126 167 208 276 320 387
#     4  11  22  39  61  95 131 165 220 274 329 381
#     4  11  23  40  62  91 123 165 218 272 318 383
#     4  11  23  41  60  87 125 172 214 256 326 393
#     4   9  21  41  70  95 127 166 223 268 331 399
#     4  10  22  42  70  99 126 174 218 273 337 395
#     4  11  24  41  64  96 134 169 215 273 330 401
#
# _framework density 20.807500999999998
#
# number of rings (size 3 to 8) (size 9 to 14) (size 15 to 20)
#    0.000    1.500    2.500    3.000    1.750    8.000 
#    0.000    0.000    0.000    0.000    0.000    0.000 
#    0.000    0.000    0.000    0.000    0.000    0.000 
#
# Total GULP energy -396654.935620 kJ/mol
# GULP energy per Si atom -12395.466738 kJ/mol
# Density = 2.076014 g / cm^3
# Si number density = 20.807501 Si / 1000 Ang^3
#
#
#
# Elastic Constant Matrix: (Units=GPa)
#
#
# Indices 1 2 3 4 5 6 
#
# 1 131.0438 40.9071 29.2716 0.0000 -1.6686 0.0000
# 2 40.9071 123.6253 33.2960 0.0000 0.0758 0.0000
# 3 29.2716 33.2960 68.8727 0.0000 9.6326 0.0000
# 4 0.0000 0.0000 0.0000 19.7692 0.0000 -2.8039
# 5 -1.6686 0.0758 9.6326 0.0000 34.1343 0.0000
# 6 0.0000 0.0000 0.0000 -2.8039 0.0000 24.2612
#
#
#
# Elastic Compliance Matrix: (Units=1/GPa)
#
#
# Indices 1 2 3 4 5 6 
#
# 1 0.008986 -0.002182 -0.002943 0.000000 0.001274 0.000000
# 2 -0.002182 0.009885 -0.003991 0.000000 0.000998 0.000000
# 3 -0.002943 -0.003991 0.018447 0.000000 -0.005341 0.000000
# 4 0.000000 0.000000 0.000000 0.051427 0.000000 0.005944
# 5 0.001274 0.000998 -0.005341 0.000000 0.030863 0.000000
# 6 0.000000 0.000000 0.000000 0.005944 0.000000 0.041905
#
#
# Mechanical properties :
#
#
# Convention : Reuss Voigt Hill
#
# Bulk Modulus (GPa) = 52.39269 58.94345 55.66807
# Shear Modulus (GPa) = 26.86652 30.30408 28.58530
#
# Velocity S-wave (km/s) = 3.59722 3.82042 3.71050
# Velocity P-wave (km/s) = 6.51826 6.91739 6.72079
#
# Compressibility (1/GPa) = 0.01908663
#
# Stress axis : x y z
#
# Youngs Moduli (GPa) = 111.28980 101.16151 54.21041
#
# Poissons Ratio (x) = 0.22069 0.15952
# Poissons Ratio (y) = 0.24278 0.21637
# Poissons Ratio (z) = 0.32747 0.40376
#
# Static dielectric constant tensor:
#      x y z
#    x 3.809910 0.000000 0.119320 
#    y 0.000000 3.792940 0.000000 
#    z 0.119320 0.000000 3.740360 
# 
# 
# High freq. dielectric constant tensor:
#      x y z
#    x 1.824940 0.000000 0.008840 
#    y 0.000000 1.806730 0.000000 
#    z 0.008840 0.000000 1.808510 
# 
# From -- ./inp_files/80407.got.cif
#   From: 2010.06.25/outbox.cif.g09.slc.cpg/sg13_41_cif.got.tgz:80407.got - 2010.06.28 04:50:58.
