data_PCOD8120575
_publ_section_title
;
Structure prediction by ZEFSAII (Michael W. Deem and Ramdas Pophale) SiO2 
 PCOD8120575
Probable space group: P 2/C
;
_chemical_formula_sum "Si O2"
_cell_formula_units_Z 32
_cell_length_a 16.670987
_cell_length_b 15.841058
_cell_length_c 11.532158
_cell_angle_alpha 90.000000
_cell_angle_beta 30.899743
_cell_angle_gamma 90.000000
_cell_volume 1563.969076
_symmetry_space_group_name_H-M "P 2/C"
_symmetry_group_IT_number 13
_symmetry_cell_setting 'monoclinic'
loop_
_space_group_symop_operation_xyz
x,y,z
-x,y,1/2-z
-x,-y,-z
x,-y,1/2+z
loop_
_atom_site_type_symbol
_atom_site_label
_atom_site_fract_x
_atom_site_fract_y
_atom_site_fract_z
Si Si1 0.664401 0.417717 0.604692
Si Si2 0.074187 0.407969 0.410121
Si Si3 0.848700 0.121428 0.867746
Si Si4 0.184752 0.291826 0.709366
Si Si5 0.555339 0.300642 0.932008
Si Si6 0.630011 0.985331 0.493490
Si Si7 0.412316 0.128621 0.121062
Si Si8 0.276947 0.598003 0.876042
O O1 0.500000 0.438663 0.750000
O O2 0.791878 0.395751 0.350337
O O3 0.652181 0.337131 0.704014
O O4 0.717432 0.498180 0.611647
O O5 0.139315 0.386089 0.456094
O O6 0.000000 0.500000 0.500000
O O7 0.939873 0.339014 0.554003
O O8 0.890939 0.205687 0.744462
O O9 0.789682 0.047583 0.854703
O O10 0.000000 0.088637 0.750000
O O11 0.709517 0.146575 0.126101
O O12 0.334104 0.269687 0.601413
O O13 0.238002 0.353912 0.541620
O O14 0.459399 0.218664 0.008533
O O15 0.442103 0.373389 0.119537
O O16 0.566457 0.916903 0.480458
O O17 0.668273 0.071997 0.378602
O O18 0.500000 0.005825 0.750000
#
# Coordination Sequence:
#
# PCOD8120575 Si02
#       8
#     4   4   4   4   4   4   4   4
#     4  12  26  43  63  94 132 176 232 277 331 390
#     4  12  26  44  63  92 134 180 221 278 336 394
#     4  11  22  38  66  99 132 169 216 277 329 396
#     4  12  24  40  65  97 131 171 229 276 330 391
#     4  12  24  41  68  94 130 172 224 279 333 391
#     4   9  20  41  66  95 128 164 216 259 329 406
#     4  10  21  40  66  95 127 168 214 270 325 399
#     4  12  24  41  66  93 128 178 223 277 325 386
#
# _framework density 20.460761999999999
#
# number of rings (size 3 to 8) (size 9 to 14) (size 15 to 20)
#    0.000    0.750    5.000    3.375    0.000    2.500 
#    0.000    0.000    0.000    0.000    0.000    0.000 
#    0.000    0.000    0.000    0.000    0.000    0.000 
#
# Total GULP energy -397004.272065 kJ/mol
# GULP energy per Si atom -12406.383502 kJ/mol
# Density = 2.041419 g / cm^3
# Si number density = 20.460762 Si / 1000 Ang^3
#
#
#
# Elastic Constant Matrix: (Units=GPa)
#
#
# Indices 1 2 3 4 5 6 
#
# 1 100.9029 44.5749 22.3347 0.0000 -12.9282 0.0000
# 2 44.5749 120.5698 41.2888 0.0000 8.1198 0.0000
# 3 22.3347 41.2888 99.7540 0.0000 5.6015 0.0000
# 4 0.0000 0.0000 0.0000 28.5557 0.0000 2.4487
# 5 -12.9282 8.1198 5.6015 0.0000 34.2572 0.0000
# 6 0.0000 0.0000 0.0000 2.4487 0.0000 34.4735
#
#
#
# Elastic Compliance Matrix: (Units=1/GPa)
#
#
# Indices 1 2 3 4 5 6 
#
# 1 0.013146 -0.004843 -0.001294 0.000000 0.006321 0.000000
# 2 -0.004843 0.011541 -0.003468 0.000000 -0.003996 0.000000
# 3 -0.001294 -0.003468 0.011840 0.000000 -0.001602 0.000000
# 4 0.000000 0.000000 0.000000 0.035234 0.000000 -0.002503
# 5 0.006321 -0.003996 -0.001602 0.000000 0.032785 0.000000
# 6 0.000000 0.000000 0.000000 -0.002503 0.000000 0.029186
#
#
# Mechanical properties :
#
#
# Convention : Reuss Voigt Hill
#
# Bulk Modulus (GPa) = 57.74558 59.73594 58.74076
# Shear Modulus (GPa) = 31.50323 33.65918 32.58120
#
# Velocity S-wave (km/s) = 3.92814 4.06033 3.99479
# Velocity P-wave (km/s) = 6.98982 7.15825 7.07454
#
# Compressibility (1/GPa) = 0.01731734
#
# Stress axis : x y z
#
# Youngs Moduli (GPa) = 76.06850 86.64672 84.46040
#
# Poissons Ratio (x) = 0.41960 0.10928
# Poissons Ratio (y) = 0.36838 0.29293
# Poissons Ratio (z) = 0.09842 0.30052
#
# Static dielectric constant tensor:
#      x y z
#    x 3.846220 0.000000 0.007690 
#    y 0.000000 3.658060 0.000000 
#    z 0.007690 0.000000 3.729620 
# 
# 
# High freq. dielectric constant tensor:
#      x y z
#    x 1.805710 0.000000 -0.001370 
#    y 0.000000 1.797400 0.000000 
#    z -0.001370 0.000000 1.794510 
# 
# From -- ./inp_files/39463.got.cif
#   From: 2010.06.25/outbox.cif.g09.slc.cpg/sg13_20_cif.got.tgz:39463.got - 2010.06.28 04:50:58.
