data_PCOD8120105
_publ_section_title
;
Structure prediction by ZEFSAII (Michael W. Deem and Ramdas Pophale) SiO2 
 PCOD8120105
Probable space group: P 2/C
;
_chemical_formula_sum "Si O2"
_cell_formula_units_Z 26
_cell_length_a 14.785746
_cell_length_b 6.052657
_cell_length_c 13.889909
_cell_angle_alpha 90.000000
_cell_angle_beta 95.111936
_cell_angle_gamma 90.000000
_cell_volume 1238.106106
_symmetry_space_group_name_H-M "P 2/C"
_symmetry_group_IT_number 13
_symmetry_cell_setting 'monoclinic'
loop_
_space_group_symop_operation_xyz
x,y,z
-x,y,1/2-z
-x,-y,-z
x,-y,1/2+z
loop_
_atom_site_type_symbol
_atom_site_label
_atom_site_fract_x
_atom_site_fract_y
_atom_site_fract_z
Si Si1 0.441171 0.791829 0.459344
Si Si2 0.750709 0.289649 0.069633
Si Si3 0.314951 0.640779 0.293548
Si Si4 0.065665 0.517343 0.418292
Si Si5 0.386170 0.437713 0.589233
Si Si6 0.000000 0.202621 0.250000
Si Si7 0.849859 0.095577 0.678505
O O1 0.370631 0.822879 0.363324
O O2 0.383422 0.686532 0.543387
O O3 0.509813 0.622887 0.415939
O O4 0.500000 0.000000 0.500000
O O5 0.697379 0.409677 0.151600
O O6 0.834425 0.438334 0.042445
O O7 0.786538 0.049381 0.102049
O O8 0.680491 0.269324 0.974283
O O9 0.362687 0.573747 0.199010
O O10 0.215164 0.745481 0.264649
O O11 0.015104 0.355438 0.341611
O O12 0.077332 0.764008 0.377279
O O13 0.000000 0.500000 0.500000
O O14 0.090867 0.055042 0.243743
#
# Coordination Sequence:
#
# PCOD8120105 Si02
#       7
#     4   4   4   4   4   2   4
#     4  10  21  39  60  87 121 156 197 244 296 355
#     4   9  21  37  55  85 118 151 196 246 297 357
#     4  10  21  38  59  87 118 154 200 247 295 355
#     4  10  22  38  58  84 117 155 198 247 298 357
#     4  10  21  37  60  86 118 155 195 245 296 353
#     4  10  22  38  58  86 116 154 200 248 296 354
#     4  10  21  38  58  83 121 156 195 247 299 354
#
# _framework density 20.999815999999999
#
# number of rings (size 3 to 8) (size 9 to 14) (size 15 to 20)
#    0.000    2.154    0.000    1.846    0.000    9.846 
#    0.000    4.615    0.000    0.000    0.000    0.000 
#    0.000    0.000    0.000    0.000    0.000    0.000 
#
# Total GULP energy -322189.064220 kJ/mol
# GULP energy per Si atom -12391.887085 kJ/mol
# Density = 2.095202 g / cm^3
# Si number density = 20.999816 Si / 1000 Ang^3
#
#
#
# Elastic Constant Matrix: (Units=GPa)
#
#
# Indices 1 2 3 4 5 6 
#
# 1 107.9848 36.3558 64.2281 0.0000 0.5099 0.0000
# 2 36.3558 95.7196 42.1514 0.0000 -2.2111 0.0000
# 3 64.2281 42.1514 135.2727 0.0000 -17.0248 0.0000
# 4 0.0000 0.0000 0.0000 13.7638 0.0000 1.5321
# 5 0.5099 -2.2111 -17.0248 0.0000 39.4390 0.0000
# 6 0.0000 0.0000 0.0000 1.5321 0.0000 10.9734
#
#
#
# Elastic Compliance Matrix: (Units=1/GPa)
#
#
# Indices 1 2 3 4 5 6 
#
# 1 0.013785 -0.002617 -0.006102 0.000000 -0.002959 0.000000
# 2 -0.002617 0.012643 -0.002753 0.000000 -0.000446 0.000000
# 3 -0.006102 -0.002753 0.011778 0.000000 0.005009 0.000000
# 4 0.000000 0.000000 0.000000 0.073801 0.000000 -0.010304
# 5 -0.002959 -0.000446 0.005009 0.000000 0.027531 0.000000
# 6 0.000000 0.000000 0.000000 -0.010304 0.000000 0.092568
#
#
# Mechanical properties :
#
#
# Convention : Reuss Voigt Hill
#
# Bulk Modulus (GPa) = 65.52349 69.38308 67.45328
# Shear Modulus (GPa) = 19.22046 25.91802 22.56924
#
# Velocity S-wave (km/s) = 3.02862 3.51693 3.28187
# Velocity P-wave (km/s) = 6.59543 7.04296 6.82287
#
# Compressibility (1/GPa) = 0.01526170
#
# Stress axis : x y z
#
# Youngs Moduli (GPa) = 72.54196 79.09339 84.90297
#
# Poissons Ratio (x) = 0.20698 0.51810
# Poissons Ratio (y) = 0.18984 0.23376
# Poissons Ratio (z) = 0.44267 0.21776
#
# Static dielectric constant tensor:
#      x y z
#    x 4.173800 0.000000 0.090470 
#    y 0.000000 3.972590 0.000000 
#    z 0.090470 0.000000 3.478400 
# 
# 
# High freq. dielectric constant tensor:
#      x y z
#    x 1.849390 0.000000 0.008270 
#    y 0.000000 1.818750 0.000000 
#    z 0.008270 0.000000 1.794950 
# 
# From -- ./inp_files/52194.got.cif
#   From: 2010.06.25/outbox.cif.g09.slc.cpg/sg13_27_cif.got.tgz:52194.got - 2010.06.28 04:50:58.
