data_PCOD8120003
_publ_section_title
;
Structure prediction by ZEFSAII (Michael W. Deem and Ramdas Pophale) SiO2 
 PCOD8120003
Probable space group: P 2/C
;
_chemical_formula_sum "Si O2"
_cell_formula_units_Z 32
_cell_length_a 14.768969
_cell_length_b 15.490996
_cell_length_c 21.710758
_cell_angle_alpha 90.000000
_cell_angle_beta 162.781204
_cell_angle_gamma 90.000000
_cell_volume 1470.373401
_symmetry_space_group_name_H-M "P 2/C"
_symmetry_group_IT_number 13
_symmetry_cell_setting 'monoclinic'
loop_
_space_group_symop_operation_xyz
x,y,z
-x,y,1/2-z
-x,-y,-z
x,-y,1/2+z
loop_
_atom_site_type_symbol
_atom_site_label
_atom_site_fract_x
_atom_site_fract_y
_atom_site_fract_z
Si Si1 0.440867 0.238255 0.084394
Si Si2 0.500023 0.159326 0.000028
Si Si3 0.440912 0.761724 0.084395
Si Si4 0.894598 0.906160 0.057635
Si Si5 0.363834 0.597707 0.229491
Si Si6 0.000052 0.848202 0.000037
Si Si7 0.894453 0.906139 0.557543
Si Si8 0.363829 0.597713 0.729487
O O1 0.345262 0.221638 0.951340
O O2 0.427880 0.339743 0.092142
O O3 0.791285 0.213071 0.323059
O O4 0.250987 0.176878 0.005848
O O5 0.744522 0.097952 0.192187
O O6 0.654680 0.221669 0.048652
O O7 0.255592 0.097929 0.807912
O O8 0.427879 0.660243 0.092133
O O9 0.791330 0.786907 0.323064
O O10 0.251054 0.823122 0.005852
O O11 0.829168 0.905737 0.940987
O O12 0.776636 0.000003 0.005413
O O13 0.500000 0.612992 0.250000
O O14 0.428053 0.499997 0.292806
O O15 0.000004 0.617071 0.000002
O O16 0.171108 0.905676 0.059186
O O17 0.500000 0.612992 0.750000
#
# Coordination Sequence:
#
# PCOD8120003 Si02
#       8
#     4   4   4   4   4   4   4   4
#     4  11  22  39  61  88 124 163 204 260 314 374
#     4  10  25  40  57  82 120 170 213 256 309 372
#     4  11  22  39  61  88 124 163 204 260 314 374
#     4  11  23  39  59  85 120 164 212 260 313 372
#     4  10  21  39  68 101 129 161 206 261 322 384
#     4  10  21  36  59  88 118 154 203 264 315 366
#     4  11  23  39  59  85 120 164 212 260 313 372
#     4  10  21  39  68 101 129 161 206 261 322 384
#
# _framework density 21.763179999999998
#
# number of rings (size 3 to 8) (size 9 to 14) (size 15 to 20)
#    0.000    1.500    1.250    3.750    3.500    8.000 
#    0.000    0.625    0.000    3.000    0.000    0.000 
#    0.000    0.000    0.000    0.000    0.000    0.000 
#
# Total GULP energy -396476.920597 kJ/mol
# GULP energy per Si atom -12389.903769 kJ/mol
# Density = 2.171365 g / cm^3
# Si number density = 21.763180 Si / 1000 Ang^3
#
#
#
# Elastic Constant Matrix: (Units=GPa)
#
#
# Indices 1 2 3 4 5 6 
#
# 1 157.2626 54.1530 22.1126 0.0000 -6.7743 0.0000
# 2 54.1530 171.3657 23.2861 0.0000 -7.8350 0.0000
# 3 22.1126 23.2861 25.3570 0.0000 -8.6109 0.0000
# 4 0.0000 0.0000 0.0000 36.3753 0.0000 2.5935
# 5 -6.7743 -7.8350 -8.6109 0.0000 41.0524 0.0000
# 6 0.0000 0.0000 0.0000 2.5935 0.0000 24.6113
#
#
#
# Elastic Compliance Matrix: (Units=1/GPa)
#
#
# Indices 1 2 3 4 5 6 
#
# 1 0.007673 -0.001731 -0.005150 0.000000 -0.000145 0.000000
# 2 -0.001731 0.007058 -0.004965 0.000000 0.000020 0.000000
# 3 -0.005150 -0.004965 0.051549 0.000000 0.009015 0.000000
# 4 0.000000 0.000000 0.000000 0.027699 0.000000 -0.002919
# 5 -0.000145 0.000020 0.009015 0.000000 0.026230 0.000000
# 6 0.000000 0.000000 0.000000 -0.002919 0.000000 0.040939
#
#
# Mechanical properties :
#
#
# Convention : Reuss Voigt Hill
#
# Bulk Modulus (GPa) = 23.48156 61.45430 42.46793
# Shear Modulus (GPa) = 25.12084 37.37004 31.24544
#
# Velocity S-wave (km/s) = 3.40116 4.14831 3.79318
# Velocity P-wave (km/s) = 5.12219 7.15847 6.22417
#
# Compressibility (1/GPa) = 0.04258661
#
# Stress axis : x y z
#
# Youngs Moduli (GPa) = 130.32774 141.67851 19.39903
#
# Poissons Ratio (x) = 0.24531 0.09991
# Poissons Ratio (y) = 0.22566 0.09632
# Poissons Ratio (z) = 0.67122 0.70345
#
# Static dielectric constant tensor:
#      x y z
#    x 4.072690 0.000000 -0.093640 
#    y 0.000000 4.065640 0.000000 
#    z -0.093640 0.000000 4.076800 
# 
# 
# High freq. dielectric constant tensor:
#      x y z
#    x 1.858970 0.000000 0.006990 
#    y 0.000000 1.850600 0.000000 
#    z 0.006990 0.000000 1.844270 
# 
# From -- ./inp_files/80403.got.cif
#   From: 2010.06.25/outbox.cif.g09.slc.cpg/sg13_41_cif.got.tgz:80403.got - 2010.06.28 04:50:58.
