data_PCOD8120744
_publ_section_title
;
Structure prediction by ZEFSAII (Michael W. Deem and Ramdas Pophale) SiO2 
 PCOD8120744
Probable space group: P 2/C
;
_chemical_formula_sum "Si O2"
_cell_formula_units_Z 18
_cell_length_a 22.721987
_cell_length_b 8.045563
_cell_length_c 15.968404
_cell_angle_alpha 90.000000
_cell_angle_beta 17.822982
_cell_angle_gamma 90.000000
_cell_volume 893.501374
_symmetry_space_group_name_H-M "P 2/C"
_symmetry_group_IT_number 13
_symmetry_cell_setting 'monoclinic'
loop_
_space_group_symop_operation_xyz
x,y,z
-x,y,1/2-z
-x,-y,-z
x,-y,1/2+z
loop_
_atom_site_type_symbol
_atom_site_label
_atom_site_fract_x
_atom_site_fract_y
_atom_site_fract_z
Si Si1 0.636839 0.901946 0.704205
Si Si2 0.812751 0.764464 0.953001
Si Si3 0.195493 0.588286 0.713908
Si Si4 0.500000 0.334334 0.250000
Si Si5 0.406147 0.800306 0.558644
O O1 0.623641 0.778236 0.644913
O O2 0.673796 0.795155 0.738366
O O3 0.809118 0.033335 0.451658
O O4 0.437766 0.007037 0.986663
O O5 0.614634 0.706402 0.267919
O O6 0.817821 0.684199 0.855195
O O7 0.000000 0.704072 0.750000
O O8 0.357000 0.447633 0.496438
O O9 0.244916 0.720541 0.718735
O O10 0.000000 0.500000 0.000000
#
# Coordination Sequence:
#
# PCOD8120744 Si02
#       5
#     4   4   4   2   4
#     4   9  21  38  72  86 118 169 208 268 317 351
#     4  10  21  42  65  90 124 165 210 266 310 367
#     4  12  26  39  64  93 132 174 202 251 326 386
#     4  12  22  42  60  96 130 162 208 264 312 382
#     4   9  20  45  63  89 127 165 210 262 314 362
#
# _framework density 20.145465000000002
#
# number of rings (size 3 to 8) (size 9 to 14) (size 15 to 20)
#    1.333    0.444    2.222    1.333    3.111    4.444 
#    0.000    3.333    0.000    0.000    0.000    0.000 
#    0.000    0.000    0.000    0.000    0.000    0.000 
#
# Total GULP energy -223114.963562 kJ/mol
# GULP energy per Si atom -12395.275753 kJ/mol
# Density = 2.009961 g / cm^3
# Si number density = 20.145465 Si / 1000 Ang^3
#
#
#
# Elastic Constant Matrix: (Units=GPa)
#
#
# Indices 1 2 3 4 5 6 
#
# 1 121.7066 49.5431 12.7057 0.0000 -4.2636 0.0000
# 2 49.5431 65.6220 20.3820 0.0000 0.2885 0.0000
# 3 12.7057 20.3820 70.8219 0.0000 -5.9960 0.0000
# 4 0.0000 0.0000 0.0000 27.0121 0.0000 15.2289
# 5 -4.2636 0.2885 -5.9960 0.0000 34.0495 0.0000
# 6 0.0000 0.0000 0.0000 15.2289 0.0000 -31.4270
#
#
#
# Elastic Compliance Matrix: (Units=1/GPa)
#
#
# Indices 1 2 3 4 5 6 
#
# 1 0.011973 -0.009251 0.000658 0.000000 0.001693 0.000000
# 2 -0.009251 0.023917 -0.005419 0.000000 -0.002315 0.000000
# 3 0.000658 -0.005419 0.015808 0.000000 0.002912 0.000000
# 4 0.000000 0.000000 0.000000 0.029077 0.000000 0.014090
# 5 0.001693 -0.002315 0.002912 0.000000 0.030114 0.000000
# 6 0.000000 0.000000 0.000000 0.014090 0.000000 -0.024992
#
#
# Mechanical properties :
#
#
# Convention : Reuss Voigt Hill
#
# Bulk Modulus (GPa) = 42.24340 47.04578 44.64459
# Shear Modulus (GPa) = 41.04688 17.62823 29.33756
#
# Velocity S-wave (km/s) = 4.51879 2.96133 3.82027
# Velocity P-wave (km/s) = 6.94555 5.92422 6.45512
#
# Compressibility (1/GPa) = 0.02367234
#
# Stress axis : x y z
#
# Youngs Moduli (GPa) = 83.52152 41.81205 63.25871
#
# Poissons Ratio (x) = 0.38681 -0.04161
# Poissons Ratio (y) = 0.77266 0.34282
# Poissons Ratio (z) = -0.05494 0.22659
#
# Static dielectric constant tensor:
#      x y z
#    x 3.567170 0.000000 0.021000 
#    y 0.000000 3.646400 0.000000 
#    z 0.021000 0.000000 3.610640 
# 
# 
# High freq. dielectric constant tensor:
#      x y z
#    x 1.792790 0.000000 0.004730 
#    y 0.000000 1.781000 0.000000 
#    z 0.004730 0.000000 1.766020 
# 
# From -- ./inp_files/56978.got.cif
#   From: 2010.06.25/outbox.cif.g09.slc.cpg/sg13_29_cif.got.tgz:56978.got - 2010.06.28 04:50:58.
