data_PCOD8120257
_publ_section_title
;
Structure prediction by ZEFSAII (Michael W. Deem and Ramdas Pophale) SiO2 
 PCOD8120257
Probable space group: P 2/C
;
_chemical_formula_sum "Si O2"
_cell_formula_units_Z 28
_cell_length_a 13.393068
_cell_length_b 16.167511
_cell_length_c 9.122235
_cell_angle_alpha 90.000000
_cell_angle_beta 134.466187
_cell_angle_gamma 90.000000
_cell_volume 1409.672617
_symmetry_space_group_name_H-M "P 2/C"
_symmetry_group_IT_number 13
_symmetry_cell_setting 'monoclinic'
loop_
_space_group_symop_operation_xyz
x,y,z
-x,y,1/2-z
-x,-y,-z
x,-y,1/2+z
loop_
_atom_site_type_symbol
_atom_site_label
_atom_site_fract_x
_atom_site_fract_y
_atom_site_fract_z
Si Si1 0.839920 0.444427 0.053723
Si Si2 0.508292 0.293624 0.086345
Si Si3 0.826493 0.956841 0.687215
Si Si4 0.384432 0.170455 0.522552
Si Si5 0.652072 0.544769 0.646278
Si Si6 0.244086 0.273434 0.626850
Si Si7 0.881315 0.102561 0.930648
O O1 0.721111 0.450253 0.057198
O O2 0.000000 0.474436 0.250000
O O3 0.775597 0.503458 0.865247
O O4 0.856563 0.350113 0.013408
O O5 0.500000 0.280582 0.250000
O O6 0.556649 0.208220 0.065251
O O7 0.623372 0.363440 0.174431
O O8 0.359805 0.312793 0.855530
O O9 0.695566 0.909331 0.619313
O O10 0.817924 0.946919 0.503588
O O11 0.828229 0.053688 0.731398
O O12 0.953102 0.904607 0.887587
O O13 0.300940 0.239660 0.530357
O O14 0.500000 0.134641 0.750000
O O15 0.500000 0.500000 0.500000
O O16 0.161904 0.198646 0.623271
#
# Coordination Sequence:
#
# PCOD8120257 Si02
#       7
#     4   4   4   4   4   4   4
#     4  12  26  42  67  97 131 165 214 274 326 377
#     4  11  22  38  60  90 122 161 213 265 310 384
#     4   9  18  35  57  85 116 161 199 254 308 378
#     4   9  19  36  58  84 116 154 208 254 302 377
#     4  12  24  43  67  94 125 171 217 259 327 396
#     4  10  21  38  61  91 121 164 214 257 314 379
#     4   9  19  34  59  85 121 156 209 251 310 380
#
# _framework density 19.862767999999999
#
# number of rings (size 3 to 8) (size 9 to 14) (size 15 to 20)
#    0.000    1.714    2.857    1.714    4.000    1.143 
#    0.000    7.143    0.000    0.000    0.000    0.000 
#    0.000    0.000    0.000    0.000    0.000    0.000 
#
# Total GULP energy -346949.132208 kJ/mol
# GULP energy per Si atom -12391.040436 kJ/mol
# Density = 1.981756 g / cm^3
# Si number density = 19.862768 Si / 1000 Ang^3
#
#
#
# Elastic Constant Matrix: (Units=GPa)
#
#
# Indices 1 2 3 4 5 6 
#
# 1 74.2556 29.8124 22.9679 0.0000 4.1225 0.0000
# 2 29.8124 88.6332 45.0475 0.0000 6.3988 0.0000
# 3 22.9679 45.0475 71.4470 0.0000 7.4398 0.0000
# 4 0.0000 0.0000 0.0000 -20.7530 0.0000 68.0243
# 5 4.1225 6.3988 7.4398 0.0000 36.8193 0.0000
# 6 0.0000 0.0000 0.0000 68.0243 0.0000 -50.0861
#
#
#
# Elastic Compliance Matrix: (Units=1/GPa)
#
#
# Indices 1 2 3 4 5 6 
#
# 1 0.015892 -0.004029 -0.002509 0.000000 -0.000572 0.000000
# 2 -0.004029 0.017647 -0.009764 0.000000 -0.000643 0.000000
# 3 -0.002509 -0.009764 0.021199 0.000000 -0.002306 0.000000
# 4 0.000000 0.000000 0.000000 0.013960 0.000000 0.018960
# 5 -0.000572 -0.000643 -0.002306 0.000000 0.027801 0.000000
# 6 0.000000 0.000000 0.000000 0.018960 0.000000 0.005784
#
#
# Mechanical properties :
#
#
# Convention : Reuss Voigt Hill
#
# Bulk Modulus (GPa) = 45.17915 47.77683 46.47799
# Shear Modulus (GPa) = 35.14542 2.29657 18.72099
#
# Velocity S-wave (km/s) = 4.21100 1.07644 3.07337
# Velocity P-wave (km/s) = 6.81457 5.06465 6.00371
#
# Compressibility (1/GPa) = 0.02213410
#
# Stress axis : x y z
#
# Youngs Moduli (GPa) = 62.92315 56.66810 47.17125
#
# Poissons Ratio (x) = 0.22832 0.11835
# Poissons Ratio (y) = 0.25352 0.46059
# Poissons Ratio (z) = 0.15787 0.55331
#
# Static dielectric constant tensor:
#      x y z
#    x 3.607930 0.000000 0.149020 
#    y 0.000000 3.761900 0.000000 
#    z 0.149020 0.000000 3.584430 
# 
# 
# High freq. dielectric constant tensor:
#      x y z
#    x 1.766390 0.000000 0.004720 
#    y 0.000000 1.771990 0.000000 
#    z 0.004720 0.000000 1.774240 
# 
# From -- ./inp_files/20103.got.cif
#   From: 2010.06.25/outbox.cif.g09.slc.cpg/sg13_11_cif.got.tgz:20103.got - 2010.06.28 04:50:58.
