data_PCOD8120519
_publ_section_title
;
Structure prediction by ZEFSAII (Michael W. Deem and Ramdas Pophale) SiO2 
 PCOD8120519
Probable space group: P 2/C
;
_chemical_formula_sum "Si O2"
_cell_formula_units_Z 20
_cell_length_a 18.525516
_cell_length_b 11.354650
_cell_length_c 15.240766
_cell_angle_alpha 90.000000
_cell_angle_beta 18.719904
_cell_angle_gamma 90.000000
_cell_volume 1028.910137
_symmetry_space_group_name_H-M "P 2/C"
_symmetry_group_IT_number 13
_symmetry_cell_setting 'monoclinic'
loop_
_space_group_symop_operation_xyz
x,y,z
-x,y,1/2-z
-x,-y,-z
x,-y,1/2+z
loop_
_atom_site_type_symbol
_atom_site_label
_atom_site_fract_x
_atom_site_fract_y
_atom_site_fract_z
Si Si1 0.968523 0.637161 0.023063
Si Si2 0.061067 0.239732 0.585406
Si Si3 0.439337 0.781778 0.046744
Si Si4 0.370135 0.794696 0.485651
Si Si5 0.820435 0.039600 0.775205
O O1 0.732258 0.671042 0.249546
O O2 0.936122 0.681951 0.158453
O O3 0.000000 0.500000 0.000000
O O4 0.173379 0.701334 0.736000
O O5 0.000000 0.290887 0.750000
O O6 0.951357 0.109965 0.701030
O O7 0.325489 0.253397 0.266756
O O8 0.472830 0.817068 0.110099
O O9 0.356057 0.886398 0.079594
O O10 0.500000 0.745680 0.250000
O O11 0.281074 0.924192 0.561867
O O12 0.000000 0.000000 0.500000
#
# Coordination Sequence:
#
# PCOD8120519 Si02
#       5
#     4   4   4   4   4
#     4  10  23  46  62  85 123 164 213 260 308 365
#     4  10  23  38  60  95 118 161 212 248 314 374
#     4  10  21  40  63  81 128 164 196 255 314 358
#     4  11  24  38  60  97 124 161 210 251 313 371
#     4  11  20  37  59  87 128 162 201 247 309 382
#
# _framework density 19.438044000000001
#
# number of rings (size 3 to 8) (size 9 to 14) (size 15 to 20)
#    0.000    1.600    6.000    0.600    2.800    6.400 
#    7.200    0.000    0.000    0.000    0.000    0.000 
#    0.000    0.000    0.000    0.000    0.000    0.000 
#
# Total GULP energy -247808.408247 kJ/mol
# GULP energy per Si atom -12390.420412 kJ/mol
# Density = 1.939380 g / cm^3
# Si number density = 19.438044 Si / 1000 Ang^3
#
#
#
# Elastic Constant Matrix: (Units=GPa)
#
#
# Indices 1 2 3 4 5 6 
#
# 1 81.1031 13.1791 61.0745 0.0000 18.6184 0.0000
# 2 13.1791 126.8135 42.2507 0.0000 -4.5479 0.0000
# 3 61.0745 42.2507 106.7383 0.0000 3.1522 0.0000
# 4 0.0000 0.0000 0.0000 17.3779 0.0000 -3.3179
# 5 18.6184 -4.5479 3.1522 0.0000 43.8821 0.0000
# 6 0.0000 0.0000 0.0000 -3.3179 0.0000 14.3254
#
#
#
# Elastic Compliance Matrix: (Units=1/GPa)
#
#
# Indices 1 2 3 4 5 6 
#
# 1 0.025643 0.002057 -0.015204 0.000000 -0.009575 0.000000
# 2 0.002057 0.009312 -0.004876 0.000000 0.000443 0.000000
# 3 -0.015204 -0.004876 0.019865 0.000000 0.004519 0.000000
# 4 0.000000 0.000000 0.000000 0.060207 0.000000 0.013944
# 5 -0.009575 0.000443 0.004519 0.000000 0.026572 0.000000
# 6 0.000000 0.000000 0.000000 0.013944 0.000000 0.073036
#
#
# Mechanical properties :
#
#
# Convention : Reuss Voigt Hill
#
# Bulk Modulus (GPa) = 53.26519 60.85150 57.05834
# Shear Modulus (GPa) = 19.45976 28.32712 23.89344
#
# Velocity S-wave (km/s) = 3.16748 3.82161 3.50981
# Velocity P-wave (km/s) = 6.39056 7.13065 6.77073
#
# Compressibility (1/GPa) = 0.01877399
#
# Stress axis : x y z
#
# Youngs Moduli (GPa) = 38.99653 107.38443 50.33904
#
# Poissons Ratio (x) = -0.22092 0.76538
# Poissons Ratio (y) = -0.08023 0.24547
# Poissons Ratio (z) = 0.59292 0.52365
#
# Static dielectric constant tensor:
#      x y z
#    x 3.419110 0.000000 -0.050480 
#    y 0.000000 3.347510 0.000000 
#    z -0.050480 0.000000 3.566990 
# 
# 
# High freq. dielectric constant tensor:
#      x y z
#    x 1.761130 0.000000 -0.009680 
#    y 0.000000 1.740950 0.000000 
#    z -0.009680 0.000000 1.764180 
# 
# From -- ./inp_files/43413.got.cif
#   From: 2010.06.25/outbox.cif.g09.slc.cpg/sg13_22_cif.got.tgz:43413.got - 2010.06.28 04:50:58.
