data_PCOD8120136
_publ_section_title
;
Structure prediction by ZEFSAII (Michael W. Deem and Ramdas Pophale) SiO2 
 PCOD8120136
Probable space group: P 2/C
;
_chemical_formula_sum "Si O2"
_cell_formula_units_Z 26
_cell_length_a 23.627867
_cell_length_b 7.220182
_cell_length_c 19.873918
_cell_angle_alpha 90.000000
_cell_angle_beta 158.349192
_cell_angle_gamma 90.000000
_cell_volume 1250.899386
_symmetry_space_group_name_H-M "P 2/C"
_symmetry_group_IT_number 13
_symmetry_cell_setting 'monoclinic'
loop_
_space_group_symop_operation_xyz
x,y,z
-x,y,1/2-z
-x,-y,-z
x,-y,1/2+z
loop_
_atom_site_type_symbol
_atom_site_label
_atom_site_fract_x
_atom_site_fract_y
_atom_site_fract_z
Si Si1 0.910785 0.419890 0.050522
Si Si2 0.828779 0.756267 0.052617
Si Si3 0.500000 0.678766 0.250000
Si Si4 0.269226 0.479358 0.779524
Si Si5 0.505843 0.793909 0.478614
Si Si6 0.758048 0.536090 0.098064
Si Si7 0.696509 0.127498 0.866561
O O1 0.827514 0.574967 0.004242
O O2 0.093967 0.415635 0.262299
O O3 0.868823 0.454905 0.925957
O O4 0.852322 0.222458 0.012420
O O5 0.759872 0.714828 0.050770
O O6 0.000000 0.836041 0.250000
O O7 0.723493 0.908130 0.899630
O O8 0.590304 0.555927 0.405060
O O9 0.360680 0.800458 0.124801
O O10 0.404516 0.337606 0.913108
O O11 0.213877 0.418499 0.792653
O O12 0.327092 0.694714 0.841400
O O13 0.442799 0.812494 0.334349
O O14 0.500000 0.000000 0.500000
#
# Coordination Sequence:
#
# PCOD8120136 Si02
#       7
#     4   4   2   4   4   4   4
#     4  10  22  43  67  87 126 168 212 259 309 381
#     4  10  23  39  65  90 123 167 212 258 312 375
#     4  12  24  36  62  92 124 164 200 258 320 364
#     4  10  21  40  63  92 125 164 212 257 315 376
#     4  10  21  37  62  90 127 163 204 257 317 373
#     4  11  23  42  63  95 127 164 208 265 316 368
#     4  11  23  40  60  92 123 169 205 255 317 375
#
# _framework density 20.785045
#
# number of rings (size 3 to 8) (size 9 to 14) (size 15 to 20)
#    0.000    1.538    3.077    1.385    2.154    3.077 
#    0.000    0.000    0.000    7.385    0.000    0.000 
#    0.000    0.000    0.000    0.000    0.000    0.000 
#
# Total GULP energy -322283.735418 kJ/mol
# GULP energy per Si atom -12395.528285 kJ/mol
# Density = 2.073774 g / cm^3
# Si number density = 20.785045 Si / 1000 Ang^3
#
#
#
# Elastic Constant Matrix: (Units=GPa)
#
#
# Indices 1 2 3 4 5 6 
#
# 1 123.2287 36.4159 18.4376 0.0000 -13.5122 0.0000
# 2 36.4159 107.3910 27.0906 0.0000 -3.4656 0.0000
# 3 18.4376 27.0906 75.7746 0.0000 1.2689 0.0000
# 4 0.0000 0.0000 0.0000 21.3638 0.0000 -5.6922
# 5 -13.5122 -3.4656 1.2689 0.0000 19.7502 0.0000
# 6 0.0000 0.0000 0.0000 -5.6922 0.0000 26.1030
#
#
#
# Elastic Compliance Matrix: (Units=1/GPa)
#
#
# Indices 1 2 3 4 5 6 
#
# 1 0.009853 -0.002753 -0.001520 0.000000 0.006355 0.000000
# 2 -0.002753 0.011086 -0.003298 0.000000 0.000274 0.000000
# 3 -0.001520 -0.003298 0.014789 0.000000 -0.002569 0.000000
# 4 0.000000 0.000000 0.000000 0.049695 0.000000 0.010837
# 5 0.006355 0.000274 -0.002569 0.000000 0.055194 0.000000
# 6 0.000000 0.000000 0.000000 0.010837 0.000000 0.040673
#
#
# Mechanical properties :
#
#
# Convention : Reuss Voigt Hill
#
# Bulk Modulus (GPa) = 48.57517 52.25361 50.41439
# Shear Modulus (GPa) = 24.59506 28.40676 26.50091
#
# Velocity S-wave (km/s) = 3.44365 3.70089 3.57459
# Velocity P-wave (km/s) = 6.26360 6.59217 6.42998
#
# Compressibility (1/GPa) = 0.02058665
#
# Stress axis : x y z
#
# Youngs Moduli (GPa) = 101.49541 90.20373 67.61780
#
# Poissons Ratio (x) = 0.24829 0.10276
# Poissons Ratio (y) = 0.27937 0.22302
# Poissons Ratio (z) = 0.15424 0.29752
#
# Static dielectric constant tensor:
#      x y z
#    x 3.733490 0.000000 -0.040310 
#    y 0.000000 3.898680 0.000000 
#    z -0.040310 0.000000 3.604280 
# 
# 
# High freq. dielectric constant tensor:
#      x y z
#    x 1.823130 0.000000 -0.009890 
#    y 0.000000 1.793310 0.000000 
#    z -0.009890 0.000000 1.815310 
# 
# From -- ./inp_files/89451.got.cif
#   From: 2010.06.25/outbox.cif.g09.slc.cpg/sg13_45_cif.got.tgz:89451.got - 2010.06.28 04:50:58.
