data_PCOD8120254
_publ_section_title
;
Structure prediction by ZEFSAII (Michael W. Deem and Ramdas Pophale) SiO2 
 PCOD8120254
Probable space group: P 2/C
;
_chemical_formula_sum "Si O2"
_cell_formula_units_Z 24
_cell_length_a 14.170474
_cell_length_b 13.225053
_cell_length_c 9.838883
_cell_angle_alpha 90.000000
_cell_angle_beta 144.822928
_cell_angle_gamma 90.000000
_cell_volume 1062.256619
_symmetry_space_group_name_H-M "P 2/C"
_symmetry_group_IT_number 13
_symmetry_cell_setting 'monoclinic'
loop_
_space_group_symop_operation_xyz
x,y,z
-x,y,1/2-z
-x,-y,-z
x,-y,1/2+z
loop_
_atom_site_type_symbol
_atom_site_label
_atom_site_fract_x
_atom_site_fract_y
_atom_site_fract_z
Si Si1 0.187567 0.284649 0.486807
Si Si2 0.351411 0.925702 0.784334
Si Si3 0.693750 0.918279 0.475966
Si Si4 0.362732 0.701718 0.694932
Si Si5 0.147645 0.366198 0.718745
Si Si6 0.223911 0.403160 0.277662
O O1 0.212194 0.166028 0.497970
O O2 0.241812 0.314482 0.702301
O O3 0.285986 0.346063 0.486840
O O4 0.000000 0.316999 0.250000
O O5 0.402721 0.813713 0.798344
O O6 0.263003 0.976912 0.550467
O O7 0.240125 0.919787 0.789977
O O8 0.500000 0.000000 0.000000
O O9 0.500000 0.894529 0.250000
O O10 0.500000 0.665325 0.750000
O O11 0.193909 0.694589 0.410146
O O12 0.352073 0.623742 0.808755
O O13 0.214964 0.479906 0.803275
O O14 0.952472 0.360970 0.477495
#
# Coordination Sequence:
#
# PCOD8120254 Si02
#       6
#     4   4   4   4   4   4
#     4  10  21  38  61  89 121 158 208 261 316 373
#     4  10  22  40  62  90 121 168 212 253 319 391
#     4  10  21  38  63  83 118 160 206 255 315 381
#     4  12  24  38  64  99 130 162 216 269 312 375
#     4  10  23  39  69  89 126 173 215 258 317 389
#     4  10  21  45  62  91 126 174 215 256 320 381
#
# _framework density 22.593409000000001
#
# number of rings (size 3 to 8) (size 9 to 14) (size 15 to 20)
#    0.000    1.667    1.667    3.000    7.000    3.333 
#    0.000    4.167    0.000    0.000    0.000    0.000 
#    0.000    0.000    0.000    0.000    0.000    0.000 
#
# Total GULP energy -297502.600917 kJ/mol
# GULP energy per Si atom -12395.941705 kJ/mol
# Density = 2.254199 g / cm^3
# Si number density = 22.593409 Si / 1000 Ang^3
#
#
#
# Elastic Constant Matrix: (Units=GPa)
#
#
# Indices 1 2 3 4 5 6 
#
# 1 114.6159 29.2295 18.5109 0.0000 -35.1140 0.0000
# 2 29.2295 93.1840 12.1179 0.0000 -8.0526 0.0000
# 3 18.5109 12.1179 42.9649 0.0000 -23.7130 0.0000
# 4 0.0000 0.0000 0.0000 38.2729 0.0000 -10.2757
# 5 -35.1140 -8.0526 -23.7130 0.0000 34.0108 0.0000
# 6 0.0000 0.0000 0.0000 -10.2757 0.0000 39.1120
#
#
#
# Elastic Compliance Matrix: (Units=1/GPa)
#
#
# Indices 1 2 3 4 5 6 
#
# 1 0.014000 -0.003495 0.004023 0.000000 0.016432 0.000000
# 2 -0.003495 0.012023 -0.003748 0.000000 -0.003375 0.000000
# 3 0.004023 -0.003748 0.039665 0.000000 0.030921 0.000000
# 4 0.000000 0.000000 0.000000 0.028111 0.000000 0.007385
# 5 0.016432 -0.003375 0.030921 0.000000 0.067127 0.000000
# 6 0.000000 0.000000 0.000000 0.007385 0.000000 0.027508
#
#
# Mechanical properties :
#
#
# Convention : Reuss Voigt Hill
#
# Bulk Modulus (GPa) = 16.87799 41.16461 29.02130
# Shear Modulus (GPa) = 23.29658 35.00624 29.15141
#
# Velocity S-wave (km/s) = 3.21459 3.94051 3.59592
# Velocity P-wave (km/s) = 4.61136 6.24202 5.48760
#
# Compressibility (1/GPa) = 0.05924876
#
# Stress axis : x y z
#
# Youngs Moduli (GPa) = 71.42621 83.17079 25.21146
#
# Poissons Ratio (x) = 0.29066 -0.10142
# Poissons Ratio (y) = 0.24962 0.09449
# Poissons Ratio (z) = -0.28734 0.31172
#
# Static dielectric constant tensor:
#      x y z
#    x 4.408290 0.000000 -0.665990 
#    y 0.000000 3.935500 0.000000 
#    z -0.665990 0.000000 4.200210 
# 
# 
# High freq. dielectric constant tensor:
#      x y z
#    x 1.896300 0.000000 -0.039660 
#    y 0.000000 1.889160 0.000000 
#    z -0.039660 0.000000 1.871860 
# 
# From -- ./inp_files/19751.got.cif
#   From: 2010.06.25/outbox.cif.g09.slc.cpg/sg13_10_cif.got.tgz:19751.got - 2010.06.28 04:50:58.
