data_PCOD8120406
_publ_section_title
;
Structure prediction by ZEFSAII (Michael W. Deem and Ramdas Pophale) SiO2 
 PCOD8120406
Probable space group: P 2/C
;
_chemical_formula_sum "Si O2"
_cell_formula_units_Z 20
_cell_length_a 10.717406
_cell_length_b 5.202368
_cell_length_c 17.544172
_cell_angle_alpha 90.000000
_cell_angle_beta 97.804070
_cell_angle_gamma 90.000000
_cell_volume 969.131113
_symmetry_space_group_name_H-M "P 2/C"
_symmetry_group_IT_number 13
_symmetry_cell_setting 'monoclinic'
loop_
_space_group_symop_operation_xyz
x,y,z
-x,y,1/2-z
-x,-y,-z
x,-y,1/2+z
loop_
_atom_site_type_symbol
_atom_site_label
_atom_site_fract_x
_atom_site_fract_y
_atom_site_fract_z
Si Si1 0.627642 0.652067 0.224923
Si Si2 0.245903 0.508382 0.113740
Si Si3 0.654160 0.120914 0.574080
Si Si4 0.481430 0.617651 0.914749
Si Si5 0.143380 0.031949 0.033478
O O1 0.500000 0.779279 0.250000
O O2 0.731619 0.572775 0.295498
O O3 0.687283 0.847845 0.167099
O O4 0.582303 0.399799 0.174643
O O5 0.369691 0.399802 0.083592
O O6 0.149818 0.269662 0.094342
O O7 0.196603 0.768783 0.071912
O O8 0.572640 0.373370 0.539504
O O9 0.782478 0.099504 0.537963
O O10 0.561844 0.883446 0.552142
O O11 0.000000 0.000000 0.000000
#
# Coordination Sequence:
#
# PCOD8120406 Si02
#       5
#     4   4   4   4   4
#     4   8  20  38  62  97 124 151 194 260 328 377
#     4  11  23  40  68  92 124 163 209 256 318 373
#     4  10  21  39  64  90 135 153 199 256 321 368
#     4   9  20  36  65  96 124 146 196 261 329 367
#     4  12  27  43  60  87 131 175 217 252 293 358
#
# _framework density 20.637043999999999
#
# number of rings (size 3 to 8) (size 9 to 14) (size 15 to 20)
#    1.200    0.800    0.000    3.000    2.800    5.600 
#    0.000    1.000    0.000    0.000    0.000    0.000 
#    0.000    0.000    0.000    0.000    0.000    0.000 
#
# Total GULP energy -247867.958147 kJ/mol
# GULP energy per Si atom -12393.397907 kJ/mol
# Density = 2.059007 g / cm^3
# Si number density = 20.637044 Si / 1000 Ang^3
#
#
#
# Elastic Constant Matrix: (Units=GPa)
#
#
# Indices 1 2 3 4 5 6 
#
# 1 113.4110 67.0253 65.9483 0.0000 15.6925 0.0000
# 2 67.0253 149.7014 59.9539 0.0000 8.1200 0.0000
# 3 65.9483 59.9539 144.0445 0.0000 13.2189 0.0000
# 4 0.0000 0.0000 0.0000 31.4595 0.0000 7.6090
# 5 15.6925 8.1200 13.2189 0.0000 26.3285 0.0000
# 6 0.0000 0.0000 0.0000 7.6090 0.0000 22.9672
#
#
#
# Elastic Compliance Matrix: (Units=1/GPa)
#
#
# Indices 1 2 3 4 5 6 
#
# 1 0.014801 -0.004586 -0.004390 0.000000 -0.005203 0.000000
# 2 -0.004586 0.009455 -0.001907 0.000000 0.000775 0.000000
# 3 -0.004390 -0.001907 0.009908 0.000000 -0.001770 0.000000
# 4 0.000000 0.000000 0.000000 0.034556 0.000000 -0.011448
# 5 -0.005203 0.000775 -0.001770 0.000000 0.041733 0.000000
# 6 0.000000 0.000000 0.000000 -0.011448 0.000000 0.047333
#
#
# Mechanical properties :
#
#
# Convention : Reuss Voigt Hill
#
# Bulk Modulus (GPa) = 80.65751 88.11242 84.38496
# Shear Modulus (GPa) = 27.22072 30.43300 28.82686
#
# Velocity S-wave (km/s) = 3.63577 3.84432 3.74150
# Velocity P-wave (km/s) = 7.53617 7.90531 7.72295
#
# Compressibility (1/GPa) = 0.01239810
#
# Stress axis : x y z
#
# Youngs Moduli (GPa) = 67.56487 105.76465 100.92728
#
# Poissons Ratio (x) = 0.48507 0.44305
# Poissons Ratio (y) = 0.30987 0.19243
# Poissons Ratio (z) = 0.29660 0.20166
#
# Static dielectric constant tensor:
#      x y z
#    x 3.382390 0.000000 -0.024070 
#    y 0.000000 3.872590 0.000000 
#    z -0.024070 0.000000 4.137630 
# 
# 
# High freq. dielectric constant tensor:
#      x y z
#    x 1.766980 0.000000 0.004430 
#    y 0.000000 1.817590 0.000000 
#    z 0.004430 0.000000 1.839390 
# 
# From -- ./inp_files/48979.got.cif
#   From: 2010.06.25/outbox.cif.g09.slc.cpg/sg13_25_cif.got.tgz:48979.got - 2010.06.28 04:50:58.
