data_PCOD8120312
_publ_section_title
;
Structure prediction by ZEFSAII (Michael W. Deem and Ramdas Pophale) SiO2 
 PCOD8120312
Probable space group: P 2/C
;
_chemical_formula_sum "Si O2"
_cell_formula_units_Z 32
_cell_length_a 17.368686
_cell_length_b 16.525770
_cell_length_c 10.878747
_cell_angle_alpha 90.000000
_cell_angle_beta 149.777958
_cell_angle_gamma 90.000000
_cell_volume 1571.736320
_symmetry_space_group_name_H-M "P 2/C"
_symmetry_group_IT_number 13
_symmetry_cell_setting 'monoclinic'
loop_
_space_group_symop_operation_xyz
x,y,z
-x,y,1/2-z
-x,-y,-z
x,-y,1/2+z
loop_
_atom_site_type_symbol
_atom_site_label
_atom_site_fract_x
_atom_site_fract_y
_atom_site_fract_z
Si Si1 0.827598 0.270992 0.690503
Si Si2 0.848470 0.463622 0.104121
Si Si3 0.666700 0.385855 0.298456
Si Si4 0.663372 0.663972 0.198728
Si Si5 0.150932 0.344445 0.182137
Si Si6 0.344063 0.216415 0.599861
Si Si7 0.888507 0.078464 0.213088
Si Si8 0.928989 0.101382 0.785326
O O1 0.721199 0.304122 0.436881
O O2 0.757765 0.293265 0.723657
O O3 0.815653 0.174563 0.659128
O O4 0.998775 0.306995 0.911698
O O5 0.892825 0.420231 0.292209
O O6 0.000000 0.500688 0.250000
O O7 0.728200 0.536339 0.958963
O O8 0.779834 0.396767 0.920953
O O9 0.732728 0.385244 0.252652
O O10 0.482944 0.387352 0.047971
O O11 0.608211 0.734584 0.213198
O O12 0.234581 0.271923 0.366923
O O13 0.500000 0.191557 0.750000
O O14 0.258835 0.133273 0.515836
O O15 0.000000 0.093328 0.250000
O O16 0.954014 0.100214 0.438147
O O17 0.840177 0.984010 0.151920
O O18 0.000000 0.120782 0.750000
#
# Coordination Sequence:
#
# PCOD8120312 Si02
#       8
#     4   4   4   4   4   4   4   4
#     4  12  23  41  68  91 128 167 214 264 321 390
#     4  11  24  42  68  91 121 164 220 276 310 381
#     4  12  26  42  61  91 132 170 203 268 337 379
#     4  11  25  44  62  94 128 166 217 265 323 383
#     4  11  23  41  65  93 119 168 222 261 318 384
#     4  11  22  40  66  92 129 171 214 266 315 384
#     4  10  21  39  68 100 130 169 220 266 321 385
#     4  10  21  38  66 104 133 164 214 275 322 382
#
# _framework density 20.359649000000001
#
# number of rings (size 3 to 8) (size 9 to 14) (size 15 to 20)
#    0.000    1.000    3.750    3.375    1.750    1.000 
#    2.250    1.250    0.000    8.250    0.000    0.000 
#    0.000    0.000    0.000    0.000    0.000    0.000 
#
# Total GULP energy -396819.790773 kJ/mol
# GULP energy per Si atom -12400.618462 kJ/mol
# Density = 2.031331 g / cm^3
# Si number density = 20.359649 Si / 1000 Ang^3
#
#
#
# Elastic Constant Matrix: (Units=GPa)
#
#
# Indices 1 2 3 4 5 6 
#
# 1 57.1283 33.2296 13.8067 0.0000 0.6187 0.0000
# 2 33.2296 120.1169 16.8788 0.0000 6.0843 0.0000
# 3 13.8067 16.8788 53.4556 0.0000 -0.7806 0.0000
# 4 0.0000 0.0000 0.0000 0.9236 0.0000 2.0092
# 5 0.6187 6.0843 -0.7806 0.0000 32.1131 0.0000
# 6 0.0000 0.0000 0.0000 2.0092 0.0000 26.0507
#
#
#
# Elastic Compliance Matrix: (Units=1/GPa)
#
#
# Indices 1 2 3 4 5 6 
#
# 1 0.021607 -0.005463 -0.003848 0.000000 0.000525 0.000000
# 2 -0.005463 0.010189 -0.001833 0.000000 -0.001870 0.000000
# 3 -0.003848 -0.001833 0.020293 0.000000 0.000915 0.000000
# 4 0.000000 0.000000 0.000000 1.300975 0.000000 -0.100339
# 5 0.000525 -0.001870 0.000915 0.000000 0.031506 0.000000
# 6 0.000000 0.000000 0.000000 -0.100339 0.000000 0.046126
#
#
# Mechanical properties :
#
#
# Convention : Reuss Voigt Hill
#
# Bulk Modulus (GPa) = 33.55753 39.83679 36.69716
# Shear Modulus (GPa) = 3.41783 22.93652 13.17718
#
# Velocity S-wave (km/s) = 1.29706 3.36008 2.54681
# Velocity P-wave (km/s) = 4.33143 5.88749 5.16836
#
# Compressibility (1/GPa) = 0.02979957
#
# Stress axis : x y z
#
# Youngs Moduli (GPa) = 46.28235 98.14565 49.27754
#
# Poissons Ratio (x) = 0.53619 0.18961
# Poissons Ratio (y) = 0.25285 0.09035
# Poissons Ratio (z) = 0.17809 0.17995
#
# Static dielectric constant tensor:
#      x y z
#    x 3.871270 0.000000 -0.132250 
#    y 0.000000 3.879340 0.000000 
#    z -0.132250 0.000000 3.651730 
# 
# 
# High freq. dielectric constant tensor:
#      x y z
#    x 1.806230 0.000000 -0.012770 
#    y 0.000000 1.805900 0.000000 
#    z -0.012770 0.000000 1.783640 
# 
# From -- ./inp_files/39476.got.cif
#   From: 2010.06.25/outbox.cif.g09.slc.cpg/sg13_20_cif.got.tgz:39476.got - 2010.06.28 04:50:58.
