data_PCOD8120211
_publ_section_title
;
Structure prediction by ZEFSAII (Michael W. Deem and Ramdas Pophale) SiO2 
 PCOD8120211
Probable space group: P 2/C
;
_chemical_formula_sum "Si O2"
_cell_formula_units_Z 28
_cell_length_a 8.017352
_cell_length_b 16.086139
_cell_length_c 19.352184
_cell_angle_alpha 90.000000
_cell_angle_beta 30.958854
_cell_angle_gamma 90.000000
_cell_volume 1283.904170
_symmetry_space_group_name_H-M "P 2/C"
_symmetry_group_IT_number 13
_symmetry_cell_setting 'monoclinic'
loop_
_space_group_symop_operation_xyz
x,y,z
-x,y,1/2-z
-x,-y,-z
x,-y,1/2+z
loop_
_atom_site_type_symbol
_atom_site_label
_atom_site_fract_x
_atom_site_fract_y
_atom_site_fract_z
Si Si1 0.431765 0.658705 0.195897
Si Si2 0.792092 0.245947 0.465495
Si Si3 0.780549 0.248389 0.940093
Si Si4 0.867722 0.904497 0.126210
Si Si5 0.281884 0.670574 0.704086
Si Si6 0.366743 0.509039 0.124984
Si Si7 0.862842 0.089267 0.121519
O O1 0.500000 0.633363 0.250000
O O2 0.533496 0.582316 0.109428
O O3 0.057353 0.685184 0.323194
O O4 0.672911 0.732994 0.085836
O O5 0.476464 0.256329 0.530061
O O6 0.103167 0.305916 0.339201
O O7 0.906617 0.150898 0.417536
O O8 0.933241 0.156586 0.893936
O O9 0.595977 0.272302 0.076965
O O10 0.500000 0.871318 0.250000
O O11 0.874346 0.998564 0.154415
O O12 0.028173 0.911442 0.995515
O O13 0.399981 0.575509 0.657290
O O14 0.000000 0.690468 0.750000
O O15 0.000000 0.535977 0.250000
O O16 0.500000 0.500000 0.000000
O O17 0.500000 0.124227 0.250000
#
# Coordination Sequence:
#
# PCOD8120211 Si02
#       7
#     4   4   4   4   4   4   4
#     4  12  25  40  60  90 126 162 204 256 316 372
#     4  11  22  38  62  90 119 160 208 252 305 365
#     4  11  21  38  63  89 120 158 207 256 301 364
#     4  10  21  38  59  85 120 161 201 246 305 364
#     4   9  20  37  59  87 116 151 195 248 303 354
#     4  11  21  41  66  86 118 161 205 251 307 367
#     4  10  21  38  59  85 121 161 198 245 308 367
#
# _framework density 21.808482999999999
#
# number of rings (size 3 to 8) (size 9 to 14) (size 15 to 20)
#    0.000    1.429    0.000    7.714    0.000    0.571 
#    0.000    8.571    0.000    8.571    0.000    0.000 
#    0.000    0.000    0.000    0.000    0.000    0.000 
#
# Total GULP energy -347088.137231 kJ/mol
# GULP energy per Si atom -12396.004901 kJ/mol
# Density = 2.175885 g / cm^3
# Si number density = 21.808483 Si / 1000 Ang^3
#
#
#
# Elastic Constant Matrix: (Units=GPa)
#
#
# Indices 1 2 3 4 5 6 
#
# 1 63.4923 49.2291 40.8431 0.0000 7.4473 0.0000
# 2 49.2291 135.4302 48.0161 0.0000 -6.4867 0.0000
# 3 40.8431 48.0161 158.8919 0.0000 2.0432 0.0000
# 4 0.0000 0.0000 0.0000 37.8193 0.0000 -0.7951
# 5 7.4473 -6.4867 2.0432 0.0000 30.9247 0.0000
# 6 0.0000 0.0000 0.0000 -0.7951 0.0000 36.5819
#
#
#
# Elastic Compliance Matrix: (Units=1/GPa)
#
#
# Indices 1 2 3 4 5 6 
#
# 1 0.025621 -0.008264 -0.003990 0.000000 -0.007640 0.000000
# 2 -0.008264 0.011049 -0.001271 0.000000 0.004392 0.000000
# 3 -0.003990 -0.001271 0.007701 0.000000 0.000185 0.000000
# 4 0.000000 0.000000 0.000000 0.026454 0.000000 0.000575
# 5 -0.007640 0.004392 0.000185 0.000000 0.035085 0.000000
# 6 0.000000 0.000000 0.000000 0.000575 0.000000 0.027348
#
#
# Mechanical properties :
#
#
# Convention : Reuss Voigt Hill
#
# Bulk Modulus (GPa) = 57.73835 70.44345 64.09090
# Shear Modulus (GPa) = 30.10557 35.71359 32.90958
#
# Velocity S-wave (km/s) = 3.71947 4.05112 3.88883
# Velocity P-wave (km/s) = 6.70661 7.36567 7.04385
#
# Compressibility (1/GPa) = 0.01731951
#
# Stress axis : x y z
#
# Youngs Moduli (GPa) = 39.03104 90.50594 129.85404
#
# Poissons Ratio (x) = 0.74798 0.51813
# Poissons Ratio (y) = 0.32257 0.16505
# Poissons Ratio (z) = 0.15574 0.11504
#
# Static dielectric constant tensor:
#      x y z
#    x 3.432210 0.000000 0.003840 
#    y 0.000000 4.204220 0.000000 
#    z 0.003840 0.000000 4.356700 
# 
# 
# High freq. dielectric constant tensor:
#      x y z
#    x 1.814910 0.000000 -0.002520 
#    y 0.000000 1.865960 0.000000 
#    z -0.002520 0.000000 1.888070 
# 
# From -- ./inp_files/76696.got.cif
#   From: 2010.06.25/outbox.cif.g09.slc.cpg/sg13_39_cif.got.tgz:76696.got - 2010.06.28 04:50:58.
