data_PCOD8120912
_publ_section_title
;
Structure prediction by ZEFSAII (Michael W. Deem and Ramdas Pophale) SiO2 
 PCOD8120912
Probable space group: P 2/C
;
_chemical_formula_sum "Si O2"
_cell_formula_units_Z 32
_cell_length_a 12.946693
_cell_length_b 4.990127
_cell_length_c 25.535465
_cell_angle_alpha 90.000000
_cell_angle_beta 70.247421
_cell_angle_gamma 90.000000
_cell_volume 1552.666030
_symmetry_space_group_name_H-M "P 2/C"
_symmetry_group_IT_number 13
_symmetry_cell_setting 'monoclinic'
loop_
_space_group_symop_operation_xyz
x,y,z
-x,y,1/2-z
-x,-y,-z
x,-y,1/2+z
loop_
_atom_site_type_symbol
_atom_site_label
_atom_site_fract_x
_atom_site_fract_y
_atom_site_fract_z
Si Si1 0.887467 0.279875 0.476181
Si Si2 0.435462 0.418848 0.161311
Si Si3 0.455482 0.687852 0.052402
Si Si4 0.666680 0.009148 0.009007
Si Si5 0.981023 0.236403 0.571847
Si Si6 0.321833 0.753595 0.889584
Si Si7 0.763112 0.247885 0.653460
Si Si8 0.397791 0.938398 0.232219
O O1 0.919821 0.550924 0.439346
O O2 0.905412 0.319494 0.535019
O O3 0.762238 0.207774 0.484822
O O4 0.969747 0.055728 0.441214
O O5 0.403335 0.507050 0.107755
O O6 0.551175 0.274826 0.142582
O O7 0.442428 0.688591 0.192651
O O8 0.358804 0.188084 0.201357
O O9 0.558591 0.869049 0.053689
O O10 0.500000 0.500000 0.000000
O O11 0.360575 0.874211 0.043834
O O12 0.702044 0.251655 0.043176
O O13 0.896058 0.231008 0.635408
O O14 0.259646 0.546899 0.863133
O O15 0.282930 0.050505 0.882504
O O16 0.707976 0.167796 0.717911
O O17 0.500000 0.040324 0.250000
#
# Coordination Sequence:
#
# PCOD8120912 Si02
#       8
#     4   4   4   4   4   4   4   4
#     4  10  22  37  58  83 124 162 202 255 300 369
#     4  12  23  39  54  87 124 157 209 260 292 374
#     4  11  25  39  62  89 124 167 213 253 317 381
#     4  11  24  39  59  92 123 174 208 258 317 378
#     4  10  22  36  54  89 119 161 208 243 308 366
#     4  12  21  34  59  84 122 166 203 243 302 363
#     4  12  23  36  58  86 122 166 204 248 304 378
#     4  12  23  38  57  85 119 169 208 242 308 373
#
# _framework density 20.609711000000001
#
# number of rings (size 3 to 8) (size 9 to 14) (size 15 to 20)
#    0.000    0.750    5.000    3.375    7.000    0.000 
#    0.000    0.000    0.000    0.000    0.000    0.875 
#    0.000    0.000    0.000    0.000    0.000    0.000 
#
# Total GULP energy -396677.990328 kJ/mol
# GULP energy per Si atom -12396.187198 kJ/mol
# Density = 2.056280 g / cm^3
# Si number density = 20.609711 Si / 1000 Ang^3
#
#
#
# Elastic Constant Matrix: (Units=GPa)
#
#
# Indices 1 2 3 4 5 6 
#
# 1 65.1205 11.8965 36.1338 0.0000 -4.8358 0.0000
# 2 11.8965 90.3245 42.2019 0.0000 7.4092 0.0000
# 3 36.1338 42.2019 121.5055 0.0000 -6.4507 0.0000
# 4 0.0000 0.0000 0.0000 38.8794 0.0000 4.0949
# 5 -4.8358 7.4092 -6.4507 0.0000 20.1161 0.0000
# 6 0.0000 0.0000 0.0000 4.0949 0.0000 22.7520
#
#
#
# Elastic Compliance Matrix: (Units=1/GPa)
#
#
# Indices 1 2 3 4 5 6 
#
# 1 0.018540 -0.000201 -0.005293 0.000000 0.002834 0.000000
# 2 -0.000201 0.014095 -0.005202 0.000000 -0.006908 0.000000
# 3 -0.005293 -0.005202 0.011847 0.000000 0.004443 0.000000
# 4 0.000000 0.000000 0.000000 0.026218 0.000000 -0.004719
# 5 0.002834 -0.006908 0.004443 0.000000 0.054362 0.000000
# 6 0.000000 0.000000 0.000000 -0.004719 0.000000 0.044801
#
#
# Mechanical properties :
#
#
# Convention : Reuss Voigt Hill
#
# Bulk Modulus (GPa) = 43.31147 50.82387 47.06767
# Shear Modulus (GPa) = 25.13148 28.79739 26.96444
#
# Velocity S-wave (km/s) = 3.49578 3.74207 3.62102
# Velocity P-wave (km/s) = 6.11185 6.58669 6.35370
#
# Compressibility (1/GPa) = 0.02308857
#
# Stress axis : x y z
#
# Youngs Moduli (GPa) = 53.93607 70.94665 84.40923
#
# Poissons Ratio (x) = 0.01428 0.44680
# Poissons Ratio (y) = 0.01085 0.43914
# Poissons Ratio (z) = 0.28550 0.36910
#
# Static dielectric constant tensor:
#      x y z
#    x 3.528200 0.000000 -0.099690 
#    y 0.000000 -3.297460 0.000000 
#    z -0.099690 0.000000 4.016120 
# 
# 
# High freq. dielectric constant tensor:
#      x y z
#    x 1.759830 0.000000 -0.021000 
#    y 0.000000 1.834070 0.000000 
#    z -0.021000 0.000000 1.788870 
# 
# From -- ./inp_files/85987.got.cif
#   From: 2010.06.25/outbox.cif.g09.slc.cpg/sg13_43_cif.got.tgz:85987.got - 2010.06.28 04:50:58.
