data_PCOD8120119
_publ_section_title
;
Structure prediction by ZEFSAII (Michael W. Deem and Ramdas Pophale) SiO2 
 PCOD8120119
Probable space group: P 2/C
;
_chemical_formula_sum "Si O2"
_cell_formula_units_Z 22
_cell_length_a 15.180292
_cell_length_b 4.800699
_cell_length_c 16.091425
_cell_angle_alpha 90.000000
_cell_angle_beta 49.539638
_cell_angle_gamma 90.000000
_cell_volume 892.238692
_symmetry_space_group_name_H-M "P 2/C"
_symmetry_group_IT_number 13
_symmetry_cell_setting 'monoclinic'
loop_
_space_group_symop_operation_xyz
x,y,z
-x,y,1/2-z
-x,-y,-z
x,-y,1/2+z
loop_
_atom_site_type_symbol
_atom_site_label
_atom_site_fract_x
_atom_site_fract_y
_atom_site_fract_z
Si Si1 0.330988 0.257752 0.475575
Si Si2 0.867401 0.680837 0.126966
Si Si3 0.624529 0.161413 0.821533
Si Si4 0.114439 0.817244 0.997795
Si Si5 0.399191 0.277397 0.036841
Si Si6 0.500000 0.413583 0.750000
O O1 0.203378 0.226040 0.517454
O O2 0.315208 0.470666 0.562850
O O3 0.419879 0.387836 0.354635
O O4 0.379974 0.966296 0.479402
O O5 0.756386 0.742564 0.251656
O O6 0.857578 0.364568 0.101582
O O7 0.873598 0.865448 0.039230
O O8 0.984341 0.740390 0.108632
O O9 0.538835 0.346477 0.934637
O O10 0.582707 0.204276 0.752404
O O11 0.619510 0.839873 0.857874
#
# Coordination Sequence:
#
# PCOD8120119 Si02
#       6
#     4   4   4   4   4   2
#     4  11  22  40  59  93 123 167 205 260 310 380
#     4  10  21  37  62  87 122 156 203 263 308 355
#     4  10  22  42  59  95 123 167 205 258 313 379
#     4  10  21  37  60  92 117 155 207 261 305 361
#     4  10  25  38  61  87 136 162 199 254 328 373
#     4  10  22  34  66  92 120 164 216 260 302 374
#
# _framework density 24.657080000000001
#
# number of rings (size 3 to 8) (size 9 to 14) (size 15 to 20)
#    0.000    1.818    1.818    1.091    5.091    8.727 
#    0.000    0.909    0.000    2.182    0.000    0.000 
#    0.000    0.000    0.000    0.000    0.000    0.000 
#
# Total GULP energy -272764.140938 kJ/mol
# GULP energy per Si atom -12398.370043 kJ/mol
# Density = 2.460096 g / cm^3
# Si number density = 24.657080 Si / 1000 Ang^3
#
#
#
# Elastic Constant Matrix: (Units=GPa)
#
#
# Indices 1 2 3 4 5 6 
#
# 1 201.4596 50.6048 58.4901 0.0000 -14.7078 0.0000
# 2 50.6048 89.3643 24.9267 0.0000 -0.0990 0.0000
# 3 58.4901 24.9267 109.3481 0.0000 -24.2136 0.0000
# 4 0.0000 0.0000 0.0000 36.8357 0.0000 9.4521
# 5 -14.7078 -0.0990 -24.2136 0.0000 41.8912 0.0000
# 6 0.0000 0.0000 0.0000 9.4521 0.0000 38.2153
#
#
#
# Elastic Compliance Matrix: (Units=1/GPa)
#
#
# Indices 1 2 3 4 5 6 
#
# 1 0.006532 -0.002958 -0.002653 0.000000 0.000753 0.000000
# 2 -0.002958 0.013406 -0.001946 0.000000 -0.002131 0.000000
# 3 -0.002653 -0.001946 0.012386 0.000000 0.006223 0.000000
# 4 0.000000 0.000000 0.000000 0.028987 0.000000 -0.007170
# 5 0.000753 -0.002131 0.006223 0.000000 0.027728 0.000000
# 6 0.000000 0.000000 0.000000 -0.007170 0.000000 0.027941
#
#
# Mechanical properties :
#
#
# Convention : Reuss Voigt Hill
#
# Bulk Modulus (GPa) = 58.10565 74.24615 66.17590
# Shear Modulus (GPa) = 36.27682 41.13180 38.70431
#
# Velocity S-wave (km/s) = 3.83985 4.08873 3.96625
# Velocity P-wave (km/s) = 6.57845 7.24342 6.91893
#
# Compressibility (1/GPa) = 0.01721003
#
# Stress axis : x y z
#
# Youngs Moduli (GPa) = 153.09205 74.59585 80.73849
#
# Poissons Ratio (x) = 0.22066 0.21419
# Poissons Ratio (y) = 0.45286 0.15708
# Poissons Ratio (z) = 0.40614 0.14513
#
# Static dielectric constant tensor:
#      x y z
#    x 4.805870 0.000000 -0.104280 
#    y 0.000000 4.837430 0.000000 
#    z -0.104280 0.000000 4.228950 
# 
# 
# High freq. dielectric constant tensor:
#      x y z
#    x 1.995150 0.000000 -0.007860 
#    y 0.000000 2.012710 0.000000 
#    z -0.007860 0.000000 1.953210 
# 
# From -- ./inp_files/67174.got.cif
#   From: 2010.06.25/outbox.cif.g09.slc.cpg/sg13_34_cif.got.tgz:67174.got - 2010.06.28 04:50:58.
