data_PCOD8120131
_publ_section_title
;
Structure prediction by ZEFSAII (Michael W. Deem and Ramdas Pophale) SiO2 
 PCOD8120131
Probable space group: P 2/C
;
_chemical_formula_sum "Si O2"
_cell_formula_units_Z 18
_cell_length_a 5.255955
_cell_length_b 21.206823
_cell_length_c 8.829633
_cell_angle_alpha 90.000000
_cell_angle_beta 58.374557
_cell_angle_gamma 90.000000
_cell_volume 838.014590
_symmetry_space_group_name_H-M "P 2/C"
_symmetry_group_IT_number 13
_symmetry_cell_setting 'monoclinic'
loop_
_space_group_symop_operation_xyz
x,y,z
-x,y,1/2-z
-x,-y,-z
x,-y,1/2+z
loop_
_atom_site_type_symbol
_atom_site_label
_atom_site_fract_x
_atom_site_fract_y
_atom_site_fract_z
Si Si1 0.000000 0.983471 0.750000
Si Si2 0.145806 0.195013 0.366274
Si Si3 0.789977 0.085563 0.586677
Si Si4 0.156733 0.445787 0.860472
Si Si5 0.847372 0.304583 0.634769
O O1 0.233018 0.940129 0.580138
O O2 0.826040 0.025826 0.685092
O O3 0.500000 0.198029 0.250000
O O4 0.000000 0.181145 0.250000
O O5 0.053113 0.137767 0.508561
O O6 0.021283 0.261123 0.463137
O O7 0.500000 0.119742 0.750000
O O8 0.500000 0.465472 0.750000
O O9 0.125111 0.375641 0.940646
O O10 0.000000 0.443910 0.750000
O O11 0.000000 0.500000 0.000000
O O12 0.500000 0.284683 0.750000
O O13 0.000000 0.297701 0.750000
#
# Coordination Sequence:
#
# PCOD8120131 Si02
#       5
#     2   4   4   4   4
#     4  10  24  42  66  98 126 164 220 256 326 392
#     4  12  27  43  65  96 130 164 218 269 319 387
#     4  11  24  42  68  93 130 168 212 266 327 384
#     4  10  21  37  61  93 128 168 213 264 318 384
#     4  10  22  42  65  90 126 172 218 259 323 385
#
# _framework density 21.479337999999998
#
# number of rings (size 3 to 8) (size 9 to 14) (size 15 to 20)
#    0.000    1.333    1.111    3.333    4.667    5.333 
#    0.000    0.000    0.000    0.000    0.000    0.000 
#    0.000    0.000    0.000    0.000    0.000    0.000 
#
# Total GULP energy -223102.447742 kJ/mol
# GULP energy per Si atom -12394.580430 kJ/mol
# Density = 2.143045 g / cm^3
# Si number density = 21.479338 Si / 1000 Ang^3
#
#
#
# Elastic Constant Matrix: (Units=GPa)
#
#
# Indices 1 2 3 4 5 6 
#
# 1 140.8147 38.4517 61.6257 0.0000 -31.1276 0.0000
# 2 38.4517 144.8762 88.3010 0.0000 -27.7594 0.0000
# 3 61.6257 88.3010 158.6529 0.0000 -30.9264 0.0000
# 4 0.0000 0.0000 0.0000 46.4688 0.0000 -12.6686
# 5 -31.1276 -27.7594 -30.9264 0.0000 43.7257 0.0000
# 6 0.0000 0.0000 0.0000 -12.6686 0.0000 26.2597
#
#
#
# Elastic Compliance Matrix: (Units=1/GPa)
#
#
# Indices 1 2 3 4 5 6 
#
# 1 0.009331 0.000120 -0.002762 0.000000 0.004765 0.000000
# 2 0.000120 0.010780 -0.005447 0.000000 0.003077 0.000000
# 3 -0.002762 -0.005447 0.010845 0.000000 0.002246 0.000000
# 4 0.000000 0.000000 0.000000 0.024779 0.000000 0.011954
# 5 0.004765 0.003077 0.002246 0.000000 0.029804 0.000000
# 6 0.000000 0.000000 0.000000 0.011954 0.000000 0.043848
#
#
# Mechanical properties :
#
#
# Convention : Reuss Voigt Hill
#
# Bulk Modulus (GPa) = 67.66635 91.23341 79.44988
# Shear Modulus (GPa) = 33.22450 40.35518 36.78984
#
# Velocity S-wave (km/s) = 3.93722 4.33920 4.14309
# Velocity P-wave (km/s) = 7.22775 8.22631 7.74314
#
# Compressibility (1/GPa) = 0.01477839
#
# Stress axis : x y z
#
# Youngs Moduli (GPa) = 107.16955 92.76663 92.20517
#
# Poissons Ratio (x) = -0.01115 0.25472
# Poissons Ratio (y) = -0.01288 0.50220
# Poissons Ratio (z) = 0.29606 0.50526
#
# Static dielectric constant tensor:
#      x y z
#    x 3.888360 0.000000 0.038690 
#    y 0.000000 6.008960 0.000000 
#    z 0.038690 0.000000 4.211150 
# 
# 
# High freq. dielectric constant tensor:
#      x y z
#    x 1.840430 0.000000 -0.005050 
#    y 0.000000 1.860920 0.000000 
#    z -0.005050 0.000000 1.845690 
# 
# From -- ./inp_files/9876.got.cif
#   From: 2010.06.25/outbox.cif.g09.slc.cpg/sg13_5_cif.got.tgz:9876.got - 2010.06.28 04:50:58.
