data_PCOD8120286
_publ_section_title
;
Structure prediction by ZEFSAII (Michael W. Deem and Ramdas Pophale) SiO2 
 PCOD8120286
Probable space group: P 2/C
;
_chemical_formula_sum "Si O2"
_cell_formula_units_Z 20
_cell_length_a 10.370453
_cell_length_b 12.841037
_cell_length_c 8.816945
_cell_angle_alpha 90.000000
_cell_angle_beta 125.232926
_cell_angle_gamma 90.000000
_cell_volume 959.044739
_symmetry_space_group_name_H-M "P 2/C"
_symmetry_group_IT_number 13
_symmetry_cell_setting 'monoclinic'
loop_
_space_group_symop_operation_xyz
x,y,z
-x,y,1/2-z
-x,-y,-z
x,-y,1/2+z
loop_
_atom_site_type_symbol
_atom_site_label
_atom_site_fract_x
_atom_site_fract_y
_atom_site_fract_z
Si Si1 0.381076 0.025139 0.048776
Si Si2 0.317485 0.201747 0.587492
Si Si3 0.830518 0.582937 0.050783
Si Si4 0.821380 0.215383 0.687231
Si Si5 0.173196 0.377324 0.308990
O O1 0.500000 0.074590 0.250000
O O2 0.289698 0.920085 0.034414
O O3 0.252512 0.108374 0.916589
O O4 0.500000 0.000000 0.000000
O O5 0.500000 0.221113 0.750000
O O6 0.199752 0.229200 0.646557
O O7 0.276003 0.274008 0.414462
O O8 0.738099 0.683947 0.052898
O O9 0.748223 0.474311 0.044248
O O10 0.000000 0.578731 0.250000
O O11 0.837455 0.593556 0.874867
O O12 0.000000 0.212744 0.750000
O O13 0.000000 0.351758 0.250000
#
# Coordination Sequence:
#
# PCOD8120286 Si02
#       5
#     4   4   4   4   4
#     4  11  23  44  66  89 130 174 206 259 329 378
#     4  11  24  43  63  93 135 170 208 263 321 382
#     4  10  21  38  63  95 129 164 208 267 320 370
#     4  11  23  41  65  94 127 164 218 264 305 379
#     4  11  21  39  66  93 128 171 213 260 318 376
#
# _framework density 20.854085000000001
#
# number of rings (size 3 to 8) (size 9 to 14) (size 15 to 20)
#    0.000    1.200    4.000    6.000    2.800    1.600 
#    0.000    5.000    0.000    0.000    0.000    0.000 
#    0.000    0.000    0.000    0.000    0.000    0.000 
#
# Total GULP energy -247828.931584 kJ/mol
# GULP energy per Si atom -12391.446579 kJ/mol
# Density = 2.080662 g / cm^3
# Si number density = 20.854085 Si / 1000 Ang^3
#
#
#
# Elastic Constant Matrix: (Units=GPa)
#
#
# Indices 1 2 3 4 5 6 
#
# 1 84.4420 16.8114 18.8799 0.0000 -17.4336 0.0000
# 2 16.8114 141.8137 44.3331 0.0000 5.4456 0.0000
# 3 18.8799 44.3331 112.2354 0.0000 -23.9470 0.0000
# 4 0.0000 0.0000 0.0000 40.2143 0.0000 -17.6723
# 5 -17.4336 5.4456 -23.9470 0.0000 36.5220 0.0000
# 6 0.0000 0.0000 0.0000 -17.6723 0.0000 0.7899
#
#
#
# Elastic Compliance Matrix: (Units=1/GPa)
#
#
# Indices 1 2 3 4 5 6 
#
# 1 0.013617 -0.001825 -0.000145 0.000000 0.006677 0.000000
# 2 -0.001825 0.008775 -0.004214 0.000000 -0.004942 0.000000
# 3 -0.000145 -0.004214 0.012461 0.000000 0.008730 0.000000
# 4 0.000000 0.000000 0.000000 -0.002816 0.000000 -0.062993
# 5 0.006677 -0.004942 0.008730 0.000000 0.037029 0.000000
# 6 0.000000 0.000000 0.000000 -0.062993 0.000000 -0.143344
#
#
# Mechanical properties :
#
#
# Convention : Reuss Voigt Hill
#
# Bulk Modulus (GPa) = 44.47369 55.39334 49.93351
# Shear Modulus (GPa) = -91.88695 32.73635 -29.57530
#
# Velocity S-wave (km/s) = -6.64511 3.96634 -3.76999
# Velocity P-wave (km/s) = 6.12407 6.89898 2.24629
#
# Compressibility (1/GPa) = 0.02248520
#
# Stress axis : x y z
#
# Youngs Moduli (GPa) = 73.43887 113.96126 80.24905
#
# Poissons Ratio (x) = 0.20801 0.01163
# Poissons Ratio (y) = 0.13405 0.33814
# Poissons Ratio (z) = 0.01064 0.48019
#
# Static dielectric constant tensor:
#      x y z
#    x 3.640030 0.000000 -0.318100 
#    y 0.000000 3.994540 0.000000 
#    z -0.318100 0.000000 3.723470 
# 
# 
# High freq. dielectric constant tensor:
#      x y z
#    x 1.801600 0.000000 -0.027590 
#    y 0.000000 1.844380 0.000000 
#    z -0.027590 0.000000 1.810870 
# 
# From -- ./inp_files/16021.got.cif
#   From: 2010.06.25/outbox.cif.g09.slc.cpg/sg13_9_cif.got.tgz:16021.got - 2010.06.28 04:50:58.
