data_PCOD8120668
_publ_section_title
;
Structure prediction by ZEFSAII (Michael W. Deem and Ramdas Pophale) SiO2 
 PCOD8120668
Probable space group: P 2/C
;
_chemical_formula_sum "Si O2"
_cell_formula_units_Z 20
_cell_length_a 10.626603
_cell_length_b 10.634881
_cell_length_c 13.916621
_cell_angle_alpha 90.000000
_cell_angle_beta 37.921971
_cell_angle_gamma 90.000000
_cell_volume 966.595535
_symmetry_space_group_name_H-M "P 2/C"
_symmetry_group_IT_number 13
_symmetry_cell_setting 'monoclinic'
loop_
_space_group_symop_operation_xyz
x,y,z
-x,y,1/2-z
-x,-y,-z
x,-y,1/2+z
loop_
_atom_site_type_symbol
_atom_site_label
_atom_site_fract_x
_atom_site_fract_y
_atom_site_fract_z
Si Si1 0.346192 0.675188 0.117265
Si Si2 0.726071 0.298438 0.624408
Si Si3 0.287020 0.954195 0.092425
Si Si4 0.226903 0.426064 0.088002
Si Si5 0.941774 0.944763 0.933751
O O1 0.239585 0.661638 0.286135
O O2 0.271193 0.805431 0.117393
O O3 0.252968 0.568633 0.105607
O O4 0.594608 0.662249 0.972444
O O5 0.500000 0.237392 0.750000
O O6 0.744644 0.421378 0.544949
O O7 0.891012 0.200459 0.483872
O O8 0.251347 0.984717 0.000950
O O9 0.129923 0.036445 0.249015
O O10 0.500000 0.000000 0.000000
O O11 0.000000 0.375305 0.250000
O O12 0.000000 0.000000 0.000000
#
# Coordination Sequence:
#
# PCOD8120668 Si02
#       5
#     4   4   4   4   4
#     4  10  22  43  63  90 128 174 215 275 333 388
#     4  10  21  41  65  90 134 171 213 274 333 394
#     4  11  24  41  68  96 135 169 218 276 330 404
#     4  10  23  38  67  89 124 172 225 269 328 395
#     4  11  24  39  67 101 125 176 218 262 344 398
#
# _framework density 20.691178000000001
#
# number of rings (size 3 to 8) (size 9 to 14) (size 15 to 20)
#    0.000    1.600    2.000    2.400    8.400    0.800 
#    0.000    0.000   13.200    0.000    0.000    0.000 
#    0.000    0.000    0.000    0.000    0.000    0.000 
#
# Total GULP energy -247874.907361 kJ/mol
# GULP energy per Si atom -12393.745368 kJ/mol
# Density = 2.064408 g / cm^3
# Si number density = 20.691178 Si / 1000 Ang^3
#
#
#
# Elastic Constant Matrix: (Units=GPa)
#
#
# Indices 1 2 3 4 5 6 
#
# 1 164.2775 62.8942 55.2320 0.0000 20.0243 0.0000
# 2 62.8942 128.4083 61.0858 0.0000 20.9627 0.0000
# 3 55.2320 61.0858 106.4003 0.0000 -4.6602 0.0000
# 4 0.0000 0.0000 0.0000 34.2435 0.0000 8.0410
# 5 20.0243 20.9627 -4.6602 0.0000 42.1537 0.0000
# 6 0.0000 0.0000 0.0000 8.0410 0.0000 26.2600
#
#
#
# Elastic Compliance Matrix: (Units=1/GPa)
#
#
# Indices 1 2 3 4 5 6 
#
# 1 0.008382 -0.001942 -0.003385 0.000000 -0.003390 0.000000
# 2 -0.001942 0.012947 -0.006699 0.000000 -0.006257 0.000000
# 3 -0.003385 -0.006699 0.015292 0.000000 0.006630 0.000000
# 4 0.000000 0.000000 0.000000 0.031465 0.000000 -0.009635
# 5 -0.003390 -0.006257 0.006630 0.000000 0.029177 0.000000
# 6 0.000000 0.000000 0.000000 -0.009635 0.000000 0.041031
#
#
# Mechanical properties :
#
#
# Convention : Reuss Voigt Hill
#
# Bulk Modulus (GPa) = 79.55715 84.16780 81.86247
# Shear Modulus (GPa) = 30.02367 35.18973 32.60670
#
# Velocity S-wave (km/s) = 3.81338 4.12844 3.97404
# Velocity P-wave (km/s) = 7.61068 7.96817 7.79148
#
# Compressibility (1/GPa) = 0.01256958
#
# Stress axis : x y z
#
# Youngs Moduli (GPa) = 119.30456 77.23787 65.39448
#
# Poissons Ratio (x) = 0.14999 0.22134
# Poissons Ratio (y) = 0.23167 0.43808
# Poissons Ratio (z) = 0.40380 0.51742
#
# Static dielectric constant tensor:
#      x y z
#    x 3.864390 0.000000 -0.218850 
#    y 0.000000 3.802700 0.000000 
#    z -0.218850 0.000000 3.795370 
# 
# 
# High freq. dielectric constant tensor:
#      x y z
#    x 1.825020 0.000000 -0.002240 
#    y 0.000000 1.796770 0.000000 
#    z -0.002240 0.000000 1.809150 
# 
# From -- ./inp_files/51060.got.cif
#   From: 2010.06.25/outbox.cif.g09.slc.cpg/sg13_26_cif.got.tgz:51060.got - 2010.06.28 04:50:58.
