data_PCOD8120122
_publ_section_title
;
Structure prediction by ZEFSAII (Michael W. Deem and Ramdas Pophale) SiO2 
 PCOD8120122
Probable space group: P 2/C
;
_chemical_formula_sum "Si O2"
_cell_formula_units_Z 28
_cell_length_a 14.844109
_cell_length_b 12.073241
_cell_length_c 9.259167
_cell_angle_alpha 90.000000
_cell_angle_beta 121.761398
_cell_angle_gamma 90.000000
_cell_volume 1410.896965
_symmetry_space_group_name_H-M "P 2/C"
_symmetry_group_IT_number 13
_symmetry_cell_setting 'monoclinic'
loop_
_space_group_symop_operation_xyz
x,y,z
-x,y,1/2-z
-x,-y,-z
x,-y,1/2+z
loop_
_atom_site_type_symbol
_atom_site_label
_atom_site_fract_x
_atom_site_fract_y
_atom_site_fract_z
Si Si1 0.120552 0.307553 0.389056
Si Si2 0.417966 0.916410 0.306643
Si Si3 0.077180 0.541066 0.438684
Si Si4 0.118966 0.084361 0.881698
Si Si5 0.442038 0.165337 0.350643
Si Si6 0.218803 0.736839 0.675026
Si Si7 0.184217 0.883446 0.115941
O O1 0.144418 0.437081 0.434362
O O2 0.189529 0.255485 0.318346
O O3 0.139364 0.239895 0.553212
O O4 0.000000 0.292908 0.250000
O O5 0.500000 0.929582 0.250000
O O6 0.463658 0.821773 0.452831
O O7 0.303754 0.877316 0.158585
O O8 0.399240 0.041244 0.351731
O O9 0.167608 0.625596 0.566188
O O10 0.000000 0.592593 0.250000
O O11 0.000000 0.500000 0.500000
O O12 0.181560 0.083900 0.782574
O O13 0.000000 0.123822 0.750000
O O14 0.174739 0.162266 0.044653
O O15 0.116878 0.964488 0.955425
O O16 0.500000 0.180788 0.250000
O O17 0.347219 0.255671 0.279050
#
# Coordination Sequence:
#
# PCOD8120122 Si02
#       7
#     4   4   4   4   4   4   4
#     4  11  23  40  62  92 127 164 205 256 312 385
#     4  10  21  37  61  85 123 161 211 255 304 373
#     4  11  23  43  66  95 124 165 212 259 310 379
#     4  12  25  38  57  90 130 170 200 256 320 385
#     4  10  21  38  60  89 119 160 210 260 308 365
#     4  12  22  40  68  89 126 165 211 263 319 371
#     4  12  24  39  60  91 128 168 208 252 322 383
#
# _framework density 19.845531000000001
#
# number of rings (size 3 to 8) (size 9 to 14) (size 15 to 20)
#    0.000    0.857    4.286    4.714    6.000    0.000 
#    0.000    0.000    0.000    4.286    0.000    0.000 
#    0.000    0.000    0.000    0.000    0.000    0.000 
#
# Total GULP energy -347058.681457 kJ/mol
# GULP energy per Si atom -12394.952909 kJ/mol
# Density = 1.980036 g / cm^3
# Si number density = 19.845531 Si / 1000 Ang^3
#
#
#
# Elastic Constant Matrix: (Units=GPa)
#
#
# Indices 1 2 3 4 5 6 
#
# 1 99.4266 31.8874 23.0696 0.0000 -2.3503 0.0000
# 2 31.8874 81.4991 32.7702 0.0000 2.7328 0.0000
# 3 23.0696 32.7702 85.7372 0.0000 -12.4579 0.0000
# 4 0.0000 0.0000 0.0000 52.3961 0.0000 4.3543
# 5 -2.3503 2.7328 -12.4579 0.0000 32.7414 0.0000
# 6 0.0000 0.0000 0.0000 4.3543 0.0000 29.6473
#
#
#
# Elastic Compliance Matrix: (Units=1/GPa)
#
#
# Indices 1 2 3 4 5 6 
#
# 1 0.011706 -0.003979 -0.001544 0.000000 0.000585 0.000000
# 2 -0.003979 0.016243 -0.005691 0.000000 -0.003807 0.000000
# 3 -0.001544 -0.005691 0.015144 0.000000 0.006126 0.000000
# 4 0.000000 0.000000 0.000000 0.019321 0.000000 -0.002838
# 5 0.000585 -0.003807 0.006126 0.000000 0.033233 0.000000
# 6 0.000000 0.000000 0.000000 -0.002838 0.000000 0.034147
#
#
# Mechanical properties :
#
#
# Convention : Reuss Voigt Hill
#
# Bulk Modulus (GPa) = 48.38931 49.12413 48.75672
# Shear Modulus (GPa) = 31.42493 34.88601 33.15547
#
# Velocity S-wave (km/s) = 3.98361 4.19725 4.09183
# Velocity P-wave (km/s) = 6.75239 6.94955 6.85168
#
# Compressibility (1/GPa) = 0.02066572
#
# Stress axis : x y z
#
# Youngs Moduli (GPa) = 85.42776 61.56621 66.03154
#
# Poissons Ratio (x) = 0.24496 0.10195
# Poissons Ratio (y) = 0.33990 0.37577
# Poissons Ratio (z) = 0.13190 0.35036
#
# Static dielectric constant tensor:
#      x y z
#    x 4.107000 0.000000 -0.102250 
#    y 0.000000 4.071010 0.000000 
#    z -0.102250 0.000000 3.743540 
# 
# 
# High freq. dielectric constant tensor:
#      x y z
#    x 1.772870 0.000000 -0.005310 
#    y 0.000000 1.748000 0.000000 
#    z -0.005310 0.000000 1.793080 
# 
# From -- ./inp_files/18826.got.cif
#   From: 2010.06.25/outbox.cif.g09.slc.cpg/sg13_10_cif.got.tgz:18826.got - 2010.06.28 04:50:58.
