data_PCOD8120761
_publ_section_title
;
Structure prediction by ZEFSAII (Michael W. Deem and Ramdas Pophale) SiO2 
 PCOD8120761
Probable space group: P 2/C
;
_chemical_formula_sum "Si O2"
_cell_formula_units_Z 32
_cell_length_a 17.419429
_cell_length_b 15.086323
_cell_length_c 12.061638
_cell_angle_alpha 90.000000
_cell_angle_beta 28.393409
_cell_angle_gamma 90.000000
_cell_volume 1507.284208
_symmetry_space_group_name_H-M "P 2/C"
_symmetry_group_IT_number 13
_symmetry_cell_setting 'monoclinic'
loop_
_space_group_symop_operation_xyz
x,y,z
-x,y,1/2-z
-x,-y,-z
x,-y,1/2+z
loop_
_atom_site_type_symbol
_atom_site_label
_atom_site_fract_x
_atom_site_fract_y
_atom_site_fract_z
Si Si1 0.816559 0.409049 0.451249
Si Si2 0.102063 0.411645 0.389457
Si Si3 0.851717 0.097055 0.867817
Si Si4 0.164677 0.285411 0.685363
Si Si5 0.616389 0.309265 0.885113
Si Si6 0.633036 0.997593 0.487558
Si Si7 0.435937 0.131568 0.100744
Si Si8 0.321467 0.587491 0.813704
O O1 0.821723 0.371658 0.319957
O O2 0.741895 0.335827 0.628760
O O3 0.707381 0.497517 0.581419
O O4 0.000000 0.434610 0.250000
O O5 0.246159 0.430717 0.289556
O O6 0.000000 0.500000 0.500000
O O7 0.989479 0.339989 0.586540
O O8 0.910001 0.188932 0.741246
O O9 0.000000 0.055124 0.750000
O O10 0.801303 0.027372 0.835284
O O11 0.697979 0.125914 0.134837
O O12 0.291902 0.277003 0.622698
O O13 0.247430 0.328306 0.472169
O O14 0.495983 0.231097 0.998322
O O15 0.511249 0.395218 0.052784
O O16 0.500000 0.004902 0.750000
O O17 0.590635 0.924233 0.447678
O O18 0.641221 0.091837 0.414206
#
# Coordination Sequence:
#
# PCOD8120761 Si02
#       8
#     4   4   4   4   4   4   4   4
#     4  12  24  44  64  91 136 187 227 275 343 396
#     4  12  23  42  65  89 134 184 222 278 338 402
#     4  11  22  38  68 104 133 170 223 279 333 404
#     4  12  22  40  67  96 134 172 229 281 334 395
#     4  12  25  42  67  98 133 173 233 283 335 400
#     4   9  20  41  70  93 130 176 215 267 346 410
#     4  10  21  42  66  97 132 171 221 277 336 408
#     4  12  24  40  66  97 127 180 231 280 330 390
#
# _framework density 21.230236999999999
#
# number of rings (size 3 to 8) (size 9 to 14) (size 15 to 20)
#    0.000    0.750    6.250    1.875    0.000    1.000 
#    4.500    0.000    0.000    3.000    0.000    0.000 
#    0.000    0.000    0.000    0.000    0.000    0.000 
#
# Total GULP energy -396827.591485 kJ/mol
# GULP energy per Si atom -12400.862234 kJ/mol
# Density = 2.118192 g / cm^3
# Si number density = 21.230237 Si / 1000 Ang^3
#
#
#
# Elastic Constant Matrix: (Units=GPa)
#
#
# Indices 1 2 3 4 5 6 
#
# 1 109.3223 9.2298 16.2856 0.0000 0.5559 0.0000
# 2 9.2298 52.5647 7.4567 0.0000 -3.7774 0.0000
# 3 16.2856 7.4567 79.6575 0.0000 7.0803 0.0000
# 4 0.0000 0.0000 0.0000 23.6821 0.0000 -1.1021
# 5 0.5559 -3.7774 7.0803 0.0000 38.5410 0.0000
# 6 0.0000 0.0000 0.0000 -1.1021 0.0000 35.3263
#
#
#
# Elastic Compliance Matrix: (Units=1/GPa)
#
#
# Indices 1 2 3 4 5 6 
#
# 1 0.009538 -0.001412 -0.001823 0.000000 0.000059 0.000000
# 2 -0.001412 0.019684 -0.001756 0.000000 0.002272 0.000000
# 3 -0.001823 -0.001756 0.013321 0.000000 -0.002593 0.000000
# 4 0.000000 0.000000 0.000000 0.042287 0.000000 0.001319
# 5 0.000059 0.002272 -0.002593 0.000000 0.026645 0.000000
# 6 0.000000 0.000000 0.000000 0.001319 0.000000 0.028349
#
#
# Mechanical properties :
#
#
# Convention : Reuss Voigt Hill
#
# Bulk Modulus (GPa) = 30.71083 34.16540 32.43811
# Shear Modulus (GPa) = 31.12167 33.41472 32.26820
#
# Velocity S-wave (km/s) = 3.83288 3.97157 3.90284
# Velocity P-wave (km/s) = 5.83823 6.09581 5.96841
#
# Compressibility (1/GPa) = 0.03256180
#
# Stress axis : x y z
#
# Youngs Moduli (GPa) = 104.84661 50.80148 75.06765
#
# Poissons Ratio (x) = 0.07173 0.13685
# Poissons Ratio (y) = 0.14803 0.13182
# Poissons Ratio (z) = 0.19114 0.08921
#
# Static dielectric constant tensor:
#      x y z
#    x 4.171800 0.000000 0.096910 
#    y 0.000000 3.741060 0.000000 
#    z 0.096910 0.000000 3.819320 
# 
# 
# High freq. dielectric constant tensor:
#      x y z
#    x 1.841410 0.000000 0.005340 
#    y 0.000000 1.816810 0.000000 
#    z 0.005340 0.000000 1.827730 
# 
# From -- ./inp_files/39464.got.cif
#   From: 2010.06.25/outbox.cif.g09.slc.cpg/sg13_20_cif.got.tgz:39464.got - 2010.06.28 04:50:58.
