data_PCOD8120563
_publ_section_title
;
Structure prediction by ZEFSAII (Michael W. Deem and Ramdas Pophale) SiO2 
 PCOD8120563
Probable space group: P 2/C
;
_chemical_formula_sum "Si O2"
_cell_formula_units_Z 22
_cell_length_a 8.124734
_cell_length_b 16.356724
_cell_length_c 7.811352
_cell_angle_alpha 90.000000
_cell_angle_beta 98.522996
_cell_angle_gamma 90.000000
_cell_volume 1026.617958
_symmetry_space_group_name_H-M "P 2/C"
_symmetry_group_IT_number 13
_symmetry_cell_setting 'monoclinic'
loop_
_space_group_symop_operation_xyz
x,y,z
-x,y,1/2-z
-x,-y,-z
x,-y,1/2+z
loop_
_atom_site_type_symbol
_atom_site_label
_atom_site_fract_x
_atom_site_fract_y
_atom_site_fract_z
Si Si1 0.184594 0.597385 0.231352
Si Si2 0.190406 0.587504 0.831925
Si Si3 0.693170 0.092092 0.755504
Si Si4 0.620396 0.747328 0.111024
Si Si5 0.879815 0.051441 0.097328
Si Si6 0.500000 0.312398 0.250000
O O1 0.225501 0.507365 0.304072
O O2 0.294775 0.659875 0.354810
O O3 0.000000 0.621978 0.250000
O O4 0.217392 0.605995 0.035251
O O5 0.330346 0.635331 0.746627
O O6 0.000000 0.610813 0.750000
O O7 0.500000 0.075933 0.750000
O O8 0.736270 0.171358 0.641225
O O9 0.762052 0.010201 0.682483
O O10 0.772614 0.109904 0.956820
O O11 0.500000 0.762387 0.250000
O O12 0.524215 0.746365 0.916324
O O13 0.000000 0.101062 0.250000
O O14 0.000000 0.000000 0.000000
#
# Coordination Sequence:
#
# PCOD8120563 Si02
#       6
#     4   4   4   4   4   2
#     4  11  22  40  63  93 134 171 225 281 332 398
#     4  11  23  40  64  98 128 177 234 279 336 395
#     4  10  21  40  65  95 132 169 213 266 324 394
#     4  11  24  43  62  94 133 169 218 269 332 401
#     4   9  19  39  64  94 123 161 213 260 316 392
#     4  12  24  44  70  92 134 180 226 278 338 402
#
# _framework density 21.429590000000001
#
# number of rings (size 3 to 8) (size 9 to 14) (size 15 to 20)
#    0.000    1.455    1.818    4.909    1.273    3.636 
#   14.727    0.909    0.000    0.000    0.000    0.000 
#    0.000    0.000    0.000    0.000    0.000    0.000 
#
# Total GULP energy -272642.350304 kJ/mol
# GULP energy per Si atom -12392.834105 kJ/mol
# Density = 2.138081 g / cm^3
# Si number density = 21.429590 Si / 1000 Ang^3
#
#
#
# Elastic Constant Matrix: (Units=GPa)
#
#
# Indices 1 2 3 4 5 6 
#
# 1 102.3102 30.5044 44.2138 0.0000 7.9479 0.0000
# 2 30.5044 79.4975 44.1545 0.0000 18.5671 0.0000
# 3 44.2138 44.1545 163.8692 0.0000 23.7602 0.0000
# 4 0.0000 0.0000 0.0000 32.2258 0.0000 -10.2484
# 5 7.9479 18.5671 23.7602 0.0000 44.5662 0.0000
# 6 0.0000 0.0000 0.0000 -10.2484 0.0000 -43.8969
#
#
#
# Elastic Compliance Matrix: (Units=1/GPa)
#
#
# Indices 1 2 3 4 5 6 
#
# 1 0.011739 -0.003327 -0.002350 0.000000 0.000545 0.000000
# 2 -0.003327 0.016567 -0.002874 0.000000 -0.004777 0.000000
# 3 -0.002350 -0.002874 0.007886 0.000000 -0.002588 0.000000
# 4 0.000000 0.000000 0.000000 0.028886 0.000000 -0.006744
# 5 0.000545 -0.004777 -0.002588 0.000000 0.025711 0.000000
# 6 0.000000 0.000000 0.000000 -0.006744 0.000000 -0.021206
#
#
# Mechanical properties :
#
#
# Convention : Reuss Voigt Hill
#
# Bulk Modulus (GPa) = 52.37921 64.82472 58.60196
# Shear Modulus (GPa) = 53.73499 21.69929 37.71714
#
# Velocity S-wave (km/s) = 5.01294 3.18557 4.19985
# Velocity P-wave (km/s) = 7.61588 6.62165 7.13610
#
# Compressibility (1/GPa) = 0.01909154
#
# Stress axis : x y z
#
# Youngs Moduli (GPa) = 85.18402 60.35962 126.80480
#
# Poissons Ratio (x) = 0.20079 0.29800
# Poissons Ratio (y) = 0.28337 0.36442
# Poissons Ratio (z) = 0.20019 0.17347
#
# Static dielectric constant tensor:
#      x y z
#    x -4.490920 0.000000 14.267850 
#    y 0.000000 5.436420 0.000000 
#    z 14.267850 0.000000 -18.626050 
# 
# 
# High freq. dielectric constant tensor:
#      x y z
#    x 1.847690 0.000000 0.002650 
#    y 0.000000 1.819870 0.000000 
#    z 0.002650 0.000000 1.865120 
# 
# From -- ./inp_files/12555.got.cif
#   From: 2010.06.25/outbox.cif.g09.slc.cpg/sg13_7_cif.got.tgz:12555.got - 2010.06.28 04:50:58.
