data_PCOD8120819
_publ_section_title
;
Structure prediction by ZEFSAII (Michael W. Deem and Ramdas Pophale) SiO2 
 PCOD8120819
Probable space group: P 2/C
;
_chemical_formula_sum "Si O2"
_cell_formula_units_Z 26
_cell_length_a 9.624471
_cell_length_b 19.589973
_cell_length_c 8.816414
_cell_angle_alpha 90.000000
_cell_angle_beta 51.882692
_cell_angle_gamma 90.000000
_cell_volume 1307.791935
_symmetry_space_group_name_H-M "P 2/C"
_symmetry_group_IT_number 13
_symmetry_cell_setting 'monoclinic'
loop_
_space_group_symop_operation_xyz
x,y,z
-x,y,1/2-z
-x,-y,-z
x,-y,1/2+z
loop_
_atom_site_type_symbol
_atom_site_label
_atom_site_fract_x
_atom_site_fract_y
_atom_site_fract_z
Si Si1 0.706005 0.694383 0.663574
Si Si2 0.885701 0.963605 0.454370
Si Si3 0.663905 0.156769 0.243420
Si Si4 0.000000 0.367761 0.750000
Si Si5 0.598721 0.943466 0.031015
Si Si6 0.726980 0.557734 0.227964
Si Si7 0.659429 0.582427 0.928401
O O1 0.500000 0.686793 0.750000
O O2 0.762082 0.770638 0.681243
O O3 0.736503 0.648984 0.793470
O O4 0.846598 0.676312 0.436088
O O5 0.766183 0.906486 0.605586
O O6 0.000000 0.925220 0.250000
O O7 0.788617 0.025863 0.436872
O O8 0.000000 0.000000 0.500000
O O9 0.500000 0.172061 0.250000
O O10 0.608428 0.130900 0.446739
O O11 0.902341 0.414141 0.690482
O O12 0.500000 0.927575 0.250000
O O13 0.500000 0.000000 0.000000
O O14 0.550317 0.594514 0.408004
O O15 0.702180 0.478042 0.281469
O O16 0.749499 0.568087 0.031228
#
# Coordination Sequence:
#
# PCOD8120819 Si02
#       7
#     4   4   4   2   4   4   4
#     4  11  25  45  65  94 141 176 217 273 332 407
#     4  12  22  36  62  93 126 153 203 274 321 361
#     4  11  24  43  63  91 127 176 209 256 334 393
#     4  12  24  44  70 104 124 184 232 266 332 388
#     4  12  20  40  64  90 119 164 215 258 311 393
#     4  10  22  38  72  99 133 174 227 277 326 384
#     4  10  21  43  65  99 137 175 217 278 333 383
#
# _framework density 19.880837
#
# number of rings (size 3 to 8) (size 9 to 14) (size 15 to 20)
#    0.000    0.923    6.154    0.923    3.231    3.077 
#    2.769    3.077    0.000    0.000    0.000    0.000 
#    0.000    0.000    0.000    0.000    0.000    0.000 
#
# Total GULP energy -322243.575488 kJ/mol
# GULP energy per Si atom -12393.983673 kJ/mol
# Density = 1.983559 g / cm^3
# Si number density = 19.880837 Si / 1000 Ang^3
#
#
#
# Elastic Constant Matrix: (Units=GPa)
#
#
# Indices 1 2 3 4 5 6 
#
# 1 116.4518 31.3073 29.7681 0.0000 10.3333 0.0000
# 2 31.3073 109.5315 42.4907 0.0000 14.8530 0.0000
# 3 29.7681 42.4907 126.1918 0.0000 17.7877 0.0000
# 4 0.0000 0.0000 0.0000 73.2926 0.0000 1.1249
# 5 10.3333 14.8530 17.7877 0.0000 36.4332 0.0000
# 6 0.0000 0.0000 0.0000 1.1249 0.0000 21.4172
#
#
#
# Elastic Compliance Matrix: (Units=1/GPa)
#
#
# Indices 1 2 3 4 5 6 
#
# 1 0.009601 -0.002034 -0.001410 0.000000 -0.001206 0.000000
# 2 -0.002034 0.011194 -0.002929 0.000000 -0.002557 0.000000
# 3 -0.001410 -0.002929 0.009685 0.000000 -0.003134 0.000000
# 4 0.000000 0.000000 0.000000 0.013655 0.000000 -0.000717
# 5 -0.001206 -0.002557 -0.003134 0.000000 0.030362 0.000000
# 6 0.000000 0.000000 0.000000 -0.000717 0.000000 0.046729
#
#
# Mechanical properties :
#
#
# Convention : Reuss Voigt Hill
#
# Bulk Modulus (GPa) = 56.38701 62.14525 59.26613
# Shear Modulus (GPa) = 35.74373 42.80252 39.27313
#
# Velocity S-wave (km/s) = 4.24476 4.64503 4.44940
# Velocity P-wave (km/s) = 7.24211 7.75210 7.50144
#
# Compressibility (1/GPa) = 0.01773458
#
# Stress axis : x y z
#
# Youngs Moduli (GPa) = 104.15055 89.33272 103.25036
#
# Poissons Ratio (x) = 0.18169 0.14560
# Poissons Ratio (y) = 0.21183 0.30243
# Poissons Ratio (z) = 0.14687 0.26166
#
# Static dielectric constant tensor:
#      x y z
#    x 3.755540 0.000000 0.369840 
#    y 0.000000 3.095320 0.000000 
#    z 0.369840 0.000000 5.056890 
# 
# 
# High freq. dielectric constant tensor:
#      x y z
#    x 1.777240 0.000000 0.006450 
#    y 0.000000 1.762510 0.000000 
#    z 0.006450 0.000000 1.793230 
# 
# From -- ./inp_files/13638.got.cif
#   From: 2010.06.25/outbox.cif.g09.slc.cpg/sg13_7_cif.got.tgz:13638.got - 2010.06.28 04:50:58.
