data_PCOD8120634
_publ_section_title
;
Structure prediction by ZEFSAII (Michael W. Deem and Ramdas Pophale) SiO2 
 PCOD8120634
Probable space group: P 2/C
;
_chemical_formula_sum "Si O2"
_cell_formula_units_Z 16
_cell_length_a 5.200210
_cell_length_b 6.492860
_cell_length_c 20.252450
_cell_angle_alpha 90.000000
_cell_angle_beta 86.976344
_cell_angle_gamma 90.000000
_cell_volume 682.856521
_symmetry_space_group_name_H-M "P 2/C"
_symmetry_group_IT_number 13
_symmetry_cell_setting 'monoclinic'
loop_
_space_group_symop_operation_xyz
x,y,z
-x,y,1/2-z
-x,-y,-z
x,-y,1/2+z
loop_
_atom_site_type_symbol
_atom_site_label
_atom_site_fract_x
_atom_site_fract_y
_atom_site_fract_z
Si Si1 0.128393 0.124674 0.591789
Si Si2 0.643481 0.203177 0.527491
Si Si3 0.739473 0.161390 0.291454
Si Si4 0.340463 0.459258 0.096211
O O1 0.367630 0.075946 0.536711
O O2 0.113271 0.371713 0.602654
O O3 0.859389 0.064858 0.561485
O O4 0.176535 0.022114 0.661340
O O5 0.732761 0.272566 0.452918
O O6 0.597391 0.418883 0.568892
O O7 0.500000 0.084048 0.250000
O O8 0.629383 0.358521 0.332298
O O9 0.000000 0.224772 0.250000
#
# Coordination Sequence:
#
# PCOD8120634 Si02
#       4
#     4   4   4   4
#     4  10  21  41  62  92 126 158 202 267 312 377
#     4   9  20  40  68  96 118 155 207 265 338 357
#     4  12  28  41  60  91 128 177 218 244 304 386
#     4   9  23  40  68  92 125 156 211 266 315 373
#
# _framework density 23.430980999999999
#
# number of rings (size 3 to 8) (size 9 to 14) (size 15 to 20)
#    1.500    0.500    0.000    2.250    3.500    4.000 
#    0.000    0.000    0.000    0.000    0.000    0.000 
#    0.000    0.000    0.000    0.000    0.000    0.000 
#
# Total GULP energy -198330.640285 kJ/mol
# GULP energy per Si atom -12395.665018 kJ/mol
# Density = 2.337765 g / cm^3
# Si number density = 23.430981 Si / 1000 Ang^3
#
#
#
# Elastic Constant Matrix: (Units=GPa)
#
#
# Indices 1 2 3 4 5 6 
#
# 1 175.9190 34.9476 70.9758 0.0000 29.9096 0.0000
# 2 34.9476 97.6699 47.9794 0.0000 6.4584 0.0000
# 3 70.9758 47.9794 146.6769 0.0000 4.4796 0.0000
# 4 0.0000 0.0000 0.0000 35.0677 0.0000 0.7245
# 5 29.9096 6.4584 4.4796 0.0000 38.5953 0.0000
# 6 0.0000 0.0000 0.0000 0.7245 0.0000 30.4212
#
#
#
# Elastic Compliance Matrix: (Units=1/GPa)
#
#
# Indices 1 2 3 4 5 6 
#
# 1 0.008282 -0.000828 -0.003557 0.000000 -0.005866 0.000000
# 2 -0.000828 0.012379 -0.003618 0.000000 -0.001010 0.000000
# 3 -0.003557 -0.003618 0.009654 0.000000 0.002242 0.000000
# 4 0.000000 0.000000 0.000000 0.028530 0.000000 -0.000679
# 5 -0.005866 -0.001010 0.002242 0.000000 0.030365 0.000000
# 6 0.000000 0.000000 0.000000 -0.000679 0.000000 0.032888
#
#
# Mechanical properties :
#
#
# Convention : Reuss Voigt Hill
#
# Bulk Modulus (GPa) = 69.88931 80.89683 75.39307
# Shear Modulus (GPa) = 34.99608 38.57438 36.78523
#
# Velocity S-wave (km/s) = 3.86888 4.06186 3.96655
# Velocity P-wave (km/s) = 7.06046 7.52322 7.29551
#
# Compressibility (1/GPa) = 0.01430834
#
# Stress axis : x y z
#
# Youngs Moduli (GPa) = 120.75026 80.78353 103.58316
#
# Poissons Ratio (x) = 0.06687 0.36849
# Poissons Ratio (y) = 0.09995 0.37474
# Poissons Ratio (z) = 0.42956 0.29226
#
# Static dielectric constant tensor:
#      x y z
#    x 3.930160 0.000000 -0.135080 
#    y 0.000000 4.332990 0.000000 
#    z -0.135080 0.000000 4.130400 
# 
# 
# High freq. dielectric constant tensor:
#      x y z
#    x 1.917520 0.000000 -0.008680 
#    y 0.000000 1.955030 0.000000 
#    z -0.008680 0.000000 1.926310 
# 
# From -- ./inp_files/60200.got.cif
#   From: 2010.06.25/outbox.cif.g09.slc.cpg/sg13_31_cif.got.tgz:60200.got - 2010.06.28 04:50:58.
