data_PCOD8120341
_publ_section_title
;
Structure prediction by ZEFSAII (Michael W. Deem and Ramdas Pophale) SiO2 
 PCOD8120341
Probable space group: P 2/C
;
_chemical_formula_sum "Si O2"
_cell_formula_units_Z 20
_cell_length_a 12.523968
_cell_length_b 5.027459
_cell_length_c 21.381566
_cell_angle_alpha 90.000000
_cell_angle_beta 42.909217
_cell_angle_gamma 90.000000
_cell_volume 916.588137
_symmetry_space_group_name_H-M "P 2/C"
_symmetry_group_IT_number 13
_symmetry_cell_setting 'monoclinic'
loop_
_space_group_symop_operation_xyz
x,y,z
-x,y,1/2-z
-x,-y,-z
x,-y,1/2+z
loop_
_atom_site_type_symbol
_atom_site_label
_atom_site_fract_x
_atom_site_fract_y
_atom_site_fract_z
Si Si1 0.869115 0.570807 0.357592
Si Si2 0.247341 0.963960 0.447570
Si Si3 0.667386 0.928326 0.954860
Si Si4 0.982176 0.600555 0.579216
Si Si5 0.676953 0.540713 0.659969
O O1 0.729499 0.359159 0.406944
O O2 0.000000 0.512616 0.250000
O O3 0.940216 0.566124 0.397638
O O4 0.797402 0.860030 0.377230
O O5 0.357407 0.928524 0.460109
O O6 0.312409 0.765350 0.366100
O O7 0.065750 0.891486 0.543416
O O8 0.258055 0.269885 0.423120
O O9 0.500000 0.000000 0.000000
O O10 0.791972 0.602083 0.670364
O O11 0.000000 0.500000 0.500000
O O12 0.500000 0.621695 0.750000
#
# Coordination Sequence:
#
# PCOD8120341 Si02
#       5
#     4   4   4   4   4
#     4  11  24  41  62  94 125 159 206 257 307 358
#     4  10  21  39  58  84 117 158 203 239 296 369
#     4  11  23  41  64  87 120 166 208 250 303 369
#     4   9  20  39  63  84 117 161 198 235 294 369
#     4  11  22  36  58  91 120 150 195 257 303 343
#
# _framework density 21.820050999999999
#
# number of rings (size 3 to 8) (size 9 to 14) (size 15 to 20)
#    0.000    1.600    0.000    6.000    0.000    8.000 
#    0.000    0.000    0.000    0.000    0.000    0.000 
#    0.000    0.000    0.000    0.000    0.000    0.000 
#
# Total GULP energy -247829.516208 kJ/mol
# GULP energy per Si atom -12391.475810 kJ/mol
# Density = 2.177039 g / cm^3
# Si number density = 21.820051 Si / 1000 Ang^3
#
#
#
# Elastic Constant Matrix: (Units=GPa)
#
#
# Indices 1 2 3 4 5 6 
#
# 1 149.5654 14.8256 55.9046 0.0000 -27.2336 0.0000
# 2 14.8256 69.7635 6.1424 0.0000 0.7430 0.0000
# 3 55.9046 6.1424 80.3494 0.0000 -19.2311 0.0000
# 4 0.0000 0.0000 0.0000 29.3365 0.0000 -4.7478
# 5 -27.2336 0.7430 -19.2311 0.0000 43.7144 0.0000
# 6 0.0000 0.0000 0.0000 -4.7478 0.0000 28.3798
#
#
#
# Elastic Compliance Matrix: (Units=1/GPa)
#
#
# Indices 1 2 3 4 5 6 
#
# 1 0.009624 -0.001577 -0.005738 0.000000 0.003498 0.000000
# 2 -0.001577 0.014716 -0.000361 0.000000 -0.001391 0.000000
# 3 -0.005738 -0.000361 0.017449 0.000000 0.004107 0.000000
# 4 0.000000 0.000000 0.000000 0.035036 0.000000 0.005861
# 5 0.003498 -0.001391 0.004107 0.000000 0.026886 0.000000
# 6 0.000000 0.000000 0.000000 0.005861 0.000000 0.036217
#
#
# Mechanical properties :
#
#
# Convention : Reuss Voigt Hill
#
# Bulk Modulus (GPa) = 37.82646 50.38039 44.10343
# Shear Modulus (GPa) = 30.47069 35.13986 32.80527
#
# Velocity S-wave (km/s) = 3.74097 4.01738 3.88164
# Velocity P-wave (km/s) = 6.00276 6.68269 6.35183
#
# Compressibility (1/GPa) = 0.02643652
#
# Stress axis : x y z
#
# Youngs Moduli (GPa) = 103.90411 67.95371 57.31020
#
# Poissons Ratio (x) = 0.10718 0.32887
# Poissons Ratio (y) = 0.16389 0.02066
# Poissons Ratio (z) = 0.59625 0.02450
#
# Static dielectric constant tensor:
#      x y z
#    x 4.475090 0.000000 -0.391400 
#    y 0.000000 3.936710 0.000000 
#    z -0.391400 0.000000 3.940920 
# 
# 
# High freq. dielectric constant tensor:
#      x y z
#    x 1.867350 0.000000 -0.016240 
#    y 0.000000 1.866470 0.000000 
#    z -0.016240 0.000000 1.834720 
# 
# From -- ./inp_files/85498.got.cif
#   From: 2010.06.25/outbox.cif.g09.slc.cpg/sg13_43_cif.got.tgz:85498.got - 2010.06.28 04:50:58.
