data_PCOD8120832
_publ_section_title
;
Structure prediction by ZEFSAII (Michael W. Deem and Ramdas Pophale) SiO2 
 PCOD8120832
Probable space group: P 2/C
;
_chemical_formula_sum "Si O2"
_cell_formula_units_Z 32
_cell_length_a 11.060041
_cell_length_b 14.526953
_cell_length_c 17.130493
_cell_angle_alpha 90.000000
_cell_angle_beta 147.269799
_cell_angle_gamma 90.000000
_cell_volume 1488.142421
_symmetry_space_group_name_H-M "P 2/C"
_symmetry_group_IT_number 13
_symmetry_cell_setting 'monoclinic'
loop_
_space_group_symop_operation_xyz
x,y,z
-x,y,1/2-z
-x,-y,-z
x,-y,1/2+z
loop_
_atom_site_type_symbol
_atom_site_label
_atom_site_fract_x
_atom_site_fract_y
_atom_site_fract_z
Si Si1 0.517811 0.169664 0.615363
Si Si2 0.067594 0.374924 0.203940
Si Si3 0.471410 0.442772 0.327777
Si Si4 0.997803 0.880921 0.076079
Si Si5 0.609357 0.249764 0.393042
Si Si6 0.106226 0.915906 0.960772
Si Si7 0.275953 0.817495 0.829453
Si Si8 0.592900 0.640231 0.387765
O O1 0.759877 0.124324 0.753194
O O2 0.354486 0.126319 0.591688
O O3 0.412171 0.141340 0.475670
O O4 0.536304 0.280098 0.635148
O O5 0.219983 0.433624 0.226445
O O6 0.200227 0.286030 0.306500
O O7 0.000000 0.425652 0.250000
O O8 0.858685 0.342366 0.037235
O O9 0.500000 0.450817 0.250000
O O10 0.616299 0.353403 0.434124
O O11 0.556662 0.540089 0.408356
O O12 0.006325 0.881457 0.987796
O O13 0.877751 0.974184 0.038620
O O14 0.856582 0.792179 0.026084
O O15 0.500000 0.261788 0.250000
O O16 0.447507 0.180587 0.350814
O O17 0.942202 0.879124 0.804233
O O18 0.500000 0.643275 0.250000
#
# Coordination Sequence:
#
# PCOD8120832 Si02
#       8
#     4   4   4   4   4   4   4   4
#     4  12  25  42  65  99 133 168 220 277 335 387
#     4  11  21  42  67  92 132 187 221 268 344 403
#     4   9  23  39  66 102 132 176 231 273 335 404
#     4  11  26  40  68  99 131 169 220 283 327 384
#     4  10  21  43  68  91 134 179 216 264 338 398
#     4  11  23  43  66  95 127 173 224 266 329 405
#     4  11  22  43  68  89 128 177 220 260 326 415
#     4  11  23  40  67 100 131 168 227 283 325 395
#
# _framework density 21.503318
#
# number of rings (size 3 to 8) (size 9 to 14) (size 15 to 20)
#    0.000    1.250    3.750    1.500    1.750    4.500 
#    2.250    0.000    0.000    0.000    0.000    0.000 
#    0.000    0.000    0.000    0.000    0.000    0.000 
#
# Total GULP energy -396690.343055 kJ/mol
# GULP energy per Si atom -12396.573220 kJ/mol
# Density = 2.145438 g / cm^3
# Si number density = 21.503318 Si / 1000 Ang^3
#
#
#
# Elastic Constant Matrix: (Units=GPa)
#
#
# Indices 1 2 3 4 5 6 
#
# 1 95.1756 32.7478 23.7358 0.0000 11.2227 0.0000
# 2 32.7478 105.3360 28.1838 0.0000 14.4104 0.0000
# 3 23.7358 28.1838 119.4392 0.0000 7.8566 0.0000
# 4 0.0000 0.0000 0.0000 26.9926 0.0000 4.1719
# 5 11.2227 14.4104 7.8566 0.0000 33.5922 0.0000
# 6 0.0000 0.0000 0.0000 4.1719 0.0000 8.0662
#
#
#
# Elastic Compliance Matrix: (Units=1/GPa)
#
#
# Indices 1 2 3 4 5 6 
#
# 1 0.012230 -0.003057 -0.001550 0.000000 -0.002412 0.000000
# 2 -0.003057 0.011412 -0.001859 0.000000 -0.003439 0.000000
# 3 -0.001550 -0.001859 0.009174 0.000000 -0.000830 0.000000
# 4 0.000000 0.000000 0.000000 0.040266 0.000000 -0.020826
# 5 -0.002412 -0.003439 -0.000830 0.000000 0.032244 0.000000
# 6 0.000000 0.000000 0.000000 -0.020826 0.000000 0.134745
#
#
# Mechanical properties :
#
#
# Convention : Reuss Voigt Hill
#
# Bulk Modulus (GPa) = 50.29650 54.36506 52.33078
# Shear Modulus (GPa) = 19.25807 29.41576 24.33692
#
# Velocity S-wave (km/s) = 2.99588 3.70261 3.36784
# Velocity P-wave (km/s) = 5.95046 6.60425 6.28586
#
# Compressibility (1/GPa) = 0.01988210
#
# Stress axis : x y z
#
# Youngs Moduli (GPa) = 81.76686 87.62822 109.00576
#
# Poissons Ratio (x) = 0.26792 0.16899
# Poissons Ratio (y) = 0.24999 0.20264
# Poissons Ratio (z) = 0.12677 0.16290
#
# Static dielectric constant tensor:
#      x y z
#    x 4.022130 0.000000 0.104290 
#    y 0.000000 4.190840 0.000000 
#    z 0.104290 0.000000 3.687890 
# 
# 
# High freq. dielectric constant tensor:
#      x y z
#    x 1.845490 0.000000 0.003340 
#    y 0.000000 1.842740 0.000000 
#    z 0.003340 0.000000 1.833610 
# 
# From -- ./inp_files/66945.got.cif
#   From: 2010.06.25/outbox.cif.g09.slc.cpg/sg13_34_cif.got.tgz:66945.got - 2010.06.28 04:50:58.
