data_PCOD8120011
_publ_section_title
;
Structure prediction by ZEFSAII (Michael W. Deem and Ramdas Pophale) SiO2 
 PCOD8120011
Probable space group: P 2/C
;
_chemical_formula_sum "Si O2"
_cell_formula_units_Z 26
_cell_length_a 7.916641
_cell_length_b 12.298690
_cell_length_c 18.081890
_cell_angle_alpha 90.000000
_cell_angle_beta 136.645490
_cell_angle_gamma 90.000000
_cell_volume 1208.622761
_symmetry_space_group_name_H-M "P 2/C"
_symmetry_group_IT_number 13
_symmetry_cell_setting 'monoclinic'
loop_
_space_group_symop_operation_xyz
x,y,z
-x,y,1/2-z
-x,-y,-z
x,-y,1/2+z
loop_
_atom_site_type_symbol
_atom_site_label
_atom_site_fract_x
_atom_site_fract_y
_atom_site_fract_z
Si Si1 0.121335 0.195570 0.164613
Si Si2 0.401405 0.816672 0.601794
Si Si3 0.478752 0.779089 0.329786
Si Si4 0.294216 0.384153 0.974019
Si Si5 0.751425 0.621223 0.523009
Si Si6 0.000000 0.288892 0.750000
Si Si7 0.205871 0.033032 0.508221
O O1 0.301693 0.191627 0.293190
O O2 0.278248 0.170980 0.141903
O O3 0.999834 0.315139 0.124002
O O4 0.909644 0.100474 0.098204
O O5 0.270854 0.712591 0.524898
O O6 0.343747 0.920489 0.529799
O O7 0.500000 0.757300 0.250000
O O8 0.622150 0.679999 0.413362
O O9 0.596965 0.893888 0.386441
O O10 0.198679 0.785304 0.270179
O O11 0.201696 0.495208 0.984099
O O12 0.125772 0.367156 0.849169
O O13 0.579373 0.384972 0.040740
O O14 0.000000 0.000000 0.500000
#
# Coordination Sequence:
#
# PCOD8120011 Si02
#       7
#     4   4   4   4   4   2   4
#     4   9  20  37  56  89 122 153 206 248 299 380
#     4  10  21  36  60  91 122 160 202 254 308 361
#     4  10  22  40  66  92 123 170 209 260 313 373
#     4  10  22  40  62  85 126 162 201 267 306 365
#     4   9  21  42  59  87 121 162 212 244 320 375
#     4  10  24  40  60  98 126 160 220 254 314 378
#     4   9  20  36  63  89 121 163 206 250 313 377
#
# _framework density 21.512087999999999
#
# number of rings (size 3 to 8) (size 9 to 14) (size 15 to 20)
#    0.000    2.462    0.000    0.000   10.769    4.923 
#    2.769    8.462    0.000    0.000    0.000    0.000 
#    0.000    0.000    0.000    0.000    0.000    0.000 
#
# Total GULP energy -322274.674467 kJ/mol
# GULP energy per Si atom -12395.179787 kJ/mol
# Density = 2.146313 g / cm^3
# Si number density = 21.512088 Si / 1000 Ang^3
#
#
#
# Elastic Constant Matrix: (Units=GPa)
#
#
# Indices 1 2 3 4 5 6 
#
# 1 59.9963 28.1446 30.1247 0.0000 13.9609 0.0000
# 2 28.1446 198.6160 74.7618 0.0000 10.4461 0.0000
# 3 30.1247 74.7618 125.0704 0.0000 16.8907 0.0000
# 4 0.0000 0.0000 0.0000 17.0370 0.0000 9.7365
# 5 13.9609 10.4461 16.8907 0.0000 27.2029 0.0000
# 6 0.0000 0.0000 0.0000 9.7365 0.0000 24.6364
#
#
#
# Elastic Compliance Matrix: (Units=1/GPa)
#
#
# Indices 1 2 3 4 5 6 
#
# 1 0.020762 -0.001349 -0.003084 0.000000 -0.008223 0.000000
# 2 -0.001349 0.006584 -0.003671 0.000000 0.000443 0.000000
# 3 -0.003084 -0.003671 0.011492 0.000000 -0.004143 0.000000
# 4 0.000000 0.000000 0.000000 0.075820 0.000000 -0.029965
# 5 -0.008223 0.000443 -0.004143 0.000000 0.043383 0.000000
# 6 0.000000 0.000000 0.000000 -0.029965 0.000000 0.052433
#
#
# Mechanical properties :
#
#
# Convention : Reuss Voigt Hill
#
# Bulk Modulus (GPa) = 44.18642 72.19388 58.19015
# Shear Modulus (GPa) = 21.34687 30.48538 25.91612
#
# Velocity S-wave (km/s) = 3.15353 3.76856 3.47468
# Velocity P-wave (km/s) = 5.81760 7.25042 6.57317
#
# Compressibility (1/GPa) = 0.02263139
#
# Stress axis : x y z
#
# Youngs Moduli (GPa) = 48.16415 151.87362 87.01563
#
# Poissons Ratio (x) = 0.20483 0.26837
# Poissons Ratio (y) = 0.06496 0.31942
# Poissons Ratio (z) = 0.14855 0.55751
#
# Static dielectric constant tensor:
#      x y z
#    x 3.705850 0.000000 0.384270 
#    y 0.000000 4.059500 0.000000 
#    z 0.384270 0.000000 4.169690 
# 
# 
# High freq. dielectric constant tensor:
#      x y z
#    x 1.821900 0.000000 0.017540 
#    y 0.000000 1.850640 0.000000 
#    z 0.017540 0.000000 1.849280 
# 
# From -- ./inp_files/76511.got.cif
#   From: 2010.06.25/outbox.cif.g09.slc.cpg/sg13_39_cif.got.tgz:76511.got - 2010.06.28 04:50:58.
