data_PCOD8120888
_publ_section_title
;
Structure prediction by ZEFSAII (Michael W. Deem and Ramdas Pophale) SiO2 
 PCOD8120888
Probable space group: P 2/C
;
_chemical_formula_sum "Si O2"
_cell_formula_units_Z 28
_cell_length_a 7.789143
_cell_length_b 23.632768
_cell_length_c 12.188319
_cell_angle_alpha 90.000000
_cell_angle_beta 36.633935
_cell_angle_gamma 90.000000
_cell_volume 1338.764874
_symmetry_space_group_name_H-M "P 2/C"
_symmetry_group_IT_number 13
_symmetry_cell_setting 'monoclinic'
loop_
_space_group_symop_operation_xyz
x,y,z
-x,y,1/2-z
-x,-y,-z
x,-y,1/2+z
loop_
_atom_site_type_symbol
_atom_site_label
_atom_site_fract_x
_atom_site_fract_y
_atom_site_fract_z
Si Si1 0.661353 0.057467 0.892284
Si Si2 0.000000 0.427172 0.250000
Si Si3 0.738236 0.505440 0.213224
Si Si4 0.499593 0.375154 0.873178
Si Si5 0.484218 0.171337 0.431630
Si Si6 0.500000 0.107292 0.750000
Si Si7 0.982134 0.811675 0.510353
Si Si8 0.746455 0.740069 0.296321
O O1 0.616989 0.067628 0.786367
O O2 0.000000 0.055085 0.750000
O O3 0.487254 0.106462 0.046325
O O4 0.500000 0.000000 0.000000
O O5 0.231433 0.465074 0.197116
O O6 0.824576 0.388500 0.423580
O O7 0.500000 0.485099 0.250000
O O8 0.695754 0.568669 0.282198
O O9 0.000000 0.500000 0.000000
O O10 0.500000 0.353643 0.750000
O O11 0.611744 0.321795 0.882788
O O12 0.195537 0.169834 0.506190
O O13 0.464345 0.210091 0.551561
O O14 0.760112 0.195798 0.224423
O O15 0.776015 0.144659 0.573982
O O16 0.147589 0.754237 0.383239
O O17 0.000000 0.739253 0.250000
#
# Coordination Sequence:
#
# PCOD8120888 Si02
#       8
#     4   2   4   4   4   2   4   4
#     4  12  27  46  69 105 145 179 234 286 336 416
#     4  12  24  46  70  94 142 190 220 284 358 400
#     4  11  23  44  69  99 135 182 231 283 345 415
#     4  11  25  41  64 102 134 174 236 285 335 419
#     4  10  21  47  70  98 138 180 232 278 344 416
#     4  12  24  44  72 100 138 188 224 284 352 396
#     4  10  22  41  75  97 133 185 224 279 346 409
#     4  10  22  43  68  98 140 178 226 292 346 403
#
# _framework density 20.914801000000001
#
# number of rings (size 3 to 8) (size 9 to 14) (size 15 to 20)
#    0.000    1.143    5.714    0.857    4.000    2.857 
#    0.000    0.000    0.000    0.000    0.000    0.000 
#    0.000    0.000    0.000    0.000    0.000    0.000 
#
# Total GULP energy -346951.755977 kJ/mol
# GULP energy per Si atom -12391.134142 kJ/mol
# Density = 2.086720 g / cm^3
# Si number density = 20.914801 Si / 1000 Ang^3
#
#
#
# Elastic Constant Matrix: (Units=GPa)
#
#
# Indices 1 2 3 4 5 6 
#
# 1 99.0705 38.6065 46.5667 0.0000 1.6027 0.0000
# 2 38.6065 133.4113 70.9380 0.0000 5.2120 0.0000
# 3 46.5667 70.9380 138.2286 0.0000 -5.4630 0.0000
# 4 0.0000 0.0000 0.0000 38.6377 0.0000 11.6535
# 5 1.6027 5.2120 -5.4630 0.0000 25.8385 0.0000
# 6 0.0000 0.0000 0.0000 11.6535 0.0000 25.8350
#
#
#
# Elastic Compliance Matrix: (Units=1/GPa)
#
#
# Indices 1 2 3 4 5 6 
#
# 1 0.012353 -0.001782 -0.003291 0.000000 -0.001102 0.000000
# 2 -0.001782 0.010839 -0.005087 0.000000 -0.003151 0.000000
# 3 -0.003291 -0.005087 0.011095 0.000000 0.003576 0.000000
# 4 0.000000 0.000000 0.000000 0.029957 0.000000 -0.013513
# 5 -0.001102 -0.003151 0.003576 0.000000 0.040162 0.000000
# 6 0.000000 0.000000 0.000000 -0.013513 0.000000 0.044803
#
#
# Mechanical properties :
#
#
# Convention : Reuss Voigt Hill
#
# Bulk Modulus (GPa) = 71.59163 75.88145 73.73654
# Shear Modulus (GPa) = 28.70547 32.36884 30.53716
#
# Velocity S-wave (km/s) = 3.70874 3.93829 3.82524
# Velocity P-wave (km/s) = 7.25563 7.55249 7.40555
#
# Compressibility (1/GPa) = 0.01396811
#
# Stress axis : x y z
#
# Youngs Moduli (GPa) = 80.95396 92.25787 90.13255
#
# Poissons Ratio (x) = 0.16439 0.29658
# Poissons Ratio (y) = 0.14425 0.45849
# Poissons Ratio (z) = 0.26638 0.46930
#
# Static dielectric constant tensor:
#      x y z
#    x 3.814700 0.000000 0.310270 
#    y 0.000000 4.050310 0.000000 
#    z 0.310270 0.000000 3.750500 
# 
# 
# High freq. dielectric constant tensor:
#      x y z
#    x 1.827450 0.000000 0.001070 
#    y 0.000000 1.809940 0.000000 
#    z 0.001070 0.000000 1.828120 
# 
# From -- ./inp_files/48229.got.cif
#   From: 2010.06.25/outbox.cif.g09.slc.cpg/sg13_25_cif.got.tgz:48229.got - 2010.06.28 04:50:58.
