data_PCOD8120706
_publ_section_title
;
Structure prediction by ZEFSAII (Michael W. Deem and Ramdas Pophale) SiO2 
 PCOD8120706
Probable space group: P 2/C
;
_chemical_formula_sum "Si O2"
_cell_formula_units_Z 16
_cell_length_a 9.735205
_cell_length_b 7.116891
_cell_length_c 11.118924
_cell_angle_alpha 90.000000
_cell_angle_beta 68.623095
_cell_angle_gamma 90.000000
_cell_volume 717.368757
_symmetry_space_group_name_H-M "P 2/C"
_symmetry_group_IT_number 13
_symmetry_cell_setting 'monoclinic'
loop_
_space_group_symop_operation_xyz
x,y,z
-x,y,1/2-z
-x,-y,-z
x,-y,1/2+z
loop_
_atom_site_type_symbol
_atom_site_label
_atom_site_fract_x
_atom_site_fract_y
_atom_site_fract_z
Si Si1 0.649881 0.225694 0.776966
Si Si2 0.918064 0.970305 0.653103
Si Si3 0.723419 0.643931 0.718158
Si Si4 0.455238 0.691410 0.951580
O O1 0.500000 0.241023 0.750000
O O2 0.733201 0.427463 0.755011
O O3 0.762994 0.077668 0.685789
O O4 0.601686 0.165120 0.927647
O O5 0.880191 0.749190 0.683279
O O6 0.000000 0.039545 0.750000
O O7 0.000000 0.000000 0.500000
O O8 0.599962 0.761515 0.833633
O O9 0.681135 0.651770 0.592120
O O10 0.500000 0.500000 0.000000
#
# Coordination Sequence:
#
# PCOD8120706 Si02
#       4
#     4   4   4   4
#     4  11  23  40  72 100 126 168 228 286 328 384
#     4  12  30  46  62  99 143 187 220 262 342 415
#     4  10  21  41  69  95 132 168 223 278 334 388
#     4   9  17  37  65 105 123 153 221 284 333 374
#
# _framework density 22.303730999999999
#
# number of rings (size 3 to 8) (size 9 to 14) (size 15 to 20)
#    0.000    1.500    5.000    1.500    7.000    3.000 
#    0.000    0.000    0.000    0.000    0.000    0.000 
#    0.000    0.000    0.000    0.000    0.000    0.000 
#
# Total GULP energy -198276.207602 kJ/mol
# GULP energy per Si atom -12392.262975 kJ/mol
# Density = 2.225297 g / cm^3
# Si number density = 22.303731 Si / 1000 Ang^3
#
#
#
# Elastic Constant Matrix: (Units=GPa)
#
#
# Indices 1 2 3 4 5 6 
#
# 1 73.0018 37.8368 45.9244 0.0000 -1.3463 0.0000
# 2 37.8368 67.9153 33.1041 0.0000 -14.0972 0.0000
# 3 45.9244 33.1041 170.5183 0.0000 13.9202 0.0000
# 4 0.0000 0.0000 0.0000 30.1788 0.0000 -12.1912
# 5 -1.3463 -14.0972 13.9202 0.0000 36.5378 0.0000
# 6 0.0000 0.0000 0.0000 -12.1912 0.0000 27.2729
#
#
#
# Elastic Compliance Matrix: (Units=1/GPa)
#
#
# Indices 1 2 3 4 5 6 
#
# 1 0.021379 -0.010588 -0.003543 0.000000 -0.001947 0.000000
# 2 -0.010588 0.023929 -0.002597 0.000000 0.009832 0.000000
# 3 -0.003543 -0.002597 0.007653 0.000000 -0.004048 0.000000
# 4 0.000000 0.000000 0.000000 0.040438 0.000000 0.018076
# 5 -0.001947 0.009832 -0.004048 0.000000 0.032633 0.000000
# 6 0.000000 0.000000 0.000000 0.018076 0.000000 0.044747
#
#
# Mechanical properties :
#
#
# Convention : Reuss Voigt Hill
#
# Bulk Modulus (GPa) = 51.26586 60.57401 55.91993
# Shear Modulus (GPa) = 23.72627 31.76925 27.74776
#
# Velocity S-wave (km/s) = 3.26510 3.77821 3.53099
# Velocity P-wave (km/s) = 6.10326 6.80079 6.46144
#
# Compressibility (1/GPa) = 0.01950616
#
# Stress axis : x y z
#
# Youngs Moduli (GPa) = 46.77459 41.78972 130.66107
#
# Poissons Ratio (x) = 0.44246 0.46299
# Poissons Ratio (y) = 0.49524 0.33929
# Poissons Ratio (z) = 0.16574 0.10852
#
# Static dielectric constant tensor:
#      x y z
#    x 3.635280 0.000000 -0.113480 
#    y 0.000000 3.871030 0.000000 
#    z -0.113480 0.000000 4.534460 
# 
# 
# High freq. dielectric constant tensor:
#      x y z
#    x 1.858710 0.000000 0.012050 
#    y 0.000000 1.867180 0.000000 
#    z 0.012050 0.000000 1.899960 
# 
# From -- ./inp_files/27549.got.cif
#   From: 2010.06.25/outbox.cif.g09.slc.cpg/sg13_14_cif.got.tgz:27549.got - 2010.06.28 04:50:58.
