data_PCOD8120611
_publ_section_title
;
Structure prediction by ZEFSAII (Michael W. Deem and Ramdas Pophale) SiO2 
 PCOD8120611
Probable space group: P 2/C
;
_chemical_formula_sum "Si O2"
_cell_formula_units_Z 32
_cell_length_a 11.637840
_cell_length_b 15.275406
_cell_length_c 17.717527
_cell_angle_alpha 90.000000
_cell_angle_beta 27.159913
_cell_angle_gamma 90.000000
_cell_volume 1437.757870
_symmetry_space_group_name_H-M "P 2/C"
_symmetry_group_IT_number 13
_symmetry_cell_setting 'monoclinic'
loop_
_space_group_symop_operation_xyz
x,y,z
-x,y,1/2-z
-x,-y,-z
x,-y,1/2+z
loop_
_atom_site_type_symbol
_atom_site_label
_atom_site_fract_x
_atom_site_fract_y
_atom_site_fract_z
Si Si1 0.491958 0.636410 0.045052
Si Si2 0.278103 0.378722 0.931346
Si Si3 0.873912 0.511873 0.745822
Si Si4 0.254314 0.132849 0.444923
Si Si5 0.533777 0.211717 0.413370
Si Si6 0.712033 0.936982 0.909264
Si Si7 0.262882 0.936605 0.440724
Si Si8 0.969863 0.222878 0.053749
O O1 0.637861 0.660371 0.036690
O O2 0.258589 0.575944 0.207493
O O3 0.671278 0.586831 0.880852
O O4 0.407009 0.721262 0.047065
O O5 0.500000 0.420052 0.750000
O O6 0.177194 0.297716 0.940976
O O7 0.072935 0.454808 0.066735
O O8 0.000000 0.483575 0.750000
O O9 0.500000 0.127293 0.250000
O O10 0.311551 0.162422 0.497482
O O11 0.071781 0.203970 0.511406
O O12 0.140719 0.034521 0.512932
O O13 0.713781 0.147947 0.355735
O O14 0.717451 0.256453 0.243950
O O15 0.000000 0.974274 0.750000
O O16 0.623832 0.911602 0.044240
O O17 0.500000 0.000000 0.000000
O O18 0.500000 0.926027 0.250000
O O19 0.044010 0.870528 0.545599
#
# Coordination Sequence:
#
# PCOD8120611 Si02
#       8
#     4   4   4   4   4   4   4   4
#     4  10  21  40  71  97 127 168 221 277 340 424
#     4  11  23  40  66 101 135 169 219 283 343 424
#     4   9  20  42  70  98 128 166 213 269 350 427
#     4   9  21  37  58  93 135 181 231 284 338 406
#     4  11  21  40  66  96 133 181 235 290 349 403
#     4  12  25  42  66 100 140 188 244 301 353 406
#     4  11  22  39  63  93 136 188 239 284 345 410
#     4  11  21  38  65  94 135 183 229 285 347 408
#
# _framework density 22.256876999999999
#
# number of rings (size 3 to 8) (size 9 to 14) (size 15 to 20)
#    0.000    1.500    3.750    1.500    0.000    1.500 
#    2.250    0.625    2.750    0.000    0.000    0.000 
#    0.000    0.000    0.000    0.000    0.000    0.000 
#
# Total GULP energy -396656.741350 kJ/mol
# GULP energy per Si atom -12395.523167 kJ/mol
# Density = 2.220622 g / cm^3
# Si number density = 22.256877 Si / 1000 Ang^3
#
#
#
# Elastic Constant Matrix: (Units=GPa)
#
#
# Indices 1 2 3 4 5 6 
#
# 1 132.3757 40.8682 37.0111 0.0000 -4.3857 0.0000
# 2 40.8682 78.6812 47.9357 0.0000 -12.2810 0.0000
# 3 37.0111 47.9357 112.0779 0.0000 7.2797 0.0000
# 4 0.0000 0.0000 0.0000 28.9209 0.0000 -3.3316
# 5 -4.3857 -12.2810 7.2797 0.0000 31.4717 0.0000
# 6 0.0000 0.0000 0.0000 -3.3316 0.0000 30.8671
#
#
#
# Elastic Compliance Matrix: (Units=1/GPa)
#
#
# Indices 1 2 3 4 5 6 
#
# 1 0.009143 -0.003920 -0.001346 0.000000 0.000056 0.000000
# 2 -0.003920 0.021469 -0.008525 0.000000 0.009803 0.000000
# 3 -0.001346 -0.008525 0.013443 0.000000 -0.006624 0.000000
# 4 0.000000 0.000000 0.000000 0.035012 0.000000 0.003779
# 5 0.000056 0.009803 -0.006624 0.000000 0.037140 0.000000
# 6 0.000000 0.000000 0.000000 0.003779 0.000000 0.032805
#
#
# Mechanical properties :
#
#
# Convention : Reuss Voigt Hill
#
# Bulk Modulus (GPa) = 60.70385 63.86274 62.28330
# Shear Modulus (GPa) = 27.45962 31.40660 29.43311
#
# Velocity S-wave (km/s) = 3.51630 3.76053 3.64046
# Velocity P-wave (km/s) = 6.61961 6.90009 6.76130
#
# Compressibility (1/GPa) = 0.01647342
#
# Stress axis : x y z
#
# Youngs Moduli (GPa) = 109.37683 46.57792 74.38710
#
# Poissons Ratio (x) = 0.18258 0.10014
# Poissons Ratio (y) = 0.42875 0.63413
# Poissons Ratio (z) = 0.14724 0.39707
#
# Static dielectric constant tensor:
#      x y z
#    x 4.342180 0.000000 0.035870 
#    y 0.000000 3.873490 0.000000 
#    z 0.035870 0.000000 3.830960 
# 
# 
# High freq. dielectric constant tensor:
#      x y z
#    x 1.886300 0.000000 0.006920 
#    y 0.000000 1.855340 0.000000 
#    z 0.006920 0.000000 1.864130 
# 
# From -- ./inp_files/66905.got.cif
#   From: 2010.06.25/outbox.cif.g09.slc.cpg/sg13_34_cif.got.tgz:66905.got - 2010.06.28 04:50:58.
