data_PCOD8120024
_publ_section_title
;
Structure prediction by ZEFSAII (Michael W. Deem and Ramdas Pophale) SiO2 
 PCOD8120024
Probable space group: P 2/C
;
_chemical_formula_sum "Si O2"
_cell_formula_units_Z 20
_cell_length_a 10.274032
_cell_length_b 8.732024
_cell_length_c 23.856818
_cell_angle_alpha 90.000000
_cell_angle_beta 154.818526
_cell_angle_gamma 90.000000
_cell_volume 910.655981
_symmetry_space_group_name_H-M "P 2/C"
_symmetry_group_IT_number 13
_symmetry_cell_setting 'monoclinic'
loop_
_space_group_symop_operation_xyz
x,y,z
-x,y,1/2-z
-x,-y,-z
x,-y,1/2+z
loop_
_atom_site_type_symbol
_atom_site_label
_atom_site_fract_x
_atom_site_fract_y
_atom_site_fract_z
Si Si1 0.638941 0.919630 0.609106
Si Si2 0.227835 0.170603 0.110641
Si Si3 0.316979 0.355644 0.039840
Si Si4 0.328346 0.430064 0.740932
Si Si5 0.585341 0.882192 0.378017
O O1 0.587183 0.036388 0.639231
O O2 0.000000 0.889739 0.750000
O O3 0.500000 0.000000 0.500000
O O4 0.477069 0.754889 0.556428
O O5 0.500000 0.257702 0.250000
O O6 0.155850 0.252377 0.024288
O O7 0.344034 0.998068 0.145310
O O8 0.920980 0.178556 0.028721
O O9 0.561489 0.467861 0.163844
O O10 0.038663 0.455030 0.905741
O O11 0.500000 0.473505 0.750000
O O12 0.374588 0.252411 0.773348
#
# Coordination Sequence:
#
# PCOD8120024 Si02
#       5
#     4   4   4   4   4
#     4  11  26  48  69  94 128 178 235 279 316 377
#     4  10  21  36  63 100 133 170 217 273 338 392
#     4  11  26  41  67  98 138 175 216 267 337 398
#     4  12  23  42  64 104 139 169 205 272 347 410
#     4  10  23  38  67  95 132 172 221 277 330 389
#
# _framework density 21.962191000000001
#
# number of rings (size 3 to 8) (size 9 to 14) (size 15 to 20)
#    0.000    1.200    2.000    3.000   14.000    0.000 
#    0.000    5.000    0.000    0.000    0.000    0.000 
#    0.000    0.000    0.000    0.000    0.000    0.000 
#
# Total GULP energy -247958.830105 kJ/mol
# GULP energy per Si atom -12397.941505 kJ/mol
# Density = 2.191220 g / cm^3
# Si number density = 21.962191 Si / 1000 Ang^3
#
#
#
# Elastic Constant Matrix: (Units=GPa)
#
#
# Indices 1 2 3 4 5 6 
#
# 1 79.7702 32.4228 55.0898 0.0000 10.3646 0.0000
# 2 32.4228 105.7106 42.1689 0.0000 -8.1326 0.0000
# 3 55.0898 42.1689 190.2111 0.0000 3.2777 0.0000
# 4 0.0000 0.0000 0.0000 30.2749 0.0000 -12.6679
# 5 10.3646 -8.1326 3.2777 0.0000 36.5558 0.0000
# 6 0.0000 0.0000 0.0000 -12.6679 0.0000 20.7150
#
#
#
# Elastic Compliance Matrix: (Units=1/GPa)
#
#
# Indices 1 2 3 4 5 6 
#
# 1 0.017852 -0.004263 -0.004128 0.000000 -0.005640 0.000000
# 2 -0.004263 0.011632 -0.001412 0.000000 0.003923 0.000000
# 3 -0.004128 -0.001412 0.006762 0.000000 0.000250 0.000000
# 4 0.000000 0.000000 0.000000 0.044389 0.000000 0.027145
# 5 -0.005640 0.003923 0.000250 0.000000 0.029805 0.000000
# 6 0.000000 0.000000 0.000000 0.027145 0.000000 0.064875
#
#
# Mechanical properties :
#
#
# Convention : Reuss Voigt Hill
#
# Bulk Modulus (GPa) = 60.09361 70.56165 65.32763
# Shear Modulus (GPa) = 24.94176 33.90984 29.42580
#
# Velocity S-wave (km/s) = 3.37362 3.93365 3.66435
# Velocity P-wave (km/s) = 6.52662 7.26842 6.90749
#
# Compressibility (1/GPa) = 0.01664070
#
# Stress axis : x y z
#
# Youngs Moduli (GPa) = 56.01494 85.96830 147.89263
#
# Poissons Ratio (x) = 0.36645 0.61054
# Poissons Ratio (y) = 0.23877 0.20880
# Poissons Ratio (z) = 0.23125 0.12137
#
# Static dielectric constant tensor:
#      x y z
#    x 3.729120 0.000000 -0.018250 
#    y 0.000000 4.036400 0.000000 
#    z -0.018250 0.000000 4.171630 
# 
# 
# High freq. dielectric constant tensor:
#      x y z
#    x 1.829770 0.000000 -0.004370 
#    y 0.000000 1.875130 0.000000 
#    z -0.004370 0.000000 1.883970 
# 
# From -- ./inp_files/96653.got.cif
#   From: 2010.06.25/outbox.cif.g09.slc.cpg/sg13_49_cif.got.tgz:96653.got - 2010.06.28 04:50:58.
