data_PCOD8120092
_publ_section_title
;
Structure prediction by ZEFSAII (Michael W. Deem and Ramdas Pophale) SiO2 
 PCOD8120092
Probable space group: P 2/C
;
_chemical_formula_sum "Si O2"
_cell_formula_units_Z 32
_cell_length_a 18.840235
_cell_length_b 9.608786
_cell_length_c 14.059891
_cell_angle_alpha 90.000000
_cell_angle_beta 41.091987
_cell_angle_gamma 90.000000
_cell_volume 1672.940528
_symmetry_space_group_name_H-M "P 2/C"
_symmetry_group_IT_number 13
_symmetry_cell_setting 'monoclinic'
loop_
_space_group_symop_operation_xyz
x,y,z
-x,y,1/2-z
-x,-y,-z
x,-y,1/2+z
loop_
_atom_site_type_symbol
_atom_site_label
_atom_site_fract_x
_atom_site_fract_y
_atom_site_fract_z
Si Si1 0.179773 0.981875 0.318470
Si Si2 0.499685 0.665968 0.360846
Si Si3 0.995451 0.919520 0.643849
Si Si4 0.992606 0.409343 0.367467
Si Si5 0.678374 0.761822 0.816564
Si Si6 0.494270 0.663095 0.646917
Si Si7 0.325263 0.279074 0.670588
Si Si8 0.829085 0.520033 0.672487
O O1 0.226520 0.827053 0.266069
O O2 0.097797 0.992245 0.490071
O O3 0.115595 0.018917 0.286646
O O4 0.284935 0.078370 0.225618
O O5 0.500000 0.706133 0.250000
O O6 0.396059 0.735823 0.515601
O O7 0.494518 0.500990 0.382787
O O8 0.610802 0.724732 0.293527
O O9 0.998722 0.754688 0.623143
O O10 0.000000 0.957389 0.750000
O O11 0.086627 0.493171 0.326423
O O12 0.000000 0.447832 0.250000
O O13 0.879622 0.466890 0.522035
O O14 0.618269 0.718069 0.780832
O O15 0.791045 0.678945 0.706046
O O16 0.500000 0.703653 0.750000
O O17 0.589473 0.747803 0.499346
O O18 0.276741 0.430668 0.699565
#
# Coordination Sequence:
#
# PCOD8120092 Si02
#       8
#     4   4   4   4   4   4   4   4
#     4  11  24  39  60  86 118 157 192 237 292 348
#     4  10  21  37  61  90 113 147 196 240 284 345
#     4  10  22  41  60  83 118 157 197 238 288 352
#     4  10  22  37  60  91 116 149 201 246 282 342
#     4  11  21  39  59  85 118 153 189 234 292 343
#     4  10  21  37  59  88 119 147 190 244 288 336
#     4  11  21  39  59  85 118 153 189 234 292 343
#     4  11  20  37  62  88 116 151 190 249 290 334
#
# _framework density 19.127994999999999
#
# number of rings (size 3 to 8) (size 9 to 14) (size 15 to 20)
#    0.000    1.500    5.000    0.750    0.000    6.000 
#    0.000    2.500    0.000    0.000    0.000    0.000 
#    0.000    0.000    0.000    0.000    0.000    0.000 
#
# Total GULP energy -396885.212553 kJ/mol
# GULP energy per Si atom -12402.662892 kJ/mol
# Density = 1.908446 g / cm^3
# Si number density = 19.127995 Si / 1000 Ang^3
#
#
#
# Elastic Constant Matrix: (Units=GPa)
#
#
# Indices 1 2 3 4 5 6 
#
# 1 115.6417 27.4094 74.7854 0.0000 17.7711 0.0000
# 2 27.4094 49.2653 26.9707 0.0000 5.0737 0.0000
# 3 74.7854 26.9707 92.5150 0.0000 11.1638 0.0000
# 4 0.0000 0.0000 0.0000 12.2586 0.0000 -4.5597
# 5 17.7711 5.0737 11.1638 0.0000 37.4107 0.0000
# 6 0.0000 0.0000 0.0000 -4.5597 0.0000 30.7086
#
#
#
# Elastic Compliance Matrix: (Units=1/GPa)
#
#
# Indices 1 2 3 4 5 6 
#
# 1 0.019076 -0.002386 -0.014181 0.000000 -0.004506 0.000000
# 2 -0.002386 0.024505 -0.005136 0.000000 -0.000658 0.000000
# 3 -0.014181 -0.005136 0.023727 0.000000 0.000353 0.000000
# 4 0.000000 0.000000 0.000000 0.086344 0.000000 0.012821
# 5 -0.004506 -0.000658 0.000353 0.000000 0.028855 0.000000
# 6 0.000000 0.000000 0.000000 0.012821 0.000000 0.034468
#
#
# Mechanical properties :
#
#
# Convention : Reuss Voigt Hill
#
# Bulk Modulus (GPa) = 41.83617 57.30588 49.57103
# Shear Modulus (GPa) = 18.63243 24.62603 21.62923
#
# Velocity S-wave (km/s) = 3.12443 3.59198 3.36633
# Velocity P-wave (km/s) = 5.91061 6.87221 6.40947
#
# Compressibility (1/GPa) = 0.02390276
#
# Stress axis : x y z
#
# Youngs Moduli (GPa) = 52.42080 40.80794 42.14528
#
# Poissons Ratio (x) = 0.09735 0.59768
# Poissons Ratio (y) = 0.12505 0.21646
# Poissons Ratio (z) = 0.74340 0.20960
#
# Static dielectric constant tensor:
#      x y z
#    x 3.509730 0.000000 -0.046950 
#    y 0.000000 3.316150 0.000000 
#    z -0.046950 0.000000 3.468450 
# 
# 
# High freq. dielectric constant tensor:
#      x y z
#    x 1.749870 0.000000 -0.009220 
#    y 0.000000 1.733270 0.000000 
#    z -0.009220 0.000000 1.747850 
# 
# From -- ./inp_files/50373.got.cif
#   From: 2010.06.25/outbox.cif.g09.slc.cpg/sg13_26_cif.got.tgz:50373.got - 2010.06.28 04:50:58.
