data_PCOD8120663
_publ_section_title
;
Structure prediction by ZEFSAII (Michael W. Deem and Ramdas Pophale) SiO2 
 PCOD8120663
Probable space group: P 2/C
;
_chemical_formula_sum "Si O2"
_cell_formula_units_Z 32
_cell_length_a 8.765783
_cell_length_b 23.270475
_cell_length_c 15.532448
_cell_angle_alpha 90.000000
_cell_angle_beta 29.370824
_cell_angle_gamma 90.000000
_cell_volume 1553.958844
_symmetry_space_group_name_H-M "P 2/C"
_symmetry_group_IT_number 13
_symmetry_cell_setting 'monoclinic'
loop_
_space_group_symop_operation_xyz
x,y,z
-x,y,1/2-z
-x,-y,-z
x,-y,1/2+z
loop_
_atom_site_type_symbol
_atom_site_label
_atom_site_fract_x
_atom_site_fract_y
_atom_site_fract_z
Si Si1 0.583864 0.138151 0.114817
Si Si2 0.791597 0.851769 0.269692
Si Si3 0.901477 0.357378 0.393017
Si Si4 0.267905 0.254872 0.296658
Si Si5 0.134813 0.437061 0.930078
Si Si6 0.364954 0.063033 0.072496
Si Si7 0.160415 0.641933 0.262458
Si Si8 0.775976 0.748955 0.170492
O O1 0.500000 0.118469 0.250000
O O2 0.453949 0.203086 0.156446
O O3 0.427889 0.091560 0.131836
O O4 0.954864 0.129430 0.925011
O O5 0.525592 0.898665 0.418285
O O6 0.629186 0.795588 0.308256
O O7 0.000000 0.835495 0.250000
O O8 0.989938 0.401947 0.425380
O O9 0.531176 0.349806 0.571911
O O10 0.000000 0.380433 0.250000
O O11 0.094964 0.298424 0.316403
O O12 0.500000 0.287412 0.250000
O O13 0.016276 0.223882 0.483521
O O14 0.500000 0.441495 0.750000
O O15 0.043684 0.408184 0.883808
O O16 0.000000 0.500000 0.000000
O O17 0.000000 0.059489 0.250000
O O18 0.500000 0.000000 0.000000
O O19 0.042323 0.700945 0.363477
O O20 0.000000 0.630782 0.250000
O O21 0.500000 0.719497 0.250000
#
# Coordination Sequence:
#
# PCOD8120663 Si02
#       8
#     4   4   4   4   4   4   4   4
#     4  10  21  41  64  94 127 166 212 264 318 390
#     4  10  22  39  62  93 130 167 215 265 325 391
#     4  11  25  41  63  98 132 171 222 273 326 401
#     4  11  22  39  65  96 137 172 213 271 331 394
#     4  10  23  46  67  92 129 173 224 276 330 389
#     4  11  25  45  67  92 128 169 216 271 326 388
#     4  11  24  42  64  93 134 177 218 271 335 393
#     4  12  21  39  63  93 137 172 213 268 333 393
#
# _framework density 20.592565
#
# number of rings (size 3 to 8) (size 9 to 14) (size 15 to 20)
#    0.000    1.250    5.000    1.875    3.500    4.500 
#    0.000    5.625    0.000    0.000    0.000    0.000 
#    0.000    0.000    0.000    0.000    0.000    0.000 
#
# Total GULP energy -396467.596950 kJ/mol
# GULP energy per Si atom -12389.612405 kJ/mol
# Density = 2.054570 g / cm^3
# Si number density = 20.592565 Si / 1000 Ang^3
#
#
#
# Elastic Constant Matrix: (Units=GPa)
#
#
# Indices 1 2 3 4 5 6 
#
# 1 130.4385 67.0568 48.3529 0.0000 13.5063 0.0000
# 2 67.0568 152.1976 59.9055 0.0000 11.6221 0.0000
# 3 48.3529 59.9055 132.7716 0.0000 13.6020 0.0000
# 4 0.0000 0.0000 0.0000 -49.1078 0.0000 -208.4595
# 5 13.5063 11.6221 13.6020 0.0000 37.6468 0.0000
# 6 0.0000 0.0000 0.0000 -208.4595 0.0000 -467.5001
#
#
#
# Elastic Compliance Matrix: (Units=1/GPa)
#
#
# Indices 1 2 3 4 5 6 
#
# 1 0.010495 -0.003710 -0.001952 0.000000 -0.001915 0.000000
# 2 -0.003710 0.009354 -0.002814 0.000000 -0.000540 0.000000
# 3 -0.001952 -0.002814 0.009711 0.000000 -0.001939 0.000000
# 4 0.000000 0.000000 0.000000 0.022808 0.000000 -0.010170
# 5 -0.001915 -0.000540 -0.001939 0.000000 0.028117 0.000000
# 6 0.000000 0.000000 0.000000 -0.010170 0.000000 0.002396
#
#
# Mechanical properties :
#
#
# Convention : Reuss Voigt Hill
#
# Bulk Modulus (GPa) = 79.31242 85.11533 82.21387
# Shear Modulus (GPa) = 48.06052 -79.78606 -15.86277
#
# Velocity S-wave (km/s) = 4.83626 -6.23131 -2.77847
# Velocity P-wave (km/s) = 8.35372 3.21706 5.45138
#
# Compressibility (1/GPa) = 0.01260837
#
# Stress axis : x y z
#
# Youngs Moduli (GPa) = 95.27917 106.91029 102.97486
#
# Poissons Ratio (x) = 0.39659 0.20105
# Poissons Ratio (y) = 0.35344 0.28977
# Poissons Ratio (z) = 0.18602 0.30085
#
# Static dielectric constant tensor:
#      x y z
#    x 3.823480 0.000000 0.103280 
#    y 0.000000 3.468900 0.000000 
#    z 0.103280 0.000000 4.209130 
# 
# 
# High freq. dielectric constant tensor:
#      x y z
#    x 1.805070 0.000000 0.002490 
#    y 0.000000 1.785940 0.000000 
#    z 0.002490 0.000000 1.824760 
# 
# From -- ./inp_files/48297.got.cif
#   From: 2010.06.25/outbox.cif.g09.slc.cpg/sg13_25_cif.got.tgz:48297.got - 2010.06.28 04:50:58.
