data_PCOD8120560
_publ_section_title
;
Structure prediction by ZEFSAII (Michael W. Deem and Ramdas Pophale) SiO2 
 PCOD8120560
Probable space group: P 2/C
;
_chemical_formula_sum "Si O2"
_cell_formula_units_Z 30
_cell_length_a 18.729739
_cell_length_b 6.066680
_cell_length_c 23.990202
_cell_angle_alpha 90.000000
_cell_angle_beta 149.192863
_cell_angle_gamma 90.000000
_cell_volume 1396.091148
_symmetry_space_group_name_H-M "P 2/C"
_symmetry_group_IT_number 13
_symmetry_cell_setting 'monoclinic'
loop_
_space_group_symop_operation_xyz
x,y,z
-x,y,1/2-z
-x,-y,-z
x,-y,1/2+z
loop_
_atom_site_type_symbol
_atom_site_label
_atom_site_fract_x
_atom_site_fract_y
_atom_site_fract_z
Si Si1 0.799721 0.182885 0.797019
Si Si2 0.659780 0.446530 0.613584
Si Si3 0.272252 0.769974 0.132347
Si Si4 0.269564 0.842375 0.543189
Si Si5 0.136559 0.184353 0.241544
Si Si6 0.500000 0.446414 0.250000
Si Si7 0.957410 0.515477 0.066049
Si Si8 0.843235 0.171918 0.652698
O O1 0.675610 0.272710 0.674605
O O2 0.734711 0.108123 0.812649
O O3 0.912337 0.379352 0.879130
O O4 0.874507 0.974145 0.819573
O O5 0.500000 0.500000 0.500000
O O6 0.719170 0.686659 0.666678
O O7 0.742911 0.347096 0.616155
O O8 0.400492 0.600677 0.219952
O O9 0.286610 0.936117 0.090512
O O10 0.130202 0.632482 0.034654
O O11 0.410607 0.701351 0.646829
O O12 0.134096 0.710152 0.470497
O O13 0.240429 0.898747 0.459209
O O14 0.010050 0.360259 0.152460
O O15 0.130654 0.050057 0.294704
O O16 0.000000 0.273152 0.750000
#
# Coordination Sequence:
#
# PCOD8120560 Si02
#       8
#     4   4   4   4   4   2   4   4
#     4  10  22  39  65  95 127 166 214 270 321 394
#     4  10  24  44  63  96 132 176 228 270 337 402
#     4  11  23  42  64  91 130 172 217 263 328 383
#     4  11  24  43  65  95 132 173 222 270 326 402
#     4  10  22  41  65  96 130 165 219 274 337 391
#     4  10  26  44  58  90 130 176 218 262 322 398
#     4  10  21  40  65  94 132 165 214 265 330 395
#     4  11  23  41  68 100 133 172 227 286 341 401
#
# _framework density 21.488568999999998
#
# number of rings (size 3 to 8) (size 9 to 14) (size 15 to 20)
#    0.000    1.600    0.000    4.800    1.867   12.267 
#    4.800    1.333    0.000    0.000    0.000    0.000 
#    0.000    0.000    0.000    0.000    0.000    0.000 
#
# Total GULP energy -371898.081279 kJ/mol
# GULP energy per Si atom -12396.602709 kJ/mol
# Density = 2.143966 g / cm^3
# Si number density = 21.488569 Si / 1000 Ang^3
#
#
#
# Elastic Constant Matrix: (Units=GPa)
#
#
# Indices 1 2 3 4 5 6 
#
# 1 101.5917 34.6060 62.1343 0.0000 -17.0878 0.0000
# 2 34.6060 92.3056 35.3924 0.0000 -0.0181 0.0000
# 3 62.1343 35.3924 127.5005 0.0000 9.1427 0.0000
# 4 0.0000 0.0000 0.0000 32.0702 0.0000 -3.4239
# 5 -17.0878 -0.0181 9.1427 0.0000 47.9850 0.0000
# 6 0.0000 0.0000 0.0000 -3.4239 0.0000 19.0626
#
#
#
# Elastic Compliance Matrix: (Units=1/GPa)
#
#
# Indices 1 2 3 4 5 6 
#
# 1 0.017147 -0.003372 -0.007966 0.000000 0.007623 0.000000
# 2 -0.003372 0.012808 -0.001851 0.000000 -0.000843 0.000000
# 3 -0.007966 -0.001851 0.012615 0.000000 -0.005241 0.000000
# 4 0.000000 0.000000 0.000000 0.031791 0.000000 0.005710
# 5 0.007623 -0.000843 -0.005241 0.000000 0.024553 0.000000
# 6 0.000000 0.000000 0.000000 0.005710 0.000000 0.053484
#
#
# Mechanical properties :
#
#
# Convention : Reuss Voigt Hill
#
# Bulk Modulus (GPa) = 61.77016 65.07369 63.42193
# Shear Modulus (GPa) = 27.14828 32.44124 29.79476
#
# Velocity S-wave (km/s) = 3.55827 3.88970 3.72767
# Velocity P-wave (km/s) = 6.75941 7.10786 6.93583
#
# Compressibility (1/GPa) = 0.01618905
#
# Stress axis : x y z
#
# Youngs Moduli (GPa) = 58.32082 78.07888 79.27015
#
# Poissons Ratio (x) = 0.26331 0.63150
# Poissons Ratio (y) = 0.19668 0.14675
# Poissons Ratio (z) = 0.46461 0.14455
#
# Static dielectric constant tensor:
#      x y z
#    x 3.762030 0.000000 -0.027480 
#    y 0.000000 4.014790 0.000000 
#    z -0.027480 0.000000 4.123490 
# 
# 
# High freq. dielectric constant tensor:
#      x y z
#    x 1.827120 0.000000 0.002560 
#    y 0.000000 1.851160 0.000000 
#    z 0.002560 0.000000 1.855610 
# 
# From -- ./inp_files/88367.got.cif
#   From: 2010.06.25/outbox.cif.g09.slc.cpg/sg13_45_cif.got.tgz:88367.got - 2010.06.28 04:50:58.
