data_PCOD8120576
_publ_section_title
;
Structure prediction by ZEFSAII (Michael W. Deem and Ramdas Pophale) SiO2 
 PCOD8120576
Probable space group: P 2/C
;
_chemical_formula_sum "Si O2"
_cell_formula_units_Z 18
_cell_length_a 7.065976
_cell_length_b 13.681012
_cell_length_c 9.072699
_cell_angle_alpha 90.000000
_cell_angle_beta 89.903496
_cell_angle_gamma 90.000000
_cell_volume 877.053869
_symmetry_space_group_name_H-M "P 2/C"
_symmetry_group_IT_number 13
_symmetry_cell_setting 'monoclinic'
loop_
_space_group_symop_operation_xyz
x,y,z
-x,y,1/2-z
-x,-y,-z
x,-y,1/2+z
loop_
_atom_site_type_symbol
_atom_site_label
_atom_site_fract_x
_atom_site_fract_y
_atom_site_fract_z
Si Si1 0.507055 0.385725 0.024850
Si Si2 0.500000 0.258857 0.750000
Si Si3 0.200931 0.088017 0.172690
Si Si4 0.775694 0.695896 0.769265
Si Si5 0.797684 0.901600 0.176432
O O1 0.567681 0.329335 0.879208
O O2 0.500000 0.500000 0.000000
O O3 0.297655 0.353063 0.079406
O O4 0.671250 0.359542 0.139024
O O5 0.324433 0.194491 0.800822
O O6 0.291159 0.190599 0.223711
O O7 0.000000 0.079872 0.250000
O O8 0.308203 0.993596 0.242070
O O9 0.182298 0.077834 0.997385
O O10 0.000000 0.684709 0.750000
O O11 0.000000 0.880314 0.250000
#
# Coordination Sequence:
#
# PCOD8120576 Si02
#       5
#     4   2   4   4   4
#     4  11  25  46  66  94 133 164 216 281 321 374
#     4  12  26  38  66 100 124 172 218 258 330 392
#     4  10  21  40  66  95 130 173 212 259 317 378
#     4  10  23  44  71  93 126 176 213 257 329 386
#     4  11  24  40  63  97 136 170 211 265 313 386
#
# _framework density 20.523253
#
# number of rings (size 3 to 8) (size 9 to 14) (size 15 to 20)
#    0.000    1.333    2.222    4.000    9.333    3.556 
#    0.000    2.222    0.000    0.000    0.000    0.000 
#    0.000    0.000    0.000    0.000    0.000    0.000 
#
# Total GULP energy -223111.016061 kJ/mol
# GULP energy per Si atom -12395.056448 kJ/mol
# Density = 2.047654 g / cm^3
# Si number density = 20.523253 Si / 1000 Ang^3
#
#
#
# Elastic Constant Matrix: (Units=GPa)
#
#
# Indices 1 2 3 4 5 6 
#
# 1 86.3704 38.6079 35.6161 0.0000 -3.1291 0.0000
# 2 38.6079 174.2287 65.8573 0.0000 6.5367 0.0000
# 3 35.6161 65.8573 169.6064 0.0000 -2.0634 0.0000
# 4 0.0000 0.0000 0.0000 61.1714 0.0000 -13.8322
# 5 -3.1291 6.5367 -2.0634 0.0000 30.6285 0.0000
# 6 0.0000 0.0000 0.0000 -13.8322 0.0000 41.6723
#
#
#
# Elastic Compliance Matrix: (Units=1/GPa)
#
#
# Indices 1 2 3 4 5 6 
#
# 1 0.013467 -0.002331 -0.001902 0.000000 0.001745 0.000000
# 2 -0.002331 0.007211 -0.002334 0.000000 -0.001934 0.000000
# 3 -0.001902 -0.002334 0.007211 0.000000 0.000790 0.000000
# 4 0.000000 0.000000 0.000000 0.017674 0.000000 0.005867
# 5 0.001745 -0.001934 0.000790 0.000000 0.033294 0.000000
# 6 0.000000 0.000000 0.000000 0.005867 0.000000 0.025944
#
#
# Mechanical properties :
#
#
# Convention : Reuss Voigt Hill
#
# Bulk Modulus (GPa) = 67.76802 78.92978 73.34890
# Shear Modulus (GPa) = 40.69891 46.03604 43.36747
#
# Velocity S-wave (km/s) = 4.45799 4.74129 4.60182
# Velocity P-wave (km/s) = 7.71946 8.27740 8.00329
#
# Compressibility (1/GPa) = 0.01475622
#
# Stress axis : x y z
#
# Youngs Moduli (GPa) = 74.25330 138.67872 138.67217
#
# Poissons Ratio (x) = 0.32325 0.26372
# Poissons Ratio (y) = 0.17308 0.32366
# Poissons Ratio (z) = 0.14121 0.32368
#
# Static dielectric constant tensor:
#      x y z
#    x 3.533960 0.000000 -0.122440 
#    y 0.000000 4.319320 0.000000 
#    z -0.122440 0.000000 4.157100 
# 
# 
# High freq. dielectric constant tensor:
#      x y z
#    x 1.789000 0.000000 -0.009770 
#    y 0.000000 1.819750 0.000000 
#    z -0.009770 0.000000 1.819060 
# 
# From -- ./inp_files/11242.got.cif
#   From: 2010.06.25/outbox.cif.g09.slc.cpg/sg13_6_cif.got.tgz:11242.got - 2010.06.28 04:50:58.
