data_PCOD8120196
_publ_section_title
;
Structure prediction by ZEFSAII (Michael W. Deem and Ramdas Pophale) SiO2 
 PCOD8120196
Probable space group: P 2/C
;
_chemical_formula_sum "Si O2"
_cell_formula_units_Z 28
_cell_length_a 27.919302
_cell_length_b 9.131126
_cell_length_c 8.593594
_cell_angle_alpha 90.000000
_cell_angle_beta 140.309283
_cell_angle_gamma 90.000000
_cell_volume 1399.142612
_symmetry_space_group_name_H-M "P 2/C"
_symmetry_group_IT_number 13
_symmetry_cell_setting 'monoclinic'
loop_
_space_group_symop_operation_xyz
x,y,z
-x,y,1/2-z
-x,-y,-z
x,-y,1/2+z
loop_
_atom_site_type_symbol
_atom_site_label
_atom_site_fract_x
_atom_site_fract_y
_atom_site_fract_z
Si Si1 0.581517 0.655234 0.388199
Si Si2 0.856756 0.660988 0.208306
Si Si3 0.581517 0.344765 0.519384
Si Si4 0.856756 0.339012 0.075473
Si Si5 0.287744 0.840914 0.653953
Si Si6 0.287744 0.159086 0.784769
Si Si7 1.000000 0.161594 0.065359
O O1 0.500000 0.693390 0.250000
O O2 0.610603 0.500000 0.526508
O O3 0.577970 0.646074 0.194925
O O4 0.636340 0.783177 0.579085
O O5 0.860635 0.500000 0.151589
O O6 0.860664 0.651284 0.401660
O O7 0.926788 0.754102 0.318930
O O8 0.780150 0.737168 0.962030
O O9 0.636340 0.216823 0.602616
O O10 0.500000 0.306607 0.250000
O O11 0.926788 0.245898 0.315011
O O12 0.780150 0.262832 0.938721
O O13 0.296959 0.845820 0.492397
O O14 0.269797 1.000000 0.674492
O O15 0.000000 0.153615 0.250000
O O16 0.000000 0.000000 0.000000
#
# Coordination Sequence:
#
# PCOD8120196 Si02
#       7
#     4   4   4   4   4   4   4
#     4  11  22  39  62  88 117 152 192 238 287 344
#     4  10  22  38  59  85 116 151 194 239 285 340
#     4  11  22  39  62  88 117 152 192 238 287 344
#     4  10  22  38  59  85 116 151 194 239 285 340
#     4  11  23  39  58  85 117 153 194 240 291 346
#     4  11  23  39  58  85 117 153 194 240 291 346
#     4  10  21  38  58  86 118 152 191 236 286 340
#
# _framework density 20.012255
#
# number of rings (size 3 to 8) (size 9 to 14) (size 15 to 20)
#    0.000    1.429    0.000    6.429    0.000    6.286 
#    0.000    2.857    0.000    0.000    0.000    0.000 
#    0.000    0.000    0.000    0.000    0.000    0.000 
#
# Total GULP energy -347364.400787 kJ/mol
# GULP energy per Si atom -12405.871457 kJ/mol
# Density = 1.996671 g / cm^3
# Si number density = 20.012255 Si / 1000 Ang^3
#
#
#
# Elastic Constant Matrix: (Units=GPa)
#
#
# Indices 1 2 3 4 5 6 
#
# 1 98.9062 58.0106 57.0622 0.0000 5.3455 0.0000
# 2 58.0106 175.4733 68.2224 0.0000 18.0751 0.0000
# 3 57.0622 68.2224 108.3188 0.0000 11.3132 0.0000
# 4 0.0000 0.0000 0.0000 48.7419 0.0000 5.7185
# 5 5.3455 18.0751 11.3132 0.0000 32.9956 0.0000
# 6 0.0000 0.0000 0.0000 5.7185 0.0000 45.5106
#
#
#
# Elastic Compliance Matrix: (Units=1/GPa)
#
#
# Indices 1 2 3 4 5 6 
#
# 1 0.015390 -0.002664 -0.006556 0.000000 0.001214 0.000000
# 2 -0.002664 0.008229 -0.003478 0.000000 -0.002884 0.000000
# 3 -0.006556 -0.003478 0.015108 0.000000 -0.002212 0.000000
# 4 0.000000 0.000000 0.000000 0.020823 0.000000 -0.002616
# 5 0.001214 -0.002884 -0.002212 0.000000 0.032449 0.000000
# 6 0.000000 0.000000 0.000000 -0.002616 0.000000 0.022302
#
#
# Mechanical properties :
#
#
# Convention : Reuss Voigt Hill
#
# Bulk Modulus (GPa) = 75.02194 83.25428 79.13811
# Shear Modulus (GPa) = 34.68838 38.74318 36.71578
#
# Velocity S-wave (km/s) = 4.16788 4.40474 4.28795
# Velocity P-wave (km/s) = 7.79301 8.21955 8.00912
#
# Compressibility (1/GPa) = 0.01332943
#
# Stress axis : x y z
#
# Youngs Moduli (GPa) = 64.97726 121.52297 66.19110
#
# Poissons Ratio (x) = 0.32371 0.43398
# Poissons Ratio (y) = 0.17309 0.23023
# Poissons Ratio (z) = 0.42602 0.42270
#
# Static dielectric constant tensor:
#      x y z
#    x 3.753550 0.000000 0.169740 
#    y 0.000000 3.653370 0.000000 
#    z 0.169740 0.000000 3.849440 
# 
# 
# High freq. dielectric constant tensor:
#      x y z
#    x 1.789180 0.000000 0.007070 
#    y 0.000000 1.791270 0.000000 
#    z 0.007070 0.000000 1.793170 
# 
# From -- ./inp_files/24589.got.cif
#   From: 2010.06.25/outbox.cif.g09.slc.cpg/sg13_13_cif.got.tgz:24589.got - 2010.06.28 04:50:58.
