data_PCOD8120515
_publ_section_title
;
Structure prediction by ZEFSAII (Michael W. Deem and Ramdas Pophale) SiO2 
 PCOD8120515
Probable space group: P 2/C
;
_chemical_formula_sum "Si O2"
_cell_formula_units_Z 28
_cell_length_a 8.472528
_cell_length_b 5.350403
_cell_length_c 28.705992
_cell_angle_alpha 90.000000
_cell_angle_beta 75.321269
_cell_angle_gamma 90.000000
_cell_volume 1258.812477
_symmetry_space_group_name_H-M "P 2/C"
_symmetry_group_IT_number 13
_symmetry_cell_setting 'monoclinic'
loop_
_space_group_symop_operation_xyz
x,y,z
-x,y,1/2-z
-x,-y,-z
x,-y,1/2+z
loop_
_atom_site_type_symbol
_atom_site_label
_atom_site_fract_x
_atom_site_fract_y
_atom_site_fract_z
Si Si1 0.697019 0.805450 0.857037
Si Si2 0.615032 0.464574 0.122577
Si Si3 0.453903 0.833793 0.198847
Si Si4 0.950493 0.510320 0.556779
Si Si5 0.241802 0.120772 0.308118
Si Si6 0.824556 0.474028 0.268838
Si Si7 0.967843 0.015959 0.895978
O O1 0.529586 0.695059 0.891351
O O2 0.812435 0.591738 0.825327
O O3 0.657750 0.947331 0.811980
O O4 0.788144 0.974088 0.887977
O O5 0.540723 0.723232 0.146126
O O6 0.754839 0.520766 0.074456
O O7 0.688234 0.325513 0.161924
O O8 0.335175 0.634724 0.233407
O O9 0.607313 0.938048 0.219050
O O10 0.037068 0.279246 0.576737
O O11 0.000000 0.500000 0.500000
O O12 0.000289 0.779520 0.573104
O O13 0.167601 0.241136 0.267471
O O14 0.101334 0.963574 0.344919
O O15 0.000000 0.615208 0.250000
#
# Coordination Sequence:
#
# PCOD8120515 Si02
#       7
#     4   4   4   4   4   4   4
#     4  10  23  39  62  93 131 176 222 271 339 396
#     4   9  21  39  64  92 127 173 219 272 334 406
#     4  10  22  40  62  84 129 177 221 276 325 400
#     4  11  24  45  73 102 130 169 225 282 341 421
#     4  10  21  40  62  92 126 181 227 272 324 394
#     4  11  23  38  60  94 134 171 235 281 326 389
#     4  11  23  43  71  99 134 175 220 274 348 405
#
# _framework density 22.243186000000001
#
# number of rings (size 3 to 8) (size 9 to 14) (size 15 to 20)
#    0.000    1.714    2.857    0.429    4.000    8.000 
#    0.000    1.429    0.000    0.000    0.000    0.000 
#    0.000    0.000    0.000    0.000    0.000    0.000 
#
# Total GULP energy -347078.200681 kJ/mol
# GULP energy per Si atom -12395.650024 kJ/mol
# Density = 2.219256 g / cm^3
# Si number density = 22.243186 Si / 1000 Ang^3
#
#
#
# Elastic Constant Matrix: (Units=GPa)
#
#
# Indices 1 2 3 4 5 6 
#
# 1 131.3037 18.2073 50.6024 0.0000 -15.2978 0.0000
# 2 18.2073 68.1661 20.3524 0.0000 -4.9331 0.0000
# 3 50.6024 20.3524 114.5368 0.0000 -19.8935 0.0000
# 4 0.0000 0.0000 0.0000 29.1724 0.0000 1.5980
# 5 -15.2978 -4.9331 -19.8935 0.0000 27.0213 0.0000
# 6 0.0000 0.0000 0.0000 1.5980 0.0000 32.6542
#
#
#
# Elastic Compliance Matrix: (Units=1/GPa)
#
#
# Indices 1 2 3 4 5 6 
#
# 1 0.009439 -0.001293 -0.003501 0.000000 0.002530 0.000000
# 2 -0.001293 0.015689 -0.002117 0.000000 0.000574 0.000000
# 3 -0.003501 -0.002117 0.011744 0.000000 0.006278 0.000000
# 4 0.000000 0.000000 0.000000 0.034371 0.000000 -0.001682
# 5 0.002530 0.000574 0.006278 0.000000 0.043167 0.000000
# 6 0.000000 0.000000 0.000000 -0.001682 0.000000 0.030706
#
#
# Mechanical properties :
#
#
# Convention : Reuss Voigt Hill
#
# Bulk Modulus (GPa) = 43.38284 54.70341 49.04313
# Shear Modulus (GPa) = 30.00808 32.75922 31.38365
#
# Velocity S-wave (km/s) = 3.67698 3.84184 3.76031
# Velocity P-wave (km/s) = 6.12969 6.65780 6.39920
#
# Compressibility (1/GPa) = 0.02305059
#
# Stress axis : x y z
#
# Youngs Moduli (GPa) = 105.94061 63.73912 85.14914
#
# Poissons Ratio (x) = 0.08240 0.29811
# Poissons Ratio (y) = 0.13696 0.18026
# Poissons Ratio (z) = 0.37090 0.13494
#
# Static dielectric constant tensor:
#      x y z
#    x 4.226540 0.000000 -0.325700 
#    y 0.000000 4.106440 0.000000 
#    z -0.325700 0.000000 3.682990 
# 
# 
# High freq. dielectric constant tensor:
#      x y z
#    x 1.887360 0.000000 -0.018620 
#    y 0.000000 1.883300 0.000000 
#    z -0.018620 0.000000 1.843750 
# 
# From -- ./inp_files/95453.got.cif
#   From: 2010.06.25/outbox.cif.g09.slc.cpg/sg13_48_cif.got.tgz:95453.got - 2010.06.28 04:50:58.
