data_PCOD8120096
_publ_section_title
;
Structure prediction by ZEFSAII (Michael W. Deem and Ramdas Pophale) SiO2 
 PCOD8120096
Probable space group: P 2/C
;
_chemical_formula_sum "Si O2"
_cell_formula_units_Z 28
_cell_length_a 12.411839
_cell_length_b 22.885730
_cell_length_c 5.089979
_cell_angle_alpha 90.000000
_cell_angle_beta 104.620989
_cell_angle_gamma 90.000000
_cell_volume 1399.008260
_symmetry_space_group_name_H-M "P 2/C"
_symmetry_group_IT_number 13
_symmetry_cell_setting 'monoclinic'
loop_
_space_group_symop_operation_xyz
x,y,z
-x,y,1/2-z
-x,-y,-z
x,-y,1/2+z
loop_
_atom_site_type_symbol
_atom_site_label
_atom_site_fract_x
_atom_site_fract_y
_atom_site_fract_z
Si Si1 0.369703 0.031206 0.130048
Si Si2 0.736692 0.147281 0.617616
Si Si3 0.877917 0.295295 0.210948
Si Si4 0.124456 0.839261 0.809246
Si Si5 0.127531 0.460818 0.840520
Si Si6 0.765899 0.660007 0.144851
Si Si7 0.423803 0.743339 0.457874
O O1 0.500000 0.022368 0.250000
O O2 0.317555 0.012695 0.378235
O O3 0.347291 0.097309 0.029627
O O4 0.831437 0.153548 0.457256
O O5 0.668629 0.206466 0.624039
O O6 0.796185 0.129519 0.927649
O O7 0.878686 0.228709 0.118602
O O8 0.840039 0.302000 0.488552
O O9 0.000000 0.323003 0.250000
O O10 0.797145 0.329937 0.967117
O O11 0.000000 0.865887 0.750000
O O12 0.151596 0.502032 0.611856
O O13 0.215941 0.408050 0.904339
O O14 0.000000 0.437119 0.750000
O O15 0.637643 0.680880 0.037003
O O16 0.500000 0.741457 0.250000
O O17 0.500000 0.758266 0.750000
#
# Coordination Sequence:
#
# PCOD8120096 Si02
#       7
#     4   4   4   4   4   4   4
#     4  10  22  40  63  92 119 155 209 260 304 355
#     4  12  22  41  64  89 125 164 196 248 318 358
#     4  11  20  34  57  89 121 154 194 235 292 366
#     4  11  22  37  59  91 127 157 197 242 294 373
#     4  10  21  37  59  89 120 153 196 244 298 360
#     4  12  22  39  59  86 124 162 194 246 303 361
#     4  12  25  40  59  88 122 157 202 250 302 359
#
# _framework density 20.014178999999999
#
# number of rings (size 3 to 8) (size 9 to 14) (size 15 to 20)
#    0.000    0.857    2.857    5.571    0.000    5.143 
#    0.000    0.000    0.000   11.143    0.000    0.000 
#    0.000    0.000    0.000    0.000    0.000    0.000 
#
# Total GULP energy -347226.543021 kJ/mol
# GULP energy per Si atom -12400.947965 kJ/mol
# Density = 1.996863 g / cm^3
# Si number density = 20.014179 Si / 1000 Ang^3
#
#
#
# Elastic Constant Matrix: (Units=GPa)
#
#
# Indices 1 2 3 4 5 6 
#
# 1 96.9074 22.5695 42.5122 0.0000 -16.6712 0.0000
# 2 22.5695 82.0743 27.8239 0.0000 -0.7288 0.0000
# 3 42.5122 27.8239 118.8759 0.0000 -8.1903 0.0000
# 4 0.0000 0.0000 0.0000 25.9515 0.0000 0.3281
# 5 -16.6712 -0.7288 -8.1903 0.0000 35.8984 0.0000
# 6 0.0000 0.0000 0.0000 0.3281 0.0000 23.7927
#
#
#
# Elastic Compliance Matrix: (Units=1/GPa)
#
#
# Indices 1 2 3 4 5 6 
#
# 1 0.013496 -0.002338 -0.003912 0.000000 0.005328 0.000000
# 2 -0.002338 0.013646 -0.002452 0.000000 -0.001368 0.000000
# 3 -0.003912 -0.002452 0.010420 0.000000 0.000511 0.000000
# 4 0.000000 0.000000 0.000000 0.038540 0.000000 -0.000531
# 5 0.005328 -0.001368 0.000511 0.000000 0.030419 0.000000
# 6 0.000000 0.000000 0.000000 -0.000531 0.000000 0.042037
#
#
# Mechanical properties :
#
#
# Convention : Reuss Voigt Hill
#
# Bulk Modulus (GPa) = 49.60726 53.74098 51.67412
# Shear Modulus (GPa) = 28.95470 30.79198 29.87334
#
# Velocity S-wave (km/s) = 3.80769 3.92664 3.86762
# Velocity P-wave (km/s) = 6.64614 6.88968 6.76901
#
# Compressibility (1/GPa) = 0.02015834
#
# Stress axis : x y z
#
# Youngs Moduli (GPa) = 74.09370 73.28089 95.96550
#
# Poissons Ratio (x) = 0.17131 0.37545
# Poissons Ratio (y) = 0.17321 0.23533
# Poissons Ratio (z) = 0.28988 0.17970
#
# Static dielectric constant tensor:
#      x y z
#    x 3.645330 0.000000 -0.058900 
#    y 0.000000 3.476430 0.000000 
#    z -0.058900 0.000000 3.865810 
# 
# 
# High freq. dielectric constant tensor:
#      x y z
#    x 1.766990 0.000000 -0.013200 
#    y 0.000000 1.762820 0.000000 
#    z -0.013200 0.000000 1.803770 
# 
# From -- ./inp_files/4094.got.cif
#   From: 2010.06.25/outbox.cif.g09.slc.cpg/sg13_3_cif.got.tgz:4094.got - 2010.06.28 04:50:58.
