data_PCOD8120789
_publ_section_title
;
Structure prediction by ZEFSAII (Michael W. Deem and Ramdas Pophale) SiO2 
 PCOD8120789
Probable space group: P 2/C
;
_chemical_formula_sum "Si O2"
_cell_formula_units_Z 28
_cell_length_a 26.951050
_cell_length_b 8.243095
_cell_length_c 11.662209
_cell_angle_alpha 90.000000
_cell_angle_beta 150.226306
_cell_angle_gamma 90.000000
_cell_volume 1286.566085
_symmetry_space_group_name_H-M "P 2/C"
_symmetry_group_IT_number 13
_symmetry_cell_setting 'monoclinic'
loop_
_space_group_symop_operation_xyz
x,y,z
-x,y,1/2-z
-x,-y,-z
x,-y,1/2+z
loop_
_atom_site_type_symbol
_atom_site_label
_atom_site_fract_x
_atom_site_fract_y
_atom_site_fract_z
Si Si1 0.788148 0.168422 0.419185
Si Si2 0.637224 0.352679 0.256116
Si Si3 0.815837 0.631951 0.292390
Si Si4 0.253816 0.190256 0.626512
Si Si5 0.961464 0.683119 0.404000
Si Si6 0.835929 0.271722 0.279855
Si Si7 0.452888 0.329872 0.033573
O O1 0.681222 0.239026 0.244311
O O2 0.877618 0.287619 0.638437
O O3 0.794247 0.150660 0.293399
O O4 0.795258 0.986702 0.481952
O O5 0.715024 0.363507 0.516279
O O6 0.536657 0.277193 0.109715
O O7 0.612076 0.521590 0.145274
O O8 0.802642 0.704241 0.391275
O O9 0.905683 0.733065 0.410627
O O10 0.847774 0.444816 0.366070
O O11 0.241291 0.279398 0.479531
O O12 0.373103 0.183584 0.891009
O O13 0.000000 0.500000 0.500000
O O14 0.057739 0.788816 0.560594
O O15 0.500000 0.378819 0.250000
#
# Coordination Sequence:
#
# PCOD8120789 Si02
#       7
#     4   4   4   4   4   4   4
#     4  11  26  43  66  98 148 175 221 285 358 416
#     4  10  22  41  69  96 128 180 235 294 337 403
#     4  10  21  42  69  97 132 175 237 286 335 405
#     4  12  26  42  67 104 140 183 221 289 361 412
#     4   9  22  44  71  97 126 182 233 278 332 407
#     4  11  24  43  69  96 137 179 234 277 340 414
#     4  11  22  40  70 100 129 176 242 291 339 419
#
# _framework density 21.763359999999999
#
# number of rings (size 3 to 8) (size 9 to 14) (size 15 to 20)
#    0.000    1.429    2.857    1.286    8.000    1.714 
#    2.571    0.714    0.000    0.000    0.000    0.000 
#    0.000    0.000    0.000    0.000    0.000    0.000 
#
# Total GULP energy -347015.398750 kJ/mol
# GULP energy per Si atom -12393.407098 kJ/mol
# Density = 2.171383 g / cm^3
# Si number density = 21.763360 Si / 1000 Ang^3
#
#
#
# Elastic Constant Matrix: (Units=GPa)
#
#
# Indices 1 2 3 4 5 6 
#
# 1 158.8884 40.3525 63.0827 0.0000 6.3319 0.0000
# 2 40.3525 76.2942 39.2158 0.0000 2.4948 0.0000
# 3 63.0827 39.2158 92.0213 0.0000 6.4524 0.0000
# 4 0.0000 0.0000 0.0000 20.7227 0.0000 -0.5864
# 5 6.3319 2.4948 6.4524 0.0000 43.2954 0.0000
# 6 0.0000 0.0000 0.0000 -0.5864 0.0000 23.3375
#
#
#
# Elastic Compliance Matrix: (Units=1/GPa)
#
#
# Indices 1 2 3 4 5 6 
#
# 1 0.008888 -0.002011 -0.005207 0.000000 -0.000408 0.000000
# 2 -0.002011 0.017239 -0.005981 0.000000 0.000192 0.000000
# 3 -0.005207 -0.005981 0.017087 0.000000 -0.001440 0.000000
# 4 0.000000 0.000000 0.000000 0.048291 0.000000 0.001213
# 5 -0.000408 0.000192 -0.001440 0.000000 0.023360 0.000000
# 6 0.000000 0.000000 0.000000 0.001213 0.000000 0.042880
#
#
# Mechanical properties :
#
#
# Convention : Reuss Voigt Hill
#
# Bulk Modulus (GPa) = 59.47321 68.05622 63.76472
# Shear Modulus (GPa) = 26.35052 29.77465 28.06259
#
# Velocity S-wave (km/s) = 3.48339 3.70281 3.59478
# Velocity P-wave (km/s) = 6.60040 7.04414 6.82588
#
# Compressibility (1/GPa) = 0.01681429
#
# Stress axis : x y z
#
# Youngs Moduli (GPa) = 112.50873 58.00793 58.52433
#
# Poissons Ratio (x) = 0.11666 0.30476
# Poissons Ratio (y) = 0.22626 0.35006
# Poissons Ratio (z) = 0.58588 0.34697
#
# Static dielectric constant tensor:
#      x y z
#    x 4.378180 0.000000 0.294760 
#    y 0.000000 3.511960 0.000000 
#    z 0.294760 0.000000 3.911880 
# 
# 
# High freq. dielectric constant tensor:
#      x y z
#    x 1.882830 0.000000 0.009950 
#    y 0.000000 1.818240 0.000000 
#    z 0.009950 0.000000 1.853050 
# 
# From -- ./inp_files/42279.got.cif
#   From: 2010.06.25/outbox.cif.g09.slc.cpg/sg13_22_cif.got.tgz:42279.got - 2010.06.28 04:50:58.
