data_PCOD8120422
_publ_section_title
;
Structure prediction by ZEFSAII (Michael W. Deem and Ramdas Pophale) SiO2 
 PCOD8120422
Probable space group: P 2/C
;
_chemical_formula_sum "Si O2"
_cell_formula_units_Z 16
_cell_length_a 7.723366
_cell_length_b 20.490575
_cell_length_c 5.070974
_cell_angle_alpha 90.000000
_cell_angle_beta 63.963176
_cell_angle_gamma 90.000000
_cell_volume 721.067771
_symmetry_space_group_name_H-M "P 2/C"
_symmetry_group_IT_number 13
_symmetry_cell_setting 'monoclinic'
loop_
_space_group_symop_operation_xyz
x,y,z
-x,y,1/2-z
-x,-y,-z
x,-y,1/2+z
loop_
_atom_site_type_symbol
_atom_site_label
_atom_site_fract_x
_atom_site_fract_y
_atom_site_fract_z
Si Si1 0.226205 0.040517 0.593338
Si Si2 0.500000 0.152413 0.250000
Si Si3 0.500000 0.236785 0.750000
Si Si4 0.122794 0.682441 0.424193
Si Si5 0.274629 0.458920 0.908026
O O1 0.322044 0.109591 0.471655
O O2 0.000000 0.053093 0.750000
O O3 0.292461 0.988358 0.328720
O O4 0.569869 0.194731 0.452557
O O5 0.674649 0.281234 0.732007
O O6 0.154852 0.605529 0.431847
O O7 0.000000 0.698388 0.250000
O O8 0.000000 0.709482 0.750000
O O9 0.500000 0.441812 0.750000
O O10 0.218398 0.513805 0.732172
#
# Coordination Sequence:
#
# PCOD8120422 Si02
#       5
#     4   2   2   4   4
#     4  10  21  39  65 100 134 164 207 266 325 383
#     4  12  24  41  70  91 132 180 218 264 318 388
#     4  12  28  47  62  97 134 176 232 274 312 380
#     4  12  26  45  69  93 130 177 221 275 334 392
#     4  10  21  39  66  97 129 163 208 275 340 398
#
# _framework density 22.189318
#
# number of rings (size 3 to 8) (size 9 to 14) (size 15 to 20)
#    0.000    1.000    1.250    5.250    0.000    6.000 
#    0.000    0.000    0.000    0.000    0.000    0.000 
#    0.000    0.000    0.000    0.000    0.000    0.000 
#
# Total GULP energy -198519.782677 kJ/mol
# GULP energy per Si atom -12407.486417 kJ/mol
# Density = 2.213881 g / cm^3
# Si number density = 22.189318 Si / 1000 Ang^3
#
#
#
# Elastic Constant Matrix: (Units=GPa)
#
#
# Indices 1 2 3 4 5 6 
#
# 1 137.6538 55.3879 56.2188 0.0000 12.7216 0.0000
# 2 55.3879 98.0287 40.9367 0.0000 -7.5860 0.0000
# 3 56.2188 40.9367 135.3287 0.0000 15.7764 0.0000
# 4 0.0000 0.0000 0.0000 35.0371 0.0000 10.8117
# 5 12.7216 -7.5860 15.7764 0.0000 32.4999 0.0000
# 6 0.0000 0.0000 0.0000 10.8117 0.0000 19.6604
#
#
#
# Elastic Compliance Matrix: (Units=1/GPa)
#
#
# Indices 1 2 3 4 5 6 
#
# 1 0.010828 -0.005486 -0.002327 0.000000 -0.004389 0.000000
# 2 -0.005486 0.015176 -0.003154 0.000000 0.007221 0.000000
# 3 -0.002327 -0.003154 0.009847 0.000000 -0.004605 0.000000
# 4 0.000000 0.000000 0.000000 0.034374 0.000000 -0.018903
# 5 -0.004389 0.007221 -0.004605 0.000000 0.036408 0.000000
# 6 0.000000 0.000000 0.000000 -0.018903 0.000000 0.061259
#
#
# Mechanical properties :
#
#
# Convention : Reuss Voigt Hill
#
# Bulk Modulus (GPa) = 71.84814 75.12201 73.48508
# Shear Modulus (GPa) = 25.71145 32.00400 28.85772
#
# Velocity S-wave (km/s) = 3.40771 3.80190 3.61019
# Velocity P-wave (km/s) = 6.92338 7.29391 7.11106
#
# Compressibility (1/GPa) = 0.01391824
#
# Stress axis : x y z
#
# Youngs Moduli (GPa) = 92.35309 65.89142 101.55418
#
# Poissons Ratio (x) = 0.36148 0.23632
# Poissons Ratio (y) = 0.50664 0.32027
# Poissons Ratio (z) = 0.21491 0.20780
#
# Static dielectric constant tensor:
#      x y z
#    x 4.118960 0.000000 0.047720 
#    y 0.000000 3.866820 0.000000 
#    z 0.047720 0.000000 4.249100 
# 
# 
# High freq. dielectric constant tensor:
#      x y z
#    x 1.887460 0.000000 0.000830 
#    y 0.000000 1.867850 0.000000 
#    z 0.000830 0.000000 1.893050 
# 
# From -- ./inp_files/1452.got.cif
#   From: 2010.06.25/outbox.cif.g09.slc.cpg/sg13_1_cif.got.tgz:1452.got - 2010.06.28 04:50:58.
