data_PCOD8120167
_publ_section_title
;
Structure prediction by ZEFSAII (Michael W. Deem and Ramdas Pophale) SiO2 
 PCOD8120167
Probable space group: P 2/C
;
_chemical_formula_sum "Si O2"
_cell_formula_units_Z 32
_cell_length_a 10.943511
_cell_length_b 9.832127
_cell_length_c 18.869735
_cell_angle_alpha 90.000000
_cell_angle_beta 49.975925
_cell_angle_gamma 90.000000
_cell_volume 1554.786415
_symmetry_space_group_name_H-M "P 2/C"
_symmetry_group_IT_number 13
_symmetry_cell_setting 'monoclinic'
loop_
_space_group_symop_operation_xyz
x,y,z
-x,y,1/2-z
-x,-y,-z
x,-y,1/2+z
loop_
_atom_site_type_symbol
_atom_site_label
_atom_site_fract_x
_atom_site_fract_y
_atom_site_fract_z
Si Si1 0.453351 0.366471 0.847876
Si Si2 0.041026 0.767680 0.658511
Si Si3 0.269261 0.106015 0.271795
Si Si4 0.812888 0.177614 0.044156
Si Si5 0.508913 0.665756 0.663339
Si Si6 0.731951 0.996595 0.450583
Si Si7 0.076146 0.364491 0.002631
Si Si8 0.585038 0.890457 0.372420
O O1 0.500000 0.336287 0.750000
O O2 0.516298 0.511436 0.854729
O O3 0.534756 0.261501 0.871487
O O4 0.262334 0.355534 0.919035
O O5 0.045432 0.646814 0.598886
O O6 0.000000 0.700972 0.750000
O O7 0.908798 0.879914 0.689866
O O8 0.203168 0.856336 0.598637
O O9 0.271936 0.108192 0.356088
O O10 0.370346 0.227374 0.195023
O O11 0.336159 0.959385 0.225715
O O12 0.682928 0.290504 0.068734
O O13 0.985309 0.239211 0.998772
O O14 0.844623 0.072870 0.968158
O O15 0.500000 0.651547 0.750000
O O16 0.710210 0.895630 0.391414
O O17 0.564165 0.017371 0.551189
O O18 0.000000 0.500000 0.000000
#
# Coordination Sequence:
#
# PCOD8120167 Si02
#       8
#     4   4   4   4   4   4   4   4
#     4  11  24  39  65  97 134 171 216 278 339 388
#     4  11  23  42  66  94 129 176 219 267 336 401
#     4  10  21  37  68  94 123 172 223 267 317 401
#     4  10  21  37  68  91 126 169 215 270 324 393
#     4   9  18  37  59  92 123 163 212 260 325 387
#     4  11  23  40  60  92 130 166 215 270 327 387
#     4  11  23  43  68  96 129 168 227 276 322 395
#     4  11  23  39  61  93 132 167 210 274 325 387
#
# _framework density 20.581605
#
# number of rings (size 3 to 8) (size 9 to 14) (size 15 to 20)
#    0.000    1.500    5.000    0.000    3.500    3.000 
#    0.000    1.875    0.000    0.000    0.000    0.000 
#    0.000    0.000    0.000    0.000    0.000    0.000 
#
# Total GULP energy -396682.701742 kJ/mol
# GULP energy per Si atom -12396.334429 kJ/mol
# Density = 2.053476 g / cm^3
# Si number density = 20.581605 Si / 1000 Ang^3
#
#
#
# Elastic Constant Matrix: (Units=GPa)
#
#
# Indices 1 2 3 4 5 6 
#
# 1 79.7715 29.9291 41.0364 0.0000 11.7813 0.0000
# 2 29.9291 87.9668 42.3524 0.0000 13.9108 0.0000
# 3 41.0364 42.3524 107.0548 0.0000 9.5677 0.0000
# 4 0.0000 0.0000 0.0000 22.8151 0.0000 3.8969
# 5 11.7813 13.9108 9.5677 0.0000 38.2737 0.0000
# 6 0.0000 0.0000 0.0000 3.8969 0.0000 33.5971
#
#
#
# Elastic Compliance Matrix: (Units=1/GPa)
#
#
# Indices 1 2 3 4 5 6 
#
# 1 0.016570 -0.002783 -0.004997 0.000000 -0.002840 0.000000
# 2 -0.002783 0.015072 -0.004585 0.000000 -0.003475 0.000000
# 3 -0.004997 -0.004585 0.013076 0.000000 -0.000064 0.000000
# 4 0.000000 0.000000 0.000000 0.044716 0.000000 -0.005187
# 5 -0.002840 -0.003475 -0.000064 0.000000 0.028281 0.000000
# 6 0.000000 0.000000 0.000000 -0.005187 0.000000 0.030366
#
#
# Mechanical properties :
#
#
# Convention : Reuss Voigt Hill
#
# Bulk Modulus (GPa) = 50.03011 55.71430 52.87221
# Shear Modulus (GPa) = 27.85922 29.70221 28.78071
#
# Velocity S-wave (km/s) = 3.68312 3.80299 3.74354
# Velocity P-wave (km/s) = 6.51522 6.81266 6.66560
#
# Compressibility (1/GPa) = 0.01998796
#
# Stress axis : x y z
#
# Youngs Moduli (GPa) = 60.35086 66.34855 76.47479
#
# Poissons Ratio (x) = 0.18463 0.38213
# Poissons Ratio (y) = 0.16794 0.35067
# Poissons Ratio (z) = 0.30156 0.30424
#
# Static dielectric constant tensor:
#      x y z
#    x 3.745980 0.000000 -0.031210 
#    y 0.000000 3.705040 0.000000 
#    z -0.031210 0.000000 3.851890 
# 
# 
# High freq. dielectric constant tensor:
#      x y z
#    x 1.799600 0.000000 -0.007810 
#    y 0.000000 1.786060 0.000000 
#    z -0.007810 0.000000 1.808130 
# 
# From -- ./inp_files/78260.got.cif
#   From: 2010.06.25/outbox.cif.g09.slc.cpg/sg13_40_cif.got.tgz:78260.got - 2010.06.28 04:50:58.
