data_PCOD8120236
_publ_section_title
;
Structure prediction by ZEFSAII (Michael W. Deem and Ramdas Pophale) SiO2 
 PCOD8120236
Probable space group: P 2/C
;
_chemical_formula_sum "Si O2"
_cell_formula_units_Z 32
_cell_length_a 8.606459
_cell_length_b 25.029734
_cell_length_c 14.448727
_cell_angle_alpha 90.000000
_cell_angle_beta 30.617392
_cell_angle_gamma 90.000000
_cell_volume 1585.208073
_symmetry_space_group_name_H-M "P 2/C"
_symmetry_group_IT_number 13
_symmetry_cell_setting 'monoclinic'
loop_
_space_group_symop_operation_xyz
x,y,z
-x,y,1/2-z
-x,-y,-z
x,-y,1/2+z
loop_
_atom_site_type_symbol
_atom_site_label
_atom_site_fract_x
_atom_site_fract_y
_atom_site_fract_z
Si Si1 0.655536 0.662649 0.905364
Si Si2 0.654020 0.785701 0.912350
Si Si3 0.377072 0.380218 0.718582
Si Si4 0.642791 0.860262 0.577951
Si Si5 0.700137 0.588217 0.556891
Si Si6 0.636254 0.853473 0.284169
Si Si7 0.269059 0.522051 0.547065
Si Si8 0.644641 0.057585 0.925313
O O1 0.644994 0.724270 0.884236
O O2 0.505737 0.621065 0.910065
O O3 0.000000 0.643810 0.750000
O O4 0.447576 0.661506 0.102782
O O5 0.502953 0.810465 0.899368
O O6 0.000000 0.804862 0.750000
O O7 0.477515 0.802249 0.097493
O O8 0.500000 0.355422 0.750000
O O9 0.569551 0.434380 0.600367
O O10 0.014076 0.381974 0.915139
O O11 0.500000 0.868410 0.750000
O O12 0.546969 0.912090 0.568367
O O13 0.000808 0.850263 0.405640
O O14 0.500000 0.581883 0.750000
O O15 0.822680 0.529576 0.465552
O O16 0.500000 0.853423 0.250000
O O17 0.543908 0.907980 0.386348
O O18 0.500000 0.500000 0.500000
O O19 0.000000 0.545811 0.750000
O O20 0.000000 0.049332 0.750000
O O21 0.500000 0.000000 0.000000
#
# Coordination Sequence:
#
# PCOD8120236 Si02
#       8
#     4   4   4   4   4   4   4   4
#     4  11  24  44  65  88 120 153 194 247 298 353
#     4  10  22  40  64  89 115 153 196 246 304 355
#     4  12  26  41  64  91 121 157 195 240 291 351
#     4  10  21  38  60  88 120 158 202 248 296 352
#     4  12  26  42  63  91 120 157 198 237 292 353
#     4  10  21  38  60  88 120 158 202 248 295 353
#     4  12  23  41  67  90 119 157 196 239 293 349
#     4   9  20  36  55  84 121 161 203 246 297 347
#
# _framework density 20.186624999999999
#
# number of rings (size 3 to 8) (size 9 to 14) (size 15 to 20)
#    0.000    1.250    2.500    3.750    1.750    7.500 
#    0.000    2.500    0.000    0.000    0.000    0.000 
#    0.000    0.000    0.000    0.000    0.000    0.000 
#
# Total GULP energy -396548.862305 kJ/mol
# GULP energy per Si atom -12392.151947 kJ/mol
# Density = 2.014068 g / cm^3
# Si number density = 20.186625 Si / 1000 Ang^3
#
#
#
# Elastic Constant Matrix: (Units=GPa)
#
#
# Indices 1 2 3 4 5 6 
#
# 1 125.9950 38.1554 44.5782 0.0000 8.6120 0.0000
# 2 38.1554 101.0917 28.8130 0.0000 -0.3892 0.0000
# 3 44.5782 28.8130 130.8645 0.0000 7.2552 0.0000
# 4 0.0000 0.0000 0.0000 35.4317 0.0000 1.9822
# 5 8.6120 -0.3892 7.2552 0.0000 43.6935 0.0000
# 6 0.0000 0.0000 0.0000 1.9822 0.0000 28.8297
#
#
#
# Elastic Compliance Matrix: (Units=1/GPa)
#
#
# Indices 1 2 3 4 5 6 
#
# 1 0.009873 -0.002985 -0.002621 0.000000 -0.001537 0.000000
# 2 -0.002985 0.011467 -0.001560 0.000000 0.000950 0.000000
# 3 -0.002621 -0.001560 0.008932 0.000000 -0.000981 0.000000
# 4 0.000000 0.000000 0.000000 0.028332 0.000000 -0.001948
# 5 -0.001537 0.000950 -0.000981 0.000000 0.023361 0.000000
# 6 0.000000 0.000000 0.000000 -0.001948 0.000000 0.034820
#
#
# Mechanical properties :
#
#
# Convention : Reuss Voigt Hill
#
# Bulk Modulus (GPa) = 62.73772 64.56051 63.64912
# Shear Modulus (GPa) = 36.64811 38.01795 37.33303
#
# Velocity S-wave (km/s) = 4.26545 4.34444 4.30512
# Velocity P-wave (km/s) = 7.44346 7.56418 7.50406
#
# Compressibility (1/GPa) = 0.01593937
#
# Stress axis : x y z
#
# Youngs Moduli (GPa) = 101.28396 87.20497 111.95507
#
# Poissons Ratio (x) = 0.26035 0.29340
# Poissons Ratio (y) = 0.30238 0.17470
# Poissons Ratio (z) = 0.26543 0.13608
#
# Static dielectric constant tensor:
#      x y z
#    x 3.814100 0.000000 -0.039750 
#    y 0.000000 2.129850 0.000000 
#    z -0.039750 0.000000 3.702780 
# 
# 
# High freq. dielectric constant tensor:
#      x y z
#    x 1.798240 0.000000 -0.005020 
#    y 0.000000 1.781270 0.000000 
#    z -0.005020 0.000000 1.805060 
# 
# From -- ./inp_files/48293.got.cif
#   From: 2010.06.25/outbox.cif.g09.slc.cpg/sg13_25_cif.got.tgz:48293.got - 2010.06.28 04:50:58.
