data_PCOD8120924
_publ_section_title
;
Structure prediction by ZEFSAII (Michael W. Deem and Ramdas Pophale) SiO2 
 PCOD8120924
Probable space group: P 2/C
;
_chemical_formula_sum "Si O2"
_cell_formula_units_Z 30
_cell_length_a 19.845826
_cell_length_b 5.962857
_cell_length_c 22.725385
_cell_angle_alpha 90.000000
_cell_angle_beta 148.528917
_cell_angle_gamma 90.000000
_cell_volume 1403.983621
_symmetry_space_group_name_H-M "P 2/C"
_symmetry_group_IT_number 13
_symmetry_cell_setting 'monoclinic'
loop_
_space_group_symop_operation_xyz
x,y,z
-x,y,1/2-z
-x,-y,-z
x,-y,1/2+z
loop_
_atom_site_type_symbol
_atom_site_label
_atom_site_fract_x
_atom_site_fract_y
_atom_site_fract_z
Si Si1 0.000000 0.151015 0.750000
Si Si2 0.843639 0.600616 0.938169
Si Si3 0.391706 0.172149 0.014670
Si Si4 0.684159 0.828330 0.726765
Si Si5 0.115401 0.239079 0.621721
Si Si6 0.208618 0.573670 0.466866
Si Si7 0.733103 0.490510 0.668300
Si Si8 0.799338 0.801245 0.621966
O O1 0.076276 0.300135 0.853031
O O2 0.094841 0.988663 0.784691
O O3 0.724166 0.666842 0.808879
O O4 0.883751 0.355362 0.942422
O O5 0.780360 0.581096 0.955042
O O6 0.961503 0.785071 0.021613
O O7 0.539414 0.101954 0.135142
O O8 0.330479 0.307285 0.024817
O O9 0.366238 0.310754 0.934579
O O10 0.335860 0.922542 0.968315
O O11 0.664665 0.697502 0.650446
O O12 0.793648 0.021303 0.806067
O O13 0.165096 0.396799 0.710269
O O14 0.196338 0.310562 0.439739
O O15 0.819192 0.589905 0.679616
#
# Coordination Sequence:
#
# PCOD8120924 Si02
#       8
#     2   4   4   4   4   4   4   4
#     4  10  22  36  62  94 122 162 204 256 318 382
#     4  10  24  42  61  89 128 166 214 264 311 380
#     4  10  23  41  60  96 126 164 218 256 320 378
#     4  11  23  42  64  88 128 173 213 262 310 373
#     4  10  23  40  63  94 123 165 217 260 320 379
#     4  10  23  40  62  90 127 164 208 261 316 378
#     4  10  22  38  65  96 125 163 205 268 316 375
#     4  10  22  38  61  97 125 164 200 260 322 375
#
# _framework density 21.367768999999999
#
# number of rings (size 3 to 8) (size 9 to 14) (size 15 to 20)
#    0.000    1.867    0.000    2.000    9.333    9.067 
#    0.000    0.000    0.000    0.000    0.000    0.000 
#    0.000    0.000    0.000    0.000    0.000    0.000 
#
# Total GULP energy -371664.005908 kJ/mol
# GULP energy per Si atom -12388.800197 kJ/mol
# Density = 2.131913 g / cm^3
# Si number density = 21.367769 Si / 1000 Ang^3
#
#
#
# Elastic Constant Matrix: (Units=GPa)
#
#
# Indices 1 2 3 4 5 6 
#
# 1 107.0598 28.1022 48.6335 0.0000 -14.1747 0.0000
# 2 28.1022 96.4351 32.4720 0.0000 -1.3100 0.0000
# 3 48.6335 32.4720 102.5229 0.0000 11.2785 0.0000
# 4 0.0000 0.0000 0.0000 15.3430 0.0000 -3.7739
# 5 -14.1747 -1.3100 11.2785 0.0000 38.3276 0.0000
# 6 0.0000 0.0000 0.0000 -3.7739 0.0000 20.6315
#
#
#
# Elastic Compliance Matrix: (Units=1/GPa)
#
#
# Indices 1 2 3 4 5 6 
#
# 1 0.013791 -0.001634 -0.006800 0.000000 0.007045 0.000000
# 2 -0.001634 0.011888 -0.003068 0.000000 0.000705 0.000000
# 3 -0.006800 -0.003068 0.014716 0.000000 -0.006950 0.000000
# 4 0.000000 0.000000 0.000000 0.068247 0.000000 0.012484
# 5 0.007045 0.000705 -0.006950 0.000000 0.030766 0.000000
# 6 0.000000 0.000000 0.000000 0.012484 0.000000 0.050753
#
#
# Mechanical properties :
#
#
# Convention : Reuss Voigt Hill
#
# Bulk Modulus (GPa) = 57.49567 58.27034 57.88301
# Shear Modulus (GPa) = 22.83511 27.98108 25.40810
#
# Velocity S-wave (km/s) = 3.27260 3.62263 3.45205
# Velocity P-wave (km/s) = 6.42230 6.69532 6.56023
#
# Compressibility (1/GPa) = 0.01739261
#
# Stress axis : x y z
#
# Youngs Moduli (GPa) = 72.51090 84.11589 67.95434
#
# Poissons Ratio (x) = 0.13741 0.46207
# Poissons Ratio (y) = 0.11845 0.20849
# Poissons Ratio (z) = 0.49305 0.25807
#
# Static dielectric constant tensor:
#      x y z
#    x 3.889200 0.000000 0.011060 
#    y 0.000000 3.985100 0.000000 
#    z 0.011060 0.000000 3.780060 
# 
# 
# High freq. dielectric constant tensor:
#      x y z
#    x 1.834750 0.000000 -0.000140 
#    y 0.000000 1.841050 0.000000 
#    z -0.000140 0.000000 1.831760 
# 
# From -- ./inp_files/88364.got.cif
#   From: 2010.06.25/outbox.cif.g09.slc.cpg/sg13_45_cif.got.tgz:88364.got - 2010.06.28 04:50:58.
