data_PCOD8120335
_publ_section_title
;
Structure prediction by ZEFSAII (Michael W. Deem and Ramdas Pophale) SiO2 
 PCOD8120335
Probable space group: P 2/C
;
_chemical_formula_sum "Si O2"
_cell_formula_units_Z 32
_cell_length_a 9.140317
_cell_length_b 13.927541
_cell_length_c 24.092660
_cell_angle_alpha 90.000000
_cell_angle_beta 150.250945
_cell_angle_gamma 90.000000
_cell_volume 1521.875505
_symmetry_space_group_name_H-M "P 2/C"
_symmetry_group_IT_number 13
_symmetry_cell_setting 'monoclinic'
loop_
_space_group_symop_operation_xyz
x,y,z
-x,y,1/2-z
-x,-y,-z
x,-y,1/2+z
loop_
_atom_site_type_symbol
_atom_site_label
_atom_site_fract_x
_atom_site_fract_y
_atom_site_fract_z
Si Si1 0.986637 0.271781 0.831376
Si Si2 0.660893 0.749112 0.413144
Si Si3 0.016212 0.489042 0.692797
Si Si4 0.239336 0.232140 0.032868
Si Si5 0.878034 0.440877 0.035858
Si Si6 0.575564 0.127062 0.573195
Si Si7 0.390485 0.418166 0.133137
Si Si8 0.673586 0.087133 0.127882
O O1 0.638960 0.247737 0.721887
O O2 0.044791 0.376302 0.824307
O O3 0.134672 0.192608 0.840165
O O4 0.138651 0.271197 0.940610
O O5 0.675344 0.643018 0.444594
O O6 0.651772 0.823255 0.460358
O O7 0.941422 0.782139 0.469928
O O8 0.333361 0.512214 0.771744
O O9 0.000000 0.532414 0.750000
O O10 0.806224 0.542867 0.578114
O O11 0.453774 0.309213 0.133890
O O12 0.429983 0.134736 0.088788
O O13 0.221876 0.414403 0.137073
O O14 0.823488 0.539940 0.985391
O O15 0.394769 0.114533 0.457470
O O16 0.667222 0.027312 0.631852
O O17 0.000000 0.125385 0.250000
#
# Coordination Sequence:
#
# PCOD8120335 Si02
#       8
#     4   4   4   4   4   4   4   4
#     4  11  21  38  60  90 124 161 201 254 315 363
#     4  11  21  38  62  92 122 157 204 265 301 352
#     4  12  24  35  56  87 121 164 209 254 299 357
#     4  10  23  38  63  91 120 159 211 249 302 373
#     4  10  22  37  56  80 119 164 199 238 304 360
#     4  10  23  41  65  93 122 155 202 253 312 373
#     4  10  21  39  55  80 118 162 199 242 297 362
#     4  10  22  44  67  87 121 167 197 245 316 378
#
# _framework density 21.026686999999999
#
# number of rings (size 3 to 8) (size 9 to 14) (size 15 to 20)
#    0.000    1.500    2.500    2.625    0.000    5.500 
#    0.000    1.875    0.000    0.000    0.000    0.000 
#    0.000    0.000    0.000    0.000    0.000    0.000 
#
# Total GULP energy -396669.336436 kJ/mol
# GULP energy per Si atom -12395.916764 kJ/mol
# Density = 2.097883 g / cm^3
# Si number density = 21.026687 Si / 1000 Ang^3
#
#
#
# Elastic Constant Matrix: (Units=GPa)
#
#
# Indices 1 2 3 4 5 6 
#
# 1 115.1254 48.1377 22.3596 0.0000 -5.1276 0.0000
# 2 48.1377 118.8458 31.5605 0.0000 5.6794 0.0000
# 3 22.3596 31.5605 61.7420 0.0000 15.1947 0.0000
# 4 0.0000 0.0000 0.0000 28.5762 0.0000 2.9728
# 5 -5.1276 5.6794 15.1947 0.0000 29.8055 0.0000
# 6 0.0000 0.0000 0.0000 2.9728 0.0000 30.6120
#
#
#
# Elastic Compliance Matrix: (Units=1/GPa)
#
#
# Indices 1 2 3 4 5 6 
#
# 1 0.011092 -0.003879 -0.003071 0.000000 0.004213 0.000000
# 2 -0.003879 0.011108 -0.004103 0.000000 -0.000692 0.000000
# 3 -0.003071 -0.004103 0.022119 0.000000 -0.011022 0.000000
# 4 0.000000 0.000000 0.000000 0.035351 0.000000 -0.003433
# 5 0.004213 -0.000692 -0.011022 0.000000 0.040027 0.000000
# 6 0.000000 0.000000 0.000000 -0.003433 0.000000 0.033000
#
#
# Mechanical properties :
#
#
# Convention : Reuss Voigt Hill
#
# Bulk Modulus (GPa) = 45.01859 55.53655 50.27757
# Shear Modulus (GPa) = 27.44136 30.70912 29.07524
#
# Velocity S-wave (km/s) = 3.61650 3.82577 3.72261
# Velocity P-wave (km/s) = 6.23662 6.78123 6.51462
#
# Compressibility (1/GPa) = 0.02221305
#
# Stress axis : x y z
#
# Youngs Moduli (GPa) = 90.15486 90.02594 45.21073
#
# Poissons Ratio (x) = 0.34917 0.13885
# Poissons Ratio (y) = 0.34967 0.18550
# Poissons Ratio (z) = 0.27688 0.36939
#
# Static dielectric constant tensor:
#      x y z
#    x 3.832190 0.000000 -0.086580 
#    y 0.000000 3.811060 0.000000 
#    z -0.086580 0.000000 3.791200 
# 
# 
# High freq. dielectric constant tensor:
#      x y z
#    x 1.825080 0.000000 -0.006930 
#    y 0.000000 1.813520 0.000000 
#    z -0.006930 0.000000 1.829170 
# 
# From -- ./inp_files/85355.got.cif
#   From: 2010.06.25/outbox.cif.g09.slc.cpg/sg13_43_cif.got.tgz:85355.got - 2010.06.28 04:50:58.
