data_PCOD8120684
_publ_section_title
;
Structure prediction by ZEFSAII (Michael W. Deem and Ramdas Pophale) SiO2 
 PCOD8120684
Probable space group: P 2/C
;
_chemical_formula_sum "Si O2"
_cell_formula_units_Z 22
_cell_length_a 18.109884
_cell_length_b 5.081192
_cell_length_c 12.162871
_cell_angle_alpha 90.000000
_cell_angle_beta 119.167812
_cell_angle_gamma 90.000000
_cell_volume 977.302745
_symmetry_space_group_name_H-M "P 2/C"
_symmetry_group_IT_number 13
_symmetry_cell_setting 'monoclinic'
loop_
_space_group_symop_operation_xyz
x,y,z
-x,y,1/2-z
-x,-y,-z
x,-y,1/2+z
loop_
_atom_site_type_symbol
_atom_site_label
_atom_site_fract_x
_atom_site_fract_y
_atom_site_fract_z
Si Si1 0.291875 0.120570 0.612654
Si Si2 0.500000 0.539984 0.750000
Si Si3 0.106672 0.775624 0.030248
Si Si4 0.341964 0.354841 0.032275
Si Si5 0.022306 0.290734 0.885833
Si Si6 0.568450 0.817042 0.113543
O O1 0.207608 0.216082 0.613532
O O2 0.317211 0.348515 0.544798
O O3 0.363899 0.048557 0.754588
O O4 0.273598 0.864716 0.521666
O O5 0.578324 0.727211 0.832814
O O6 0.487609 0.376879 0.853747
O O7 0.066709 0.670121 0.115188
O O8 0.074796 0.564524 0.916106
O O9 0.077523 0.070493 0.985331
O O10 0.369859 0.337547 0.925940
O O11 0.000000 0.189038 0.750000
O O12 0.500000 0.000000 0.000000
#
# Coordination Sequence:
#
# PCOD8120684 Si02
#       6
#     4   2   4   4   4   4
#     4  11  25  40  60  93 129 159 203 260 306 361
#     4  10  22  40  60  86 118 158 214 264 302 360
#     4  10  22  40  62  94 127 158 203 253 303 366
#     4  11  23  40  60  87 120 161 205 254 310 359
#     4  10  21  41  67  91 121 164 204 245 305 373
#     4  11  22  41  65  89 121 167 213 254 308 363
#
# _framework density 22.510936000000001
#
# number of rings (size 3 to 8) (size 9 to 14) (size 15 to 20)
#    0.000    1.455    0.000    5.455    0.000    8.000 
#    0.000    0.000    0.000    0.000    0.000    0.000 
#    0.000    0.000    0.000    0.000    0.000    0.000 
#
# Total GULP energy -272595.345805 kJ/mol
# GULP energy per Si atom -12390.697537 kJ/mol
# Density = 2.245970 g / cm^3
# Si number density = 22.510936 Si / 1000 Ang^3
#
#
#
# Elastic Constant Matrix: (Units=GPa)
#
#
# Indices 1 2 3 4 5 6 
#
# 1 116.9498 20.0780 47.2839 0.0000 -2.7327 0.0000
# 2 20.0780 85.0637 31.3226 0.0000 -14.1614 0.0000
# 3 47.2839 31.3226 88.4042 0.0000 -22.4042 0.0000
# 4 0.0000 0.0000 0.0000 27.5794 0.0000 4.7482
# 5 -2.7327 -14.1614 -22.4042 0.0000 29.7828 0.0000
# 6 0.0000 0.0000 0.0000 4.7482 0.0000 17.2335
#
#
#
# Elastic Compliance Matrix: (Units=1/GPa)
#
#
# Indices 1 2 3 4 5 6 
#
# 1 0.011408 -0.000901 -0.006951 0.000000 -0.004610 0.000000
# 2 -0.000901 0.013891 -0.003444 0.000000 0.003932 0.000000
# 3 -0.006951 -0.003444 0.019365 0.000000 0.012292 0.000000
# 4 0.000000 0.000000 0.000000 0.038065 0.000000 -0.010488
# 5 -0.004610 0.003932 0.012292 0.000000 0.044270 0.000000
# 6 0.000000 0.000000 0.000000 -0.010488 0.000000 0.060916
#
#
# Mechanical properties :
#
#
# Convention : Reuss Voigt Hill
#
# Bulk Modulus (GPa) = 45.30344 54.19852 49.75098
# Shear Modulus (GPa) = 22.95029 27.70135 25.32582
#
# Velocity S-wave (km/s) = 3.19645 3.51176 3.35781
# Velocity P-wave (km/s) = 5.81308 6.36962 6.09770
#
# Compressibility (1/GPa) = 0.02207338
#
# Stress axis : x y z
#
# Youngs Moduli (GPa) = 87.65846 71.98860 51.64034
#
# Poissons Ratio (x) = 0.06484 0.35895
# Poissons Ratio (y) = 0.07895 0.17783
# Poissons Ratio (z) = 0.60931 0.24790
#
# Static dielectric constant tensor:
#      x y z
#    x 4.288150 0.000000 -0.181080 
#    y 0.000000 3.934720 0.000000 
#    z -0.181080 0.000000 3.877090 
# 
# 
# High freq. dielectric constant tensor:
#      x y z
#    x 1.896760 0.000000 -0.015520 
#    y 0.000000 1.892120 0.000000 
#    z -0.015520 0.000000 1.870020 
# 
# From -- ./inp_files/37989.got.cif
#   From: 2010.06.25/outbox.cif.g09.slc.cpg/sg13_19_cif.got.tgz:37989.got - 2010.06.28 04:50:58.
