data_PCOD8120337
_publ_section_title
;
Structure prediction by ZEFSAII (Michael W. Deem and Ramdas Pophale) SiO2 
 PCOD8120337
Probable space group: P 2/C
;
_chemical_formula_sum "Si O2"
_cell_formula_units_Z 30
_cell_length_a 11.896615
_cell_length_b 14.576653
_cell_length_c 9.575050
_cell_angle_alpha 90.000000
_cell_angle_beta 103.163950
_cell_angle_gamma 90.000000
_cell_volume 1616.804197
_symmetry_space_group_name_H-M "P 2/C"
_symmetry_group_IT_number 13
_symmetry_cell_setting 'monoclinic'
loop_
_space_group_symop_operation_xyz
x,y,z
-x,y,1/2-z
-x,-y,-z
x,-y,1/2+z
loop_
_atom_site_type_symbol
_atom_site_label
_atom_site_fract_x
_atom_site_fract_y
_atom_site_fract_z
Si Si1 0.640653 0.574024 0.924476
Si Si2 0.620228 0.404138 0.098747
Si Si3 0.736744 0.238837 0.456000
Si Si4 0.098420 0.081369 0.388388
Si Si5 0.441790 0.115992 0.988389
Si Si6 0.944028 0.121864 0.595838
Si Si7 0.316683 0.204009 0.373074
Si Si8 0.500000 0.996397 0.250000
O O1 0.517926 0.609621 0.950357
O O2 0.643870 0.558208 0.760077
O O3 0.736531 0.652050 0.983878
O O4 0.671860 0.478375 0.006150
O O5 0.684110 0.309503 0.074288
O O6 0.653383 0.194737 0.548372
O O7 0.864683 0.199126 0.503621
O O8 0.679363 0.212483 0.292372
O O9 0.208230 0.145221 0.393213
O O10 0.000000 0.107091 0.250000
O O11 0.052210 0.101252 0.528667
O O12 0.127406 0.972121 0.389475
O O13 0.423294 0.062962 0.836430
O O14 0.571480 0.153354 0.036440
O O15 0.417741 0.054957 0.121795
O O16 0.000000 0.164199 0.750000
#
# Coordination Sequence:
#
# PCOD8120337 Si02
#       8
#     4   4   4   4   4   4   4   2
#     4   9  18  35  57  82 115 146 182 225 286 347
#     4   9  18  35  56  84 113 148 180 227 284 347
#     4  11  20  36  62  82 115 150 189 235 285 343
#     4  10  21  39  57  80 109 152 200 230 269 331
#     4  11  22  38  52  86 116 150 190 226 290 344
#     4  10  23  39  57  82 112 150 196 240 279 318
#     4  11  20  35  63  83 114 150 193 231 277 352
#     4  10  24  34  48  76 126 154 178 224 282 348
#
# _framework density 18.555122999999998
#
# number of rings (size 3 to 8) (size 9 to 14) (size 15 to 20)
#    0.000    1.867    4.000    0.000    3.733    1.067 
#    4.800    0.000    0.000    1.600    0.000    0.000 
#    0.000    0.000    0.000    0.000    0.000    0.000 
#
# Total GULP energy -371832.370576 kJ/mol
# GULP energy per Si atom -12394.412353 kJ/mol
# Density = 1.851289 g / cm^3
# Si number density = 18.555123 Si / 1000 Ang^3
#
#
#
# Elastic Constant Matrix: (Units=GPa)
#
#
# Indices 1 2 3 4 5 6 
#
# 1 57.3898 42.7057 8.3191 0.0000 0.0095 0.0000
# 2 42.7057 129.5856 34.3634 0.0000 -3.9700 0.0000
# 3 8.3191 34.3634 75.7156 0.0000 -10.2323 0.0000
# 4 0.0000 0.0000 0.0000 19.6305 0.0000 2.7267
# 5 0.0095 -3.9700 -10.2323 0.0000 21.3504 0.0000
# 6 0.0000 0.0000 0.0000 2.7267 0.0000 25.2276
#
#
#
# Elastic Compliance Matrix: (Units=1/GPa)
#
#
# Indices 1 2 3 4 5 6 
#
# 1 0.023181 -0.007911 0.000901 0.000000 -0.001049 0.000000
# 2 -0.007911 0.011474 -0.004330 0.000000 0.000062 0.000000
# 3 0.000901 -0.004330 0.016001 0.000000 0.006863 0.000000
# 4 0.000000 0.000000 0.000000 0.051718 0.000000 -0.005590
# 5 -0.001049 0.000062 0.006863 0.000000 0.050139 0.000000
# 6 0.000000 0.000000 0.000000 -0.005590 0.000000 0.040243
#
#
# Mechanical properties :
#
#
# Convention : Reuss Voigt Hill
#
# Bulk Modulus (GPa) = 35.74293 48.16303 41.95298
# Shear Modulus (GPa) = 22.24605 25.06188 23.65397
#
# Velocity S-wave (km/s) = 3.46629 3.67914 3.57430
# Velocity P-wave (km/s) = 5.94350 6.63786 6.30025
#
# Compressibility (1/GPa) = 0.02797756
#
# Stress axis : x y z
#
# Youngs Moduli (GPa) = 43.13935 87.15381 62.49659
#
# Poissons Ratio (x) = 0.68943 -0.05634
# Poissons Ratio (y) = 0.34125 0.27061
# Poissons Ratio (z) = -0.03889 0.37737
#
# Static dielectric constant tensor:
#      x y z
#    x 3.084580 0.000000 -0.100790 
#    y 0.000000 3.526850 0.000000 
#    z -0.100790 0.000000 3.422170 
# 
# 
# High freq. dielectric constant tensor:
#      x y z
#    x 1.688520 0.000000 -0.010910 
#    y 0.000000 1.718760 0.000000 
#    z -0.010910 0.000000 1.718830 
# 
# From -- ./inp_files/16842.got.cif
#   From: 2010.06.25/outbox.cif.g09.slc.cpg/sg13_9_cif.got.tgz:16842.got - 2010.06.28 04:50:58.
