data_PCOD8120771
_publ_section_title
;
Structure prediction by ZEFSAII (Michael W. Deem and Ramdas Pophale) SiO2 
 PCOD8120771
Probable space group: P 2/C
;
_chemical_formula_sum "Si O2"
_cell_formula_units_Z 24
_cell_length_a 8.161337
_cell_length_b 14.895976
_cell_length_c 13.172574
_cell_angle_alpha 90.000000
_cell_angle_beta 136.564066
_cell_angle_gamma 90.000000
_cell_volume 1101.034238
_symmetry_space_group_name_H-M "P 2/C"
_symmetry_group_IT_number 13
_symmetry_cell_setting 'monoclinic'
loop_
_space_group_symop_operation_xyz
x,y,z
-x,y,1/2-z
-x,-y,-z
x,-y,1/2+z
loop_
_atom_site_type_symbol
_atom_site_label
_atom_site_fract_x
_atom_site_fract_y
_atom_site_fract_z
Si Si1 0.605507 0.051600 0.952582
Si Si2 0.851707 0.164490 0.777098
Si Si3 0.824258 0.639845 0.500247
Si Si4 0.000000 0.491653 0.250000
Si Si5 0.022701 0.166360 0.078532
Si Si6 0.500000 0.088910 0.250000
Si Si7 0.277213 0.637400 0.272857
O O1 0.412961 0.125446 0.831756
O O2 0.858832 0.103459 0.078065
O O3 0.651381 0.974596 0.891329
O O4 0.500000 0.000000 0.000000
O O5 0.975734 0.144534 0.939600
O O6 0.849603 0.270378 0.754392
O O7 0.000000 0.119916 0.750000
O O8 0.975402 0.730297 0.583306
O O9 0.554158 0.658247 0.408841
O O10 0.818339 0.607005 0.381037
O O11 0.941888 0.566088 0.624936
O O12 0.778633 0.556951 0.174831
O O13 0.304793 0.148084 0.224152
#
# Coordination Sequence:
#
# PCOD8120771 Si02
#       7
#     4   4   4   2   4   2   4
#     4  12  25  40  69  96 131 174 222 278 332 393
#     4  11  21  41  69  95 126 180 226 266 326 402
#     4  10  23  42  68  91 134 179 209 276 339 399
#     4  12  22  40  64 106 130 162 226 280 334 400
#     4  11  24  47  62  95 137 173 226 269 340 399
#     4  12  26  42  64  96 136 168 218 292 322 382
#     4  10  21  42  67  95 128 174 225 265 327 409
#
# _framework density 21.797687
#
# number of rings (size 3 to 8) (size 9 to 14) (size 15 to 20)
#    0.000    1.000    4.167    2.500    2.333    1.333 
#    3.000    3.333    0.000    0.000    0.000    0.000 
#    0.000    0.000    0.000    0.000    0.000    0.000 
#
# Total GULP energy -297535.405728 kJ/mol
# GULP energy per Si atom -12397.308572 kJ/mol
# Density = 2.174807 g / cm^3
# Si number density = 21.797687 Si / 1000 Ang^3
#
#
#
# Elastic Constant Matrix: (Units=GPa)
#
#
# Indices 1 2 3 4 5 6 
#
# 1 117.9924 54.6201 16.1534 0.0000 21.4483 0.0000
# 2 54.6201 121.7610 41.6167 0.0000 9.3382 0.0000
# 3 16.1534 41.6167 48.7997 0.0000 20.0306 0.0000
# 4 0.0000 0.0000 0.0000 17.0191 0.0000 -3.8673
# 5 21.4483 9.3382 20.0306 0.0000 36.6521 0.0000
# 6 0.0000 0.0000 0.0000 -3.8673 0.0000 43.0413
#
#
#
# Elastic Compliance Matrix: (Units=1/GPa)
#
#
# Indices 1 2 3 4 5 6 
#
# 1 0.012347 -0.006585 0.004906 0.000000 -0.008229 0.000000
# 2 -0.006585 0.015393 -0.014078 0.000000 0.007625 0.000000
# 3 0.004906 -0.014078 0.039423 0.000000 -0.020829 0.000000
# 4 0.000000 0.000000 0.000000 0.059982 0.000000 0.005389
# 5 -0.008229 0.007625 -0.020829 0.000000 0.041540 0.000000
# 6 0.000000 0.000000 0.000000 0.005389 0.000000 0.023718
#
#
# Mechanical properties :
#
#
# Convention : Reuss Voigt Hill
#
# Bulk Modulus (GPa) = 28.04939 57.03706 42.54323
# Shear Modulus (GPa) = 21.20436 31.08667 26.14552
#
# Velocity S-wave (km/s) = 3.12233 3.78053 3.46708
# Velocity P-wave (km/s) = 5.08867 6.72904 5.96550
#
# Compressibility (1/GPa) = 0.03565140
#
# Stress axis : x y z
#
# Youngs Moduli (GPa) = 80.98856 64.96285 25.36567
#
# Poissons Ratio (x) = 0.42775 -0.12444
# Poissons Ratio (y) = 0.53327 0.35709
# Poissons Ratio (z) = -0.39732 0.91453
#
# Static dielectric constant tensor:
#      x y z
#    x 3.856810 0.000000 0.017760 
#    y 0.000000 3.898670 0.000000 
#    z 0.017760 0.000000 3.727770 
# 
# 
# High freq. dielectric constant tensor:
#      x y z
#    x 1.871200 0.000000 0.003640 
#    y 0.000000 1.862360 0.000000 
#    z 0.003640 0.000000 1.835400 
# 
# From -- ./inp_files/47811.got.cif
#   From: 2010.06.25/outbox.cif.g09.slc.cpg/sg13_24_cif.got.tgz:47811.got - 2010.06.28 04:50:58.
