data_PCOD8120973
_publ_section_title
;
Structure prediction by ZEFSAII (Michael W. Deem and Ramdas Pophale) SiO2 
 PCOD8120973
Probable space group: P 2/C
;
_chemical_formula_sum "Si O2"
_cell_formula_units_Z 20
_cell_length_a 8.322242
_cell_length_b 13.190189
_cell_length_c 11.611163
_cell_angle_alpha 90.000000
_cell_angle_beta 49.319549
_cell_angle_gamma 90.000000
_cell_volume 966.586348
_symmetry_space_group_name_H-M "P 2/C"
_symmetry_group_IT_number 13
_symmetry_cell_setting 'monoclinic'
loop_
_space_group_symop_operation_xyz
x,y,z
-x,y,1/2-z
-x,-y,-z
x,-y,1/2+z
loop_
_atom_site_type_symbol
_atom_site_label
_atom_site_fract_x
_atom_site_fract_y
_atom_site_fract_z
Si Si1 0.117859 0.001171 0.069530
Si Si2 0.397972 0.196909 0.918861
Si Si3 0.224032 0.394831 0.084464
Si Si4 0.608527 0.593944 0.580588
Si Si5 0.223264 0.790703 0.083066
O O1 0.000000 0.997533 0.250000
O O2 0.244048 0.895267 0.002775
O O3 0.264285 0.098304 0.013090
O O4 0.000000 0.000000 0.000000
O O5 0.500000 0.177231 0.750000
O O6 0.589601 0.211972 0.914487
O O7 0.250299 0.297243 0.988513
O O8 0.420773 0.397111 0.077849
O O9 0.000000 0.382902 0.250000
O O10 0.229305 0.500831 0.014211
O O11 0.500000 0.572307 0.750000
O O12 0.747632 0.696572 0.517907
O O13 0.000000 0.777653 0.250000
#
# Coordination Sequence:
#
# PCOD8120973 Si02
#       5
#     4   4   4   4   4
#     4  11  24  42  64  91 124 162 206 253 309 366
#     4  11  22  38  62  90 122 158 203 251 301 362
#     4  10  22  39  59  86 119 154 195 243 298 359
#     4  10  22  38  59  87 116 152 196 243 296 357
#     4  10  22  39  59  86 120 158 199 245 299 359
#
# _framework density 20.691376000000002
#
# number of rings (size 3 to 8) (size 9 to 14) (size 15 to 20)
#    0.000    1.600    0.000    4.800    0.000    8.000 
#    0.000    0.000    0.000    0.000    0.000    0.000 
#    0.000    0.000    0.000    0.000    0.000    0.000 
#
# Total GULP energy -247817.030660 kJ/mol
# GULP energy per Si atom -12390.851533 kJ/mol
# Density = 2.064428 g / cm^3
# Si number density = 20.691376 Si / 1000 Ang^3
#
#
#
# Elastic Constant Matrix: (Units=GPa)
#
#
# Indices 1 2 3 4 5 6 
#
# 1 53.3011 28.3518 24.4677 0.0000 -4.0459 0.0000
# 2 28.3518 198.9647 54.8026 0.0000 -13.1103 0.0000
# 3 24.4677 54.8026 101.3587 0.0000 1.0258 0.0000
# 4 0.0000 0.0000 0.0000 35.6506 0.0000 -18.4815
# 5 -4.0459 -13.1103 1.0258 0.0000 39.0024 0.0000
# 6 0.0000 0.0000 0.0000 -18.4815 0.0000 20.9490
#
#
#
# Elastic Compliance Matrix: (Units=1/GPa)
#
#
# Indices 1 2 3 4 5 6 
#
# 1 0.021836 -0.001807 -0.004312 0.000000 0.001771 0.000000
# 2 -0.001807 0.006227 -0.002951 0.000000 0.001983 0.000000
# 3 -0.004312 -0.002951 0.012520 0.000000 -0.001768 0.000000
# 4 0.000000 0.000000 0.000000 0.051690 0.000000 0.045602
# 5 0.001771 0.001983 -0.001768 0.000000 0.026536 0.000000
# 6 0.000000 0.000000 0.000000 0.045602 0.000000 0.087965
#
#
# Mechanical properties :
#
#
# Convention : Reuss Voigt Hill
#
# Bulk Modulus (GPa) = 44.55576 63.20763 53.88169
# Shear Modulus (GPa) = 21.51497 35.52058 28.51777
#
# Velocity S-wave (km/s) = 3.22810 4.14778 3.71650
# Velocity P-wave (km/s) = 5.95604 7.31799 6.67186
#
# Compressibility (1/GPa) = 0.02244379
#
# Stress axis : x y z
#
# Youngs Moduli (GPa) = 45.79491 160.59287 79.87164
#
# Poissons Ratio (x) = 0.29022 0.34441
# Poissons Ratio (y) = 0.08276 0.23567
# Poissons Ratio (z) = 0.19747 0.47384
#
# Static dielectric constant tensor:
#      x y z
#    x 3.747300 0.000000 0.119600 
#    y 0.000000 4.686300 0.000000 
#    z 0.119600 0.000000 4.089630 
# 
# 
# High freq. dielectric constant tensor:
#      x y z
#    x 1.802580 0.000000 -0.002240 
#    y 0.000000 1.843180 0.000000 
#    z -0.002240 0.000000 1.812210 
# 
# From -- ./inp_files/29242.got.cif
#   From: 2010.06.25/outbox.cif.g09.slc.cpg/sg13_15_cif.got.tgz:29242.got - 2010.06.28 04:50:58.
