data_PCOD8120885
_publ_section_title
;
Structure prediction by ZEFSAII (Michael W. Deem and Ramdas Pophale) SiO2 
 PCOD8120885
Probable space group: P 2/C
;
_chemical_formula_sum "Si O2"
_cell_formula_units_Z 26
_cell_length_a 15.419298
_cell_length_b 13.146637
_cell_length_c 9.811002
_cell_angle_alpha 90.000000
_cell_angle_beta 143.672738
_cell_angle_gamma 90.000000
_cell_volume 1178.162463
_symmetry_space_group_name_H-M "P 2/C"
_symmetry_group_IT_number 13
_symmetry_cell_setting 'monoclinic'
loop_
_space_group_symop_operation_xyz
x,y,z
-x,y,1/2-z
-x,-y,-z
x,-y,1/2+z
loop_
_atom_site_type_symbol
_atom_site_label
_atom_site_fract_x
_atom_site_fract_y
_atom_site_fract_z
Si Si1 0.947291 0.855293 0.536900
Si Si2 0.280128 0.492030 0.726064
Si Si3 0.128548 0.918306 0.520234
Si Si4 0.398453 0.800224 0.744066
Si Si5 0.000000 0.420449 0.750000
Si Si6 0.811209 0.317108 0.703349
Si Si7 0.484214 0.655092 0.077946
O O1 0.830884 0.773803 0.335340
O O2 0.000000 0.815707 0.750000
O O3 0.086138 0.866316 0.610510
O O4 0.860880 0.961076 0.443379
O O5 0.253116 0.418646 0.817177
O O6 0.397609 0.435229 0.780549
O O7 0.135384 0.506558 0.453579
O O8 0.329734 0.600742 0.849975
O O9 0.288085 0.884005 0.668385
O O10 0.000000 0.891348 0.250000
O O11 0.500000 0.846781 0.750000
O O12 0.301001 0.710812 0.557956
O O13 0.500543 0.748947 0.990824
O O14 0.032564 0.345990 0.664258
O O15 0.500000 0.701268 0.250000
#
# Coordination Sequence:
#
# PCOD8120885 Si02
#       7
#     4   4   4   4   2   4   4
#     4  10  23  41  73 105 139 175 229 299 360 419
#     4  11  25  41  65  97 144 182 237 287 354 411
#     4  10  21  45  75 103 136 183 233 288 363 426
#     4  12  24  45  72 100 137 192 237 284 356 433
#     4  12  24  42  66 102 138 186 240 294 344 412
#     4  12  23  41  66  98 136 181 232 288 346 413
#     4  11  25  43  67  96 139 193 234 286 356 424
#
# _framework density 22.068262000000001
#
# number of rings (size 3 to 8) (size 9 to 14) (size 15 to 20)
#    0.000    0.923    4.615    2.308    3.231    1.231 
#    0.000    0.769    0.000    0.000    0.000    0.000 
#    0.000    0.000    0.000    0.000    0.000    0.000 
#
# Total GULP energy -322385.845595 kJ/mol
# GULP energy per Si atom -12399.455600 kJ/mol
# Density = 2.201803 g / cm^3
# Si number density = 22.068262 Si / 1000 Ang^3
#
#
#
# Elastic Constant Matrix: (Units=GPa)
#
#
# Indices 1 2 3 4 5 6 
#
# 1 140.7399 42.3224 42.2133 0.0000 -9.2821 0.0000
# 2 42.3224 73.2253 32.8316 0.0000 -3.0725 0.0000
# 3 42.2133 32.8316 110.2862 0.0000 -8.7168 0.0000
# 4 0.0000 0.0000 0.0000 54.2969 0.0000 7.7631
# 5 -9.2821 -3.0725 -8.7168 0.0000 43.8434 0.0000
# 6 0.0000 0.0000 0.0000 7.7631 0.0000 38.1431
#
#
#
# Elastic Compliance Matrix: (Units=1/GPa)
#
#
# Indices 1 2 3 4 5 6 
#
# 1 0.009102 -0.004259 -0.002120 0.000000 0.001207 0.000000
# 2 -0.004259 0.017754 -0.003686 0.000000 -0.000390 0.000000
# 3 -0.002120 -0.003686 0.011095 0.000000 0.001499 0.000000
# 4 0.000000 0.000000 0.000000 0.018969 0.000000 -0.003861
# 5 0.001207 -0.000390 0.001499 0.000000 0.023335 0.000000
# 6 0.000000 0.000000 0.000000 -0.003861 0.000000 0.027003
#
#
# Mechanical properties :
#
#
# Convention : Reuss Voigt Hill
#
# Bulk Modulus (GPa) = 56.11807 62.10956 59.11381
# Shear Modulus (GPa) = 37.50133 41.04896 39.27514
#
# Velocity S-wave (km/s) = 4.12677 4.31756 4.22324
# Velocity P-wave (km/s) = 6.94201 7.28426 7.11519
#
# Compressibility (1/GPa) = 0.01781957
#
# Stress axis : x y z
#
# Youngs Moduli (GPa) = 109.86964 56.32384 90.13312
#
# Poissons Ratio (x) = 0.23989 0.19112
# Poissons Ratio (y) = 0.46795 0.33223
# Poissons Ratio (z) = 0.23297 0.20761
#
# Static dielectric constant tensor:
#      x y z
#    x 4.258330 0.000000 -0.081650 
#    y 0.000000 3.812240 0.000000 
#    z -0.081650 0.000000 3.837670 
# 
# 
# High freq. dielectric constant tensor:
#      x y z
#    x 1.879730 0.000000 -0.010870 
#    y 0.000000 1.855460 0.000000 
#    z -0.010870 0.000000 1.859550 
# 
# From -- ./inp_files/19918.got.cif
#   From: 2010.06.25/outbox.cif.g09.slc.cpg/sg13_10_cif.got.tgz:19918.got - 2010.06.28 04:50:58.
