data_PCOD8120100
_publ_section_title
;
Structure prediction by ZEFSAII (Michael W. Deem and Ramdas Pophale) SiO2 
 PCOD8120100
Probable space group: P 2/C
;
_chemical_formula_sum "Si O2"
_cell_formula_units_Z 32
_cell_length_a 23.186289
_cell_length_b 9.230312
_cell_length_c 13.572114
_cell_angle_alpha 90.000000
_cell_angle_beta 31.996142
_cell_angle_gamma 90.000000
_cell_volume 1539.068786
_symmetry_space_group_name_H-M "P 2/C"
_symmetry_group_IT_number 13
_symmetry_cell_setting 'monoclinic'
loop_
_space_group_symop_operation_xyz
x,y,z
-x,y,1/2-z
-x,-y,-z
x,-y,1/2+z
loop_
_atom_site_type_symbol
_atom_site_label
_atom_site_fract_x
_atom_site_fract_y
_atom_site_fract_z
Si Si1 0.380683 0.454992 0.928841
Si Si2 0.615227 0.872803 0.038699
Si Si3 0.234473 0.656108 0.270806
Si Si4 0.064320 0.628082 0.358260
Si Si5 0.795547 0.577841 0.969778
Si Si6 0.749684 0.027277 0.699268
Si Si7 0.187504 0.904518 0.605112
Si Si8 0.018612 0.916280 0.107019
O O1 0.500000 0.523532 0.750000
O O2 0.388769 0.298688 0.967512
O O3 0.317549 0.558650 0.092251
O O4 0.325447 0.440758 0.901042
O O5 0.500000 0.930166 0.250000
O O6 0.715180 0.928270 0.959934
O O7 0.644857 0.934423 0.887145
O O8 0.134671 0.694342 0.344603
O O9 0.201926 0.567581 0.416044
O O10 0.285360 0.808390 0.227309
O O11 0.133285 0.557079 0.169961
O O12 0.987759 0.753726 0.426649
O O13 0.000000 0.500000 0.500000
O O14 0.841535 0.735063 0.869669
O O15 0.768327 0.013694 0.555881
O O16 0.861370 0.976763 0.591783
O O17 0.075260 0.980299 0.804489
O O18 0.000000 0.913507 0.250000
#
# Coordination Sequence:
#
# PCOD8120100 Si02
#       8
#     4   4   4   4   4   4   4   4
#     4   9  20  39  60  86 115 152 198 240 296 351
#     4  10  21  37  60  84 115 155 195 245 294 348
#     4  10  22  38  57  83 115 153 193 239 293 341
#     4  11  25  35  55  87 112 154 191 233 285 344
#     4   9  21  39  58  82 120 152 193 241 287 350
#     4  10  22  38  60  86 116 154 198 241 294 347
#     4   9  20  40  59  84 118 155 194 238 293 350
#     4  10  23  39  59  87 121 155 192 240 290 350
#
# _framework density 20.791795
#
# number of rings (size 3 to 8) (size 9 to 14) (size 15 to 20)
#    0.000    2.250    0.000    0.750    8.750    3.500 
#    0.000    0.000    0.000    0.000    0.000    0.000 
#    0.000    0.000    0.000    0.000    0.000    0.000 
#
# Total GULP energy -396722.084475 kJ/mol
# GULP energy per Si atom -12397.565140 kJ/mol
# Density = 2.074447 g / cm^3
# Si number density = 20.791795 Si / 1000 Ang^3
#
#
#
# Elastic Constant Matrix: (Units=GPa)
#
#
# Indices 1 2 3 4 5 6 
#
# 1 52.1791 20.7525 18.6276 0.0000 2.2866 0.0000
# 2 20.7525 71.5781 25.7150 0.0000 -3.1921 0.0000
# 3 18.6276 25.7150 94.8660 0.0000 -9.0379 0.0000
# 4 0.0000 0.0000 0.0000 15.4356 0.0000 -2.6693
# 5 2.2866 -3.1921 -9.0379 0.0000 23.0441 0.0000
# 6 0.0000 0.0000 0.0000 -2.6693 0.0000 28.8706
#
#
#
# Elastic Compliance Matrix: (Units=1/GPa)
#
#
# Indices 1 2 3 4 5 6 
#
# 1 0.022782 -0.005587 -0.003374 0.000000 -0.004358 0.000000
# 2 -0.005587 0.016854 -0.003320 0.000000 0.001587 0.000000
# 3 -0.003374 -0.003320 0.012561 0.000000 0.004801 0.000000
# 4 0.000000 0.000000 0.000000 0.065838 0.000000 0.006087
# 5 -0.004358 0.001587 0.004801 0.000000 0.045930 0.000000
# 6 0.000000 0.000000 0.000000 0.006087 0.000000 0.035200
#
#
# Mechanical properties :
#
#
# Convention : Reuss Voigt Hill
#
# Bulk Modulus (GPa) = 36.18702 38.75703 37.47203
# Shear Modulus (GPa) = 21.46460 23.70526 22.58493
#
# Velocity S-wave (km/s) = 3.21652 3.38024 3.29940
# Velocity P-wave (km/s) = 5.58900 5.82372 5.70757
#
# Compressibility (1/GPa) = 0.02763422
#
# Stress axis : x y z
#
# Youngs Moduli (GPa) = 43.89340 59.33190 79.61034
#
# Poissons Ratio (x) = 0.33151 0.26861
# Poissons Ratio (y) = 0.24525 0.26433
# Poissons Ratio (z) = 0.14810 0.19700
#
# Static dielectric constant tensor:
#      x y z
#    x 3.784640 0.000000 -0.027270 
#    y 0.000000 3.657050 0.000000 
#    z -0.027270 0.000000 3.966420 
# 
# 
# High freq. dielectric constant tensor:
#      x y z
#    x 1.814390 0.000000 0.009830 
#    y 0.000000 1.814440 0.000000 
#    z 0.009830 0.000000 1.810280 
# 
# From -- ./inp_files/58790.got.cif
#   From: 2010.06.25/outbox.cif.g09.slc.cpg/sg13_30_cif.got.tgz:58790.got - 2010.06.28 04:50:58.
