data_PCOD8120587
_publ_section_title
;
Structure prediction by ZEFSAII (Michael W. Deem and Ramdas Pophale) SiO2 
 PCOD8120587
Probable space group: P 2/C
;
_chemical_formula_sum "Si O2"
_cell_formula_units_Z 32
_cell_length_a 20.354117
_cell_length_b 10.247894
_cell_length_c 20.417714
_cell_angle_alpha 90.000000
_cell_angle_beta 19.728620
_cell_angle_gamma 90.000000
_cell_volume 1437.646307
_symmetry_space_group_name_H-M "P 2/C"
_symmetry_group_IT_number 13
_symmetry_cell_setting 'monoclinic'
loop_
_space_group_symop_operation_xyz
x,y,z
-x,y,1/2-z
-x,-y,-z
x,-y,1/2+z
loop_
_atom_site_type_symbol
_atom_site_label
_atom_site_fract_x
_atom_site_fract_y
_atom_site_fract_z
Si Si1 0.188206 0.053996 0.543050
Si Si2 0.106149 0.700897 0.409762
Si Si3 0.358133 0.426011 0.825765
Si Si4 0.945149 0.216868 0.394467
Si Si5 0.479758 0.774030 0.993886
Si Si6 0.478301 0.047848 0.167310
Si Si7 0.253878 0.421143 0.311207
Si Si8 0.606003 0.773882 0.016653
O O1 0.127971 0.910172 0.574763
O O2 0.000000 0.127668 0.750000
O O3 0.293828 0.111586 0.379152
O O4 0.328591 0.068801 0.472613
O O5 0.079885 0.777700 0.502936
O O6 0.200877 0.558138 0.327965
O O7 0.905087 0.688517 0.558609
O O8 0.253562 0.781702 0.225997
O O9 0.500000 0.470882 0.750000
O O10 0.267064 0.554897 0.877261
O O11 0.489125 0.354660 0.647308
O O12 0.181283 0.335700 0.017541
O O13 0.174145 0.229783 0.162274
O O14 0.514170 0.892451 0.911690
O O15 0.536876 0.635305 0.907538
O O16 0.618442 0.788611 0.926780
O O17 0.469309 0.890626 0.172075
#
# Coordination Sequence:
#
# PCOD8120587 Si02
#       8
#     4   4   4   4   4   4   4   4
#     4  11  22  42  63  88 127 176 216 264 327 390
#     4  10  21  40  67  99 127 162 222 276 333 385
#     4  11  24  40  64  96 134 169 222 278 333 393
#     4  11  21  37  66  98 121 165 218 279 330 381
#     4  12  23  41  65  95 131 176 212 270 337 391
#     4  11  25  40  62  95 130 170 218 266 327 410
#     4  10  22  40  65  94 129 171 218 269 331 392
#     4  12  22  39  66  99 130 168 216 280 336 386
#
# _framework density 22.258603999999998
#
# number of rings (size 3 to 8) (size 9 to 14) (size 15 to 20)
#    0.000    1.000    6.250    1.500    0.000    1.000 
#    2.250    1.250    0.000    0.000    0.000    0.000 
#    0.000    0.000    0.000    0.000    0.000    0.000 
#
# Total GULP energy -396436.921550 kJ/mol
# GULP energy per Si atom -12388.653798 kJ/mol
# Density = 2.220794 g / cm^3
# Si number density = 22.258604 Si / 1000 Ang^3
#
#
#
# Elastic Constant Matrix: (Units=GPa)
#
#
# Indices 1 2 3 4 5 6 
#
# 1 124.1029 8.9922 35.2641 0.0000 -8.4485 0.0000
# 2 8.9922 16.4579 13.9232 0.0000 -0.5708 0.0000
# 3 35.2641 13.9232 125.9595 0.0000 -0.1779 0.0000
# 4 0.0000 0.0000 0.0000 26.5057 0.0000 2.3511
# 5 -8.4485 -0.5708 -0.1779 0.0000 28.8602 0.0000
# 6 0.0000 0.0000 0.0000 2.3511 0.0000 32.1049
#
#
#
# Elastic Compliance Matrix: (Units=1/GPa)
#
#
# Indices 1 2 3 4 5 6 
#
# 1 0.009078 -0.003004 -0.002206 0.000000 0.002585 0.000000
# 2 -0.003004 0.068071 -0.006683 0.000000 0.000426 0.000000
# 3 -0.002206 -0.006683 0.009294 0.000000 -0.000721 0.000000
# 4 0.000000 0.000000 0.000000 0.037974 0.000000 -0.002781
# 5 0.002585 0.000426 -0.000721 0.000000 0.035410 0.000000
# 6 0.000000 0.000000 0.000000 -0.002781 0.000000 0.031352
#
#
# Mechanical properties :
#
#
# Convention : Reuss Voigt Hill
#
# Bulk Modulus (GPa) = 15.95974 42.54214 29.25094
# Shear Modulus (GPa) = 21.19980 31.38354 26.29167
#
# Velocity S-wave (km/s) = 3.08950 3.75900 3.44057
# Velocity P-wave (km/s) = 4.46233 6.16395 5.38083
#
# Compressibility (1/GPa) = 0.06265764
#
# Stress axis : x y z
#
# Youngs Moduli (GPa) = 110.15328 14.69058 107.59308
#
# Poissons Ratio (x) = 0.04414 0.23733
# Poissons Ratio (y) = 0.33094 0.71901
# Poissons Ratio (z) = 0.24298 0.09817
#
# Static dielectric constant tensor:
#      x y z
#    x 4.182620 0.000000 -0.071640 
#    y 0.000000 3.541170 0.000000 
#    z -0.071640 0.000000 4.546170 
# 
# 
# High freq. dielectric constant tensor:
#      x y z
#    x 1.887910 0.000000 -0.005370 
#    y 0.000000 1.830750 0.000000 
#    z -0.005370 0.000000 1.892200 
# 
# From -- ./inp_files/81801.got.cif
#   From: 2010.06.25/outbox.cif.g09.slc.cpg/sg13_41_cif.got.tgz:81801.got - 2010.06.28 04:50:58.
