data_PCOD8120482
_publ_section_title
;
Structure prediction by ZEFSAII (Michael W. Deem and Ramdas Pophale) SiO2 
 PCOD8120482
Probable space group: P 2/C
;
_chemical_formula_sum "Si O2"
_cell_formula_units_Z 32
_cell_length_a 23.638672
_cell_length_b 5.160967
_cell_length_c 26.420874
_cell_angle_alpha 90.000000
_cell_angle_beta 28.472350
_cell_angle_gamma 90.000000
_cell_volume 1536.660796
_symmetry_space_group_name_H-M "P 2/C"
_symmetry_group_IT_number 13
_symmetry_cell_setting 'monoclinic'
loop_
_space_group_symop_operation_xyz
x,y,z
-x,y,1/2-z
-x,-y,-z
x,-y,1/2+z
loop_
_atom_site_type_symbol
_atom_site_label
_atom_site_fract_x
_atom_site_fract_y
_atom_site_fract_z
Si Si1 0.749017 0.553702 0.649279
Si Si2 0.791752 0.457709 0.000626
Si Si3 0.896315 0.051867 0.542827
Si Si4 0.466480 0.447537 0.110768
Si Si5 0.401593 0.196450 0.062024
Si Si6 0.700999 0.318288 0.970101
Si Si7 0.802826 0.164141 0.344212
Si Si8 0.937785 0.042326 0.395127
O O1 0.729501 0.557537 0.604273
O O2 0.841071 0.335079 0.595034
O O3 0.623546 0.488567 0.773548
O O4 0.794887 0.834957 0.630548
O O5 0.841884 0.745511 0.953056
O O6 0.896800 0.245646 0.911632
O O7 0.693353 0.402844 0.034983
O O8 0.954647 0.041120 0.441990
O O9 0.000000 0.000000 0.500000
O O10 0.390206 0.374471 0.120805
O O11 0.568711 0.256525 0.052243
O O12 0.547494 0.687041 0.030206
O O13 0.271236 0.092786 0.149341
O O14 0.500000 0.000000 0.000000
O O15 0.775251 0.540069 0.881659
O O16 0.769799 0.045949 0.912817
O O17 0.940696 0.127138 0.225989
#
# Coordination Sequence:
#
# PCOD8120482 Si02
#       8
#     4   4   4   4   4   4   4   4
#     4  10  23  39  62  87 118 158 198 241 300 346
#     4  10  22  42  59  85 122 154 198 259 285 344
#     4  10  22  40  58  89 119 156 199 243 285 355
#     4  10  23  39  60  90 120 158 198 241 299 360
#     4  10  21  40  59  87 128 153 190 253 294 351
#     4  11  23  39  61  87 119 155 204 244 295 353
#     4  11  23  37  61  91 115 160 197 237 306 360
#     4  10  22  39  59  87 122 152 201 244 297 352
#
# _framework density 20.824373000000001
#
# number of rings (size 3 to 8) (size 9 to 14) (size 15 to 20)
#    0.000    1.750    1.250    1.875    3.500    3.500 
#    0.000    0.000    0.000    6.000    0.000    0.000 
#    0.000    0.000    0.000    0.000    0.000    0.000 
#
# Total GULP energy -396604.359408 kJ/mol
# GULP energy per Si atom -12393.886231 kJ/mol
# Density = 2.077698 g / cm^3
# Si number density = 20.824373 Si / 1000 Ang^3
#
#
#
# Elastic Constant Matrix: (Units=GPa)
#
#
# Indices 1 2 3 4 5 6 
#
# 1 92.8166 7.7310 32.7644 0.0000 11.2832 0.0000
# 2 7.7310 84.7541 6.5537 0.0000 8.3394 0.0000
# 3 32.7644 6.5537 101.9454 0.0000 7.5251 0.0000
# 4 0.0000 0.0000 0.0000 14.2230 0.0000 -2.1619
# 5 11.2832 8.3394 7.5251 0.0000 13.3873 0.0000
# 6 0.0000 0.0000 0.0000 -2.1619 0.0000 30.8883
#
#
#
# Elastic Compliance Matrix: (Units=1/GPa)
#
#
# Indices 1 2 3 4 5 6 
#
# 1 0.013130 -0.000033 -0.003550 0.000000 -0.009051 0.000000
# 2 -0.000033 0.012575 -0.000231 0.000000 -0.007676 0.000000
# 3 -0.003550 -0.000231 0.011198 0.000000 -0.003159 0.000000
# 4 0.000000 0.000000 0.000000 0.071065 0.000000 0.004974
# 5 -0.009051 -0.007676 -0.003159 0.000000 0.088883 0.000000
# 6 0.000000 0.000000 0.000000 0.004974 0.000000 0.032723
#
#
# Mechanical properties :
#
#
# Convention : Reuss Voigt Hill
#
# Bulk Modulus (GPa) = 34.15810 41.51271 37.83541
# Shear Modulus (GPa) = 20.24629 27.19753 23.72191
#
# Velocity S-wave (km/s) = 3.12146 3.61784 3.37878
# Velocity P-wave (km/s) = 5.42493 6.11798 5.78185
#
# Compressibility (1/GPa) = 0.02927563
#
# Stress axis : x y z
#
# Youngs Moduli (GPa) = 76.16180 79.52309 89.30142
#
# Poissons Ratio (x) = 0.00260 0.31699
# Poissons Ratio (y) = 0.00249 0.02066
# Poissons Ratio (z) = 0.27035 0.01840
#
# Static dielectric constant tensor:
#      x y z
#    x 1.774330 0.000000 -0.135590 
#    y 0.000000 3.676030 0.000000 
#    z -0.135590 0.000000 3.427790 
# 
# 
# High freq. dielectric constant tensor:
#      x y z
#    x 1.828130 0.000000 0.005920 
#    y 0.000000 1.822600 0.000000 
#    z 0.005920 0.000000 1.793230 
# 
# From -- ./inp_files/88756.got.cif
#   From: 2010.06.25/outbox.cif.g09.slc.cpg/sg13_45_cif.got.tgz:88756.got - 2010.06.28 04:50:58.
