data_PCOD8120468
_publ_section_title
;
Structure prediction by ZEFSAII (Michael W. Deem and Ramdas Pophale) SiO2 
 PCOD8120468
Probable space group: P 2/C
;
_chemical_formula_sum "Si O2"
_cell_formula_units_Z 22
_cell_length_a 20.697956
_cell_length_b 6.075443
_cell_length_c 22.303180
_cell_angle_alpha 90.000000
_cell_angle_beta 19.925595
_cell_angle_gamma 90.000000
_cell_volume 955.809238
_symmetry_space_group_name_H-M "P 2/C"
_symmetry_group_IT_number 13
_symmetry_cell_setting 'monoclinic'
loop_
_space_group_symop_operation_xyz
x,y,z
-x,y,1/2-z
-x,-y,-z
x,-y,1/2+z
loop_
_atom_site_type_symbol
_atom_site_label
_atom_site_fract_x
_atom_site_fract_y
_atom_site_fract_z
Si Si1 0.000000 0.081848 0.750000
Si Si2 0.455190 0.875598 0.610992
Si Si3 0.705909 0.780242 0.953739
Si Si4 0.269911 0.258735 0.721618
Si Si5 0.350766 0.510089 0.272726
Si Si6 0.987281 0.579143 0.154028
O O1 0.016825 0.232324 0.677086
O O2 0.817024 0.922558 0.906348
O O3 0.544666 0.711239 0.483251
O O4 0.407282 0.746392 0.713982
O O5 0.619284 0.056590 0.479967
O O6 0.271856 0.006358 0.745345
O O7 0.845149 0.608045 0.800180
O O8 0.532741 0.648513 0.136115
O O9 0.275158 0.421452 0.773190
O O10 0.082670 0.307415 0.846414
O O11 0.190199 0.532770 0.463363
#
# Coordination Sequence:
#
# PCOD8120468 Si02
#       6
#     2   4   4   4   4   4
#     4  12  26  48  70  86 132 190 232 286 342 404
#     4  10  21  40  70 103 141 182 213 270 350 410
#     4  11  24  47  68  96 134 180 228 284 340 403
#     4  10  21  39  69 105 145 178 214 277 349 415
#     4  11  24  43  71 107 137 174 224 286 345 410
#     4  12  26  46  69 102 137 180 234 282 341 407
#
# _framework density 23.017146
#
# number of rings (size 3 to 8) (size 9 to 14) (size 15 to 20)
#    0.000    1.091    3.636    1.636    5.091    3.636 
#    0.000   13.636    0.000    0.000    0.000    0.000 
#    0.000    0.000    0.000    0.000    0.000    0.000 
#
# Total GULP energy -272738.977976 kJ/mol
# GULP energy per Si atom -12397.226272 kJ/mol
# Density = 2.296476 g / cm^3
# Si number density = 23.017146 Si / 1000 Ang^3
#
#
#
# Elastic Constant Matrix: (Units=GPa)
#
#
# Indices 1 2 3 4 5 6 
#
# 1 105.7060 61.9208 48.4114 0.0000 -19.9173 0.0000
# 2 61.9208 124.1828 65.2319 0.0000 -14.8487 0.0000
# 3 48.4114 65.2319 155.5611 0.0000 -17.6369 0.0000
# 4 0.0000 0.0000 0.0000 24.7037 0.0000 -15.5718
# 5 -19.9173 -14.8487 -17.6369 0.0000 15.5501 0.0000
# 6 0.0000 0.0000 0.0000 -15.5718 0.0000 42.2222
#
#
#
# Elastic Compliance Matrix: (Units=1/GPa)
#
#
# Indices 1 2 3 4 5 6 
#
# 1 0.015863 -0.005762 -0.000965 0.000000 0.013721 0.000000
# 2 -0.005762 0.012877 -0.003499 0.000000 0.000947 0.000000
# 3 -0.000965 -0.003499 0.008810 0.000000 0.005415 0.000000
# 4 0.000000 0.000000 0.000000 0.052741 0.000000 0.019451
# 5 0.013721 0.000947 0.005415 0.000000 0.088930 0.000000
# 6 0.000000 0.000000 0.000000 0.019451 0.000000 0.030858
#
#
# Mechanical properties :
#
#
# Convention : Reuss Voigt Hill
#
# Bulk Modulus (GPa) = 58.48739 81.84200 70.16470
# Shear Modulus (GPa) = 21.16588 30.48758 25.82673
#
# Velocity S-wave (km/s) = 3.03573 3.64340 3.35336
# Velocity P-wave (km/s) = 6.14435 7.30296 6.74857
#
# Compressibility (1/GPa) = 0.01709770
#
# Stress axis : x y z
#
# Youngs Moduli (GPa) = 63.04050 77.65670 113.50953
#
# Poissons Ratio (x) = 0.44748 0.10949
# Poissons Ratio (y) = 0.36325 0.39720
# Poissons Ratio (z) = 0.06081 0.27174
#
# Static dielectric constant tensor:
#      x y z
#    x 4.101270 0.000000 -0.279260 
#    y 0.000000 4.408330 0.000000 
#    z -0.279260 0.000000 3.936670 
# 
# 
# High freq. dielectric constant tensor:
#      x y z
#    x 1.901470 0.000000 -0.012590 
#    y 0.000000 1.925120 0.000000 
#    z -0.012590 0.000000 1.888020 
# 
# From -- ./inp_files/88701.got.cif
#   From: 2010.06.25/outbox.cif.g09.slc.cpg/sg13_45_cif.got.tgz:88701.got - 2010.06.28 04:50:58.
