data_PCOD8120441
_publ_section_title
;
Structure prediction by ZEFSAII (Michael W. Deem and Ramdas Pophale) SiO2 
 PCOD8120441
Probable space group: P 2/C
;
_chemical_formula_sum "Si O2"
_cell_formula_units_Z 26
_cell_length_a 13.547741
_cell_length_b 10.756563
_cell_length_c 13.914441
_cell_angle_alpha 90.000000
_cell_angle_beta 142.146668
_cell_angle_gamma 90.000000
_cell_volume 1244.289535
_symmetry_space_group_name_H-M "P 2/C"
_symmetry_group_IT_number 13
_symmetry_cell_setting 'monoclinic'
loop_
_space_group_symop_operation_xyz
x,y,z
-x,y,1/2-z
-x,-y,-z
x,-y,1/2+z
loop_
_atom_site_type_symbol
_atom_site_label
_atom_site_fract_x
_atom_site_fract_y
_atom_site_fract_z
Si Si1 0.553899 0.482009 0.892767
Si Si2 0.500000 0.967682 0.250000
Si Si3 0.159909 0.329299 0.916659
Si Si4 0.771956 0.074054 0.829819
Si Si5 0.642253 0.867009 0.029711
Si Si6 0.629161 0.673276 0.626518
Si Si7 0.098969 0.802995 0.564907
O O1 0.500000 0.423658 0.750000
O O2 0.406823 0.555428 0.831511
O O3 0.696163 0.575339 0.977343
O O4 0.616432 0.369816 0.006603
O O5 0.364394 0.884147 0.198178
O O6 0.580291 0.049446 0.395279
O O7 0.202628 0.208722 0.886200
O O8 0.000000 0.391559 0.750000
O O9 0.125467 0.289845 0.998076
O O10 0.700454 0.056524 0.667620
O O11 0.832411 0.938547 0.908260
O O12 0.910134 0.179374 0.943783
O O13 0.499683 0.778538 0.952426
O O14 0.806076 0.733663 0.775996
#
# Coordination Sequence:
#
# PCOD8120441 Si02
#       7
#     4   2   4   4   4   4   4
#     4  10  21  39  67  98 121 169 223 275 326 391
#     4  12  22  38  62  92 128 180 222 256 312 388
#     4  11  20  38  67  92 123 167 219 267 333 393
#     4  11  24  37  64  97 131 173 219 261 321 393
#     4  11  21  39  62  93 127 171 213 268 320 392
#     4  10  21  39  66  93 128 166 219 275 325 383
#     4  11  21  40  62  98 135 169 213 273 323 390
#
# _framework density 20.895458000000001
#
# number of rings (size 3 to 8) (size 9 to 14) (size 15 to 20)
#    0.000    1.231    6.154    0.462    2.154    0.000 
#    1.385    2.308    0.000    0.000    0.000    0.000 
#    0.000    0.000    0.000    0.000    0.000    0.000 
#
# Total GULP energy -322354.924564 kJ/mol
# GULP energy per Si atom -12398.266329 kJ/mol
# Density = 2.084790 g / cm^3
# Si number density = 20.895458 Si / 1000 Ang^3
#
#
#
# Elastic Constant Matrix: (Units=GPa)
#
#
# Indices 1 2 3 4 5 6 
#
# 1 138.9636 29.5719 69.1960 0.0000 -1.9866 0.0000
# 2 29.5719 25.0611 36.4146 0.0000 -7.1286 0.0000
# 3 69.1960 36.4146 143.7853 0.0000 -10.1124 0.0000
# 4 0.0000 0.0000 0.0000 41.6814 0.0000 -5.5245
# 5 -1.9866 -7.1286 -10.1124 0.0000 32.2505 0.0000
# 6 0.0000 0.0000 0.0000 -5.5245 0.0000 18.2558
#
#
#
# Elastic Compliance Matrix: (Units=1/GPa)
#
#
# Indices 1 2 3 4 5 6 
#
# 1 0.010508 -0.008630 -0.003027 0.000000 -0.002209 0.000000
# 2 -0.008630 0.072975 -0.013530 0.000000 0.011356 0.000000
# 3 -0.003027 -0.013530 0.011876 0.000000 0.000547 0.000000
# 4 0.000000 0.000000 0.000000 0.024994 0.000000 0.007564
# 5 -0.002209 0.011356 0.000547 0.000000 0.033553 0.000000
# 6 0.000000 0.000000 0.000000 0.007564 0.000000 0.057066
#
#
# Mechanical properties :
#
#
# Convention : Reuss Voigt Hill
#
# Bulk Modulus (GPa) = 22.22875 64.24167 43.23521
# Shear Modulus (GPa) = 18.09360 29.94604 24.01982
#
# Velocity S-wave (km/s) = 2.94583 3.78979 3.39414
# Velocity P-wave (km/s) = 4.71505 7.06831 6.00803
#
# Compressibility (1/GPa) = 0.04498679
#
# Stress axis : x y z
#
# Youngs Moduli (GPa) = 95.16374 13.70334 84.20087
#
# Poissons Ratio (x) = 0.11826 0.25486
# Poissons Ratio (y) = 0.82126 1.13920
# Poissons Ratio (z) = 0.28804 0.18540
#
# Static dielectric constant tensor:
#      x y z
#    x 4.132800 0.000000 -0.097100 
#    y 0.000000 3.525580 0.000000 
#    z -0.097100 0.000000 4.402100 
# 
# 
# High freq. dielectric constant tensor:
#      x y z
#    x 1.817810 0.000000 -0.000170 
#    y 0.000000 1.790680 0.000000 
#    z -0.000170 0.000000 1.832270 
# 
# From -- ./inp_files/33995.got.cif
#   From: 2010.06.25/outbox.cif.g09.slc.cpg/sg13_17_cif.got.tgz:33995.got - 2010.06.28 04:50:58.
