data_PCOD8120108
_publ_section_title
;
Structure prediction by ZEFSAII (Michael W. Deem and Ramdas Pophale) SiO2 
 PCOD8120108
Probable space group: P 2/C
;
_chemical_formula_sum "Si O2"
_cell_formula_units_Z 20
_cell_length_a 11.915953
_cell_length_b 4.926265
_cell_length_c 22.608037
_cell_angle_alpha 90.000000
_cell_angle_beta 44.759000
_cell_angle_gamma 90.000000
_cell_volume 934.458364
_symmetry_space_group_name_H-M "P 2/C"
_symmetry_group_IT_number 13
_symmetry_cell_setting 'monoclinic'
loop_
_space_group_symop_operation_xyz
x,y,z
-x,y,1/2-z
-x,-y,-z
x,-y,1/2+z
loop_
_atom_site_type_symbol
_atom_site_label
_atom_site_fract_x
_atom_site_fract_y
_atom_site_fract_z
Si Si1 0.114023 0.744798 0.447591
Si Si2 0.149713 0.838934 0.735610
Si Si3 0.570621 0.315628 0.596959
Si Si4 0.762166 0.643895 0.227226
Si Si5 0.477278 0.186777 0.065335
O O1 0.254961 0.696877 0.441222
O O2 0.195135 0.752960 0.353124
O O3 0.000000 0.500000 0.500000
O O4 0.000000 0.000000 0.500000
O O5 0.142955 0.635641 0.794516
O O6 0.292365 0.740723 0.639898
O O7 0.000000 0.820255 0.750000
O O8 0.175461 0.143764 0.747663
O O9 0.429226 0.409829 0.694891
O O10 0.570596 0.522741 0.539074
O O11 0.534896 0.002916 0.596972
O O12 0.500000 0.000000 0.000000
#
# Coordination Sequence:
#
# PCOD8120108 Si02
#       5
#     4   4   4   4   4
#     4  12  25  40  61  92 120 152 201 257 307 351
#     4  10  21  37  60  88 117 155 200 243 295 354
#     4  10  22  41  61  84 120 163 199 237 297 368
#     4  10  22  41  61  84 119 162 200 239 298 370
#     4  10  21  37  60  88 118 156 199 242 293 353
#
# _framework density 21.402774000000001
#
# number of rings (size 3 to 8) (size 9 to 14) (size 15 to 20)
#    0.000    1.600    0.000    4.200    0.000    4.800 
#    0.000    8.000    0.000    0.000    0.000    0.000 
#    0.000    0.000    0.000    0.000    0.000    0.000 
#
# Total GULP energy -247832.204870 kJ/mol
# GULP energy per Si atom -12391.610243 kJ/mol
# Density = 2.135406 g / cm^3
# Si number density = 21.402774 Si / 1000 Ang^3
#
#
#
# Elastic Constant Matrix: (Units=GPa)
#
#
# Indices 1 2 3 4 5 6 
#
# 1 131.9446 31.7582 43.2189 0.0000 -44.7742 0.0000
# 2 31.7582 126.0530 21.7028 0.0000 -23.1999 0.0000
# 3 43.2189 21.7028 80.1498 0.0000 -12.1324 0.0000
# 4 0.0000 0.0000 0.0000 36.8158 0.0000 1.2948
# 5 -44.7742 -23.1999 -12.1324 0.0000 37.0127 0.0000
# 6 0.0000 0.0000 0.0000 1.2948 0.0000 35.5394
#
#
#
# Elastic Compliance Matrix: (Units=1/GPa)
#
#
# Indices 1 2 3 4 5 6 
#
# 1 0.014911 0.000218 -0.005628 0.000000 0.016330 0.000000
# 2 0.000218 0.009186 -0.001782 0.000000 0.005437 0.000000
# 3 -0.005628 -0.001782 0.015566 0.000000 -0.002822 0.000000
# 4 0.000000 0.000000 0.000000 0.027197 0.000000 -0.000991
# 5 0.016330 0.005437 -0.002822 0.000000 0.049255 0.000000
# 6 0.000000 0.000000 0.000000 -0.000991 0.000000 0.028174
#
#
# Mechanical properties :
#
#
# Convention : Reuss Voigt Hill
#
# Bulk Modulus (GPa) = 39.55654 59.05635 49.30645
# Shear Modulus (GPa) = 29.92226 37.97141 33.94684
#
# Velocity S-wave (km/s) = 3.74311 4.21662 3.98690
# Velocity P-wave (km/s) = 6.09945 7.16654 6.65442
#
# Compressibility (1/GPa) = 0.02528027
#
# Stress axis : x y z
#
# Youngs Moduli (GPa) = 67.06309 108.86407 64.24065
#
# Poissons Ratio (x) = -0.02369 0.36152
# Poissons Ratio (y) = -0.01459 0.11445
# Poissons Ratio (z) = 0.37741 0.19396
#
# Static dielectric constant tensor:
#      x y z
#    x 3.680400 0.000000 -0.119140 
#    y 0.000000 4.381240 0.000000 
#    z -0.119140 0.000000 3.892360 
# 
# 
# High freq. dielectric constant tensor:
#      x y z
#    x 1.836500 0.000000 -0.008640 
#    y 0.000000 1.864350 0.000000 
#    z -0.008640 0.000000 1.831410 
# 
# From -- ./inp_files/85501.got.cif
#   From: 2010.06.25/outbox.cif.g09.slc.cpg/sg13_43_cif.got.tgz:85501.got - 2010.06.28 04:50:58.
