data_PCOD8120274
_publ_section_title
;
Structure prediction by ZEFSAII (Michael W. Deem and Ramdas Pophale) SiO2 
 PCOD8120274
Probable space group: P 2/C
;
_chemical_formula_sum "Si O2"
_cell_formula_units_Z 24
_cell_length_a 5.099791
_cell_length_b 14.988502
_cell_length_c 16.772274
_cell_angle_alpha 90.000000
_cell_angle_beta 120.843251
_cell_angle_gamma 90.000000
_cell_volume 1100.727577
_symmetry_space_group_name_H-M "P 2/C"
_symmetry_group_IT_number 13
_symmetry_cell_setting 'monoclinic'
loop_
_space_group_symop_operation_xyz
x,y,z
-x,y,1/2-z
-x,-y,-z
x,-y,1/2+z
loop_
_atom_site_type_symbol
_atom_site_label
_atom_site_fract_x
_atom_site_fract_y
_atom_site_fract_z
Si Si1 0.000000 0.405421 0.250000
Si Si2 0.844643 0.227981 0.587808
Si Si3 0.846800 0.141312 0.312022
Si Si4 0.724108 0.288373 0.075645
Si Si5 0.390219 0.331662 0.609819
Si Si6 0.500000 0.519528 0.250000
Si Si7 0.848752 0.942687 0.311516
O O1 0.768544 0.344405 0.162964
O O2 0.802375 0.460615 0.283235
O O3 0.613312 0.242204 0.476838
O O4 0.674966 0.262307 0.642676
O O5 0.143775 0.287834 0.628760
O O6 0.946647 0.124916 0.604703
O O7 0.500000 0.174512 0.250000
O O8 0.000000 0.143580 0.250000
O O9 0.026474 0.209969 0.396428
O O10 0.858494 0.041732 0.352004
O O11 0.747537 0.351398 0.000232
O O12 0.480910 0.423625 0.665833
O O13 0.500000 0.909195 0.250000
O O14 0.000000 0.948218 0.250000
#
# Coordination Sequence:
#
# PCOD8120274 Si02
#       7
#     2   4   4   4   4   2   4
#     4  12  28  44  76  92 130 174 230 260 364 390
#     4  10  23  40  65 101 132 181 210 279 320 398
#     4  10  22  39  66  96 138 179 225 271 318 384
#     4  10  26  43  70 100 131 182 218 282 322 411
#     4  10  25  43  68  95 137 163 225 271 345 386
#     4  12  28  48  66 102 126 176 210 296 332 422
#     4  10  21  38  63 101 137 181 225 267 316 386
#
# _framework density 21.803761999999999
#
# number of rings (size 3 to 8) (size 9 to 14) (size 15 to 20)
#    1.000    0.667    0.833    2.000    9.333    2.000 
#    0.000    0.833    0.000    0.000    0.000    0.000 
#    0.000    0.000    0.000    0.000    0.000    0.000 
#
# Total GULP energy -297454.767291 kJ/mol
# GULP energy per Si atom -12393.948637 kJ/mol
# Density = 2.175414 g / cm^3
# Si number density = 21.803762 Si / 1000 Ang^3
#
#
#
# Elastic Constant Matrix: (Units=GPa)
#
#
# Indices 1 2 3 4 5 6 
#
# 1 131.1980 28.7012 29.9116 0.0000 26.9831 0.0000
# 2 28.7012 114.4910 65.7030 0.0000 13.7438 0.0000
# 3 29.9116 65.7030 102.1485 0.0000 0.5757 0.0000
# 4 0.0000 0.0000 0.0000 21.5915 0.0000 6.6603
# 5 26.9831 13.7438 0.5757 0.0000 33.4796 0.0000
# 6 0.0000 0.0000 0.0000 6.6603 0.0000 28.0330
#
#
#
# Elastic Compliance Matrix: (Units=1/GPa)
#
#
# Indices 1 2 3 4 5 6 
#
# 1 0.009907 0.000185 -0.002975 0.000000 -0.008010 0.000000
# 2 0.000185 0.014954 -0.009638 0.000000 -0.006122 0.000000
# 3 -0.002975 -0.009638 0.016826 0.000000 0.006065 0.000000
# 4 0.000000 0.000000 0.000000 0.049977 0.000000 -0.011874
# 5 -0.008010 -0.006122 0.006065 0.000000 0.038733 0.000000
# 6 0.000000 0.000000 0.000000 -0.011874 0.000000 0.038493
#
#
# Mechanical properties :
#
#
# Convention : Reuss Voigt Hill
#
# Bulk Modulus (GPa) = 59.41425 66.27434 62.84430
# Shear Modulus (GPa) = 25.08052 31.52225 28.30138
#
# Velocity S-wave (km/s) = 3.39526 3.80639 3.60669
# Velocity P-wave (km/s) = 6.53293 7.05549 6.79923
#
# Compressibility (1/GPa) = 0.01683098
#
# Stress axis : x y z
#
# Youngs Moduli (GPa) = 100.93721 66.87201 59.43147
#
# Poissons Ratio (x) = -0.01239 0.17681
# Poissons Ratio (y) = -0.01870 0.57282
# Poissons Ratio (z) = 0.30029 0.64453
#
# Static dielectric constant tensor:
#      x y z
#    x 3.872010 0.000000 0.178490 
#    y 0.000000 4.106270 0.000000 
#    z 0.178490 0.000000 3.664400 
# 
# 
# High freq. dielectric constant tensor:
#      x y z
#    x 1.869730 0.000000 0.013440 
#    y 0.000000 1.853050 0.000000 
#    z 0.013440 0.000000 1.838460 
# 
# From -- ./inp_files/73864.got.cif
#   From: 2010.06.25/outbox.cif.g09.slc.cpg/sg13_37_cif.got.tgz:73864.got - 2010.06.28 04:50:58.
