data_PCOD8120078
_publ_section_title
;
Structure prediction by ZEFSAII (Michael W. Deem and Ramdas Pophale) SiO2 
 PCOD8120078
Probable space group: P 2/C
;
_chemical_formula_sum "Si O2"
_cell_formula_units_Z 32
_cell_length_a 18.686880
_cell_length_b 9.351463
_cell_length_c 22.844399
_cell_angle_alpha 90.000000
_cell_angle_beta 24.136133
_cell_angle_gamma 90.000000
_cell_volume 1632.373848
_symmetry_space_group_name_H-M "P 2/C"
_symmetry_group_IT_number 13
_symmetry_cell_setting 'monoclinic'
loop_
_space_group_symop_operation_xyz
x,y,z
-x,y,1/2-z
-x,-y,-z
x,-y,1/2+z
loop_
_atom_site_type_symbol
_atom_site_label
_atom_site_fract_x
_atom_site_fract_y
_atom_site_fract_z
Si Si1 0.203491 0.892870 0.196700
Si Si2 0.803493 0.119700 0.016002
Si Si3 0.861906 0.314734 0.078729
Si Si4 0.632320 0.146812 0.698827
Si Si5 0.464514 0.662419 0.043228
Si Si6 0.291500 0.157305 0.207563
Si Si7 0.586077 0.067099 0.068449
Si Si8 0.756012 0.621614 0.185353
O O1 0.303232 0.741542 0.130176
O O2 0.997812 0.868274 0.345780
O O3 0.247709 0.997362 0.218712
O O4 0.261888 0.968178 0.092301
O O5 0.774024 0.231783 0.090263
O O6 0.666249 0.147435 0.065638
O O7 0.768987 0.963470 0.068141
O O8 0.866112 0.227125 0.137573
O O9 0.749602 0.457971 0.170096
O O10 0.064579 0.348074 0.912821
O O11 0.500000 0.209649 0.750000
O O12 0.747737 0.277593 0.635178
O O13 0.516329 0.075620 0.836655
O O14 0.413572 0.658824 0.149310
O O15 0.500000 0.500000 0.000000
O O16 0.644522 0.749388 0.896191
O O17 0.447339 0.166696 0.138915
#
# Coordination Sequence:
#
# PCOD8120078 Si02
#       8
#     4   4   4   4   4   4   4   4
#     4  11  22  37  61  87 115 156 194 245 299 345
#     4  11  22  38  59  87 119 154 196 241 299 349
#     4  11  23  36  60  88 116 156 193 250 293 356
#     4  10  21  38  59  85 114 152 192 242 296 358
#     4  11  21  36  56  84 113 147 190 242 286 342
#     4  11  21  37  60  92 109 149 201 244 297 347
#     4  10  21  37  59  83 120 147 196 244 288 349
#     4  11  22  40  56  84 122 151 196 241 302 343
#
# _framework density 19.603352999999998
#
# number of rings (size 3 to 8) (size 9 to 14) (size 15 to 20)
#    0.000    1.250    3.750    4.125    0.000    1.000 
#    2.250    0.000    0.000    0.000    0.000    5.250 
#    0.000    0.000    0.000    0.000    0.000    0.000 
#
# Total GULP energy -396630.213977 kJ/mol
# GULP energy per Si atom -12394.694187 kJ/mol
# Density = 1.955874 g / cm^3
# Si number density = 19.603353 Si / 1000 Ang^3
#
#
#
# Elastic Constant Matrix: (Units=GPa)
#
#
# Indices 1 2 3 4 5 6 
#
# 1 76.4214 39.8761 9.4981 0.0000 5.2121 0.0000
# 2 39.8761 96.8736 12.2191 0.0000 0.8459 0.0000
# 3 9.4981 12.2191 83.2137 0.0000 14.8909 0.0000
# 4 0.0000 0.0000 0.0000 21.7222 0.0000 0.1388
# 5 5.2121 0.8459 14.8909 0.0000 28.8452 0.0000
# 6 0.0000 0.0000 0.0000 0.1388 0.0000 19.4044
#
#
#
# Elastic Compliance Matrix: (Units=1/GPa)
#
#
# Indices 1 2 3 4 5 6 
#
# 1 0.016911 -0.006881 -0.000451 0.000000 -0.002621 0.000000
# 2 -0.006881 0.013325 -0.001459 0.000000 0.001606 0.000000
# 3 -0.000451 -0.001459 0.013509 0.000000 -0.006849 0.000000
# 4 0.000000 0.000000 0.000000 0.046038 0.000000 -0.000329
# 5 -0.002621 0.001606 -0.006849 0.000000 0.038630 0.000000
# 6 0.000000 0.000000 0.000000 -0.000329 0.000000 0.051537
#
#
# Mechanical properties :
#
#
# Convention : Reuss Voigt Hill
#
# Bulk Modulus (GPa) = 38.22123 42.18836 40.20479
# Shear Modulus (GPa) = 24.24220 26.98872 25.61546
#
# Velocity S-wave (km/s) = 3.52040 3.71447 3.61874
# Velocity P-wave (km/s) = 6.00532 6.32172 6.16555
#
# Compressibility (1/GPa) = 0.02616347
#
# Stress axis : x y z
#
# Youngs Moduli (GPa) = 59.13418 75.04577 74.02721
#
# Poissons Ratio (x) = 0.51641 0.03337
# Poissons Ratio (y) = 0.40692 0.10797
# Poissons Ratio (z) = 0.02665 0.10946
#
# Static dielectric constant tensor:
#      x y z
#    x 3.452680 0.000000 0.232030 
#    y 0.000000 3.415580 0.000000 
#    z 0.232030 0.000000 3.941280 
# 
# 
# High freq. dielectric constant tensor:
#      x y z
#    x 1.743460 0.000000 0.014170 
#    y 0.000000 1.750000 0.000000 
#    z 0.014170 0.000000 1.784960 
# 
# From -- ./inp_files/80937.got.cif
#   From: 2010.06.25/outbox.cif.g09.slc.cpg/sg13_41_cif.got.tgz:80937.got - 2010.06.28 04:50:58.
