data_PCOD8120387
_publ_section_title
;
Structure prediction by ZEFSAII (Michael W. Deem and Ramdas Pophale) SiO2 
 PCOD8120387
Probable space group: P 2/C
;
_chemical_formula_sum "Si O2"
_cell_formula_units_Z 30
_cell_length_a 16.112020
_cell_length_b 11.109433
_cell_length_c 13.725622
_cell_angle_alpha 90.000000
_cell_angle_beta 34.565962
_cell_angle_gamma 90.000000
_cell_volume 1393.890094
_symmetry_space_group_name_H-M "P 2/C"
_symmetry_group_IT_number 13
_symmetry_cell_setting 'monoclinic'
loop_
_space_group_symop_operation_xyz
x,y,z
-x,y,1/2-z
-x,-y,-z
x,-y,1/2+z
loop_
_atom_site_type_symbol
_atom_site_label
_atom_site_fract_x
_atom_site_fract_y
_atom_site_fract_z
Si Si1 0.536326 0.975200 0.855245
Si Si2 0.048162 0.691977 0.412131
Si Si3 0.054499 0.441547 0.306115
Si Si4 0.608268 0.377075 0.505875
Si Si5 0.292541 0.796996 0.059449
Si Si6 0.541781 0.619384 0.849210
Si Si7 0.500000 0.819249 0.250000
Si Si8 0.779766 0.216727 0.075021
O O1 0.669136 0.882893 0.722353
O O2 0.580476 0.094053 0.750640
O O3 0.381016 0.922042 0.968702
O O4 0.500000 0.000000 0.000000
O O5 0.027248 0.579968 0.359208
O O6 0.200046 0.764502 0.246564
O O7 0.038318 0.647376 0.533195
O O8 0.919227 0.785380 0.510627
O O9 0.000000 0.414664 0.250000
O O10 0.225872 0.421442 0.156865
O O11 0.493435 0.482140 0.645011
O O12 0.552574 0.342690 0.452448
O O13 0.605454 0.266502 0.584500
O O14 0.412347 0.694552 0.925595
O O15 0.179653 0.804015 0.077615
O O16 0.700090 0.652486 0.653175
#
# Coordination Sequence:
#
# PCOD8120387 Si02
#       8
#     4   4   4   4   4   4   2   4
#     4  11  24  44  69  95 132 176 239 301 336 383
#     4  11  24  40  68  99 134 178 226 268 349 413
#     4  11  24  43  62  98 147 175 208 275 350 436
#     4  11  24  39  65  98 142 173 218 274 350 423
#     4  11  21  40  68  97 128 175 229 278 330 409
#     4  10  21  39  63 104 134 173 215 277 341 414
#     4  12  24  42  68 102 130 188 230 286 352 394
#     4  11  21  41  69  97 129 173 230 285 324 408
#
# _framework density 21.522500000000001
#
# number of rings (size 3 to 8) (size 9 to 14) (size 15 to 20)
#    0.000    1.067    4.000    4.000    1.867    2.133 
#    0.000    0.667    2.933    0.000    0.000    0.000 
#    0.000    0.000    0.000    0.000    0.000    0.000 
#
# Total GULP energy -371768.794497 kJ/mol
# GULP energy per Si atom -12392.293150 kJ/mol
# Density = 2.147351 g / cm^3
# Si number density = 21.522500 Si / 1000 Ang^3
#
#
#
# Elastic Constant Matrix: (Units=GPa)
#
#
# Indices 1 2 3 4 5 6 
#
# 1 92.9947 30.3291 14.4642 0.0000 20.6167 0.0000
# 2 30.3291 94.8964 35.5867 0.0000 9.3357 0.0000
# 3 14.4642 35.5867 80.9655 0.0000 2.1792 0.0000
# 4 0.0000 0.0000 0.0000 29.9842 0.0000 14.5929
# 5 20.6167 9.3357 2.1792 0.0000 40.5962 0.0000
# 6 0.0000 0.0000 0.0000 14.5929 0.0000 25.0095
#
#
#
# Elastic Compliance Matrix: (Units=1/GPa)
#
#
# Indices 1 2 3 4 5 6 
#
# 1 0.013286 -0.003392 -0.000723 0.000000 -0.005929 0.000000
# 2 -0.003392 0.013765 -0.005413 0.000000 -0.001152 0.000000
# 3 -0.000723 -0.005413 0.014837 0.000000 0.000816 0.000000
# 4 0.000000 0.000000 0.000000 0.046578 0.000000 -0.027178
# 5 -0.005929 -0.001152 0.000816 0.000000 0.027865 0.000000
# 6 0.000000 0.000000 0.000000 -0.027178 0.000000 0.055843
#
#
# Mechanical properties :
#
#
# Convention : Reuss Voigt Hill
#
# Bulk Modulus (GPa) = 43.79737 47.73517 45.76627
# Shear Modulus (GPa) = 25.14555 31.68309 28.41432
#
# Velocity S-wave (km/s) = 3.42180 3.84095 3.63742
# Velocity P-wave (km/s) = 6.00045 6.47285 6.24112
#
# Compressibility (1/GPa) = 0.02283242
#
# Stress axis : x y z
#
# Youngs Moduli (GPa) = 75.26516 72.64673 67.39697
#
# Poissons Ratio (x) = 0.24641 0.04874
# Poissons Ratio (y) = 0.25529 0.36484
# Poissons Ratio (z) = 0.05443 0.39326
#
# Static dielectric constant tensor:
#      x y z
#    x 3.867900 0.000000 0.176920 
#    y 0.000000 3.891230 0.000000 
#    z 0.176920 0.000000 3.907210 
# 
# 
# High freq. dielectric constant tensor:
#      x y z
#    x 1.847640 0.000000 0.016720 
#    y 0.000000 1.830220 0.000000 
#    z 0.016720 0.000000 1.844440 
# 
# From -- ./inp_files/55683.got.cif
#   From: 2010.06.25/outbox.cif.g09.slc.cpg/sg13_28_cif.got.tgz:55683.got - 2010.06.28 04:50:58.
