data_PCOD8120876
_publ_section_title
;
Structure prediction by ZEFSAII (Michael W. Deem and Ramdas Pophale) SiO2 
 PCOD8120876
Probable space group: P 2/C
;
_chemical_formula_sum "Si O2"
_cell_formula_units_Z 18
_cell_length_a 21.319283
_cell_length_b 6.279894
_cell_length_c 12.290714
_cell_angle_alpha 90.000000
_cell_angle_beta 150.698179
_cell_angle_gamma 90.000000
_cell_volume 805.332098
_symmetry_space_group_name_H-M "P 2/C"
_symmetry_group_IT_number 13
_symmetry_cell_setting 'monoclinic'
loop_
_space_group_symop_operation_xyz
x,y,z
-x,y,1/2-z
-x,-y,-z
x,-y,1/2+z
loop_
_atom_site_type_symbol
_atom_site_label
_atom_site_fract_x
_atom_site_fract_y
_atom_site_fract_z
Si Si1 0.330136 0.573887 0.812820
Si Si2 0.571281 0.188710 0.666436
Si Si3 0.881658 0.611888 0.379494
Si Si4 0.222696 0.114947 0.968765
Si Si5 0.000000 0.876152 0.750000
O O1 0.356583 0.333702 0.813359
O O2 0.222493 0.567724 0.744094
O O3 0.284677 0.709606 0.640719
O O4 0.462142 0.671746 0.063075
O O5 0.500000 0.000000 0.500000
O O6 0.678619 0.080469 0.906311
O O7 0.812385 0.782720 0.198867
O O8 0.925475 0.725294 0.555037
O O9 0.000000 0.500000 0.500000
O O10 0.094414 0.028538 0.828316
#
# Coordination Sequence:
#
# PCOD8120876 Si02
#       5
#     4   4   4   4   2
#     4  10  21  45  69 100 141 175 223 297 337 405
#     4   9  20  43  73  95 135 182 224 283 346 400
#     4  12  25  42  72 104 138 185 232 282 352 411
#     4  11  23  42  71 101 133 185 230 277 351 412
#     4  12  24  46  68  94 146 178 230 294 334 412
#
# _framework density 22.351026999999998
#
# number of rings (size 3 to 8) (size 9 to 14) (size 15 to 20)
#    0.000    1.333    2.222    3.333    0.000    0.000 
#    0.000   12.222    0.000    0.000    0.000    0.000 
#    0.000    0.000    0.000    0.000    0.000    0.000 
#
# Total GULP energy -223181.111016 kJ/mol
# GULP energy per Si atom -12398.950612 kJ/mol
# Density = 2.230015 g / cm^3
# Si number density = 22.351027 Si / 1000 Ang^3
#
#
#
# Elastic Constant Matrix: (Units=GPa)
#
#
# Indices 1 2 3 4 5 6 
#
# 1 138.1085 51.4032 70.3505 0.0000 23.4277 0.0000
# 2 51.4032 111.6042 55.3598 0.0000 13.1785 0.0000
# 3 70.3505 55.3598 134.3491 0.0000 12.3908 0.0000
# 4 0.0000 0.0000 0.0000 44.7096 0.0000 20.5977
# 5 23.4277 13.1785 12.3908 0.0000 40.8908 0.0000
# 6 0.0000 0.0000 0.0000 20.5977 0.0000 40.8691
#
#
#
# Elastic Compliance Matrix: (Units=1/GPa)
#
#
# Indices 1 2 3 4 5 6 
#
# 1 0.011121 -0.002421 -0.004434 0.000000 -0.004248 0.000000
# 2 -0.002421 0.012001 -0.003548 0.000000 -0.001406 0.000000
# 3 -0.004434 -0.003548 0.011200 0.000000 0.000290 0.000000
# 4 0.000000 0.000000 0.000000 0.029130 0.000000 -0.014681
# 5 -0.004248 -0.001406 0.000290 0.000000 0.027254 0.000000
# 6 0.000000 0.000000 0.000000 -0.014681 0.000000 0.031868
#
#
# Mechanical properties :
#
#
# Convention : Reuss Voigt Hill
#
# Bulk Modulus (GPa) = 73.98281 82.03209 78.00745
# Shear Modulus (GPa) = 33.80988 39.09046 36.45017
#
# Velocity S-wave (km/s) = 3.89353 4.18656 4.04270
# Velocity P-wave (km/s) = 7.30651 7.75572 7.53446
#
# Compressibility (1/GPa) = 0.01351665
#
# Stress axis : x y z
#
# Youngs Moduli (GPa) = 89.92024 83.32514 89.28381
#
# Poissons Ratio (x) = 0.20174 0.39588
# Poissons Ratio (y) = 0.21771 0.31676
# Poissons Ratio (z) = 0.39870 0.29562
#
# Static dielectric constant tensor:
#      x y z
#    x 3.769530 0.000000 0.636810 
#    y 0.000000 4.380650 0.000000 
#    z 0.636810 0.000000 4.472100 
# 
# 
# High freq. dielectric constant tensor:
#      x y z
#    x 1.872210 0.000000 0.032240 
#    y 0.000000 1.897180 0.000000 
#    z 0.032240 0.000000 1.890840 
# 
# From -- ./inp_files/40017.got.cif
#   From: 2010.06.25/outbox.cif.g09.slc.cpg/sg13_21_cif.got.tgz:40017.got - 2010.06.28 04:50:58.
