data_PCOD8120665
_publ_section_title
;
Structure prediction by ZEFSAII (Michael W. Deem and Ramdas Pophale) SiO2 
 PCOD8120665
Probable space group: P 2/C
;
_chemical_formula_sum "Si O2"
_cell_formula_units_Z 24
_cell_length_a 12.787516
_cell_length_b 18.096884
_cell_length_c 13.094414
_cell_angle_alpha 90.000000
_cell_angle_beta 22.294096
_cell_angle_gamma 90.000000
_cell_volume 1149.551773
_symmetry_space_group_name_H-M "P 2/C"
_symmetry_group_IT_number 13
_symmetry_cell_setting 'monoclinic'
loop_
_space_group_symop_operation_xyz
x,y,z
-x,y,1/2-z
-x,-y,-z
x,-y,1/2+z
loop_
_atom_site_type_symbol
_atom_site_label
_atom_site_fract_x
_atom_site_fract_y
_atom_site_fract_z
Si Si1 0.322944 0.969901 0.308073
Si Si2 0.798576 0.523905 0.022103
Si Si3 0.764610 0.095164 0.263479
Si Si4 0.652987 0.326254 0.719156
Si Si5 0.798381 0.265874 0.222161
Si Si6 0.196451 0.361648 0.480841
O O1 0.500000 0.980073 0.250000
O O2 0.038806 0.924614 0.581531
O O3 0.242395 0.050348 0.336810
O O4 0.496826 0.923520 0.070458
O O5 0.500000 0.507364 0.250000
O O6 0.773267 0.590143 0.127860
O O7 0.893613 0.443896 0.979538
O O8 0.000000 0.551719 0.750000
O O9 0.737409 0.180443 0.260091
O O10 0.500000 0.320665 0.750000
O O11 0.912876 0.271494 0.478287
O O12 0.449364 0.306007 0.994759
O O13 0.842046 0.303841 0.074266
O O14 0.500000 0.358656 0.250000
O O15 0.000000 0.336814 0.750000
#
# Coordination Sequence:
#
# PCOD8120665 Si02
#       6
#     4   4   4   4   4   4
#     4  10  21  41  65  84 113 156 189 228 288 341
#     4   9  18  36  58  80 113 155 203 249 281 336
#     4  10  23  39  58  92 120 141 195 242 271 352
#     4  11  23  38  57  85 121 159 198 241 293 347
#     4  12  24  38  60  90 122 154 191 242 300 351
#     4  10  22  40  60  84 117 157 201 248 294 340
#
# _framework density 20.877704000000001
#
# number of rings (size 3 to 8) (size 9 to 14) (size 15 to 20)
#    0.000    1.667    0.000    5.000    0.000    6.000 
#    0.000    3.333    0.000    0.000    0.000    0.000 
#    0.000    0.000    0.000    0.000    0.000    0.000 
#
# Total GULP energy -297550.572292 kJ/mol
# GULP energy per Si atom -12397.940512 kJ/mol
# Density = 2.083018 g / cm^3
# Si number density = 20.877704 Si / 1000 Ang^3
#
#
#
# Elastic Constant Matrix: (Units=GPa)
#
#
# Indices 1 2 3 4 5 6 
#
# 1 72.2932 65.7121 27.4088 0.0000 1.4743 0.0000
# 2 65.7121 171.0705 55.3952 0.0000 19.2739 0.0000
# 3 27.4088 55.3952 137.5976 0.0000 3.4475 0.0000
# 4 0.0000 0.0000 0.0000 22.9394 0.0000 -2.3462
# 5 1.4743 19.2739 3.4475 0.0000 31.9125 0.0000
# 6 0.0000 0.0000 0.0000 -2.3462 0.0000 18.9725
#
#
#
# Elastic Compliance Matrix: (Units=1/GPa)
#
#
# Indices 1 2 3 4 5 6 
#
# 1 0.021925 -0.008572 -0.001023 0.000000 0.004275 0.000000
# 2 -0.008572 0.010560 -0.002401 0.000000 -0.005723 0.000000
# 3 -0.001023 -0.002401 0.008423 0.000000 0.000587 0.000000
# 4 0.000000 0.000000 0.000000 0.044152 0.000000 0.005460
# 5 0.004275 -0.005723 0.000587 0.000000 0.034531 0.000000
# 6 0.000000 0.000000 0.000000 0.005460 0.000000 0.053383
#
#
# Mechanical properties :
#
#
# Convention : Reuss Voigt Hill
#
# Bulk Modulus (GPa) = 59.11432 75.33262 67.22347
# Shear Modulus (GPa) = 24.67844 30.26121 27.46983
#
# Velocity S-wave (km/s) = 3.44182 3.81130 3.63126
# Velocity P-wave (km/s) = 6.64612 7.45179 7.06045
#
# Compressibility (1/GPa) = 0.01691637
#
# Stress axis : x y z
#
# Youngs Moduli (GPa) = 45.60941 94.69297 118.72025
#
# Poissons Ratio (x) = 0.81173 0.12150
# Poissons Ratio (y) = 0.39098 0.28500
# Poissons Ratio (z) = 0.04668 0.22732
#
# Static dielectric constant tensor:
#      x y z
#    x 3.532790 0.000000 -0.197110 
#    y 0.000000 3.944050 0.000000 
#    z -0.197110 0.000000 4.059970 
# 
# 
# High freq. dielectric constant tensor:
#      x y z
#    x 1.796130 0.000000 -0.011340 
#    y 0.000000 1.820550 0.000000 
#    z -0.011340 0.000000 1.842440 
# 
# From -- ./inp_files/53913.got.cif
#   From: 2010.06.25/outbox.cif.g09.slc.cpg/sg13_27_cif.got.tgz:53913.got - 2010.06.28 04:50:58.
