data_PCOD8120455
_publ_section_title
;
Structure prediction by ZEFSAII (Michael W. Deem and Ramdas Pophale) SiO2 
 PCOD8120455
Probable space group: P 2/C
;
_chemical_formula_sum "Si O2"
_cell_formula_units_Z 32
_cell_length_a 7.845547
_cell_length_b 13.995951
_cell_length_c 22.054019
_cell_angle_alpha 90.000000
_cell_angle_beta 34.108735
_cell_angle_gamma 90.000000
_cell_volume 1357.983407
_symmetry_space_group_name_H-M "P 2/C"
_symmetry_group_IT_number 13
_symmetry_cell_setting 'monoclinic'
loop_
_space_group_symop_operation_xyz
x,y,z
-x,y,1/2-z
-x,-y,-z
x,-y,1/2+z
loop_
_atom_site_type_symbol
_atom_site_label
_atom_site_fract_x
_atom_site_fract_y
_atom_site_fract_z
Si Si1 0.326160 0.116133 0.518006
Si Si2 0.195910 0.819445 0.250276
Si Si3 0.650470 0.613342 0.268910
Si Si4 0.158032 0.224214 0.374042
Si Si5 0.079506 0.594046 0.512903
Si Si6 0.787359 0.734364 0.863646
Si Si7 0.830125 0.467556 0.384867
Si Si8 0.693148 0.075345 0.529109
O O1 0.451493 0.218086 0.455694
O O2 0.573265 0.090174 0.496175
O O3 0.994797 0.118877 0.645788
O O4 0.297580 0.040583 0.470472
O O5 0.270574 0.723532 0.264782
O O6 0.482102 0.881945 0.144367
O O7 0.000000 0.789418 0.250000
O O8 0.500000 0.575832 0.250000
O O9 0.428134 0.613348 0.392491
O O10 0.942627 0.551189 0.204465
O O11 0.500000 0.212368 0.250000
O O12 0.124267 0.308663 0.435661
O O13 0.926611 0.250552 0.388664
O O14 0.026647 0.123925 0.438975
O O15 0.012215 0.571826 0.601815
O O16 0.000000 0.500000 0.500000
O O17 0.776036 0.619808 0.853706
O O18 0.000000 0.782676 0.750000
O O19 0.500000 0.500000 0.500000
#
# Coordination Sequence:
#
# PCOD8120455 Si02
#       8
#     4   4   4   4   4   4   4   4
#     4   9  19  37  64  93 126 157 210 271 338 392
#     4  10  21  39  67  96 126 169 218 276 330 394
#     4  12  25  43  64  93 135 179 221 272 328 399
#     4  10  22  40  63  91 129 169 218 263 321 397
#     4  11  24  41  63  89 130 179 222 258 325 392
#     4  10  23  39  59  93 128 164 212 269 328 387
#     4  11  26  39  61  95 128 171 224 272 325 385
#     4   9  18  37  64  95 121 163 211 268 330 395
#
# _framework density 23.564353000000001
#
# number of rings (size 3 to 8) (size 9 to 14) (size 15 to 20)
#    0.000    1.750    2.500    0.750    8.750    3.500 
#    2.250    0.625    0.000    2.250    0.000    0.000 
#    0.000    0.000    0.000    0.000    0.000    0.000 
#
# Total GULP energy -396422.009018 kJ/mol
# GULP energy per Si atom -12388.187782 kJ/mol
# Density = 2.351072 g / cm^3
# Si number density = 23.564353 Si / 1000 Ang^3
#
#
#
# Elastic Constant Matrix: (Units=GPa)
#
#
# Indices 1 2 3 4 5 6 
#
# 1 20.1731 37.2290 18.3632 0.0000 -5.9650 0.0000
# 2 37.2290 179.5820 79.6638 0.0000 -18.8535 0.0000
# 3 18.3632 79.6638 189.1796 0.0000 -25.6287 0.0000
# 4 0.0000 0.0000 0.0000 39.9099 0.0000 0.9236
# 5 -5.9650 -18.8535 -25.6287 0.0000 35.8956 0.0000
# 6 0.0000 0.0000 0.0000 0.9236 0.0000 23.0790
#
#
#
# Elastic Compliance Matrix: (Units=1/GPa)
#
#
# Indices 1 2 3 4 5 6 
#
# 1 0.081129 -0.016127 -0.000448 0.000000 0.004691 0.000000
# 2 -0.016127 0.010149 -0.002601 0.000000 0.000794 0.000000
# 3 -0.000448 -0.002601 0.006897 0.000000 0.003484 0.000000
# 4 0.000000 0.000000 0.000000 0.025080 0.000000 -0.001004
# 5 0.004691 0.000794 0.003484 0.000000 0.031542 0.000000
# 6 0.000000 0.000000 0.000000 -0.001004 0.000000 0.043370
#
#
# Mechanical properties :
#
#
# Convention : Reuss Voigt Hill
#
# Bulk Modulus (GPa) = 16.71633 73.27183 44.99408
# Shear Modulus (GPa) = 19.49628 36.68882 28.09255
#
# Velocity S-wave (km/s) = 2.87951 3.95012 3.45652
# Velocity P-wave (km/s) = 4.26201 7.20877 5.92162
#
# Compressibility (1/GPa) = 0.05982175
#
# Stress axis : x y z
#
# Youngs Moduli (GPa) = 12.32605 98.53308 144.99928
#
# Poissons Ratio (x) = 1.58909 0.06498
# Poissons Ratio (y) = 0.19879 0.37711
# Poissons Ratio (z) = 0.00552 0.25626
#
# Static dielectric constant tensor:
#      x y z
#    x 3.682560 0.000000 0.072840 
#    y 0.000000 4.865090 0.000000 
#    z 0.072840 0.000000 4.947760 
# 
# 
# High freq. dielectric constant tensor:
#      x y z
#    x 1.896370 0.000000 0.003740 
#    y 0.000000 1.943050 0.000000 
#    z 0.003740 0.000000 1.942330 
# 
# From -- ./inp_files/85317.got.cif
#   From: 2010.06.25/outbox.cif.g09.slc.cpg/sg13_43_cif.got.tgz:85317.got - 2010.06.28 04:50:58.
