data_PCOD8120088
_publ_section_title
;
Structure prediction by ZEFSAII (Michael W. Deem and Ramdas Pophale) SiO2 
 PCOD8120088
Probable space group: P 2/C
;
_chemical_formula_sum "Si O2"
_cell_formula_units_Z 22
_cell_length_a 28.721493
_cell_length_b 7.178222
_cell_length_c 5.213014
_cell_angle_alpha 90.000000
_cell_angle_beta 69.605351
_cell_angle_gamma 90.000000
_cell_volume 1007.391176
_symmetry_space_group_name_H-M "P 2/C"
_symmetry_group_IT_number 13
_symmetry_cell_setting 'monoclinic'
loop_
_space_group_symop_operation_xyz
x,y,z
-x,y,1/2-z
-x,-y,-z
x,-y,1/2+z
loop_
_atom_site_type_symbol
_atom_site_label
_atom_site_fract_x
_atom_site_fract_y
_atom_site_fract_z
Si Si1 0.148158 0.203749 0.498723
Si Si2 0.752505 0.621486 0.767814
Si Si3 0.894671 0.786298 0.918622
Si Si4 0.643100 0.614721 0.913857
Si Si5 0.553549 0.884914 0.191552
Si Si6 0.000000 0.628830 0.750000
O O1 0.207733 0.211501 0.347432
O O2 0.121545 0.312931 0.315286
O O3 0.125798 0.997087 0.574066
O O4 0.132947 0.311622 0.788755
O O5 0.759932 0.535791 0.036175
O O6 0.697292 0.709685 0.848794
O O7 0.953603 0.770257 0.840104
O O8 0.638264 0.551585 0.628503
O O9 0.599359 0.754509 0.050988
O O10 0.500000 0.783664 0.250000
O O11 0.556731 0.946820 0.481390
O O12 0.000000 0.500000 0.500000
#
# Coordination Sequence:
#
# PCOD8120088 Si02
#       6
#     4   4   4   4   4   2
#     4  10  21  39  60  85 116 152 188 234 285 343
#     4  10  21  37  59  86 119 153 191 244 293 345
#     4  10  23  40  60  86 117 149 188 236 280 348
#     4  10  21  38  59  88 123 159 205 257 312 364
#     4  10  21  38  58  87 124 164 208 259 309 362
#     4  12  26  42  62  90 116 148 190 236 294 344
#
# _framework density 21.838584999999998
#
# number of rings (size 3 to 8) (size 9 to 14) (size 15 to 20)
#    0.000    1.818    0.000    3.273    0.000    8.000 
#    6.545    0.000    0.000    0.000    0.000    0.000 
#    0.000    0.000    0.000    0.000    0.000    0.000 
#
# Total GULP energy -272607.254849 kJ/mol
# GULP energy per Si atom -12391.238857 kJ/mol
# Density = 2.178888 g / cm^3
# Si number density = 21.838585 Si / 1000 Ang^3
#
#
#
# Elastic Constant Matrix: (Units=GPa)
#
#
# Indices 1 2 3 4 5 6 
#
# 1 132.1750 33.2663 44.3926 0.0000 -31.8019 0.0000
# 2 33.2663 43.6050 2.8218 0.0000 -21.1916 0.0000
# 3 44.3926 2.8218 138.6543 0.0000 7.7935 0.0000
# 4 0.0000 0.0000 0.0000 27.7403 0.0000 -23.3662
# 5 -31.8019 -21.1916 7.7935 0.0000 68.6349 0.0000
# 6 0.0000 0.0000 0.0000 -23.3662 0.0000 35.0060
#
#
#
# Elastic Compliance Matrix: (Units=1/GPa)
#
#
# Indices 1 2 3 4 5 6 
#
# 1 0.011360 -0.006664 -0.003705 0.000000 0.003627 0.000000
# 2 -0.006664 0.031037 0.001144 0.000000 0.006365 0.000000
# 3 -0.003705 0.001144 0.008506 0.000000 -0.002329 0.000000
# 4 0.000000 0.000000 0.000000 0.082348 0.000000 0.054966
# 5 0.003627 0.006365 -0.002329 0.000000 0.018480 0.000000
# 6 0.000000 0.000000 0.000000 0.054966 0.000000 0.065256
#
#
# Mechanical properties :
#
#
# Convention : Reuss Voigt Hill
#
# Bulk Modulus (GPa) = 30.81456 52.82173 41.81814
# Shear Modulus (GPa) = 20.30413 41.87314 31.08864
#
# Velocity S-wave (km/s) = 3.05247 4.38355 3.77711
# Velocity P-wave (km/s) = 5.15404 7.06120 6.18162
#
# Compressibility (1/GPa) = 0.03245220
#
# Stress axis : x y z
#
# Youngs Moduli (GPa) = 88.02710 32.22000 117.56171
#
# Poissons Ratio (x) = 0.21472 0.43561
# Poissons Ratio (y) = 0.58664 -0.13452
# Poissons Ratio (z) = 0.32617 -0.03687
#
# Static dielectric constant tensor:
#      x y z
#    x 4.640590 0.000000 0.616960 
#    y 0.000000 3.348510 0.000000 
#    z 0.616960 0.000000 5.451740 
# 
# 
# High freq. dielectric constant tensor:
#      x y z
#    x 1.880550 0.000000 0.007360 
#    y 0.000000 1.804930 0.000000 
#    z 0.007360 0.000000 1.900100 
# 
# From -- ./inp_files/7730.got.cif
#   From: 2010.06.25/outbox.cif.g09.slc.cpg/sg13_4_cif.got.tgz:7730.got - 2010.06.28 04:50:58.
