data_PCOD8120957
_publ_section_title
;
Structure prediction by ZEFSAII (Michael W. Deem and Ramdas Pophale) SiO2 
 PCOD8120957
Probable space group: P 2/C
;
_chemical_formula_sum "Si O2"
_cell_formula_units_Z 26
_cell_length_a 30.886039
_cell_length_b 6.327688
_cell_length_c 14.224856
_cell_angle_alpha 90.000000
_cell_angle_beta 27.005671
_cell_angle_gamma 90.000000
_cell_volume 1262.368850
_symmetry_space_group_name_H-M "P 2/C"
_symmetry_group_IT_number 13
_symmetry_cell_setting 'monoclinic'
loop_
_space_group_symop_operation_xyz
x,y,z
-x,y,1/2-z
-x,-y,-z
x,-y,1/2+z
loop_
_atom_site_type_symbol
_atom_site_label
_atom_site_fract_x
_atom_site_fract_y
_atom_site_fract_z
Si Si1 0.869811 0.430579 0.194541
Si Si2 0.276772 0.255334 0.580061
Si Si3 0.213659 0.952659 0.540283
Si Si4 0.500000 0.224914 0.750000
Si Si5 0.636270 0.115560 0.903964
Si Si6 0.041996 0.192445 0.861184
Si Si7 0.524792 0.568194 0.847899
O O1 0.785781 0.528618 0.293616
O O2 0.822998 0.282583 0.365635
O O3 0.922295 0.625843 0.139690
O O4 0.951923 0.295578 0.977516
O O5 0.285570 0.185532 0.670975
O O6 0.380382 0.292085 0.333964
O O7 0.229153 0.072804 0.609404
O O8 0.311187 0.940370 0.294275
O O9 0.134910 0.088218 0.630473
O O10 0.545325 0.363025 0.745466
O O11 0.584437 0.090451 0.542313
O O12 0.561234 0.302178 0.032347
O O13 0.000000 0.000000 0.000000
O O14 0.500000 0.500000 0.000000
#
# Coordination Sequence:
#
# PCOD8120957 Si02
#       7
#     4   4   4   2   4   4   4
#     4   9  18  35  65  87 120 161 201 264 323 378
#     4  11  22  39  57  94 122 161 216 255 315 381
#     4  10  22  37  64  91 119 166 211 260 321 385
#     4  12  24  44  62  86 134 172 208 280 312 362
#     4  12  25  41  59  94 130 167 217 265 312 384
#     4   8  16  36  61  92 118 154 209 260 320 382
#     4  12  25  42  64  90 127 170 217 259 321 379
#
# _framework density 20.596198000000001
#
# number of rings (size 3 to 8) (size 9 to 14) (size 15 to 20)
#    0.000    1.538    3.077    1.846    4.308    2.462 
#    0.000    0.000    0.000   42.462    0.000    0.000 
#    0.000    0.000    0.000    0.000    0.000    0.000 
#
# Total GULP energy -322121.810325 kJ/mol
# GULP energy per Si atom -12389.300397 kJ/mol
# Density = 2.054932 g / cm^3
# Si number density = 20.596198 Si / 1000 Ang^3
#
#
#
# Elastic Constant Matrix: (Units=GPa)
#
#
# Indices 1 2 3 4 5 6 
#
# 1 79.7847 39.4268 28.3762 0.0000 -3.8590 0.0000
# 2 39.4268 125.7041 48.3416 0.0000 -6.7612 0.0000
# 3 28.3762 48.3416 84.1062 0.0000 -27.4519 0.0000
# 4 0.0000 0.0000 0.0000 46.6614 0.0000 -8.1408
# 5 -3.8590 -6.7612 -27.4519 0.0000 24.0741 0.0000
# 6 0.0000 0.0000 0.0000 -8.1408 0.0000 29.0183
#
#
#
# Elastic Compliance Matrix: (Units=1/GPa)
#
#
# Indices 1 2 3 4 5 6 
#
# 1 0.015624 -0.003359 -0.004510 0.000000 -0.003581 0.000000
# 2 -0.003359 0.011528 -0.007346 0.000000 -0.005677 0.000000
# 3 -0.004510 -0.007346 0.026639 0.000000 0.027591 0.000000
# 4 0.000000 0.000000 0.000000 0.022534 0.000000 0.006322
# 5 -0.003581 -0.005677 0.027591 0.000000 0.070832 0.000000
# 6 0.000000 0.000000 0.000000 0.006322 0.000000 0.036235
#
#
# Mechanical properties :
#
#
# Convention : Reuss Voigt Hill
#
# Bulk Modulus (GPa) = 42.80386 57.98713 50.39550
# Shear Modulus (GPa) = 22.56235 31.51412 27.03824
#
# Velocity S-wave (km/s) = 3.31337 3.91589 3.62716
# Velocity P-wave (km/s) = 5.95528 6.97574 6.48561
#
# Compressibility (1/GPa) = 0.02336238
#
# Stress axis : x y z
#
# Youngs Moduli (GPa) = 64.00298 86.74290 37.53908
#
# Poissons Ratio (x) = 0.29135 0.16929
# Poissons Ratio (y) = 0.21498 0.27576
# Poissons Ratio (z) = 0.28864 0.63721
#
# Static dielectric constant tensor:
#      x y z
#    x 3.429860 0.000000 -0.885080 
#    y 0.000000 4.187240 0.000000 
#    z -0.885080 0.000000 3.194010 
# 
# 
# High freq. dielectric constant tensor:
#      x y z
#    x 1.770600 0.000000 -0.034050 
#    y 0.000000 1.831570 0.000000 
#    z -0.034050 0.000000 1.815840 
# 
# From -- ./inp_files/56263.got.cif
#   From: 2010.06.25/outbox.cif.g09.slc.cpg/sg13_29_cif.got.tgz:56263.got - 2010.06.28 04:50:58.
