data_PCOD8120280
_publ_section_title
;
Structure prediction by ZEFSAII (Michael W. Deem and Ramdas Pophale) SiO2 
 PCOD8120280
Probable space group: P 2/C
;
_chemical_formula_sum "Si O2"
_cell_formula_units_Z 26
_cell_length_a 8.789537
_cell_length_b 18.785003
_cell_length_c 8.941236
_cell_angle_alpha 90.000000
_cell_angle_beta 60.262828
_cell_angle_gamma 90.000000
_cell_volume 1281.886499
_symmetry_space_group_name_H-M "P 2/C"
_symmetry_group_IT_number 13
_symmetry_cell_setting 'monoclinic'
loop_
_space_group_symop_operation_xyz
x,y,z
-x,y,1/2-z
-x,-y,-z
x,-y,1/2+z
loop_
_atom_site_type_symbol
_atom_site_label
_atom_site_fract_x
_atom_site_fract_y
_atom_site_fract_z
Si Si1 0.000000 0.001391 0.750000
Si Si2 0.314569 0.174995 0.916858
Si Si3 0.329825 0.643054 0.749913
Si Si4 0.337234 0.810382 0.741660
Si Si5 0.685013 0.657931 0.083849
Si Si6 0.000230 0.577088 0.428006
Si Si7 0.044263 0.898846 0.978652
O O1 0.106134 0.056159 0.592788
O O2 0.103885 0.949034 0.810555
O O3 0.500000 0.157690 0.750000
O O4 0.266214 0.258554 0.931760
O O5 0.334005 0.154986 0.080039
O O6 0.160562 0.125412 0.921738
O O7 0.500000 0.609241 0.750000
O O8 0.353042 0.726749 0.732955
O O9 0.313924 0.622232 0.582578
O O10 0.162985 0.620730 0.927263
O O11 0.500000 0.844630 0.750000
O O12 0.158550 0.827848 0.916387
O O13 0.500000 0.643714 0.250000
O O14 0.824521 0.617526 0.115085
O O15 0.000000 0.571303 0.250000
O O16 0.000000 0.500000 0.500000
#
# Coordination Sequence:
#
# PCOD8120280 Si02
#       7
#     2   4   4   4   4   4   4
#     4  10  24  38  62  80 118 160 202 234 302 360
#     4  10  21  38  63  90 118 153 199 247 300 350
#     4  10  21  40  63  92 124 158 200 255 303 354
#     4  10  21  38  63  90 118 153 199 247 300 350
#     4  10  21  40  63  92 124 158 200 255 303 354
#     4  12  25  41  62  91 124 166 206 243 295 362
#     4  11  21  43  58  82 118 161 196 248 294 357
#
# _framework density 20.282609000000001
#
# number of rings (size 3 to 8) (size 9 to 14) (size 15 to 20)
#    0.000    1.538    1.538    3.231    2.154    4.308 
#    2.769    7.692    0.000    0.000    0.000    0.000 
#    0.000    0.000    0.000    0.000    0.000    0.000 
#
# Total GULP energy -322171.924430 kJ/mol
# GULP energy per Si atom -12391.227863 kJ/mol
# Density = 2.023645 g / cm^3
# Si number density = 20.282609 Si / 1000 Ang^3
#
#
#
# Elastic Constant Matrix: (Units=GPa)
#
#
# Indices 1 2 3 4 5 6 
#
# 1 129.4505 39.2140 63.4988 0.0000 -0.7431 0.0000
# 2 39.2140 39.8320 31.6571 0.0000 2.1239 0.0000
# 3 63.4988 31.6571 137.9205 0.0000 9.0284 0.0000
# 4 0.0000 0.0000 0.0000 26.1300 0.0000 20.3292
# 5 -0.7431 2.1239 9.0284 0.0000 42.7620 0.0000
# 6 0.0000 0.0000 0.0000 20.3292 0.0000 10.9898
#
#
#
# Elastic Compliance Matrix: (Units=1/GPa)
#
#
# Indices 1 2 3 4 5 6 
#
# 1 0.012346 -0.009343 -0.003634 0.000000 0.001446 0.000000
# 2 -0.009343 0.037778 -0.004295 0.000000 -0.001132 0.000000
# 3 -0.003634 -0.004295 0.010039 0.000000 -0.001969 0.000000
# 4 0.000000 0.000000 0.000000 -0.087141 0.000000 0.161197
# 5 0.001446 -0.001132 -0.001969 0.000000 0.023882 0.000000
# 6 0.000000 0.000000 0.000000 0.161197 0.000000 -0.207193
#
#
# Mechanical properties :
#
#
# Convention : Reuss Voigt Hill
#
# Bulk Modulus (GPa) = 39.03705 63.99363 51.51534
# Shear Modulus (GPa) = -29.90360 27.49857 -1.20251
#
# Velocity S-wave (km/s) = -3.84389 3.68607 -0.77082
# Velocity P-wave (km/s) = 0.64210 7.05235 4.96605
#
# Compressibility (1/GPa) = 0.02561669
#
# Stress axis : x y z
#
# Youngs Moduli (GPa) = 80.99549 26.47035 99.61500
#
# Poissons Ratio (x) = 0.24732 0.36203
# Poissons Ratio (y) = 0.75678 0.42789
# Poissons Ratio (z) = 0.29436 0.11370
#
# Static dielectric constant tensor:
#      x y z
#    x 3.927540 0.000000 0.258350 
#    y 0.000000 3.690040 0.000000 
#    z 0.258350 0.000000 3.856620 
# 
# 
# High freq. dielectric constant tensor:
#      x y z
#    x 1.793950 0.000000 0.012200 
#    y 0.000000 1.788840 0.000000 
#    z 0.012200 0.000000 1.803270 
# 
# From -- ./inp_files/13612.got.cif
#   From: 2010.06.25/outbox.cif.g09.slc.cpg/sg13_7_cif.got.tgz:13612.got - 2010.06.28 04:50:58.
