data_PCOD8120572
_publ_section_title
;
Structure prediction by ZEFSAII (Michael W. Deem and Ramdas Pophale) SiO2 
 PCOD8120572
Probable space group: P 2/C
;
_chemical_formula_sum "Si O2"
_cell_formula_units_Z 26
_cell_length_a 24.281950
_cell_length_b 6.376869
_cell_length_c 17.665690
_cell_angle_alpha 90.000000
_cell_angle_beta 28.191437
_cell_angle_gamma 90.000000
_cell_volume 1292.257495
_symmetry_space_group_name_H-M "P 2/C"
_symmetry_group_IT_number 13
_symmetry_cell_setting 'monoclinic'
loop_
_space_group_symop_operation_xyz
x,y,z
-x,y,1/2-z
-x,-y,-z
x,-y,1/2+z
loop_
_atom_site_type_symbol
_atom_site_label
_atom_site_fract_x
_atom_site_fract_y
_atom_site_fract_z
Si Si1 0.957584 0.188288 0.101151
Si Si2 0.620300 0.380608 0.364124
Si Si3 0.500000 0.552385 0.250000
Si Si4 0.832838 0.434489 0.685600
Si Si5 0.788431 0.113306 0.867308
Si Si6 0.572929 0.902770 0.055222
Si Si7 0.636260 0.221901 0.182159
O O1 0.871168 0.328686 0.155577
O O2 0.881697 0.078776 0.259701
O O3 0.072157 0.323457 0.986148
O O4 0.000000 0.000000 0.000000
O O5 0.500000 0.500000 0.500000
O O6 0.708753 0.549250 0.294246
O O7 0.598602 0.171328 0.439106
O O8 0.670941 0.300706 0.223146
O O9 0.578038 0.696540 0.101209
O O10 0.581681 0.413778 0.203066
O O11 0.834539 0.314103 0.764448
O O12 0.755520 0.162340 0.994013
O O13 0.672311 0.058740 0.961463
O O14 0.449400 0.021552 0.211086
#
# Coordination Sequence:
#
# PCOD8120572 Si02
#       7
#     4   4   2   4   4   4   4
#     4   9  20  39  68  93 113 158 217 266 302 360
#     4  12  24  39  61  95 133 170 199 260 324 384
#     4  12  20  38  58  84 128 168 212 244 304 376
#     4  10  21  40  66  93 122 157 218 258 307 377
#     4  11  20  37  65  93 118 166 214 262 306 375
#     4  12  22  39  59  91 130 166 207 254 308 381
#     4  12  24  36  57  92 132 166 204 251 321 381
#
# _framework density 20.119831000000001
#
# number of rings (size 3 to 8) (size 9 to 14) (size 15 to 20)
#    0.000    0.923    6.154    2.308    0.000    0.000 
#    0.000    0.000    0.000   10.154    0.000    0.000 
#    0.000    0.000    0.000    0.000    0.000    0.000 
#
# Total GULP energy -322315.396747 kJ/mol
# GULP energy per Si atom -12396.746029 kJ/mol
# Density = 2.007404 g / cm^3
# Si number density = 20.119831 Si / 1000 Ang^3
#
#
#
# Elastic Constant Matrix: (Units=GPa)
#
#
# Indices 1 2 3 4 5 6 
#
# 1 78.2093 35.1608 47.6963 0.0000 16.0345 0.0000
# 2 35.1608 105.0422 47.2827 0.0000 9.3156 0.0000
# 3 47.6963 47.2827 130.2753 0.0000 10.8880 0.0000
# 4 0.0000 0.0000 0.0000 47.7268 0.0000 0.5925
# 5 16.0345 9.3156 10.8880 0.0000 40.8998 0.0000
# 6 0.0000 0.0000 0.0000 0.5925 0.0000 1.1990
#
#
#
# Elastic Compliance Matrix: (Units=1/GPa)
#
#
# Indices 1 2 3 4 5 6 
#
# 1 0.018487 -0.003443 -0.005092 0.000000 -0.005108 0.000000
# 2 -0.003443 0.012114 -0.003087 0.000000 -0.000588 0.000000
# 3 -0.005092 -0.003087 0.010673 0.000000 -0.000142 0.000000
# 4 0.000000 0.000000 0.000000 0.021082 0.000000 -0.010417
# 5 -0.005108 -0.000588 -0.000142 0.000000 0.026624 0.000000
# 6 0.000000 0.000000 0.000000 -0.010417 0.000000 0.839150
#
#
# Mechanical properties :
#
#
# Convention : Reuss Voigt Hill
#
# Bulk Modulus (GPa) = 55.46482 63.75626 59.61054
# Shear Modulus (GPa) = 5.22257 30.19092 17.70675
#
# Velocity S-wave (km/s) = 1.61288 3.87790 2.96981
# Velocity P-wave (km/s) = 5.57634 7.19777 6.43830
#
# Compressibility (1/GPa) = 0.01802945
#
# Stress axis : x y z
#
# Youngs Moduli (GPa) = 54.09340 82.54776 93.69846
#
# Poissons Ratio (x) = 0.28422 0.47709
# Poissons Ratio (y) = 0.18625 0.28926
# Poissons Ratio (z) = 0.27543 0.25483
#
# Static dielectric constant tensor:
#      x y z
#    x 3.478400 0.000000 0.216590 
#    y 0.000000 4.069690 0.000000 
#    z 0.216590 0.000000 4.436530 
# 
# 
# High freq. dielectric constant tensor:
#      x y z
#    x 1.739090 0.000000 0.006320 
#    y 0.000000 1.806990 0.000000 
#    z 0.006320 0.000000 1.801040 
# 
# From -- ./inp_files/70316.got.cif
#   From: 2010.06.25/outbox.cif.g09.slc.cpg/sg13_36_cif.got.tgz:70316.got - 2010.06.28 04:50:58.
