data_PCOD8120544
_publ_section_title
;
Structure prediction by ZEFSAII (Michael W. Deem and Ramdas Pophale) SiO2 
 PCOD8120544
Probable space group: P 2/C
;
_chemical_formula_sum "Si O2"
_cell_formula_units_Z 28
_cell_length_a 9.303455
_cell_length_b 5.568421
_cell_length_c 30.766194
_cell_angle_alpha 90.000000
_cell_angle_beta 126.351323
_cell_angle_gamma 90.000000
_cell_volume 1283.690897
_symmetry_space_group_name_H-M "P 2/C"
_symmetry_group_IT_number 13
_symmetry_cell_setting 'monoclinic'
loop_
_space_group_symop_operation_xyz
x,y,z
-x,y,1/2-z
-x,-y,-z
x,-y,1/2+z
loop_
_atom_site_type_symbol
_atom_site_label
_atom_site_fract_x
_atom_site_fract_y
_atom_site_fract_z
Si Si1 0.929603 0.455052 0.152291
Si Si2 0.436825 0.521248 0.865744
Si Si3 0.681160 0.138451 0.883491
Si Si4 0.920435 0.048362 0.783493
Si Si5 0.446508 0.169428 0.287119
Si Si6 0.798499 0.759465 0.961197
Si Si7 0.002601 0.455561 0.569992
O O1 0.727780 0.473941 0.131706
O O2 0.029788 0.704318 0.182711
O O3 0.920949 0.432619 0.098718
O O4 0.014326 0.206245 0.184502
O O5 0.494554 0.249295 0.866466
O O6 0.378184 0.631092 0.808667
O O7 0.602929 0.649761 0.918514
O O8 0.812387 0.324958 0.883790
O O9 0.631588 0.937441 0.839320
O O10 0.782862 0.038337 0.944752
O O11 0.000000 0.073692 0.750000
O O12 0.705549 0.034267 0.744746
O O13 0.500000 0.282261 0.250000
O O14 0.951481 0.658916 0.956651
O O15 0.857601 0.724226 0.021760
#
# Coordination Sequence:
#
# PCOD8120544 Si02
#       7
#     4   4   4   4   4   4   4
#     4  12  27  43  69  99 135 177 227 275 331 401
#     4  10  23  42  61  94 131 174 218 276 331 399
#     4  10  21  40  64  92 130 171 223 271 336 396
#     4  12  26  46  66  97 136 181 222 272 339 398
#     4  11  24  39  63  92 130 171 223 278 330 394
#     4   9  21  42  68  96 132 174 219 276 343 389
#     4  10  22  41  68  99 132 171 223 278 334 402
#
# _framework density 21.812107000000001
#
# number of rings (size 3 to 8) (size 9 to 14) (size 15 to 20)
#    0.000    1.429    1.429    2.571   12.000    1.143 
#    0.000    0.714    0.000    0.000    0.000    0.000 
#    0.000    0.000    0.000    0.000    0.000    0.000 
#
# Total GULP energy -347049.090627 kJ/mol
# GULP energy per Si atom -12394.610380 kJ/mol
# Density = 2.176246 g / cm^3
# Si number density = 21.812107 Si / 1000 Ang^3
#
#
#
# Elastic Constant Matrix: (Units=GPa)
#
#
# Indices 1 2 3 4 5 6 
#
# 1 100.6685 6.0694 37.4684 0.0000 -8.6292 0.0000
# 2 6.0694 92.7622 18.1324 0.0000 -3.4729 0.0000
# 3 37.4684 18.1324 91.2064 0.0000 -13.9350 0.0000
# 4 0.0000 0.0000 0.0000 31.0152 0.0000 7.0217
# 5 -8.6292 -3.4729 -13.9350 0.0000 34.7910 0.0000
# 6 0.0000 0.0000 0.0000 7.0217 0.0000 22.8492
#
#
#
# Elastic Compliance Matrix: (Units=1/GPa)
#
#
# Indices 1 2 3 4 5 6 
#
# 1 0.011765 0.000190 -0.004711 0.000000 0.001050 0.000000
# 2 0.000190 0.011221 -0.002270 0.000000 0.000258 0.000000
# 3 -0.004711 -0.002270 0.013994 0.000000 0.004210 0.000000
# 4 0.000000 0.000000 0.000000 0.034653 0.000000 -0.010649
# 5 0.001050 0.000258 0.004210 0.000000 0.030716 0.000000
# 6 0.000000 0.000000 0.000000 -0.010649 0.000000 0.047038
#
#
# Mechanical properties :
#
#
# Convention : Reuss Voigt Hill
#
# Bulk Modulus (GPa) = 42.73420 45.33085 44.03252
# Shear Modulus (GPa) = 29.27964 32.59552 30.93758
#
# Velocity S-wave (km/s) = 3.66779 3.86991 3.77021
# Velocity P-wave (km/s) = 6.12956 6.38716 6.25968
#
# Compressibility (1/GPa) = 0.02340046
#
# Stress axis : x y z
#
# Youngs Moduli (GPa) = 84.99446 89.11780 71.46031
#
# Poissons Ratio (x) = -0.01696 0.33663
# Poissons Ratio (y) = -0.01618 0.16218
# Poissons Ratio (z) = 0.40039 0.20226
#
# Static dielectric constant tensor:
#      x y z
#    x 3.832340 0.000000 0.107790 
#    y 0.000000 4.095610 0.000000 
#    z 0.107790 0.000000 4.086330 
# 
# 
# High freq. dielectric constant tensor:
#      x y z
#    x 1.850450 0.000000 0.010780 
#    y 0.000000 1.859000 0.000000 
#    z 0.010780 0.000000 1.863390 
# 
# From -- ./inp_files/95545.got.cif
#   From: 2010.06.25/outbox.cif.g09.slc.cpg/sg13_48_cif.got.tgz:95545.got - 2010.06.28 04:50:58.
