data_PCOD8120291
_publ_section_title
;
Structure prediction by ZEFSAII (Michael W. Deem and Ramdas Pophale) SiO2 
 PCOD8120291
Probable space group: P 2/C
;
_chemical_formula_sum "Si O2"
_cell_formula_units_Z 24
_cell_length_a 9.440021
_cell_length_b 11.578946
_cell_length_c 10.958578
_cell_angle_alpha 90.000000
_cell_angle_beta 89.778564
_cell_angle_gamma 90.000000
_cell_volume 1197.823829
_symmetry_space_group_name_H-M "P 2/C"
_symmetry_group_IT_number 13
_symmetry_cell_setting 'monoclinic'
loop_
_space_group_symop_operation_xyz
x,y,z
-x,y,1/2-z
-x,-y,-z
x,-y,1/2+z
loop_
_atom_site_type_symbol
_atom_site_label
_atom_site_fract_x
_atom_site_fract_y
_atom_site_fract_z
Si Si1 0.096303 0.771254 0.066797
Si Si2 0.132224 0.932257 0.836506
Si Si3 0.803877 0.185721 0.673600
Si Si4 0.620200 0.343189 0.528889
Si Si5 0.656408 0.245773 0.269391
Si Si6 0.310700 0.397723 0.457593
O O1 0.186621 0.818997 0.180143
O O2 0.936511 0.746733 0.111174
O O3 0.092816 0.867118 0.960959
O O4 0.169766 0.653039 0.021191
O O5 0.238494 0.857940 0.755832
O O6 0.000000 0.958975 0.750000
O O7 0.202322 0.053961 0.874040
O O8 0.662688 0.255237 0.636597
O O9 0.681113 0.290488 0.404642
O O10 0.450521 0.356514 0.530787
O O11 0.698140 0.464972 0.547793
O O12 0.500000 0.195169 0.250000
O O13 0.681294 0.354484 0.181015
#
# Coordination Sequence:
#
# PCOD8120291 Si02
#       6
#     4   4   4   4   4   4
#     4  10  22  39  57  89 121 150 199 239 289 343
#     4  11  21  39  62  83 117 161 194 235 291 349
#     4  11  23  36  58  90 118 154 192 243 288 343
#     4  10  21  38  64  86 116 155 196 238 297 346
#     4   9  20  39  58  85 116 150 199 241 289 350
#     4   9  21  40  61  87 115 154 195 244 289 349
#
# _framework density 20.036335999999999
#
# number of rings (size 3 to 8) (size 9 to 14) (size 15 to 20)
#    0.000    2.000    1.667    1.500    4.667    1.333 
#    3.000    2.500    0.000    0.000    0.000    0.000 
#    0.000    0.000    0.000    0.000    0.000    0.000 
#
# Total GULP energy -297638.873998 kJ/mol
# GULP energy per Si atom -12401.619750 kJ/mol
# Density = 1.999073 g / cm^3
# Si number density = 20.036336 Si / 1000 Ang^3
#
#
#
# Elastic Constant Matrix: (Units=GPa)
#
#
# Indices 1 2 3 4 5 6 
#
# 1 45.1286 41.9366 18.5790 0.0000 4.5023 0.0000
# 2 41.9366 123.5574 27.0733 0.0000 13.4549 0.0000
# 3 18.5790 27.0733 84.7051 0.0000 10.9233 0.0000
# 4 0.0000 0.0000 0.0000 6.1302 0.0000 4.8716
# 5 4.5023 13.4549 10.9233 0.0000 31.7096 0.0000
# 6 0.0000 0.0000 0.0000 4.8716 0.0000 31.4623
#
#
#
# Elastic Compliance Matrix: (Units=1/GPa)
#
#
# Indices 1 2 3 4 5 6 
#
# 1 0.033624 -0.010635 -0.004126 0.000000 0.001159 0.000000
# 2 -0.010635 0.012322 -0.001179 0.000000 -0.003312 0.000000
# 3 -0.004126 -0.001179 0.013549 0.000000 -0.003582 0.000000
# 4 0.000000 0.000000 0.000000 0.186017 0.000000 -0.028803
# 5 0.001159 -0.003312 -0.003582 0.000000 0.034011 0.000000
# 6 0.000000 0.000000 0.000000 -0.028803 0.000000 0.036244
#
#
# Mechanical properties :
#
#
# Convention : Reuss Voigt Hill
#
# Bulk Modulus (GPa) = 36.20877 47.61875 41.91376
# Shear Modulus (GPa) = 14.01146 24.91389 19.46268
#
# Velocity S-wave (km/s) = 2.64730 3.53006 3.12006
# Velocity P-wave (km/s) = 5.23976 6.35869 5.82615
#
# Compressibility (1/GPa) = 0.02761762
#
# Stress axis : x y z
#
# Youngs Moduli (GPa) = 29.74054 81.15648 73.80568
#
# Poissons Ratio (x) = 0.86307 0.30449
# Poissons Ratio (y) = 0.31628 0.08698
# Poissons Ratio (z) = 0.12269 0.09565
#
# Static dielectric constant tensor:
#      x y z
#    x 3.643090 0.000000 -0.037520 
#    y 0.000000 3.522080 0.000000 
#    z -0.037520 0.000000 3.719060 
# 
# 
# High freq. dielectric constant tensor:
#      x y z
#    x 1.773290 0.000000 0.000040 
#    y 0.000000 1.778790 0.000000 
#    z 0.000040 0.000000 1.792640 
# 
# From -- ./inp_files/29469.got.cif
#   From: 2010.06.25/outbox.cif.g09.slc.cpg/sg13_15_cif.got.tgz:29469.got - 2010.06.28 04:50:58.
