data_PCOD8120187
_publ_section_title
;
Structure prediction by ZEFSAII (Michael W. Deem and Ramdas Pophale) SiO2 
 PCOD8120187
Probable space group: P 2/C
;
_chemical_formula_sum "Si O2"
_cell_formula_units_Z 22
_cell_length_a 9.107020
_cell_length_b 13.261347
_cell_length_c 8.486587
_cell_angle_alpha 90.000000
_cell_angle_beta 86.638249
_cell_angle_gamma 90.000000
_cell_volume 1023.172875
_symmetry_space_group_name_H-M "P 2/C"
_symmetry_group_IT_number 13
_symmetry_cell_setting 'monoclinic'
loop_
_space_group_symop_operation_xyz
x,y,z
-x,y,1/2-z
-x,-y,-z
x,-y,1/2+z
loop_
_atom_site_type_symbol
_atom_site_label
_atom_site_fract_x
_atom_site_fract_y
_atom_site_fract_z
Si Si1 0.500000 0.505660 0.250000
Si Si2 0.057253 0.251708 0.073553
Si Si3 0.491947 0.177675 0.927700
Si Si4 0.209967 0.929331 0.433652
Si Si5 0.660650 0.629745 0.979867
Si Si6 0.180266 0.135588 0.579627
O O1 0.394263 0.574126 0.361224
O O2 0.380384 0.438799 0.165780
O O3 0.163796 0.345265 0.016485
O O4 0.000000 0.276378 0.250000
O O5 0.148500 0.147924 0.067576
O O6 0.919387 0.232201 0.962370
O O7 0.500000 0.219790 0.750000
O O8 0.388224 0.076951 0.935625
O O9 0.653103 0.156284 0.980574
O O10 0.423417 0.264786 0.039397
O O11 0.157937 0.890585 0.264855
O O12 0.141703 0.038276 0.475032
#
# Coordination Sequence:
#
# PCOD8120187 Si02
#       6
#     2   4   4   4   4   4
#     4  10  22  44  76  90 122 154 210 274 326 396
#     4  11  24  40  60  92 133 167 212 253 313 387
#     4   9  19  36  63  93 125 165 219 261 304 367
#     4  10  21  38  57  92 128 180 221 250 303 366
#     4  10  22  43  69  97 118 161 209 261 331 387
#     4  11  21  37  62  89 134 176 212 266 305 360
#
# _framework density 21.501743999999999
#
# number of rings (size 3 to 8) (size 9 to 14) (size 15 to 20)
#    0.000    1.818    0.909    2.727    2.545    0.000 
#    0.000    0.909    0.000    0.000    0.000    0.000 
#    0.000    0.000    0.000    0.000    0.000    0.000 
#
# Total GULP energy -272613.284420 kJ/mol
# GULP energy per Si atom -12391.512928 kJ/mol
# Density = 2.145281 g / cm^3
# Si number density = 21.501744 Si / 1000 Ang^3
#
#
#
# Elastic Constant Matrix: (Units=GPa)
#
#
# Indices 1 2 3 4 5 6 
#
# 1 154.2184 47.4835 39.0165 0.0000 11.2265 0.0000
# 2 47.4835 84.8798 42.1177 0.0000 2.0963 0.0000
# 3 39.0165 42.1177 92.8417 0.0000 -6.0245 0.0000
# 4 0.0000 0.0000 0.0000 24.1597 0.0000 5.7199
# 5 11.2265 2.0963 -6.0245 0.0000 29.9731 0.0000
# 6 0.0000 0.0000 0.0000 5.7199 0.0000 41.6043
#
#
#
# Elastic Compliance Matrix: (Units=1/GPa)
#
#
# Indices 1 2 3 4 5 6 
#
# 1 0.008350 -0.003539 -0.002119 0.000000 -0.003306 0.000000
# 2 -0.003539 0.016888 -0.006246 0.000000 -0.001111 0.000000
# 3 -0.002119 -0.006246 0.014767 0.000000 0.004199 0.000000
# 4 0.000000 0.000000 0.000000 0.042784 0.000000 -0.005882
# 5 -0.003306 -0.001111 0.004199 0.000000 0.035523 0.000000
# 6 0.000000 0.000000 0.000000 -0.005882 0.000000 0.024845
#
#
# Mechanical properties :
#
#
# Convention : Reuss Voigt Hill
#
# Bulk Modulus (GPa) = 61.73201 65.46392 63.59796
# Shear Modulus (GPa) = 29.00847 32.70222 30.85535
#
# Velocity S-wave (km/s) = 3.67702 3.90412 3.79227
# Velocity P-wave (km/s) = 6.84105 7.12985 6.98694
#
# Compressibility (1/GPa) = 0.01619905
#
# Stress axis : x y z
#
# Youngs Moduli (GPa) = 119.75378 59.21458 67.71693
#
# Poissons Ratio (x) = 0.20953 0.14346
# Poissons Ratio (y) = 0.42376 0.42297
# Poissons Ratio (z) = 0.25370 0.36986
#
# Static dielectric constant tensor:
#      x y z
#    x 4.201570 0.000000 -0.193960 
#    y 0.000000 3.741270 0.000000 
#    z -0.193960 0.000000 3.732380 
# 
# 
# High freq. dielectric constant tensor:
#      x y z
#    x 1.862430 0.000000 -0.014290 
#    y 0.000000 1.820340 0.000000 
#    z -0.014290 0.000000 1.835700 
# 
# From -- ./inp_files/12472.got.cif
#   From: 2010.06.25/outbox.cif.g09.slc.cpg/sg13_7_cif.got.tgz:12472.got - 2010.06.28 04:50:58.
