data_PCOD8120526
_publ_section_title
;
Structure prediction by ZEFSAII (Michael W. Deem and Ramdas Pophale) SiO2 
 PCOD8120526
Probable space group: P 2/C
;
_chemical_formula_sum "Si O2"
_cell_formula_units_Z 24
_cell_length_a 8.570042
_cell_length_b 7.534274
_cell_length_c 22.817191
_cell_angle_alpha 90.000000
_cell_angle_beta 52.308321
_cell_angle_gamma 90.000000
_cell_volume 1165.827981
_symmetry_space_group_name_H-M "P 2/C"
_symmetry_group_IT_number 13
_symmetry_cell_setting 'monoclinic'
loop_
_space_group_symop_operation_xyz
x,y,z
-x,y,1/2-z
-x,-y,-z
x,-y,1/2+z
loop_
_atom_site_type_symbol
_atom_site_label
_atom_site_fract_x
_atom_site_fract_y
_atom_site_fract_z
Si Si1 0.879603 0.833708 0.336981
Si Si2 0.875253 0.791400 0.881862
Si Si3 0.363979 0.503311 0.128171
Si Si4 0.091924 0.362481 0.891592
Si Si5 0.701428 0.639603 0.727747
Si Si6 0.781323 0.362911 0.514345
O O1 0.695136 0.707836 0.367747
O O2 0.000000 0.818695 0.250000
O O3 0.997430 0.780491 0.369217
O O4 0.805551 0.034964 0.362801
O O5 0.771940 0.613434 0.882505
O O6 0.113384 0.774010 0.820582
O O7 0.790856 0.805449 0.967814
O O8 0.326553 0.422944 0.199953
O O9 0.592060 0.506919 0.058060
O O10 0.265928 0.462138 0.817415
O O11 0.183743 0.275550 0.929384
O O12 0.948036 0.510509 0.949999
O O13 0.500000 0.732366 0.750000
#
# Coordination Sequence:
#
# PCOD8120526 Si02
#       6
#     4   4   4   4   4   4
#     4  12  23  40  66  91 126 165 205 257 309 366
#     4  11  25  41  62  95 130 159 208 258 313 368
#     4  12  21  40  67  92 124 164 209 256 314 364
#     4  10  21  40  63  89 126 164 207 252 309 366
#     4  11  20  40  67  89 118 169 210 256 306 362
#     4  10  22  40  63  93 124 167 206 254 311 376
#
# _framework density 20.586226
#
# number of rings (size 3 to 8) (size 9 to 14) (size 15 to 20)
#    0.000    1.000    6.667    2.000    0.000    1.333 
#    0.000    4.167    0.000    0.000    0.000    0.000 
#    0.000    0.000    0.000    0.000    0.000    0.000 
#
# Total GULP energy -297395.509202 kJ/mol
# GULP energy per Si atom -12391.479550 kJ/mol
# Density = 2.053937 g / cm^3
# Si number density = 20.586226 Si / 1000 Ang^3
#
#
#
# Elastic Constant Matrix: (Units=GPa)
#
#
# Indices 1 2 3 4 5 6 
#
# 1 67.9896 -3.0470 13.8217 0.0000 26.1958 0.0000
# 2 -3.0470 54.4314 -0.9885 0.0000 6.8927 0.0000
# 3 13.8217 -0.9885 86.3401 0.0000 25.8644 0.0000
# 4 0.0000 0.0000 0.0000 14.8600 0.0000 6.0672
# 5 26.1958 6.8927 25.8644 0.0000 20.6538 0.0000
# 6 0.0000 0.0000 0.0000 6.0672 0.0000 13.5447
#
#
#
# Elastic Compliance Matrix: (Units=1/GPa)
#
#
# Indices 1 2 3 4 5 6 
#
# 1 0.042520 0.012798 0.017243 0.000000 -0.079794 0.000000
# 2 0.012798 0.023687 0.008727 0.000000 -0.035065 0.000000
# 3 0.017243 0.008727 0.026159 0.000000 -0.057540 0.000000
# 4 0.000000 0.000000 0.000000 0.082357 0.000000 -0.036891
# 5 -0.079794 -0.035065 -0.057540 0.000000 0.233382 0.000000
# 6 0.000000 0.000000 0.000000 -0.036891 0.000000 0.090355
#
#
# Mechanical properties :
#
#
# Convention : Reuss Voigt Hill
#
# Bulk Modulus (GPa) = 5.88577 25.37038 15.62807
# Shear Modulus (GPa) = 10.46994 23.07669 16.77331
#
# Velocity S-wave (km/s) = 2.25764 3.35173 2.85754
# Velocity P-wave (km/s) = 3.10825 5.22776 4.30062
#
# Compressibility (1/GPa) = 0.16990143
#
# Stress axis : x y z
#
# Youngs Moduli (GPa) = 23.51819 42.21722 38.22816
#
# Poissons Ratio (x) = -0.54029 -0.65917
# Poissons Ratio (y) = -0.30098 -0.33361
# Poissons Ratio (z) = -0.40553 -0.36842
#
# Static dielectric constant tensor:
#      x y z
#    x 4.180720 0.000000 0.468590 
#    y 0.000000 3.406560 0.000000 
#    z 0.468590 0.000000 4.342550 
# 
# 
# High freq. dielectric constant tensor:
#      x y z
#    x 1.810200 0.000000 0.015430 
#    y 0.000000 1.766510 0.000000 
#    z 0.015430 0.000000 1.832810 
# 
# From -- ./inp_files/75588.got.cif
#   From: 2010.06.25/outbox.cif.g09.slc.cpg/sg13_38_cif.got.tgz:75588.got - 2010.06.28 04:50:58.
