data_PCOD8120483
_publ_section_title
;
Structure prediction by ZEFSAII (Michael W. Deem and Ramdas Pophale) SiO2 
 PCOD8120483
Probable space group: P 2/C
;
_chemical_formula_sum "Si O2"
_cell_formula_units_Z 30
_cell_length_a 27.368161
_cell_length_b 8.981730
_cell_length_c 17.545461
_cell_angle_alpha 90.000000
_cell_angle_beta 160.960182
_cell_angle_gamma 90.000000
_cell_volume 1406.979792
_symmetry_space_group_name_H-M "P 2/C"
_symmetry_group_IT_number 13
_symmetry_cell_setting 'monoclinic'
loop_
_space_group_symop_operation_xyz
x,y,z
-x,y,1/2-z
-x,-y,-z
x,-y,1/2+z
loop_
_atom_site_type_symbol
_atom_site_label
_atom_site_fract_x
_atom_site_fract_y
_atom_site_fract_z
Si Si1 0.490428 0.009819 0.151621
Si Si2 0.902278 0.029555 0.032703
Si Si3 0.500000 0.525483 0.250000
Si Si4 0.952212 0.726483 0.852211
Si Si5 0.373191 0.217612 0.858305
Si Si6 0.759207 0.544791 0.230177
Si Si7 0.358397 0.268560 0.667696
Si Si8 0.205771 0.790648 0.722521
O O1 0.500000 0.082610 0.250000
O O2 0.632831 0.902809 0.348138
O O3 0.345047 0.903251 0.933711
O O4 0.494825 0.144868 0.095919
O O5 0.000000 0.036940 0.250000
O O6 0.955919 0.134947 0.043667
O O7 0.741233 0.083223 0.824035
O O8 0.903461 0.862192 0.001547
O O9 0.645020 0.428979 0.489894
O O10 0.543561 0.626482 0.241926
O O11 0.817053 0.681936 0.594502
O O12 0.876415 0.773225 0.818722
O O13 0.070145 0.591356 0.039226
O O14 0.296363 0.362031 0.780230
O O15 0.429671 0.271782 0.858410
O O16 0.750053 0.372636 0.241115
#
# Coordination Sequence:
#
# PCOD8120483 Si02
#       8
#     4   4   2   4   4   4   4   4
#     4  11  20  40  66  97 126 169 213 262 317 381
#     4  10  21  40  59  93 126 159 209 266 322 370
#     4  12  24  42  66  88 132 174 212 266 320 398
#     4  11  21  39  69  91 123 168 219 261 318 380
#     4  10  25  38  66  91 130 165 215 268 317 383
#     4  11  24  43  60  94 126 169 215 260 321 385
#     4  12  20  42  69  91 123 177 213 260 334 381
#     4  11  21  40  64  90 129 166 211 262 313 382
#
# _framework density 21.322268000000001
#
# number of rings (size 3 to 8) (size 9 to 14) (size 15 to 20)
#    0.000    1.067    6.000    1.200    0.933    0.533 
#    2.400    0.000    0.000    0.000    0.000    0.000 
#    0.000    0.000    0.000    0.000    0.000    0.000 
#
# Total GULP energy -371773.950193 kJ/mol
# GULP energy per Si atom -12392.465006 kJ/mol
# Density = 2.127374 g / cm^3
# Si number density = 21.322268 Si / 1000 Ang^3
#
#
#
# Elastic Constant Matrix: (Units=GPa)
#
#
# Indices 1 2 3 4 5 6 
#
# 1 114.0058 38.5571 28.9251 0.0000 -21.7496 0.0000
# 2 38.5571 70.3581 37.1959 0.0000 -9.2633 0.0000
# 3 28.9251 37.1959 99.9490 0.0000 -9.1099 0.0000
# 4 0.0000 0.0000 0.0000 26.3673 0.0000 -1.8357
# 5 -21.7496 -9.2633 -9.1099 0.0000 36.3918 0.0000
# 6 0.0000 0.0000 0.0000 -1.8357 0.0000 -6.2975
#
#
#
# Elastic Compliance Matrix: (Units=1/GPa)
#
#
# Indices 1 2 3 4 5 6 
#
# 1 0.011843 -0.005253 -0.000972 0.000000 0.005498 0.000000
# 2 -0.005253 0.020333 -0.005998 0.000000 0.000535 0.000000
# 3 -0.000972 -0.005998 0.012614 0.000000 0.001050 0.000000
# 4 0.000000 0.000000 0.000000 0.037171 0.000000 -0.010835
# 5 0.005498 0.000535 0.001050 0.000000 0.031164 0.000000
# 6 0.000000 0.000000 0.000000 -0.010835 0.000000 -0.155635
#
#
# Mechanical properties :
#
#
# Convention : Reuss Voigt Hill
#
# Bulk Modulus (GPa) = 49.15020 54.85212 52.00116
# Shear Modulus (GPa) = -443.13849 23.26799 -209.93525
#
# Velocity S-wave (km/s) = -14.43191 3.30700 -9.93338
# Velocity P-wave (km/s) = 15.95637 6.35317 10.34995
#
# Compressibility (1/GPa) = 0.02034580
#
# Stress axis : x y z
#
# Youngs Moduli (GPa) = 84.43545 49.18126 79.27629
#
# Poissons Ratio (x) = 0.25834 0.07702
# Poissons Ratio (y) = 0.44353 0.47550
# Poissons Ratio (z) = 0.08203 0.29499
#
# Static dielectric constant tensor:
#      x y z
#    x 3.869250 0.000000 0.047960 
#    y 0.000000 3.913980 0.000000 
#    z 0.047960 0.000000 4.601230 
# 
# 
# High freq. dielectric constant tensor:
#      x y z
#    x 1.836280 0.000000 -0.004490 
#    y 0.000000 1.823090 0.000000 
#    z -0.004490 0.000000 1.838240 
# 
# From -- ./inp_files/72417.got.cif
#   From: 2010.06.25/outbox.cif.g09.slc.cpg/sg13_37_cif.got.tgz:72417.got - 2010.06.28 04:50:58.
