data_PCOD8120252
_publ_section_title
;
Structure prediction by ZEFSAII (Michael W. Deem and Ramdas Pophale) SiO2 
 PCOD8120252
Probable space group: P 2/C
;
_chemical_formula_sum "Si O2"
_cell_formula_units_Z 20
_cell_length_a 13.790127
_cell_length_b 12.924059
_cell_length_c 11.288861
_cell_angle_alpha 90.000000
_cell_angle_beta 30.787286
_cell_angle_gamma 90.000000
_cell_volume 1029.821462
_symmetry_space_group_name_H-M "P 2/C"
_symmetry_group_IT_number 13
_symmetry_cell_setting 'monoclinic'
loop_
_space_group_symop_operation_xyz
x,y,z
-x,y,1/2-z
-x,-y,-z
x,-y,1/2+z
loop_
_atom_site_type_symbol
_atom_site_label
_atom_site_fract_x
_atom_site_fract_y
_atom_site_fract_z
Si Si1 0.290155 0.885989 0.982391
Si Si2 0.040593 0.817772 0.024154
Si Si3 0.812973 0.108089 0.376478
Si Si4 0.711644 0.333007 0.552108
Si Si5 0.991444 0.611037 0.951216
O O1 0.176274 0.850962 0.219902
O O2 0.320417 0.009608 0.962336
O O3 0.500000 0.836898 0.750000
O O4 0.175380 0.845327 0.990785
O O5 0.127436 0.878059 0.821984
O O6 0.036405 0.695011 0.005071
O O7 0.715191 0.209096 0.534325
O O8 0.000000 0.080009 0.250000
O O9 0.500000 0.373847 0.750000
O O10 0.787901 0.363980 0.602939
O O11 0.845567 0.387366 0.317337
O O12 0.000000 0.500000 0.000000
#
# Coordination Sequence:
#
# PCOD8120252 Si02
#       5
#     4   4   4   4   4
#     4  11  24  36  57  90 123 157 191 236 295 351
#     4  10  22  40  58  81 121 154 197 240 292 350
#     4  11  19  39  62  85 117 160 195 238 287 350
#     4  10  21  38  61  89 114 148 201 243 286 352
#     4  10  22  41  62  83 115 155 193 248 302 339
#
# _framework density 19.420842
#
# number of rings (size 3 to 8) (size 9 to 14) (size 15 to 20)
#    0.000    1.600    6.000    1.200    0.000    8.000 
#    0.000    2.000    0.000    0.000    0.000    0.000 
#    0.000    0.000    0.000    0.000    0.000    0.000 
#
# Total GULP energy -247917.622004 kJ/mol
# GULP energy per Si atom -12395.881100 kJ/mol
# Density = 1.937664 g / cm^3
# Si number density = 19.420842 Si / 1000 Ang^3
#
#
#
# Elastic Constant Matrix: (Units=GPa)
#
#
# Indices 1 2 3 4 5 6 
#
# 1 100.7369 60.5955 56.9381 0.0000 1.3048 0.0000
# 2 60.5955 136.0761 36.4010 0.0000 11.4411 0.0000
# 3 56.9381 36.4010 84.5963 0.0000 -28.2023 0.0000
# 4 0.0000 0.0000 0.0000 23.8664 0.0000 4.6367
# 5 1.3048 11.4411 -28.2023 0.0000 29.9634 0.0000
# 6 0.0000 0.0000 0.0000 4.6367 0.0000 23.5454
#
#
#
# Elastic Compliance Matrix: (Units=1/GPa)
#
#
# Indices 1 2 3 4 5 6 
#
# 1 0.024609 -0.003382 -0.021909 0.000000 -0.020402 0.000000
# 2 -0.003382 0.011174 -0.005690 0.000000 -0.009475 0.000000
# 3 -0.021909 -0.005690 0.043802 0.000000 0.044354 0.000000
# 4 0.000000 0.000000 0.000000 0.043567 0.000000 -0.008579
# 5 -0.020402 -0.009475 0.044354 0.000000 0.079628 0.000000
# 6 0.000000 0.000000 0.000000 -0.008579 0.000000 0.044161
#
#
# Mechanical properties :
#
#
# Convention : Reuss Voigt Hill
#
# Bulk Modulus (GPa) = 56.74957 69.91983 63.33470
# Shear Modulus (GPa) = 15.88420 26.64003 21.26211
#
# Velocity S-wave (km/s) = 2.86299 3.70770 3.31238
# Velocity P-wave (km/s) = 6.34140 7.37631 6.87835
#
# Compressibility (1/GPa) = 0.01762128
#
# Stress axis : x y z
#
# Youngs Moduli (GPa) = 40.63500 89.49486 22.82989
#
# Poissons Ratio (x) = 0.30271 0.50019
# Poissons Ratio (y) = 0.13745 0.12990
# Poissons Ratio (z) = 0.89029 0.50924
#
# Static dielectric constant tensor:
#      x y z
#    x 3.540090 0.000000 -0.185300 
#    y 0.000000 3.475630 0.000000 
#    z -0.185300 0.000000 2.790770 
# 
# 
# High freq. dielectric constant tensor:
#      x y z
#    x 1.756370 0.000000 0.002880 
#    y 0.000000 1.748040 0.000000 
#    z 0.002880 0.000000 1.757250 
# 
# From -- ./inp_files/37012.got.cif
#   From: 2010.06.25/outbox.cif.g09.slc.cpg/sg13_19_cif.got.tgz:37012.got - 2010.06.28 04:50:58.
