data_PCOD8120687
_publ_section_title
;
Structure prediction by ZEFSAII (Michael W. Deem and Ramdas Pophale) SiO2 
 PCOD8120687
Probable space group: P 2/C
;
_chemical_formula_sum "Si O2"
_cell_formula_units_Z 18
_cell_length_a 8.751112
_cell_length_b 7.275910
_cell_length_c 23.732927
_cell_angle_alpha 90.000000
_cell_angle_beta 36.952098
_cell_angle_gamma 90.000000
_cell_volume 908.411517
_symmetry_space_group_name_H-M "P 2/C"
_symmetry_group_IT_number 13
_symmetry_cell_setting 'monoclinic'
loop_
_space_group_symop_operation_xyz
x,y,z
-x,y,1/2-z
-x,-y,-z
x,-y,1/2+z
loop_
_atom_site_type_symbol
_atom_site_label
_atom_site_fract_x
_atom_site_fract_y
_atom_site_fract_z
Si Si1 0.009725 0.458171 0.562345
Si Si2 0.586888 0.851555 0.551122
Si Si3 0.500000 0.707746 0.250000
Si Si4 0.365112 0.060963 0.235184
Si Si5 0.187142 0.810906 0.576291
O O1 0.167341 0.274425 0.526661
O O2 0.135364 0.622837 0.559609
O O3 0.000000 0.500000 0.500000
O O4 0.726326 0.426978 0.667322
O O5 0.366190 0.770633 0.576745
O O6 0.486777 0.850837 0.644203
O O7 0.668311 0.056025 0.509711
O O8 0.418805 0.840455 0.221482
O O9 0.500000 0.154964 0.250000
O O10 0.065651 0.095426 0.325063
#
# Coordination Sequence:
#
# PCOD8120687 Si02
#       5
#     4   4   2   4   4
#     4  12  25  41  67  98 129 172 217 268 317 385
#     4  11  23  45  65  97 130 173 212 265 328 387
#     4  10  24  40  66  96 130 160 226 266 314 382
#     4  10  21  41  67  92 127 168 213 265 317 382
#     4  11  24  41  69  94 134 168 214 266 327 384
#
# _framework density 19.814810000000001
#
# number of rings (size 3 to 8) (size 9 to 14) (size 15 to 20)
#    0.667    0.444    2.222    4.000    4.667    2.667 
#    0.000    0.000    0.000    0.000    0.000    0.000 
#    0.000    0.000    0.000    0.000    0.000    0.000 
#
# Total GULP energy -223246.607123 kJ/mol
# GULP energy per Si atom -12402.589285 kJ/mol
# Density = 1.976971 g / cm^3
# Si number density = 19.814810 Si / 1000 Ang^3
#
#
#
# Elastic Constant Matrix: (Units=GPa)
#
#
# Indices 1 2 3 4 5 6 
#
# 1 130.1921 43.1819 77.3496 0.0000 7.7336 0.0000
# 2 43.1819 80.2056 31.8928 0.0000 17.9787 0.0000
# 3 77.3496 31.8928 132.8908 0.0000 5.2197 0.0000
# 4 0.0000 0.0000 0.0000 24.8226 0.0000 -6.8047
# 5 7.7336 17.9787 5.2197 0.0000 34.9289 0.0000
# 6 0.0000 0.0000 0.0000 -6.8047 0.0000 40.8086
#
#
#
# Elastic Compliance Matrix: (Units=1/GPa)
#
#
# Indices 1 2 3 4 5 6 
#
# 1 0.013023 -0.004514 -0.006513 0.000000 0.000414 0.000000
# 2 -0.004514 0.017070 -0.001170 0.000000 -0.007612 0.000000
# 3 -0.006513 -0.001170 0.011584 0.000000 0.000313 0.000000
# 4 0.000000 0.000000 0.000000 0.042216 0.000000 0.007039
# 5 0.000414 -0.007612 0.000313 0.000000 0.032409 0.000000
# 6 0.000000 0.000000 0.000000 0.007039 0.000000 0.025678
#
#
# Mechanical properties :
#
#
# Convention : Reuss Voigt Hill
#
# Bulk Modulus (GPa) = 57.86159 72.01525 64.93842
# Shear Modulus (GPa) = 29.04664 32.83630 30.94147
#
# Velocity S-wave (km/s) = 3.83287 4.07524 3.95591
# Velocity P-wave (km/s) = 6.98945 7.65287 7.32867
#
# Compressibility (1/GPa) = 0.01728262
#
# Stress axis : x y z
#
# Youngs Moduli (GPa) = 76.78565 58.58224 86.32286
#
# Poissons Ratio (x) = 0.26447 0.56222
# Poissons Ratio (y) = 0.34665 0.10100
# Poissons Ratio (z) = 0.50011 0.06854
#
# Static dielectric constant tensor:
#      x y z
#    x 3.724640 0.000000 -0.097840 
#    y 0.000000 3.516600 0.000000 
#    z -0.097840 0.000000 3.469630 
# 
# 
# High freq. dielectric constant tensor:
#      x y z
#    x 1.781110 0.000000 -0.010180 
#    y 0.000000 1.772740 0.000000 
#    z -0.010180 0.000000 1.781890 
# 
# From -- ./inp_files/75153.got.cif
#   From: 2010.06.25/outbox.cif.g09.slc.cpg/sg13_38_cif.got.tgz:75153.got - 2010.06.28 04:50:58.
