data_PCOD8120848
_publ_section_title
;
Structure prediction by ZEFSAII (Michael W. Deem and Ramdas Pophale) SiO2 
 PCOD8120848
Probable space group: P 2/C
;
_chemical_formula_sum "Si O2"
_cell_formula_units_Z 26
_cell_length_a 8.328175
_cell_length_b 8.320513
_cell_length_c 16.818556
_cell_angle_alpha 90.000000
_cell_angle_beta 83.700127
_cell_angle_gamma 90.000000
_cell_volume 1158.398757
_symmetry_space_group_name_H-M "P 2/C"
_symmetry_group_IT_number 13
_symmetry_cell_setting 'monoclinic'
loop_
_space_group_symop_operation_xyz
x,y,z
-x,y,1/2-z
-x,-y,-z
x,-y,1/2+z
loop_
_atom_site_type_symbol
_atom_site_label
_atom_site_fract_x
_atom_site_fract_y
_atom_site_fract_z
Si Si1 0.689140 0.999417 0.258961
Si Si2 0.220312 0.737575 0.853821
Si Si3 0.715658 0.680544 0.339545
Si Si4 0.500000 0.550708 0.750000
Si Si5 0.660149 0.158880 0.998789
Si Si6 0.070795 0.554571 0.580849
Si Si7 0.305069 0.843769 0.576910
O O1 0.500000 0.980130 0.250000
O O2 0.761101 0.821647 0.274191
O O3 0.787263 0.079449 0.179911
O O4 0.726321 0.121459 0.328935
O O5 0.376865 0.658434 0.806032
O O6 0.223981 0.739966 0.950029
O O7 0.057288 0.636135 0.851107
O O8 0.598074 0.552525 0.307346
O O9 0.616669 0.758807 0.417602
O O10 0.872360 0.598245 0.370229
O O11 0.497147 0.150999 0.057761
O O12 0.752113 0.989566 0.977144
O O13 0.219358 0.677792 0.556801
O O14 0.000000 0.500000 0.500000
#
# Coordination Sequence:
#
# PCOD8120848 Si02
#       7
#     4   4   4   2   4   4   4
#     4  11  21  45  74 103 133 182 249 299 347 420
#     4  12  24  45  72 101 145 197 233 292 358 443
#     4  11  25  44  70 108 141 181 241 302 358 422
#     4  12  26  42  76 106 146 186 242 302 372 414
#     4  10  21  43  73 101 132 189 253 290 334 427
#     4  12  27  47  68 108 154 187 230 295 375 430
#     4  10  23  41  73 102 137 183 243 293 353 420
#
# _framework density 22.444775
#
# number of rings (size 3 to 8) (size 9 to 14) (size 15 to 20)
#    0.000    0.923    4.615    1.846    2.154    4.308 
#    0.000    3.077    0.000    0.000    0.000    0.000 
#    0.000    0.000    0.000    0.000    0.000    0.000 
#
# Total GULP energy -322253.639023 kJ/mol
# GULP energy per Si atom -12394.370732 kJ/mol
# Density = 2.239369 g / cm^3
# Si number density = 22.444775 Si / 1000 Ang^3
#
#
#
# Elastic Constant Matrix: (Units=GPa)
#
#
# Indices 1 2 3 4 5 6 
#
# 1 70.9493 47.5192 38.7184 0.0000 16.3958 0.0000
# 2 47.5192 140.1774 56.8164 0.0000 19.7088 0.0000
# 3 38.7184 56.8164 85.2393 0.0000 7.2289 0.0000
# 4 0.0000 0.0000 0.0000 28.4770 0.0000 9.7825
# 5 16.3958 19.7088 7.2289 0.0000 29.2204 0.0000
# 6 0.0000 0.0000 0.0000 9.7825 0.0000 34.9513
#
#
#
# Elastic Compliance Matrix: (Units=1/GPa)
#
#
# Indices 1 2 3 4 5 6 
#
# 1 0.022218 -0.003498 -0.007051 0.000000 -0.008363 0.000000
# 2 -0.003498 0.011126 -0.005472 0.000000 -0.004188 0.000000
# 3 -0.007051 -0.005472 0.018318 0.000000 0.003116 0.000000
# 4 0.000000 0.000000 0.000000 0.038852 0.000000 -0.010874
# 5 -0.008363 -0.004188 0.003116 0.000000 0.040969 0.000000
# 6 0.000000 0.000000 0.000000 -0.010874 0.000000 0.031655
#
#
# Mechanical properties :
#
#
# Convention : Reuss Voigt Hill
#
# Bulk Modulus (GPa) = 50.97024 64.71933 57.84479
# Shear Modulus (GPa) = 24.78671 28.75054 26.76863
#
# Velocity S-wave (km/s) = 3.32677 3.58291 3.45721
# Velocity P-wave (km/s) = 6.12495 6.78335 6.46254
#
# Compressibility (1/GPa) = 0.01961929
#
# Stress axis : x y z
#
# Youngs Moduli (GPa) = 45.00855 89.87587 54.59125
#
# Poissons Ratio (x) = 0.31438 0.38494
# Poissons Ratio (y) = 0.15743 0.29874
# Poissons Ratio (z) = 0.31737 0.49183
#
# Static dielectric constant tensor:
#      x y z
#    x 3.825070 0.000000 0.267200 
#    y 0.000000 4.378800 0.000000 
#    z 0.267200 0.000000 4.227000 
# 
# 
# High freq. dielectric constant tensor:
#      x y z
#    x 1.864290 0.000000 0.017910 
#    y 0.000000 1.898160 0.000000 
#    z 0.017910 0.000000 1.893750 
# 
# From -- ./inp_files/63762.got.cif
#   From: 2010.06.25/outbox.cif.g09.slc.cpg/sg13_32_cif.got.tgz:63762.got - 2010.06.28 04:50:58.
