data_PCOD8120487
_publ_section_title
;
Structure prediction by ZEFSAII (Michael W. Deem and Ramdas Pophale) SiO2 
 PCOD8120487
Probable space group: P 2/C
;
_chemical_formula_sum "Si O2"
_cell_formula_units_Z 30
_cell_length_a 20.624190
_cell_length_b 6.487451
_cell_length_c 21.069468
_cell_angle_alpha 90.000000
_cell_angle_beta 32.446017
_cell_angle_gamma 90.000000
_cell_volume 1512.439903
_symmetry_space_group_name_H-M "P 2/C"
_symmetry_group_IT_number 13
_symmetry_cell_setting 'monoclinic'
loop_
_space_group_symop_operation_xyz
x,y,z
-x,y,1/2-z
-x,-y,-z
x,-y,1/2+z
loop_
_atom_site_type_symbol
_atom_site_label
_atom_site_fract_x
_atom_site_fract_y
_atom_site_fract_z
Si Si1 0.854538 0.071255 0.824855
Si Si2 0.174646 0.710191 0.563961
Si Si3 0.500000 0.764177 0.750000
Si Si4 0.576727 0.114862 0.847396
Si Si5 0.728954 0.969250 0.611001
Si Si6 0.903098 0.289058 0.906825
Si Si7 0.376389 0.198908 0.552523
Si Si8 0.414749 0.535366 0.424691
O O1 0.825658 0.212830 0.909548
O O2 0.740936 0.068360 0.871792
O O3 0.970474 0.166659 0.693448
O O4 0.879090 0.839525 0.831621
O O5 0.080688 0.534141 0.616999
O O6 0.299999 0.607121 0.480081
O O7 0.197239 0.849109 0.483833
O O8 0.612736 0.915545 0.664734
O O9 0.509694 0.625897 0.679346
O O10 0.627038 0.225482 0.868848
O O11 0.500127 0.271869 0.868495
O O12 0.692001 0.034490 0.712375
O O13 0.496504 0.918692 0.931795
O O14 0.820901 0.770980 0.535967
O O15 0.374682 0.426476 0.523536
#
# Coordination Sequence:
#
# PCOD8120487 Si02
#       8
#     4   4   2   4   4   4   4   4
#     4  10  21  40  60  87 121 153 202 245 303 356
#     4  11  20  37  63  90 119 156 192 251 313 351
#     4  12  20  34  60  90 128 154 184 266 298 358
#     4  11  24  37  60  86 125 162 201 243 292 363
#     4  11  22  37  53  91 122 152 199 244 306 351
#     4  10  22  37  61  88 119 153 193 259 296 356
#     4  11  22  41  58  86 122 162 204 244 289 357
#     4  12  20  36  58  89 120 157 198 239 306 362
#
# _framework density 19.835498000000001
#
# number of rings (size 3 to 8) (size 9 to 14) (size 15 to 20)
#    0.000    1.067    5.333    2.800    0.000    4.267 
#    0.000    0.667    0.000    0.800    0.000    0.000 
#    0.000    0.000    0.000    0.000    0.000    0.000 
#
# Total GULP energy -371960.235217 kJ/mol
# GULP energy per Si atom -12398.674507 kJ/mol
# Density = 1.979035 g / cm^3
# Si number density = 19.835498 Si / 1000 Ang^3
#
#
#
# Elastic Constant Matrix: (Units=GPa)
#
#
# Indices 1 2 3 4 5 6 
#
# 1 44.0326 -2.0309 20.2112 0.0000 6.4759 0.0000
# 2 -2.0309 90.1260 29.7257 0.0000 1.8300 0.0000
# 3 20.2112 29.7257 105.2241 0.0000 1.9803 0.0000
# 4 0.0000 0.0000 0.0000 28.5135 0.0000 -3.0432
# 5 6.4759 1.8300 1.9803 0.0000 27.0692 0.0000
# 6 0.0000 0.0000 0.0000 -3.0432 0.0000 21.5478
#
#
#
# Elastic Compliance Matrix: (Units=1/GPa)
#
#
# Indices 1 2 3 4 5 6 
#
# 1 0.026325 0.002587 -0.005673 0.000000 -0.006058 0.000000
# 2 0.002587 0.012499 -0.004006 0.000000 -0.001171 0.000000
# 3 -0.005673 -0.004006 0.011710 0.000000 0.000771 0.000000
# 4 0.000000 0.000000 0.000000 0.035608 0.000000 0.005029
# 5 -0.006058 -0.001171 0.000771 0.000000 0.038414 0.000000
# 6 0.000000 0.000000 0.000000 0.005029 0.000000 0.047119
#
#
# Mechanical properties :
#
#
# Convention : Reuss Voigt Hill
#
# Bulk Modulus (GPa) = 27.50998 37.24387 32.37692
# Shear Modulus (GPa) = 25.25568 28.19122 26.72345
#
# Velocity S-wave (km/s) = 3.57214 3.77404 3.67448
# Velocity P-wave (km/s) = 5.55993 6.14884 5.86179
#
# Compressibility (1/GPa) = 0.03635044
#
# Stress axis : x y z
#
# Youngs Moduli (GPa) = 37.98701 80.00712 85.39429
#
# Poissons Ratio (x) = -0.20701 0.48447
# Poissons Ratio (y) = -0.09829 0.34208
# Poissons Ratio (z) = 0.21551 0.32050
#
# Static dielectric constant tensor:
#      x y z
#    x 3.328190 0.000000 0.039880 
#    y 0.000000 3.824750 0.000000 
#    z 0.039880 0.000000 3.672150 
# 
# 
# High freq. dielectric constant tensor:
#      x y z
#    x 1.732890 0.000000 -0.007810 
#    y 0.000000 1.786090 0.000000 
#    z -0.007810 0.000000 1.775740 
# 
# From -- ./inp_files/81385.got.cif
#   From: 2010.06.25/outbox.cif.g09.slc.cpg/sg13_41_cif.got.tgz:81385.got - 2010.06.28 04:50:58.
