data_PCOD8120688
_publ_section_title
;
Structure prediction by ZEFSAII (Michael W. Deem and Ramdas Pophale) SiO2 
 PCOD8120688
Probable space group: P 2/C
;
_chemical_formula_sum "Si O2"
_cell_formula_units_Z 30
_cell_length_a 28.637577
_cell_length_b 8.534216
_cell_length_c 17.276718
_cell_angle_alpha 90.000000
_cell_angle_beta 159.268817
_cell_angle_gamma 90.000000
_cell_volume 1494.667731
_symmetry_space_group_name_H-M "P 2/C"
_symmetry_group_IT_number 13
_symmetry_cell_setting 'monoclinic'
loop_
_space_group_symop_operation_xyz
x,y,z
-x,y,1/2-z
-x,-y,-z
x,-y,1/2+z
loop_
_atom_site_type_symbol
_atom_site_label
_atom_site_fract_x
_atom_site_fract_y
_atom_site_fract_z
Si Si1 0.556009 0.459733 0.503507
Si Si2 0.150689 0.489675 0.716504
Si Si3 0.302192 0.735014 0.860168
Si Si4 0.696906 0.288212 0.438429
Si Si5 0.645970 0.943861 0.989369
Si Si6 0.211599 0.260803 0.677344
Si Si7 0.000000 0.892158 0.750000
Si Si8 0.855435 0.811756 0.036586
O O1 0.500000 0.500000 0.500000
O O2 0.583296 0.615657 0.493265
O O3 0.456086 0.340072 0.306327
O O4 0.694971 0.368788 0.731874
O O5 0.198812 0.651614 0.755822
O O6 0.171799 0.350838 0.690990
O O7 0.000000 0.500000 0.500000
O O8 0.231380 0.442553 0.917830
O O9 0.223381 0.806766 0.665762
O O10 0.357753 0.868523 0.004406
O O11 0.717506 0.131552 0.523893
O O12 0.762755 0.262333 0.457334
O O13 0.500000 0.880284 0.750000
O O14 0.707342 0.888061 0.166027
O O15 0.073133 0.218713 0.423692
O O16 0.886389 0.006941 0.609377
O O17 0.000000 0.726294 0.250000
#
# Coordination Sequence:
#
# PCOD8120688 Si02
#       8
#     4   4   4   4   4   4   2   4
#     4  11  23  42  64  98 133 168 222 275 332 392
#     4  10  24  40  63  95 130 170 221 267 332 399
#     4  11  23  41  65  97 128 171 218 275 324 393
#     4  11  23  42  68  94 133 177 215 278 333 393
#     4  11  22  41  66  94 129 172 213 266 331 386
#     4  10  22  42  65  92 131 174 213 275 325 394
#     4  10  22  42  64  94 130 166 220 266 328 384
#     4  10  21  41  67  92 129 167 217 272 329 384
#
# _framework density 20.071351
#
# number of rings (size 3 to 8) (size 9 to 14) (size 15 to 20)
#    0.400    1.067    4.000    0.800    1.867    2.133 
#    7.200    5.333    0.000    0.000    0.000    0.000 
#    0.000    0.000    0.000    0.000    0.000    0.000 
#
# Total GULP energy -371649.261464 kJ/mol
# GULP energy per Si atom -12388.308715 kJ/mol
# Density = 2.002567 g / cm^3
# Si number density = 20.071351 Si / 1000 Ang^3
#
#
#
# Elastic Constant Matrix: (Units=GPa)
#
#
# Indices 1 2 3 4 5 6 
#
# 1 62.2734 21.6580 -1.8146 0.0000 9.4316 0.0000
# 2 21.6580 89.1985 14.8152 0.0000 -1.3777 0.0000
# 3 -1.8146 14.8152 77.4310 0.0000 -6.4773 0.0000
# 4 0.0000 0.0000 0.0000 38.3248 0.0000 -0.3227
# 5 9.4316 -1.3777 -6.4773 0.0000 36.2625 0.0000
# 6 0.0000 0.0000 0.0000 -0.3227 0.0000 2.7647
#
#
#
# Elastic Compliance Matrix: (Units=1/GPa)
#
#
# Indices 1 2 3 4 5 6 
#
# 1 0.018452 -0.004709 0.000931 0.000000 -0.004812 0.000000
# 2 -0.004709 0.012781 -0.002449 0.000000 0.001273 0.000000
# 3 0.000931 -0.002449 0.013580 0.000000 0.002091 0.000000
# 4 0.000000 0.000000 0.000000 0.026118 0.000000 0.003049
# 5 -0.004812 0.001273 0.002091 0.000000 0.029250 0.000000
# 6 0.000000 0.000000 0.000000 0.003049 0.000000 0.362056
#
#
# Mechanical properties :
#
#
# Convention : Reuss Voigt Hill
#
# Bulk Modulus (GPa) = 30.90453 33.13557 32.02005
# Shear Modulus (GPa) = 10.29912 28.42002 19.35957
#
# Velocity S-wave (km/s) = 2.26769 3.76699 3.10907
# Velocity P-wave (km/s) = 4.72094 5.95525 5.37365
#
# Compressibility (1/GPa) = 0.03235771
#
# Stress axis : x y z
#
# Youngs Moduli (GPa) = 54.19486 78.24209 73.63743
#
# Poissons Ratio (x) = 0.36846 -0.06855
# Poissons Ratio (y) = 0.25521 0.18036
# Poissons Ratio (z) = -0.05045 0.19164
#
# Static dielectric constant tensor:
#      x y z
#    x 3.476330 0.000000 -0.016960 
#    y 0.000000 4.353000 0.000000 
#    z -0.016960 0.000000 3.630060 
# 
# 
# High freq. dielectric constant tensor:
#      x y z
#    x 1.773500 0.000000 -0.002300 
#    y 0.000000 1.784360 0.000000 
#    z -0.002300 0.000000 1.792000 
# 
# From -- ./inp_files/72401.got.cif
#   From: 2010.06.25/outbox.cif.g09.slc.cpg/sg13_37_cif.got.tgz:72401.got - 2010.06.28 04:50:58.
