data_PCOD8120967
_publ_section_title
;
Structure prediction by ZEFSAII (Michael W. Deem and Ramdas Pophale) SiO2 
 PCOD8120967
Probable space group: P 2/C
;
_chemical_formula_sum "Si O2"
_cell_formula_units_Z 32
_cell_length_a 28.760560
_cell_length_b 11.808327
_cell_length_c 8.862236
_cell_angle_alpha 90.000000
_cell_angle_beta 29.774548
_cell_angle_gamma 90.000000
_cell_volume 1494.602206
_symmetry_space_group_name_H-M "P 2/C"
_symmetry_group_IT_number 13
_symmetry_cell_setting 'monoclinic'
loop_
_space_group_symop_operation_xyz
x,y,z
-x,y,1/2-z
-x,-y,-z
x,-y,1/2+z
loop_
_atom_site_type_symbol
_atom_site_label
_atom_site_fract_x
_atom_site_fract_y
_atom_site_fract_z
Si Si1 0.484986 0.619976 0.615700
Si Si2 0.349184 0.230570 0.839673
Si Si3 0.230696 0.085971 0.696433
Si Si4 0.119702 0.573278 0.529812
Si Si5 0.187673 0.139172 0.484724
Si Si6 0.570271 0.998500 0.934086
Si Si7 0.924631 0.643503 0.175788
Si Si8 0.718776 0.302814 0.776184
O O1 0.500000 0.607406 0.750000
O O2 0.500000 0.500000 0.500000
O O3 0.566954 0.699682 0.320476
O O4 0.383946 0.674656 0.863118
O O5 0.392957 0.123973 0.624964
O O6 0.289012 0.300437 0.884614
O O7 0.286800 0.193087 0.157426
O O8 0.179651 0.113583 0.684357
O O9 0.228043 0.189170 0.820174
O O10 0.178191 0.977399 0.916894
O O11 0.339899 0.075292 0.352677
O O12 0.129447 0.599159 0.323334
O O13 0.095966 0.441428 0.626983
O O14 0.215279 0.596383 0.351346
O O15 0.035429 0.650020 0.833248
O O16 0.106955 0.231375 0.680789
O O17 0.500000 0.942213 0.250000
O O18 0.500000 0.000000 0.000000
#
# Coordination Sequence:
#
# PCOD8120967 Si02
#       8
#     4   4   4   4   4   4   4   4
#     4  10  23  38  55  86 129 171 218 268 323 390
#     4  10  22  38  56  88 124 170 215 262 314 382
#     4  11  22  38  60  95 125 174 216 269 321 393
#     4  10  23  43  73  97 129 163 215 269 333 390
#     4  11  23  41  66  93 135 167 221 270 326 390
#     4  11  19  33  57  80 115 163 217 267 304 358
#     4  10  23  45  69 102 127 163 214 275 328 401
#     4  11  22  40  64  89 131 173 215 266 330 383
#
# _framework density 21.41038
#
# number of rings (size 3 to 8) (size 9 to 14) (size 15 to 20)
#    0.000    1.500    1.250    5.625    3.500    2.000 
#    0.000    1.250    0.000    0.000    0.000    0.000 
#    0.000    0.000    0.000    0.000    0.000    0.000 
#
# Total GULP energy -396609.601833 kJ/mol
# GULP energy per Si atom -12394.050057 kJ/mol
# Density = 2.136165 g / cm^3
# Si number density = 21.410380 Si / 1000 Ang^3
#
#
#
# Elastic Constant Matrix: (Units=GPa)
#
#
# Indices 1 2 3 4 5 6 
#
# 1 80.1351 13.9786 21.7511 0.0000 -7.3964 0.0000
# 2 13.9786 97.2035 37.8613 0.0000 0.9246 0.0000
# 3 21.7511 37.8613 68.4062 0.0000 -2.5837 0.0000
# 4 0.0000 0.0000 0.0000 38.5012 0.0000 -1.7664
# 5 -7.3964 0.9246 -2.5837 0.0000 29.6881 0.0000
# 6 0.0000 0.0000 0.0000 -1.7664 0.0000 34.0926
#
#
#
# Elastic Compliance Matrix: (Units=1/GPa)
#
#
# Indices 1 2 3 4 5 6 
#
# 1 0.013951 -0.000452 -0.004068 0.000000 0.003136 0.000000
# 2 -0.000452 0.013162 -0.007185 0.000000 -0.001148 0.000000
# 3 -0.004068 -0.007185 0.019924 0.000000 0.000944 0.000000
# 4 0.000000 0.000000 0.000000 0.026035 0.000000 0.001349
# 5 0.003136 -0.001148 0.000944 0.000000 0.034583 0.000000
# 6 0.000000 0.000000 0.000000 0.001349 0.000000 0.029402
#
#
# Mechanical properties :
#
#
# Convention : Reuss Voigt Hill
#
# Bulk Modulus (GPa) = 42.32004 43.65854 42.98929
# Shear Modulus (GPa) = 29.70157 31.93330 30.81744
#
# Velocity S-wave (km/s) = 3.72862 3.86617 3.79802
# Velocity P-wave (km/s) = 6.19240 6.35336 6.27340
#
# Compressibility (1/GPa) = 0.02362947
#
# Stress axis : x y z
#
# Youngs Moduli (GPa) = 71.67830 75.97614 50.19051
#
# Poissons Ratio (x) = 0.03432 0.20415
# Poissons Ratio (y) = 0.03238 0.36060
# Poissons Ratio (z) = 0.29156 0.54586
#
# Static dielectric constant tensor:
#      x y z
#    x 3.787990 0.000000 -0.070320 
#    y 0.000000 3.861640 0.000000 
#    z -0.070320 0.000000 3.828090 
# 
# 
# High freq. dielectric constant tensor:
#      x y z
#    x 1.834650 0.000000 0.001690 
#    y 0.000000 1.839050 0.000000 
#    z 0.001690 0.000000 1.833040 
# 
# From -- ./inp_files/24943.got.cif
#   From: 2010.06.25/outbox.cif.g09.slc.cpg/sg13_13_cif.got.tgz:24943.got - 2010.06.28 04:50:58.
