data_PCOD8120456
_publ_section_title
;
Structure prediction by ZEFSAII (Michael W. Deem and Ramdas Pophale) SiO2 
 PCOD8120456
Probable space group: P 2/C
;
_chemical_formula_sum "Si O2"
_cell_formula_units_Z 20
_cell_length_a 8.566780
_cell_length_b 5.099389
_cell_length_c 24.270793
_cell_angle_alpha 90.000000
_cell_angle_beta 62.465018
_cell_angle_gamma 90.000000
_cell_volume 940.178924
_symmetry_space_group_name_H-M "P 2/C"
_symmetry_group_IT_number 13
_symmetry_cell_setting 'monoclinic'
loop_
_space_group_symop_operation_xyz
x,y,z
-x,y,1/2-z
-x,-y,-z
x,-y,1/2+z
loop_
_atom_site_type_symbol
_atom_site_label
_atom_site_fract_x
_atom_site_fract_y
_atom_site_fract_z
Si Si1 0.842592 0.488685 0.238585
Si Si2 0.458802 0.555527 0.628898
Si Si3 0.814317 0.710804 0.629725
Si Si4 0.606112 0.935851 0.428364
Si Si5 0.003699 0.216178 0.880369
O O1 0.673974 0.553045 0.303151
O O2 0.780080 0.285212 0.201553
O O3 0.918330 0.749487 0.194856
O O4 0.000000 0.368475 0.250000
O O5 0.638235 0.660136 0.625147
O O6 0.495886 0.303352 0.584716
O O7 0.373218 0.801080 0.611059
O O8 0.958266 0.485075 0.592302
O O9 0.895370 0.991583 0.601766
O O10 0.798273 0.835772 0.412827
O O11 0.500000 0.000000 0.500000
#
# Coordination Sequence:
#
# PCOD8120456 Si02
#       5
#     4   4   4   4   4
#     4  10  21  39  67  96 132 167 210 262 334 402
#     4  12  24  43  68 100 132 171 220 279 335 383
#     4  10  23  40  65 102 134 163 209 273 342 393
#     4  12  26  46  69  94 131 182 234 269 315 395
#     4  10  22  42  64  94 135 167 220 256 334 388
#
# _framework density 21.272545999999998
#
# number of rings (size 3 to 8) (size 9 to 14) (size 15 to 20)
#    1.200    0.000    2.000    4.800    2.800    0.800 
#    3.600    6.000    0.000    0.000    0.000    0.000 
#    0.000    0.000    0.000    0.000    0.000    0.000 
#
# Total GULP energy -247861.525514 kJ/mol
# GULP energy per Si atom -12393.076276 kJ/mol
# Density = 2.122413 g / cm^3
# Si number density = 21.272546 Si / 1000 Ang^3
#
#
#
# Elastic Constant Matrix: (Units=GPa)
#
#
# Indices 1 2 3 4 5 6 
#
# 1 94.1036 7.8492 29.1190 0.0000 -20.8421 0.0000
# 2 7.8492 104.6151 21.3647 0.0000 -9.9690 0.0000
# 3 29.1190 21.3647 75.5508 0.0000 -21.9725 0.0000
# 4 0.0000 0.0000 0.0000 17.4910 0.0000 -0.7730
# 5 -20.8421 -9.9690 -21.9725 0.0000 18.5804 0.0000
# 6 0.0000 0.0000 0.0000 -0.7730 0.0000 37.6689
#
#
#
# Elastic Compliance Matrix: (Units=1/GPa)
#
#
# Indices 1 2 3 4 5 6 
#
# 1 0.014257 0.000614 -0.001405 0.000000 0.014661 0.000000
# 2 0.000614 0.010292 -0.002044 0.000000 0.003794 0.000000
# 3 -0.001405 -0.002044 0.020696 0.000000 0.021802 0.000000
# 4 0.000000 0.000000 0.000000 0.057224 0.000000 0.001174
# 5 0.014661 0.003794 0.021802 0.000000 0.098084 0.000000
# 6 0.000000 0.000000 0.000000 0.001174 0.000000 0.026571
#
#
# Mechanical properties :
#
#
# Convention : Reuss Voigt Hill
#
# Bulk Modulus (GPa) = 25.26752 43.43726 34.35239
# Shear Modulus (GPa) = 20.32645 29.14384 24.73515
#
# Velocity S-wave (km/s) = 3.09451 3.70540 3.41365
# Velocity P-wave (km/s) = 4.96707 6.22658 5.63214
#
# Compressibility (1/GPa) = 0.03957650
#
# Stress axis : x y z
#
# Youngs Moduli (GPa) = 70.14021 97.16601 48.31787
#
# Poissons Ratio (x) = -0.05969 0.06788
# Poissons Ratio (y) = -0.04309 0.09874
# Poissons Ratio (z) = 0.09854 0.19857
#
# Static dielectric constant tensor:
#      x y z
#    x 3.804740 0.000000 0.095370 
#    y 0.000000 4.446620 0.000000 
#    z 0.095370 0.000000 3.589360 
# 
# 
# High freq. dielectric constant tensor:
#      x y z
#    x 1.843330 0.000000 -0.003140 
#    y 0.000000 1.839260 0.000000 
#    z -0.003140 0.000000 1.808330 
# 
# From -- ./inp_files/90616.got.cif
#   From: 2010.06.25/outbox.cif.g09.slc.cpg/sg13_46_cif.got.tgz:90616.got - 2010.06.28 04:50:58.
