data_PCOD8120227
_publ_section_title
;
Structure prediction by ZEFSAII (Michael W. Deem and Ramdas Pophale) SiO2 
 PCOD8120227
Probable space group: P 2/C
;
_chemical_formula_sum "Si O2"
_cell_formula_units_Z 20
_cell_length_a 12.727944
_cell_length_b 5.081018
_cell_length_c 33.501977
_cell_angle_alpha 90.000000
_cell_angle_beta 26.759699
_cell_angle_gamma 90.000000
_cell_volume 975.512320
_symmetry_space_group_name_H-M "P 2/C"
_symmetry_group_IT_number 13
_symmetry_cell_setting 'monoclinic'
loop_
_space_group_symop_operation_xyz
x,y,z
-x,y,1/2-z
-x,-y,-z
x,-y,1/2+z
loop_
_atom_site_type_symbol
_atom_site_label
_atom_site_fract_x
_atom_site_fract_y
_atom_site_fract_z
Si Si1 0.693931 0.945871 0.466631
Si Si2 0.488415 0.567790 0.173985
Si Si3 0.641865 0.058454 0.073735
Si Si4 0.066513 0.635092 0.436248
Si Si5 0.017792 0.452920 0.121184
O O1 0.569501 0.940354 0.551970
O O2 0.802850 0.661436 0.420987
O O3 0.500000 0.000000 0.500000
O O4 0.900326 0.163042 0.394036
O O5 0.547408 0.304775 0.130329
O O6 0.652126 0.648510 0.156622
O O7 0.231190 0.534121 0.277462
O O8 0.521956 0.800428 0.131231
O O9 0.928813 0.082633 0.979699
O O10 0.985513 0.462684 0.425882
O O11 0.000000 0.500000 0.500000
#
# Coordination Sequence:
#
# PCOD8120227 Si02
#       5
#     4   4   4   4   4
#     4  11  23  43  62  80 110 156 201 243 287 343
#     4  11  21  37  58  91 124 149 183 242 291 342
#     4  10  21  38  60  85 117 158 197 227 282 356
#     4   9  19  36  60  86 120 158 187 221 282 354
#     4  11  23  38  60  90 116 147 196 243 289 341
#
# _framework density 20.502046
#
# number of rings (size 3 to 8) (size 9 to 14) (size 15 to 20)
#    0.000    1.600    0.000    6.600    0.000    4.800 
#    0.000   14.000    0.000    0.000    0.000    0.000 
#    0.000    0.000    0.000    0.000    0.000    0.000 
#
# Total GULP energy -247820.191689 kJ/mol
# GULP energy per Si atom -12391.009584 kJ/mol
# Density = 2.045538 g / cm^3
# Si number density = 20.502046 Si / 1000 Ang^3
#
#
#
# Elastic Constant Matrix: (Units=GPa)
#
#
# Indices 1 2 3 4 5 6 
#
# 1 151.1168 32.4562 58.0870 -0.0010 6.1941 -0.0030
# 2 32.4562 128.5797 50.8407 -0.0023 20.4933 -0.0024
# 3 58.0870 50.8407 109.9749 -0.0111 5.0702 0.0171
# 4 -0.0010 -0.0023 -0.0111 39.4499 -0.0003 -5.1138
# 5 6.1941 20.4933 5.0702 -0.0003 22.9169 0.0010
# 6 -0.0030 -0.0024 0.0171 -5.1138 0.0010 28.7773
#
#
#
# Elastic Compliance Matrix: (Units=1/GPa)
#
#
# Indices 1 2 3 4 5 6 
#
# 1 0.008347 -0.000257 -0.004240 -0.000001 -0.001088 0.000003
# 2 -0.000257 0.011051 -0.004567 0.000000 -0.008802 0.000004
# 3 -0.004240 -0.004567 0.013339 0.000002 0.002279 -0.000008
# 4 -0.000001 0.000000 0.000002 0.025946 0.000000 0.004611
# 5 -0.001088 -0.008802 0.002279 0.000000 0.051297 -0.000004
# 6 0.000003 0.000004 -0.000008 0.004611 -0.000004 0.035569
#
#
# Mechanical properties :
#
#
# Convention : Reuss Voigt Hill
#
# Bulk Modulus (GPa) = 68.45303 74.71545 71.58424
# Shear Modulus (GPa) = 29.66543 34.78132 32.22338
#
# Velocity S-wave (km/s) = 3.80801 4.12330 3.96879
# Velocity P-wave (km/s) = 7.26605 7.69356 7.48286
#
# Compressibility (1/GPa) = 0.01460856
#
# Stress axis : x y z
#
# Youngs Moduli (GPa) = 119.80520 90.48974 74.97040
#
# Poissons Ratio (x) = 0.02327 0.31785
# Poissons Ratio (y) = 0.03081 0.34240
# Poissons Ratio (z) = 0.50793 0.41328
#
# Static dielectric constant tensor:
#      x y z
#    x 3.905810 0.000100 -0.099190 
#    y 0.000100 3.843120 -0.000040 
#    z -0.099190 -0.000040 3.912090 
# 
# 
# High freq. dielectric constant tensor:
#      x y z
#    x 1.796600 0.000000 0.006960 
#    y 0.000000 1.811750 0.000000 
#    z 0.006960 0.000000 1.797120 
# 
# From -- ./inp_files/48598.got.cif
#   From: 2010.06.25/outbox.cif.g09.slc.cpg/sg13_25_cif.got.tgz:48598.got - 2010.06.28 04:50:58.
