data_PCOD8120234
_publ_section_title
;
Structure prediction by ZEFSAII (Michael W. Deem and Ramdas Pophale) SiO2 
 PCOD8120234
Probable space group: P 2/C
;
_chemical_formula_sum "Si O2"
_cell_formula_units_Z 16
_cell_length_a 8.971486
_cell_length_b 9.544674
_cell_length_c 10.244525
_cell_angle_alpha 90.000000
_cell_angle_beta 59.542260
_cell_angle_gamma 90.000000
_cell_volume 756.181809
_symmetry_space_group_name_H-M "P 2/C"
_symmetry_group_IT_number 13
_symmetry_cell_setting 'monoclinic'
loop_
_space_group_symop_operation_xyz
x,y,z
-x,y,1/2-z
-x,-y,-z
x,-y,1/2+z
loop_
_atom_site_type_symbol
_atom_site_label
_atom_site_fract_x
_atom_site_fract_y
_atom_site_fract_z
Si Si1 0.195190 0.137688 0.184381
Si Si2 0.701044 0.938925 0.139199
Si Si3 0.689013 0.562929 0.901108
Si Si4 0.292700 0.375271 0.831564
O O1 0.317126 0.275041 0.144036
O O2 0.000000 0.189484 0.250000
O O3 0.198443 0.051085 0.317382
O O4 0.257519 0.042980 0.033442
O O5 0.500000 0.964041 0.250000
O O6 0.762531 0.785701 0.159914
O O7 0.786384 0.465690 0.752115
O O8 0.500000 0.500000 0.000000
O O9 0.784650 0.560943 0.999169
O O10 0.500000 0.384574 0.750000
#
# Coordination Sequence:
#
# PCOD8120234 Si02
#       4
#     4   4   4   4
#     4  11  23  39  59  90 125 155 193 250 304 347
#     4  10  21  38  60  87 119 159 203 241 285 359
#     4   9  18  34  55  79 110 151 195 236 283 348
#     4   8  16  31  52  78 106 139 190 241 274 326
#
# _framework density 21.158933000000001
#
# number of rings (size 3 to 8) (size 9 to 14) (size 15 to 20)
#    0.000    2.500    0.000    3.000    0.000    5.000 
#    0.000    6.250    0.000    0.000    0.000    0.000 
#    0.000    0.000    0.000    0.000    0.000    0.000 
#
# Total GULP energy -198297.116517 kJ/mol
# GULP energy per Si atom -12393.569782 kJ/mol
# Density = 2.111077 g / cm^3
# Si number density = 21.158933 Si / 1000 Ang^3
#
#
#
# Elastic Constant Matrix: (Units=GPa)
#
#
# Indices 1 2 3 4 5 6 
#
# 1 50.3339 45.7538 14.2895 0.0000 3.7129 0.0000
# 2 45.7538 124.3049 36.7651 0.0000 29.1151 0.0000
# 3 14.2895 36.7651 75.5117 0.0000 21.7304 0.0000
# 4 0.0000 0.0000 0.0000 36.9660 0.0000 18.2155
# 5 3.7129 29.1151 21.7304 0.0000 34.5164 0.0000
# 6 0.0000 0.0000 0.0000 18.2155 0.0000 20.9819
#
#
#
# Elastic Compliance Matrix: (Units=1/GPa)
#
#
# Indices 1 2 3 4 5 6 
#
# 1 0.031809 -0.013182 -0.002218 0.000000 0.009094 0.000000
# 2 -0.013182 0.016073 -0.002244 0.000000 -0.010727 0.000000
# 3 -0.002218 -0.002244 0.017271 0.000000 -0.008742 0.000000
# 4 0.000000 0.000000 0.000000 0.047276 0.000000 -0.041043
# 5 0.009094 -0.010727 -0.008742 0.000000 0.042545 0.000000
# 6 0.000000 0.000000 0.000000 -0.041043 0.000000 0.083292
#
#
# Mechanical properties :
#
#
# Convention : Reuss Voigt Hill
#
# Bulk Modulus (GPa) = 33.48544 49.30748 41.39646
# Shear Modulus (GPa) = 17.63603 28.71567 23.17585
#
# Velocity S-wave (km/s) = 2.89018 3.68794 3.31316
# Velocity P-wave (km/s) = 5.19591 6.44116 5.85175
#
# Compressibility (1/GPa) = 0.02986372
#
# Stress axis : x y z
#
# Youngs Moduli (GPa) = 31.43774 62.21594 57.90039
#
# Poissons Ratio (x) = 0.82014 0.12844
# Poissons Ratio (y) = 0.41442 0.12994
# Poissons Ratio (z) = 0.06974 0.13962
#
# Static dielectric constant tensor:
#      x y z
#    x 3.435570 0.000000 0.419720 
#    y 0.000000 3.860670 0.000000 
#    z 0.419720 0.000000 4.555010 
# 
# 
# High freq. dielectric constant tensor:
#      x y z
#    x 1.785780 0.000000 0.017290 
#    y 0.000000 1.824010 0.000000 
#    z 0.017290 0.000000 1.849830 
# 
# From -- ./inp_files/10881.got.cif
#   From: 2010.06.25/outbox.cif.g09.slc.cpg/sg13_6_cif.got.tgz:10881.got - 2010.06.28 04:50:58.
