data_PCOD8120778
_publ_section_title
;
Structure prediction by ZEFSAII (Michael W. Deem and Ramdas Pophale) SiO2 
 PCOD8120778
Probable space group: P 2/C
;
_chemical_formula_sum "Si O2"
_cell_formula_units_Z 18
_cell_length_a 14.902327
_cell_length_b 5.314619
_cell_length_c 10.501543
_cell_angle_alpha 90.000000
_cell_angle_beta 132.279513
_cell_angle_gamma 90.000000
_cell_volume 615.369195
_symmetry_space_group_name_H-M "P 2/C"
_symmetry_group_IT_number 13
_symmetry_cell_setting 'monoclinic'
loop_
_space_group_symop_operation_xyz
x,y,z
-x,y,1/2-z
-x,-y,-z
x,-y,1/2+z
loop_
_atom_site_type_symbol
_atom_site_label
_atom_site_fract_x
_atom_site_fract_y
_atom_site_fract_z
Si Si1 0.193016 0.563290 0.266072
Si Si2 0.136313 0.946374 0.583250
Si Si3 0.000000 0.746934 0.250000
Si Si4 0.425475 0.108798 0.808851
Si Si5 0.634884 0.386649 0.336240
O O1 0.195898 0.322041 0.179214
O O2 0.289176 0.525713 0.470860
O O3 0.056724 0.571764 0.194108
O O4 0.220255 0.822158 0.211554
O O5 0.112973 0.917591 0.408440
O O6 0.000000 0.000000 0.500000
O O7 0.500000 0.166118 0.750000
O O8 0.323213 0.890726 0.681023
O O9 0.368416 0.392117 0.776467
O O10 0.500000 0.000000 0.000000
O O11 0.500000 0.308975 0.250000
#
# Coordination Sequence:
#
# PCOD8120778 Si02
#       5
#     4   4   2   4   4
#     4  11  23  42  65  96 127 170 217 262 328 388
#     4  10  22  40  66  90 131 164 214 271 320 391
#     4  10  22  42  64  96 124 168 214 274 332 378
#     4  10  21  42  68  92 133 178 222 271 323 389
#     4  10  22  43  65  95 133 172 216 266 327 397
#
# _framework density 29.250733
#
# number of rings (size 3 to 8) (size 9 to 14) (size 15 to 20)
#    0.000    1.778    0.000    4.667    0.000    8.000 
#   24.000    0.000    0.000    0.000    0.000    0.000 
#    0.000    0.000    0.000    0.000    0.000    0.000 
#
# Total GULP energy -223124.322206 kJ/mol
# GULP energy per Si atom -12395.795678 kJ/mol
# Density = 2.918416 g / cm^3
# Si number density = 29.250733 Si / 1000 Ang^3
#
#
#
# Elastic Constant Matrix: (Units=GPa)
#
#
# Indices 1 2 3 4 5 6 
#
# 1 60.2871 47.6718 -6.5133 0.0000 1.3374 0.0000
# 2 47.6718 283.4103 81.4088 0.0000 -0.6136 0.0000
# 3 -6.5133 81.4088 197.5275 0.0000 -1.2359 0.0000
# 4 0.0000 0.0000 0.0000 59.6221 0.0000 -3.7195
# 5 1.3374 -0.6136 -1.2359 0.0000 43.1370 0.0000
# 6 0.0000 0.0000 0.0000 -3.7195 0.0000 48.9707
#
#
#
# Elastic Compliance Matrix: (Units=1/GPa)
#
#
# Indices 1 2 3 4 5 6 
#
# 1 0.020047 -0.004040 0.002322 0.000000 -0.000612 0.000000
# 2 -0.004040 0.004817 -0.002118 0.000000 0.000133 0.000000
# 3 0.002322 -0.002118 0.006012 0.000000 0.000070 0.000000
# 4 0.000000 0.000000 0.000000 0.016852 0.000000 0.001280
# 5 -0.000612 0.000133 0.000070 0.000000 0.023205 0.000000
# 6 0.000000 0.000000 0.000000 0.001280 0.000000 0.020518
#
#
# Mechanical properties :
#
#
# Convention : Reuss Voigt Hill
#
# Bulk Modulus (GPa) = 43.09494 87.37329 65.23411
# Shear Modulus (GPa) = 46.79185 58.25648 52.52417
#
# Velocity S-wave (km/s) = 4.00394 4.46760 4.24211
# Velocity P-wave (km/s) = 6.01168 7.51984 6.80765
#
# Compressibility (1/GPa) = 0.02320458
#
# Stress axis : x y z
#
# Youngs Moduli (GPa) = 49.88342 207.61419 166.32530
#
# Poissons Ratio (x) = 0.83885 -0.38628
# Poissons Ratio (y) = 0.20155 0.35220
# Poissons Ratio (z) = -0.11585 0.43963
#
# Static dielectric constant tensor:
#      x y z
#    x 6.136070 0.000000 -0.023280 
#    y 0.000000 6.358050 0.000000 
#    z -0.023280 0.000000 6.087000 
# 
# 
# High freq. dielectric constant tensor:
#      x y z
#    x 2.265230 0.000000 0.019700 
#    y 0.000000 2.215910 0.000000 
#    z 0.019700 0.000000 2.186290 
# 
# From -- ./inp_files/39602.got.cif
#   From: 2010.06.25/outbox.cif.g09.slc.cpg/sg13_20_cif.got.tgz:39602.got - 2010.06.28 04:50:58.
