data_PCOD8120448
_publ_section_title
;
Structure prediction by ZEFSAII (Michael W. Deem and Ramdas Pophale) SiO2 
 PCOD8120448
Probable space group: P 2/C
;
_chemical_formula_sum "Si O2"
_cell_formula_units_Z 32
_cell_length_a 8.539589
_cell_length_b 12.368370
_cell_length_c 29.798915
_cell_angle_alpha 90.000000
_cell_angle_beta 29.261361
_cell_angle_gamma 90.000000
_cell_volume 1538.423713
_symmetry_space_group_name_H-M "P 2/C"
_symmetry_group_IT_number 13
_symmetry_cell_setting 'monoclinic'
loop_
_space_group_symop_operation_xyz
x,y,z
-x,y,1/2-z
-x,-y,-z
x,-y,1/2+z
loop_
_atom_site_type_symbol
_atom_site_label
_atom_site_fract_x
_atom_site_fract_y
_atom_site_fract_z
Si Si1 0.410264 0.992819 0.573994
Si Si2 0.251336 0.582952 0.148804
Si Si3 0.264728 0.837522 0.941483
Si Si4 0.135116 0.551603 0.343779
Si Si5 0.941903 0.687369 0.884930
Si Si6 0.626740 0.625797 0.534173
Si Si7 0.660169 0.209217 0.540930
Si Si8 0.849479 0.156409 0.240873
O O1 0.678312 0.918206 0.531094
O O2 0.054591 0.945139 0.671074
O O3 0.500000 0.000000 0.500000
O O4 0.411611 0.113903 0.592474
O O5 0.499456 0.484506 0.087406
O O6 0.451751 0.690214 0.109584
O O7 0.000000 0.559570 0.250000
O O8 0.063290 0.592703 0.149288
O O9 0.368157 0.716329 0.929046
O O10 0.483341 0.875575 0.844184
O O11 0.892275 0.836478 0.021843
O O12 0.500000 0.591066 0.250000
O O13 0.124511 0.422157 0.351628
O O14 0.982296 0.605999 0.426058
O O15 0.593186 0.661796 0.952400
O O16 0.155532 0.749872 0.794961
O O17 0.887995 0.760063 0.942196
O O18 0.000000 0.199870 0.250000
#
# Coordination Sequence:
#
# PCOD8120448 Si02
#       8
#     4   4   4   4   4   4   4   4
#     4  11  22  44  70  90 127 175 218 272 347 396
#     4  11  26  40  63  97 136 183 216 268 342 404
#     4  11  26  39  71 101 130 167 229 286 326 394
#     4  11  25  40  66  97 138 177 232 273 319 406
#     4  11  20  40  64  95 131 180 216 265 342 385
#     4  11  21  44  66  91 138 178 220 270 332 398
#     4  12  24  43  65  97 135 172 217 276 341 402
#     4  10  21  39  67 101 120 169 226 276 324 393
#
# _framework density 20.800509999999999
#
# number of rings (size 3 to 8) (size 9 to 14) (size 15 to 20)
#    0.000    1.000    6.250    1.125    7.000    2.000 
#    0.000    0.000    0.000    0.000    0.000    0.000 
#    0.000    0.000    0.000    0.000    0.000    0.000 
#
# Total GULP energy -396866.545086 kJ/mol
# GULP energy per Si atom -12402.079534 kJ/mol
# Density = 2.075317 g / cm^3
# Si number density = 20.800510 Si / 1000 Ang^3
#
#
#
# Elastic Constant Matrix: (Units=GPa)
#
#
# Indices 1 2 3 4 5 6 
#
# 1 50.9467 32.5837 35.9708 0.0000 2.0126 0.0000
# 2 32.5837 108.8997 40.1003 0.0000 0.8257 0.0000
# 3 35.9708 40.1003 142.4893 0.0000 7.3398 0.0000
# 4 0.0000 0.0000 0.0000 25.7032 0.0000 13.8405
# 5 2.0126 0.8257 7.3398 0.0000 32.3316 0.0000
# 6 0.0000 0.0000 0.0000 13.8405 0.0000 7.9484
#
#
#
# Elastic Compliance Matrix: (Units=1/GPa)
#
#
# Indices 1 2 3 4 5 6 
#
# 1 0.027254 -0.006276 -0.005094 0.000000 -0.000380 0.000000
# 2 -0.006276 0.011695 -0.001732 0.000000 0.000485 0.000000
# 3 -0.005094 -0.001732 0.008877 0.000000 -0.001654 0.000000
# 4 0.000000 0.000000 0.000000 0.623821 0.000000 -1.086250
# 5 -0.000380 0.000485 -0.001654 0.000000 0.031316 0.000000
# 6 0.000000 0.000000 0.000000 -1.086250 0.000000 2.017282
#
#
# Mechanical properties :
#
#
# Convention : Reuss Voigt Hill
#
# Bulk Modulus (GPa) = 46.25106 57.73839 51.99473
# Shear Modulus (GPa) = 1.81577 26.10870 13.96224
#
# Velocity S-wave (km/s) = 0.93533 3.54672 2.59365
# Velocity P-wave (km/s) = 4.84255 6.67763 5.83271
#
# Compressibility (1/GPa) = 0.02162112
#
# Stress axis : x y z
#
# Youngs Moduli (GPa) = 36.69179 85.50962 112.65427
#
# Poissons Ratio (x) = 0.53665 0.57391
# Poissons Ratio (y) = 0.23027 0.19510
# Poissons Ratio (z) = 0.18692 0.14809
#
# Static dielectric constant tensor:
#      x y z
#    x 3.725160 0.000000 -0.003850 
#    y 0.000000 3.886750 0.000000 
#    z -0.003850 0.000000 3.908150 
# 
# 
# High freq. dielectric constant tensor:
#      x y z
#    x 1.803630 0.000000 0.006380 
#    y 0.000000 1.813410 0.000000 
#    z 0.006380 0.000000 1.816590 
# 
# From -- ./inp_files/96113.got.cif
#   From: 2010.06.25/outbox.cif.g09.slc.cpg/sg13_49_cif.got.tgz:96113.got - 2010.06.28 04:50:58.
