data_PCOD8120297
_publ_section_title
;
Structure prediction by ZEFSAII (Michael W. Deem and Ramdas Pophale) SiO2 
 PCOD8120297
Probable space group: P 2/C
;
_chemical_formula_sum "Si O2"
_cell_formula_units_Z 30
_cell_length_a 23.762505
_cell_length_b 9.002088
_cell_length_c 15.013016
_cell_angle_alpha 90.000000
_cell_angle_beta 28.152272
_cell_angle_gamma 90.000000
_cell_volume 1515.222867
_symmetry_space_group_name_H-M "P 2/C"
_symmetry_group_IT_number 13
_symmetry_cell_setting 'monoclinic'
loop_
_space_group_symop_operation_xyz
x,y,z
-x,y,1/2-z
-x,-y,-z
x,-y,1/2+z
loop_
_atom_site_type_symbol
_atom_site_label
_atom_site_fract_x
_atom_site_fract_y
_atom_site_fract_z
Si Si1 0.579793 0.186910 0.721021
Si Si2 0.549225 0.661877 0.939411
Si Si3 0.418822 0.161485 0.281726
Si Si4 0.000000 0.228838 0.750000
Si Si5 0.833826 0.207060 0.292835
Si Si6 0.942894 0.364257 0.528033
Si Si7 0.847918 0.866759 0.303103
Si Si8 0.814408 0.621233 0.634740
O O1 0.500000 0.242118 0.750000
O O2 0.715773 0.240276 0.515091
O O3 0.565726 0.012600 0.755218
O O4 0.534398 0.258475 0.873651
O O5 0.535670 0.750115 0.866912
O O6 0.684743 0.653298 0.779630
O O7 0.500000 0.500000 0.000000
O O8 0.500000 0.216878 0.250000
O O9 0.281334 0.196425 0.491863
O O10 0.929680 0.126694 0.777348
O O11 0.091379 0.333472 0.571216
O O12 0.827888 0.277541 0.203215
O O13 0.845736 0.030414 0.264146
O O14 0.951082 0.281443 0.176385
O O15 0.894813 0.243241 0.663112
O O16 0.837287 0.442866 0.618407
O O17 0.000000 0.500000 0.500000
#
# Coordination Sequence:
#
# PCOD8120297 Si02
#       8
#     4   4   4   2   4   4   4   4
#     4  10  21  42  68  91 129 172 216 270 323 379
#     4  12  26  41  62 101 132 169 220 269 327 393
#     4  10  24  44  66  95 128 175 221 271 327 379
#     4  12  22  40  64  94 132 166 210 262 326 372
#     4  10  21  41  68  94 122 171 218 260 322 382
#     4  10  21  38  64  90 126 167 207 251 320 389
#     4  11  22  40  69  95 125 168 221 266 320 383
#     4  11  24  42  64  89 132 174 206 265 328 390
#
# _framework density 19.799066
#
# number of rings (size 3 to 8) (size 9 to 14) (size 15 to 20)
#    0.000    1.333    5.333    0.800    1.867    3.733 
#    0.000    3.333    0.000    0.000    0.000    0.000 
#    0.000    0.000    0.000    0.000    0.000    0.000 
#
# Total GULP energy -371904.306972 kJ/mol
# GULP energy per Si atom -12396.810232 kJ/mol
# Density = 1.975400 g / cm^3
# Si number density = 19.799066 Si / 1000 Ang^3
#
#
#
# Elastic Constant Matrix: (Units=GPa)
#
#
# Indices 1 2 3 4 5 6 
#
# 1 101.9596 56.6136 65.1351 0.0000 10.9328 0.0000
# 2 56.6136 94.3678 79.8777 0.0000 5.4289 0.0000
# 3 65.1351 79.8777 169.8759 0.0000 12.9295 0.0000
# 4 0.0000 0.0000 0.0000 73.1207 0.0000 15.9640
# 5 10.9328 5.4289 12.9295 0.0000 21.0355 0.0000
# 6 0.0000 0.0000 0.0000 15.9640 0.0000 32.9368
#
#
#
# Elastic Compliance Matrix: (Units=1/GPa)
#
#
# Indices 1 2 3 4 5 6 
#
# 1 0.015839 -0.007302 -0.002262 0.000000 -0.004957 0.000000
# 2 -0.007302 0.020976 -0.007281 0.000000 0.002857 0.000000
# 3 -0.002262 -0.007281 0.010433 0.000000 -0.003358 0.000000
# 4 0.000000 0.000000 0.000000 0.015294 0.000000 -0.007413
# 5 -0.004957 0.002857 -0.003358 0.000000 0.051442 0.000000
# 6 0.000000 0.000000 0.000000 -0.007413 0.000000 0.033954
#
#
# Mechanical properties :
#
#
# Convention : Reuss Voigt Hill
#
# Bulk Modulus (GPa) = 73.75806 85.49514 79.62660
# Shear Modulus (GPa) = 26.86026 36.39037 31.62532
#
# Velocity S-wave (km/s) = 3.68726 4.29182 4.00098
# Velocity P-wave (km/s) = 7.44728 8.23619 7.85165
#
# Compressibility (1/GPa) = 0.01355784
#
# Stress axis : x y z
#
# Youngs Moduli (GPa) = 63.13470 47.67333 95.84827
#
# Poissons Ratio (x) = 0.34812 0.21684
# Poissons Ratio (y) = 0.46102 0.69785
# Poissons Ratio (z) = 0.14283 0.34710
#
# Static dielectric constant tensor:
#      x y z
#    x 3.737310 0.000000 -0.308480 
#    y 0.000000 3.802860 0.000000 
#    z -0.308480 0.000000 3.811370 
# 
# 
# High freq. dielectric constant tensor:
#      x y z
#    x 1.763240 0.000000 -0.009680 
#    y 0.000000 1.775410 0.000000 
#    z -0.009680 0.000000 1.794720 
# 
# From -- ./inp_files/58689.got.cif
#   From: 2010.06.25/outbox.cif.g09.slc.cpg/sg13_30_cif.got.tgz:58689.got - 2010.06.28 04:50:58.
