data_PCOD8120477
_publ_section_title
;
Structure prediction by ZEFSAII (Michael W. Deem and Ramdas Pophale) SiO2 
 PCOD8120477
Probable space group: P 2/C
;
_chemical_formula_sum "Si O2"
_cell_formula_units_Z 22
_cell_length_a 10.041100
_cell_length_b 14.170104
_cell_length_c 7.976639
_cell_angle_alpha 90.000000
_cell_angle_beta 78.978001
_cell_angle_gamma 90.000000
_cell_volume 1114.008227
_symmetry_space_group_name_H-M "P 2/C"
_symmetry_group_IT_number 13
_symmetry_cell_setting 'monoclinic'
loop_
_space_group_symop_operation_xyz
x,y,z
-x,y,1/2-z
-x,-y,-z
x,-y,1/2+z
loop_
_atom_site_type_symbol
_atom_site_label
_atom_site_fract_x
_atom_site_fract_y
_atom_site_fract_z
Si Si1 0.270775 0.625420 0.736974
Si Si2 0.859316 0.881020 0.988354
Si Si3 0.000000 0.040214 0.750000
Si Si4 0.542829 0.896593 0.048068
Si Si5 0.500000 0.230582 0.250000
Si Si6 0.000000 0.278882 0.250000
Si Si7 0.604328 0.547316 0.099774
O O1 0.365707 0.706996 0.783530
O O2 0.114684 0.654313 0.804721
O O3 0.297589 0.615649 0.529261
O O4 0.301709 0.528135 0.825870
O O5 0.931047 0.786743 0.905856
O O6 0.906436 0.976197 0.887723
O O7 0.701046 0.875876 0.997200
O O8 0.898745 0.891501 0.172941
O O9 0.500000 0.875821 0.250000
O O10 0.476593 0.828646 0.925457
O O11 0.500000 0.000000 0.000000
O O12 0.500000 0.602771 0.250000
O O13 0.500000 0.500000 0.000000
#
# Coordination Sequence:
#
# PCOD8120477 Si02
#       7
#     4   4   2   4   2   2   4
#     4  11  22  42  65  97 126 175 212 274 342 397
#     4  10  21  40  58  90 122 175 214 277 327 387
#     4   9  20  36  64  77 120 170 220 255 338 398
#     4  12  25  41  66  97 134 176 229 277 330 386
#     4  12  24  42  68  98 136 174 224 280 326 388
#     4  11  24  40  60  87 140 164 218 269 332 398
#     4   9  18  38  68  92 122 158 211 268 333 397
#
# _framework density 19.748508000000001
#
# number of rings (size 3 to 8) (size 9 to 14) (size 15 to 20)
#    0.000    1.455    5.455    1.091    0.000    4.364 
#    0.000    3.636    0.000    0.000    0.000    0.000 
#    0.000    0.000    0.000    0.000    0.000    0.000 
#
# Total GULP energy -272670.328716 kJ/mol
# GULP energy per Si atom -12394.105851 kJ/mol
# Density = 1.970356 g / cm^3
# Si number density = 19.748508 Si / 1000 Ang^3
#
#
#
# Elastic Constant Matrix: (Units=GPa)
#
#
# Indices 1 2 3 4 5 6 
#
# 1 150.3710 55.3437 46.0118 0.0000 -0.9194 0.0000
# 2 55.3437 85.4945 43.4953 0.0000 4.5551 0.0000
# 3 46.0118 43.4953 126.4567 0.0000 5.3057 0.0000
# 4 0.0000 0.0000 0.0000 14.8623 0.0000 30.9597
# 5 -0.9194 4.5551 5.3057 0.0000 30.2521 0.0000
# 6 0.0000 0.0000 0.0000 30.9597 0.0000 -7.1082
#
#
#
# Elastic Compliance Matrix: (Units=1/GPa)
#
#
# Indices 1 2 3 4 5 6 
#
# 1 0.009021 -0.005105 -0.001582 0.000000 0.001320 0.000000
# 2 -0.005105 0.017117 -0.003944 0.000000 -0.002041 0.000000
# 3 -0.001582 -0.003944 0.009890 0.000000 -0.001189 0.000000
# 4 0.000000 0.000000 0.000000 0.006680 0.000000 0.029093
# 5 0.001320 -0.002041 -0.001189 0.000000 0.033611 0.000000
# 6 0.000000 0.000000 0.000000 0.029093 0.000000 -0.013966
#
#
# Mechanical properties :
#
#
# Convention : Reuss Voigt Hill
#
# Bulk Modulus (GPa) = 67.72641 72.44709 70.08675
# Shear Modulus (GPa) = 56.47329 22.09936 39.28633
#
# Velocity S-wave (km/s) = 5.35335 3.34883 4.46503
# Velocity P-wave (km/s) = 8.51939 7.19148 7.88344
#
# Compressibility (1/GPa) = 0.01476529
#
# Stress axis : x y z
#
# Youngs Moduli (GPa) = 110.84808 58.42174 101.11342
#
# Poissons Ratio (x) = 0.29827 0.15994
# Poissons Ratio (y) = 0.56593 0.39881
# Poissons Ratio (z) = 0.17534 0.23043
#
# Static dielectric constant tensor:
#      x y z
#    x 3.672710 0.000000 0.002180 
#    y 0.000000 3.535980 0.000000 
#    z 0.002180 0.000000 5.333250 
# 
# 
# High freq. dielectric constant tensor:
#      x y z
#    x 1.772790 0.000000 0.006520 
#    y 0.000000 1.760570 0.000000 
#    z 0.006520 0.000000 1.778860 
# 
# From -- ./inp_files/12340.got.cif
#   From: 2010.06.25/outbox.cif.g09.slc.cpg/sg13_7_cif.got.tgz:12340.got - 2010.06.28 04:50:58.
