data_PCOD8120776
_publ_section_title
;
Structure prediction by ZEFSAII (Michael W. Deem and Ramdas Pophale) SiO2 
 PCOD8120776
Probable space group: P 2/C
;
_chemical_formula_sum "Si O2"
_cell_formula_units_Z 28
_cell_length_a 17.185321
_cell_length_b 5.232981
_cell_length_c 10.434996
_cell_angle_alpha 90.000000
_cell_angle_beta 92.013440
_cell_angle_gamma 90.000000
_cell_volume 937.844602
_symmetry_space_group_name_H-M "P 2/C"
_symmetry_group_IT_number 13
_symmetry_cell_setting 'monoclinic'
loop_
_space_group_symop_operation_xyz
x,y,z
-x,y,1/2-z
-x,-y,-z
x,-y,1/2+z
loop_
_atom_site_type_symbol
_atom_site_label
_atom_site_fract_x
_atom_site_fract_y
_atom_site_fract_z
Si Si1 0.942130 0.899688 0.130592
Si Si2 0.700912 0.943477 0.957924
Si Si3 0.451883 0.404849 0.875013
Si Si4 0.588822 0.096405 0.219083
Si Si5 0.189692 0.245863 0.711170
Si Si6 0.263656 0.564116 0.899803
Si Si7 0.093777 0.600657 0.991474
O O1 0.851254 0.896689 0.171870
O O2 0.000000 0.946952 0.250000
O O3 0.049963 0.869787 0.968839
O O4 0.961877 0.632339 0.058374
O O5 0.778406 0.031339 0.885842
O O6 0.696180 0.147955 0.079323
O O7 0.630901 0.979031 0.851612
O O8 0.701764 0.645169 0.997746
O O9 0.500000 0.334655 0.750000
O O10 0.385916 0.622050 0.840651
O O11 0.408819 0.128536 0.892408
O O12 0.500000 0.500000 0.000000
O O13 0.500000 0.173022 0.250000
O O14 0.120968 0.414062 0.641136
O O15 0.262149 0.431835 0.757700
O O16 0.171812 0.592159 0.912671
#
# Coordination Sequence:
#
# PCOD8120776 Si02
#       7
#     4   4   4   4   4   4   4
#     4  11  24  40  62  95 126 162 207 255 312 374
#     4  11  23  42  64  93 124 164 218 257 320 382
#     4  10  21  42  68  92 132 174 214 268 332 399
#     4  10  22  43  65  94 129 167 211 273 330 392
#     4  10  22  41  64  90 124 168 208 259 316 366
#     4  10  22  40  64  92 124 164 210 265 308 378
#     4  10  22  40  64  87 129 162 206 257 306 378
#
# _framework density 29.855692999999999
#
# number of rings (size 3 to 8) (size 9 to 14) (size 15 to 20)
#    0.000    1.714    0.000    5.143    0.000   11.429 
#   15.429    0.000    0.000    0.000    0.000    0.000 
#    0.000    0.000    0.000    0.000    0.000    0.000 
#
# Total GULP energy -347138.699070 kJ/mol
# GULP energy per Si atom -12397.810681 kJ/mol
# Density = 2.978774 g / cm^3
# Si number density = 29.855693 Si / 1000 Ang^3
#
#
#
# Elastic Constant Matrix: (Units=GPa)
#
#
# Indices 1 2 3 4 5 6 
#
# 1 79.0590 55.3984 9.2303 0.0000 23.0836 0.0000
# 2 55.3984 267.4743 93.3583 0.0000 28.4476 0.0000
# 3 9.2303 93.3583 174.6089 0.0000 52.8170 0.0000
# 4 0.0000 0.0000 0.0000 45.8244 0.0000 12.7681
# 5 23.0836 28.4476 52.8170 0.0000 55.5900 0.0000
# 6 0.0000 0.0000 0.0000 12.7681 0.0000 47.4584
#
#
#
# Elastic Compliance Matrix: (Units=1/GPa)
#
#
# Indices 1 2 3 4 5 6 
#
# 1 0.017692 -0.004095 0.003989 0.000000 -0.009041 0.000000
# 2 -0.004095 0.005544 -0.003374 0.000000 0.002069 0.000000
# 3 0.003989 -0.003374 0.010243 0.000000 -0.009662 0.000000
# 4 0.000000 0.000000 0.000000 0.023591 0.000000 -0.006347
# 5 -0.009041 0.002069 -0.009662 0.000000 0.029864 0.000000
# 6 0.000000 0.000000 0.000000 -0.006347 0.000000 0.022779
#
#
# Mechanical properties :
#
#
# Convention : Reuss Voigt Hill
#
# Bulk Modulus (GPa) = 37.70726 93.01290 65.36008
# Shear Modulus (GPa) = 39.83662 53.98491 46.91076
#
# Velocity S-wave (km/s) = 3.65678 4.25690 3.96820
# Velocity P-wave (km/s) = 5.52147 7.44200 6.55248
#
# Compressibility (1/GPa) = 0.02652009
#
# Stress axis : x y z
#
# Youngs Moduli (GPa) = 56.52112 180.36278 97.63197
#
# Poissons Ratio (x) = 0.73862 -0.38947
# Poissons Ratio (y) = 0.23146 0.32938
# Poissons Ratio (z) = -0.22547 0.60848
#
# Static dielectric constant tensor:
#      x y z
#    x 6.326180 0.000000 -0.216760 
#    y 0.000000 6.385660 0.000000 
#    z -0.216760 0.000000 5.687500 
# 
# 
# High freq. dielectric constant tensor:
#      x y z
#    x 2.284680 0.000000 -0.016640 
#    y 0.000000 2.245410 0.000000 
#    z -0.016640 0.000000 2.213200 
# 
# From -- ./inp_files/40159.got.cif
#   From: 2010.06.25/outbox.cif.g09.slc.cpg/sg13_21_cif.got.tgz:40159.got - 2010.06.28 04:50:58.
