data_PCOD8120714
_publ_section_title
;
Structure prediction by ZEFSAII (Michael W. Deem and Ramdas Pophale) SiO2 
 PCOD8120714
Probable space group: P 2/C
;
_chemical_formula_sum "Si O2"
_cell_formula_units_Z 26
_cell_length_a 13.096852
_cell_length_b 9.807484
_cell_length_c 14.157704
_cell_angle_alpha 90.000000
_cell_angle_beta 39.110895
_cell_angle_gamma 90.000000
_cell_volume 1147.162988
_symmetry_space_group_name_H-M "P 2/C"
_symmetry_group_IT_number 13
_symmetry_cell_setting 'monoclinic'
loop_
_space_group_symop_operation_xyz
x,y,z
-x,y,1/2-z
-x,-y,-z
x,-y,1/2+z
loop_
_atom_site_type_symbol
_atom_site_label
_atom_site_fract_x
_atom_site_fract_y
_atom_site_fract_z
Si Si1 0.178554 0.817401 0.607919
Si Si2 0.969696 0.646937 0.478406
Si Si3 0.376028 0.634187 0.695097
Si Si4 0.644250 0.929145 0.847640
Si Si5 0.860566 0.904651 0.064055
Si Si6 0.000000 0.598326 0.250000
Si Si7 0.673349 0.547235 0.977544
O O1 0.212405 0.899253 0.680396
O O2 0.177569 0.919303 0.519797
O O3 0.318728 0.703025 0.490257
O O4 0.000000 0.750803 0.750000
O O5 0.775461 0.660610 0.626699
O O6 0.026326 0.679026 0.329628
O O7 0.000000 0.500000 0.500000
O O8 0.081072 0.750113 0.458577
O O9 0.433114 0.788550 0.636162
O O10 0.325005 0.552441 0.637477
O O11 0.524340 0.540934 0.629076
O O12 0.700683 0.039426 0.729823
O O13 0.500000 0.000000 0.000000
O O14 0.000000 0.000000 0.000000
O O15 0.841257 0.514689 0.390422
#
# Coordination Sequence:
#
# PCOD8120714 Si02
#       7
#     4   4   4   4   4   2   4
#     4  11  21  43  79 102 138 190 248 296 361 443
#     4  12  25  43  70 106 145 184 240 303 360 438
#     4  10  22  45  68 100 151 183 230 312 365 421
#     4  11  26  45  71 106 147 190 240 308 362 434
#     4  12  24  46  73 105 142 195 242 292 364 436
#     4  12  24  38  68 106 134 184 238 288 360 436
#     4  10  21  41  72 103 137 186 237 294 368 432
#
# _framework density 22.664607
#
# number of rings (size 3 to 8) (size 9 to 14) (size 15 to 20)
#    0.000    0.923    5.385    1.846    2.154    3.692 
#    0.000    4.615    0.000    0.000    0.000    0.000 
#    0.000    0.000    0.000    0.000    0.000    0.000 
#
# Total GULP energy -322117.253722 kJ/mol
# GULP energy per Si atom -12389.125143 kJ/mol
# Density = 2.261302 g / cm^3
# Si number density = 22.664607 Si / 1000 Ang^3
#
#
#
# Elastic Constant Matrix: (Units=GPa)
#
#
# Indices 1 2 3 4 5 6 
#
# 1 72.5245 27.0073 14.6957 0.0000 1.3263 0.0000
# 2 27.0073 121.4487 37.6202 0.0000 -4.5152 0.0000
# 3 14.6957 37.6202 106.0551 0.0000 0.9538 0.0000
# 4 0.0000 0.0000 0.0000 42.7307 0.0000 -10.2308
# 5 1.3263 -4.5152 0.9538 0.0000 44.7438 0.0000
# 6 0.0000 0.0000 0.0000 -10.2308 0.0000 35.4454
#
#
#
# Elastic Compliance Matrix: (Units=1/GPa)
#
#
# Indices 1 2 3 4 5 6 
#
# 1 0.015154 -0.003088 -0.000998 0.000000 -0.000740 0.000000
# 2 -0.003088 0.009925 -0.003103 0.000000 0.001159 0.000000
# 3 -0.000998 -0.003103 0.010673 0.000000 -0.000511 0.000000
# 4 0.000000 0.000000 0.000000 0.025140 0.000000 0.007256
# 5 -0.000740 0.001159 -0.000511 0.000000 0.022499 0.000000
# 6 0.000000 0.000000 0.000000 0.007256 0.000000 0.030307
#
#
# Mechanical properties :
#
#
# Convention : Reuss Voigt Hill
#
# Bulk Modulus (GPa) = 46.78690 50.96386 48.87538
# Shear Modulus (GPa) = 36.98211 39.29767 38.13989
#
# Velocity S-wave (km/s) = 4.04383 4.16850 4.10664
# Velocity P-wave (km/s) = 6.51854 6.76043 6.64059
#
# Compressibility (1/GPa) = 0.02137351
#
# Stress axis : x y z
#
# Youngs Moduli (GPa) = 65.98831 100.75532 93.69745
#
# Poissons Ratio (x) = 0.31117 0.09348
# Poissons Ratio (y) = 0.20380 0.29075
# Poissons Ratio (z) = 0.06584 0.31266
#
# Static dielectric constant tensor:
#      x y z
#    x 3.925690 0.000000 -0.045010 
#    y 0.000000 3.141010 0.000000 
#    z -0.045010 0.000000 4.242010 
# 
# 
# High freq. dielectric constant tensor:
#      x y z
#    x 1.894690 0.000000 -0.000940 
#    y 0.000000 1.884740 0.000000 
#    z -0.000940 0.000000 1.894250 
# 
# From -- ./inp_files/53306.got.cif
#   From: 2010.06.25/outbox.cif.g09.slc.cpg/sg13_27_cif.got.tgz:53306.got - 2010.06.28 04:50:58.
