data_PCOD8120818
_publ_section_title
;
Structure prediction by ZEFSAII (Michael W. Deem and Ramdas Pophale) SiO2 
 PCOD8120818
Probable space group: P 2/C
;
_chemical_formula_sum "Si O2"
_cell_formula_units_Z 28
_cell_length_a 26.385389
_cell_length_b 8.521273
_cell_length_c 9.644139
_cell_angle_alpha 90.000000
_cell_angle_beta 38.165027
_cell_angle_gamma 90.000000
_cell_volume 1339.891823
_symmetry_space_group_name_H-M "P 2/C"
_symmetry_group_IT_number 13
_symmetry_cell_setting 'monoclinic'
loop_
_space_group_symop_operation_xyz
x,y,z
-x,y,1/2-z
-x,-y,-z
x,-y,1/2+z
loop_
_atom_site_type_symbol
_atom_site_label
_atom_site_fract_x
_atom_site_fract_y
_atom_site_fract_z
Si Si1 0.725867 0.317576 0.199115
Si Si2 0.760580 0.433202 0.408886
Si Si3 0.057613 0.501818 0.007927
Si Si4 0.168559 0.037604 0.568100
Si Si5 0.323745 0.875526 0.326145
Si Si6 0.595794 0.920095 0.056211
Si Si7 0.914649 0.142793 0.490305
O O1 0.730671 0.442404 0.314204
O O2 0.639912 0.224893 0.382498
O O3 0.738580 0.400763 0.024772
O O4 0.802222 0.200296 0.064833
O O5 0.859304 0.400350 0.203229
O O6 0.707341 0.303329 0.604973
O O7 0.087107 0.330712 0.996014
O O8 0.000000 0.580723 0.250000
O O9 0.000000 0.500000 0.000000
O O10 0.243318 0.981878 0.503021
O O11 0.150485 0.913259 0.485496
O O12 0.096054 0.067493 0.834266
O O13 0.378549 0.921813 0.339553
O O14 0.377524 0.915261 0.073490
O O15 0.500000 0.892955 0.250000
O O16 0.000000 0.077767 0.250000
#
# Coordination Sequence:
#
# PCOD8120818 Si02
#       7
#     4   4   4   4   4   4   4
#     4  10  23  40  64  93 123 171 206 262 319 378
#     4  11  22  41  62  90 125 164 221 256 312 384
#     4  11  25  42  61  90 126 173 218 269 330 366
#     4  11  22  44  59  91 125 163 220 265 315 386
#     4  10  23  38  69  93 121 172 212 255 320 383
#     4  10  21  43  65  99 133 162 208 264 319 390
#     4  11  24  40  62  89 121 170 214 272 328 368
#
# _framework density 20.897210999999999
#
# number of rings (size 3 to 8) (size 9 to 14) (size 15 to 20)
#    0.000    1.429    1.429    4.286    6.000    2.286 
#    2.571    3.571    0.000    0.000    0.000    0.000 
#    0.000    0.000    0.000    0.000    0.000    0.000 
#
# Total GULP energy -347117.812004 kJ/mol
# GULP energy per Si atom -12397.064714 kJ/mol
# Density = 2.084965 g / cm^3
# Si number density = 20.897211 Si / 1000 Ang^3
#
#
#
# Elastic Constant Matrix: (Units=GPa)
#
#
# Indices 1 2 3 4 5 6 
#
# 1 121.4254 47.0241 51.3776 0.0000 -5.1091 0.0000
# 2 47.0241 75.8388 36.6269 0.0000 0.4910 0.0000
# 3 51.3776 36.6269 123.4778 0.0000 -16.6918 0.0000
# 4 0.0000 0.0000 0.0000 26.3778 0.0000 5.8368
# 5 -5.1091 0.4910 -16.6918 0.0000 30.9608 0.0000
# 6 0.0000 0.0000 0.0000 5.8368 0.0000 30.6877
#
#
#
# Elastic Compliance Matrix: (Units=1/GPa)
#
#
# Indices 1 2 3 4 5 6 
#
# 1 0.011838 -0.005820 -0.003152 0.000000 0.000346 0.000000
# 2 -0.005820 0.018500 -0.003490 0.000000 -0.003135 0.000000
# 3 -0.003152 -0.003490 0.011199 0.000000 0.005573 0.000000
# 4 0.000000 0.000000 0.000000 0.039576 0.000000 -0.007527
# 5 0.000346 -0.003135 0.005573 0.000000 0.035410 0.000000
# 6 0.000000 0.000000 0.000000 -0.007527 0.000000 0.034018
#
#
# Mechanical properties :
#
#
# Convention : Reuss Voigt Hill
#
# Bulk Modulus (GPa) = 60.19575 65.64436 62.92005
# Shear Modulus (GPa) = 27.62379 29.98615 28.80497
#
# Velocity S-wave (km/s) = 3.63972 3.79216 3.71673
# Velocity P-wave (km/s) = 6.82141 7.11725 6.97090
#
# Compressibility (1/GPa) = 0.01661247
#
# Stress axis : x y z
#
# Youngs Moduli (GPa) = 84.47551 54.05334 89.29474
#
# Poissons Ratio (x) = 0.31458 0.28150
# Poissons Ratio (y) = 0.49163 0.31164
# Poissons Ratio (z) = 0.26630 0.18864
#
# Static dielectric constant tensor:
#      x y z
#    x 3.669150 0.000000 0.230330 
#    y 0.000000 3.719310 0.000000 
#    z 0.230330 0.000000 4.784710 
# 
# 
# High freq. dielectric constant tensor:
#      x y z
#    x 1.813940 0.000000 0.012450 
#    y 0.000000 1.802500 0.000000 
#    z 0.012450 0.000000 1.829290 
# 
# From -- ./inp_files/24509.got.cif
#   From: 2010.06.25/outbox.cif.g09.slc.cpg/sg13_13_cif.got.tgz:24509.got - 2010.06.28 04:50:58.
