data_PCOD8120332
_publ_section_title
;
Structure prediction by ZEFSAII (Michael W. Deem and Ramdas Pophale) SiO2 
 PCOD8120332
Probable space group: P 2/C
;
_chemical_formula_sum "Si O2"
_cell_formula_units_Z 22
_cell_length_a 12.659572
_cell_length_b 17.148946
_cell_length_c 5.408240
_cell_angle_alpha 90.000000
_cell_angle_beta 66.327667
_cell_angle_gamma 90.000000
_cell_volume 1075.325343
_symmetry_space_group_name_H-M "P 2/C"
_symmetry_group_IT_number 13
_symmetry_cell_setting 'monoclinic'
loop_
_space_group_symop_operation_xyz
x,y,z
-x,y,1/2-z
-x,-y,-z
x,-y,1/2+z
loop_
_atom_site_type_symbol
_atom_site_label
_atom_site_fract_x
_atom_site_fract_y
_atom_site_fract_z
Si Si1 0.322491 0.166367 0.572900
Si Si2 0.000000 0.660572 0.250000
Si Si3 0.822065 0.549589 0.607713
Si Si4 0.881959 0.226916 0.488575
Si Si5 0.500000 0.760632 0.250000
Si Si6 0.296971 0.300729 0.218666
Si Si7 0.500000 0.049166 0.250000
O O1 0.197764 0.154494 0.830389
O O2 0.424148 0.178846 0.670027
O O3 0.300480 0.245933 0.451128
O O4 0.376805 0.097140 0.355420
O O5 0.935305 0.604133 0.503288
O O6 0.910900 0.714136 0.184163
O O7 0.819269 0.496715 0.366447
O O8 0.714744 0.609046 0.693732
O O9 0.808083 0.274133 0.358000
O O10 0.000000 0.194519 0.250000
O O11 0.421219 0.702764 0.478184
O O12 0.500000 0.000000 0.500000
#
# Coordination Sequence:
#
# PCOD8120332 Si02
#       7
#     4   2   4   4   2   4   2
#     4  11  22  42  70 101 136 177 219 282 330 404
#     4  12  22  40  58  98 128 184 226 302 332 408
#     4  12  26  40  59  91 136 183 229 295 357 393
#     4  11  21  37  67 100 133 174 240 280 329 395
#     4  10  21  38  70  93 122 172 234 282 333 386
#     4  11  22  39  66  90 132 177 241 278 336 411
#     4  12  27  46  76 115 144 168 216 272 349 412
#
# _framework density 20.458925000000001
#
# number of rings (size 3 to 8) (size 9 to 14) (size 15 to 20)
#    0.000    0.727    5.455    2.182    5.091    0.000 
#    0.000    0.909    0.000    1.091    0.000    0.000 
#    0.000    0.000    0.000    0.000    0.000    0.000 
#
# Total GULP energy -272576.295758 kJ/mol
# GULP energy per Si atom -12389.831625 kJ/mol
# Density = 2.041236 g / cm^3
# Si number density = 20.458925 Si / 1000 Ang^3
#
#
#
# Elastic Constant Matrix: (Units=GPa)
#
#
# Indices 1 2 3 4 5 6 
#
# 1 83.1763 23.7947 51.4865 0.0000 -25.7326 0.0000
# 2 23.7947 77.2866 45.5335 0.0000 -18.9091 0.0000
# 3 51.4865 45.5335 121.0364 0.0000 -27.5696 0.0000
# 4 0.0000 0.0000 0.0000 48.1973 0.0000 -8.3255
# 5 -25.7326 -18.9091 -27.5696 0.0000 56.9986 0.0000
# 6 0.0000 0.0000 0.0000 -8.3255 0.0000 25.1496
#
#
#
# Elastic Compliance Matrix: (Units=1/GPa)
#
#
# Indices 1 2 3 4 5 6 
#
# 1 0.017441 -0.000614 -0.006115 0.000000 0.004713 0.000000
# 2 -0.000614 0.017052 -0.005538 0.000000 0.002701 0.000000
# 3 -0.006115 -0.005538 0.013373 0.000000 0.001870 0.000000
# 4 0.000000 0.000000 0.000000 0.022006 0.000000 0.007285
# 5 0.004713 0.002701 0.001870 0.000000 0.021472 0.000000
# 6 0.000000 0.000000 0.000000 0.007285 0.000000 0.042174
#
#
# Mechanical properties :
#
#
# Convention : Reuss Voigt Hill
#
# Bulk Modulus (GPa) = 42.86136 58.12542 50.49339
# Shear Modulus (GPa) = 30.15139 36.78140 33.46639
#
# Velocity S-wave (km/s) = 3.84311 4.24467 4.04887
# Velocity P-wave (km/s) = 6.37872 7.24537 6.82582
#
# Compressibility (1/GPa) = 0.02333104
#
# Stress axis : x y z
#
# Youngs Moduli (GPa) = 57.33492 58.64535 74.78007
#
# Poissons Ratio (x) = 0.03603 0.45726
# Poissons Ratio (y) = 0.03522 0.41415
# Poissons Ratio (z) = 0.35058 0.32480
#
# Static dielectric constant tensor:
#      x y z
#    x 3.889900 0.000000 -0.346890 
#    y 0.000000 3.619880 0.000000 
#    z -0.346890 0.000000 4.332590 
# 
# 
# High freq. dielectric constant tensor:
#      x y z
#    x 1.800420 0.000000 -0.007790 
#    y 0.000000 1.761070 0.000000 
#    z -0.007790 0.000000 1.834740 
# 
# From -- ./inp_files/3613.got.cif
#   From: 2010.06.25/outbox.cif.g09.slc.cpg/sg13_2_cif.got.tgz:3613.got - 2010.06.28 04:50:58.
