data_PCOD8120420
_publ_section_title
;
Structure prediction by ZEFSAII (Michael W. Deem and Ramdas Pophale) SiO2 
 PCOD8120420
Probable space group: P 2/C
;
_chemical_formula_sum "Si O2"
_cell_formula_units_Z 26
_cell_length_a 22.097525
_cell_length_b 9.778640
_cell_length_c 16.323226
_cell_angle_alpha 90.000000
_cell_angle_beta 19.256778
_cell_angle_gamma 90.000000
_cell_volume 1163.273410
_symmetry_space_group_name_H-M "P 2/C"
_symmetry_group_IT_number 13
_symmetry_cell_setting 'monoclinic'
loop_
_space_group_symop_operation_xyz
x,y,z
-x,y,1/2-z
-x,-y,-z
x,-y,1/2+z
loop_
_atom_site_type_symbol
_atom_site_label
_atom_site_fract_x
_atom_site_fract_y
_atom_site_fract_z
Si Si1 0.595948 0.520756 0.465464
Si Si2 0.137802 0.698080 0.671742
Si Si3 0.000000 0.544468 0.250000
Si Si4 0.170518 0.234825 0.810871
Si Si5 0.713493 0.973391 0.747602
Si Si6 0.500000 0.603671 0.250000
Si Si7 0.000000 0.933996 0.750000
Si Si8 0.872715 0.306032 0.067665
O O1 0.500000 0.500000 0.500000
O O2 0.642090 0.679755 0.421615
O O3 0.471276 0.482322 0.702934
O O4 0.783839 0.432384 0.230506
O O5 0.322441 0.699426 0.489055
O O6 0.139859 0.557092 0.617532
O O7 0.145254 0.835228 0.609143
O O8 0.957769 0.701254 0.956096
O O9 0.895072 0.645340 0.445737
O O10 0.220168 0.076912 0.765379
O O11 0.069237 0.256336 0.853157
O O12 0.863682 0.978544 0.481599
O O13 0.728157 0.818541 0.760218
O O14 0.500000 0.000000 0.000000
#
# Coordination Sequence:
#
# PCOD8120420 Si02
#       8
#     4   4   2   4   4   2   2   4
#     4  12  25  41  68 101 139 174 227 286 341 407
#     4  10  21  39  64  96 129 175 218 285 327 411
#     4  11  21  38  68  94 130 176 228 270 354 388
#     4  11  23  46  65  95 133 179 225 279 340 404
#     4  11  25  43  68  99 137 180 230 279 344 412
#     4  12  24  36  64 106 138 168 232 280 348 394
#     4   9  23  42  66  92 134 178 230 270 352 404
#     4  12  23  41  67  96 136 179 224 281 340 407
#
# _framework density 22.350721
#
# number of rings (size 3 to 8) (size 9 to 14) (size 15 to 20)
#    0.000    0.923    3.077    4.154    6.462    0.000 
#    0.000    1.538    0.000    4.615    0.000    0.000 
#    0.000    0.000    0.000    0.000    0.000    0.000 
#
# Total GULP energy -322225.378383 kJ/mol
# GULP energy per Si atom -12393.283784 kJ/mol
# Density = 2.229985 g / cm^3
# Si number density = 22.350721 Si / 1000 Ang^3
#
#
#
# Elastic Constant Matrix: (Units=GPa)
#
#
# Indices 1 2 3 4 5 6 
#
# 1 97.8314 14.5011 19.2841 0.0000 1.3826 0.0000
# 2 14.5011 98.5468 14.2187 0.0000 -1.1526 0.0000
# 3 19.2841 14.2187 73.8217 0.0000 -9.4902 0.0000
# 4 0.0000 0.0000 0.0000 6.0696 0.0000 -0.3661
# 5 1.3826 -1.1526 -9.4902 0.0000 42.1050 0.0000
# 6 0.0000 0.0000 0.0000 -0.3661 0.0000 24.0487
#
#
#
# Elastic Compliance Matrix: (Units=1/GPa)
#
#
# Indices 1 2 3 4 5 6 
#
# 1 0.010961 -0.001227 -0.002758 0.000000 -0.001015 0.000000
# 2 -0.001227 0.010576 -0.001724 0.000000 -0.000059 0.000000
# 3 -0.002758 -0.001724 0.015040 0.000000 0.003433 0.000000
# 4 0.000000 0.000000 0.000000 0.164906 0.000000 0.002510
# 5 -0.001015 -0.000059 0.003433 0.000000 0.024556 0.000000
# 6 0.000000 0.000000 0.000000 0.002510 0.000000 0.041621
#
#
# Mechanical properties :
#
#
# Convention : Reuss Voigt Hill
#
# Bulk Modulus (GPa) = 39.74534 40.68977 40.21756
# Shear Modulus (GPa) = 17.39352 29.25773 23.32563
#
# Velocity S-wave (km/s) = 2.79267 3.62197 3.23401
# Velocity P-wave (km/s) = 5.31223 5.97798 5.65491
#
# Compressibility (1/GPa) = 0.02516018
#
# Stress axis : x y z
#
# Youngs Moduli (GPa) = 91.22881 94.55302 66.48960
#
# Poissons Ratio (x) = 0.11601 0.18335
# Poissons Ratio (y) = 0.11194 0.11463
# Poissons Ratio (z) = 0.25157 0.16302
#
# Static dielectric constant tensor:
#      x y z
#    x 4.219770 0.000000 0.013470 
#    y 0.000000 4.041390 0.000000 
#    z 0.013470 0.000000 2.771610 
# 
# 
# High freq. dielectric constant tensor:
#      x y z
#    x 1.882260 0.000000 -0.003510 
#    y 0.000000 1.877550 0.000000 
#    z -0.003510 0.000000 1.876630 
# 
# From -- ./inp_files/71289.got.cif
#   From: 2010.06.25/outbox.cif.g09.slc.cpg/sg13_36_cif.got.tgz:71289.got - 2010.06.28 04:50:58.
