data_PCOD8120467
_publ_section_title
;
Structure prediction by ZEFSAII (Michael W. Deem and Ramdas Pophale) SiO2 
 PCOD8120467
Probable space group: P 2/C
;
_chemical_formula_sum "Si O2"
_cell_formula_units_Z 28
_cell_length_a 15.670110
_cell_length_b 5.493011
_cell_length_c 18.097221
_cell_angle_alpha 90.000000
_cell_angle_beta 120.242823
_cell_angle_gamma 90.000000
_cell_volume 1345.727648
_symmetry_space_group_name_H-M "P 2/C"
_symmetry_group_IT_number 13
_symmetry_cell_setting 'monoclinic'
loop_
_space_group_symop_operation_xyz
x,y,z
-x,y,1/2-z
-x,-y,-z
x,-y,1/2+z
loop_
_atom_site_type_symbol
_atom_site_label
_atom_site_fract_x
_atom_site_fract_y
_atom_site_fract_z
Si Si1 0.448052 0.698996 0.926942
Si Si2 0.031357 0.919898 0.341060
Si Si3 0.199613 0.551235 0.396028
Si Si4 0.255174 0.638710 0.772496
Si Si5 0.826982 0.856293 0.328722
Si Si6 0.644882 0.928193 0.005662
Si Si7 0.191625 0.827064 0.006907
O O1 0.374868 0.612010 0.830327
O O2 0.538254 0.844517 0.928373
O O3 0.500000 0.500000 0.000000
O O4 0.374981 0.855768 0.946200
O O5 0.094958 0.683987 0.347083
O O6 0.000000 0.046912 0.250000
O O7 0.937063 0.840906 0.346589
O O8 0.095781 0.100357 0.417950
O O9 0.202474 0.355851 0.330366
O O10 0.294166 0.725045 0.422079
O O11 0.215396 0.440276 0.485128
O O12 0.227290 0.390511 0.718558
O O13 0.225422 0.890275 0.718383
O O14 0.834216 0.841168 0.419644
O O15 0.712748 0.005357 0.966230
#
# Coordination Sequence:
#
# PCOD8120467 Si02
#       7
#     4   4   4   4   4   4   4
#     4  11  21  38  74 103 131 176 240 300 348 411
#     4  11  24  42  70 106 133 185 238 290 337 420
#     4  11  22  41  72 100 137 180 240 294 342 414
#     4  12  25  46  69 104 137 188 236 295 345 417
#     4  12  29  46  69 101 153 188 229 285 361 427
#     4  10  21  39  69 102 133 174 236 294 353 408
#     4  11  25  44  70  97 145 188 228 288 362 420
#
# _framework density 20.80659
#
# number of rings (size 3 to 8) (size 9 to 14) (size 15 to 20)
#    0.000    0.857    4.286    2.143    8.000    1.143 
#    0.000    0.714    0.000    0.000    0.000    0.000 
#    0.000    0.000    0.000    0.000    0.000    0.000 
#
# Total GULP energy -347033.320883 kJ/mol
# GULP energy per Si atom -12394.047174 kJ/mol
# Density = 2.075923 g / cm^3
# Si number density = 20.806590 Si / 1000 Ang^3
#
#
#
# Elastic Constant Matrix: (Units=GPa)
#
#
# Indices 1 2 3 4 5 6 
#
# 1 109.5052 34.9600 97.3080 0.0000 5.1078 0.0000
# 2 34.9600 125.7273 65.3535 0.0000 5.9048 0.0000
# 3 97.3080 65.3535 139.6847 0.0000 0.3382 0.0000
# 4 0.0000 0.0000 0.0000 27.6957 0.0000 -1.5358
# 5 5.1078 5.9048 0.3382 0.0000 42.9359 0.0000
# 6 0.0000 0.0000 0.0000 -1.5358 0.0000 26.4508
#
#
#
# Elastic Compliance Matrix: (Units=1/GPa)
#
#
# Indices 1 2 3 4 5 6 
#
# 1 0.025106 0.002984 -0.018878 0.000000 -0.003248 0.000000
# 2 0.002984 0.010950 -0.007198 0.000000 -0.001804 0.000000
# 3 -0.018878 -0.007198 0.023670 0.000000 0.003049 0.000000
# 4 0.000000 0.000000 0.000000 0.036223 0.000000 0.002103
# 5 -0.003248 -0.001804 0.003049 0.000000 0.023901 0.000000
# 6 0.000000 0.000000 0.000000 0.002103 0.000000 0.037928
#
#
# Mechanical properties :
#
#
# Convention : Reuss Voigt Hill
#
# Bulk Modulus (GPa) = 73.83656 85.57333 79.70494
# Shear Modulus (GPa) = 23.98370 31.23619 27.60995
#
# Velocity S-wave (km/s) = 3.39882 3.87882 3.64673
# Velocity P-wave (km/s) = 7.13910 7.82800 7.49147
#
# Compressibility (1/GPa) = 0.01354343
#
# Stress axis : x y z
#
# Youngs Moduli (GPa) = 39.83149 91.32400 42.24788
#
# Poissons Ratio (x) = -0.27254 0.79754
# Poissons Ratio (y) = -0.11887 0.30409
# Poissons Ratio (z) = 0.75193 0.65732
#
# Static dielectric constant tensor:
#      x y z
#    x 3.976830 0.000000 0.288840 
#    y 0.000000 3.976340 0.000000 
#    z 0.288840 0.000000 3.840500 
# 
# 
# High freq. dielectric constant tensor:
#      x y z
#    x 1.823930 0.000000 0.023270 
#    y 0.000000 1.825060 0.000000 
#    z 0.023270 0.000000 1.801030 
# 
# From -- ./inp_files/67619.got.cif
#   From: 2010.06.25/outbox.cif.g09.slc.cpg/sg13_34_cif.got.tgz:67619.got - 2010.06.28 04:50:58.
