data_PCOD8120385
_publ_section_title
;
Structure prediction by ZEFSAII (Michael W. Deem and Ramdas Pophale) SiO2 
 PCOD8120385
Probable space group: P 2/C
;
_chemical_formula_sum "Si O2"
_cell_formula_units_Z 32
_cell_length_a 21.111419
_cell_length_b 7.907969
_cell_length_c 28.579525
_cell_angle_alpha 90.000000
_cell_angle_beta 160.838749
_cell_angle_gamma 90.000000
_cell_volume 1566.076142
_symmetry_space_group_name_H-M "P 2/C"
_symmetry_group_IT_number 13
_symmetry_cell_setting 'monoclinic'
loop_
_space_group_symop_operation_xyz
x,y,z
-x,y,1/2-z
-x,-y,-z
x,-y,1/2+z
loop_
_atom_site_type_symbol
_atom_site_label
_atom_site_fract_x
_atom_site_fract_y
_atom_site_fract_z
Si Si1 0.231603 0.437768 0.826666
Si Si2 0.101822 0.136456 0.623928
Si Si3 0.773832 0.811510 0.833641
Si Si4 0.569824 0.985210 0.851387
Si Si5 0.147403 0.205707 0.312770
Si Si6 0.002749 0.875848 0.344787
Si Si7 0.581902 0.452394 0.133314
Si Si8 0.477760 0.238519 0.607751
O O1 0.172576 0.631608 0.796872
O O2 0.062564 0.304751 0.722880
O O3 0.279529 0.434862 0.804160
O O4 0.420284 0.370502 0.986673
O O5 0.101419 0.125614 0.678717
O O6 0.296669 0.210801 0.739882
O O7 0.919028 0.247038 0.476668
O O8 0.092836 0.942431 0.601344
O O9 0.580104 0.885266 0.721142
O O10 0.716903 0.673216 0.755963
O O11 0.500000 0.010002 0.750000
O O12 0.595155 0.172163 0.892423
O O13 0.766926 0.880195 0.990021
O O14 0.350351 0.150353 0.478109
O O15 0.000000 0.262922 0.250000
O O16 0.070579 0.039696 0.233650
O O17 0.461119 0.560062 0.087992
#
# Coordination Sequence:
#
# PCOD8120385 Si02
#       8
#     4   4   4   4   4   4   4   4
#     4  10  24  41  65  99 135 162 221 277 320 387
#     4  10  21  39  62  96 122 167 225 264 313 388
#     4  10  22  39  66  90 127 173 215 271 320 383
#     4  11  23  42  63  93 132 167 217 266 323 398
#     4  11  24  41  63  97 134 167 213 266 327 397
#     4  12  23  41  68  94 128 178 209 267 336 387
#     4  10  21  43  64  96 129 170 215 281 323 377
#     4  10  22  42  64  91 128 165 217 268 321 389
#
# _framework density 20.433236000000001
#
# number of rings (size 3 to 8) (size 9 to 14) (size 15 to 20)
#    0.000    1.500    3.750    0.750    3.500    3.500 
#    0.000    0.625    0.000    0.000    0.000    0.000 
#    0.000    0.000    0.000    0.000    0.000    0.000 
#
# Total GULP energy -396492.351362 kJ/mol
# GULP energy per Si atom -12390.385980 kJ/mol
# Density = 2.038673 g / cm^3
# Si number density = 20.433236 Si / 1000 Ang^3
#
#
#
# Elastic Constant Matrix: (Units=GPa)
#
#
# Indices 1 2 3 4 5 6 
#
# 1 77.5139 39.7366 30.0326 0.0000 -6.7859 0.0000
# 2 39.7366 89.7557 55.5323 0.0000 -7.5220 0.0000
# 3 30.0326 55.5323 128.4399 0.0000 -10.4890 0.0000
# 4 0.0000 0.0000 0.0000 31.1473 0.0000 -1.3703
# 5 -6.7859 -7.5220 -10.4890 0.0000 29.6249 0.0000
# 6 0.0000 0.0000 0.0000 -1.3703 0.0000 28.3975
#
#
#
# Elastic Compliance Matrix: (Units=1/GPa)
#
#
# Indices 1 2 3 4 5 6 
#
# 1 0.016873 -0.006782 -0.000863 0.000000 0.001837 0.000000
# 2 -0.006782 0.018008 -0.006131 0.000000 0.000848 0.000000
# 3 -0.000863 -0.006131 0.010808 0.000000 0.002072 0.000000
# 4 0.000000 0.000000 0.000000 0.032174 0.000000 0.001553
# 5 0.001837 0.000848 0.002072 0.000000 0.035125 0.000000
# 6 0.000000 0.000000 0.000000 0.001553 0.000000 0.035289
#
#
# Mechanical properties :
#
#
# Convention : Reuss Voigt Hill
#
# Bulk Modulus (GPa) = 55.13694 60.70141 57.91917
# Shear Modulus (GPa) = 27.49147 29.19446 28.34297
#
# Velocity S-wave (km/s) = 3.67199 3.78401 3.72842
# Velocity P-wave (km/s) = 6.70973 6.99023 6.85142
#
# Compressibility (1/GPa) = 0.01813666
#
# Stress axis : x y z
#
# Youngs Moduli (GPa) = 59.26677 55.53016 92.52805
#
# Poissons Ratio (x) = 0.37661 0.07985
# Poissons Ratio (y) = 0.40195 0.56729
# Poissons Ratio (z) = 0.05115 0.34045
#
# Static dielectric constant tensor:
#      x y z
#    x 3.889380 0.000000 -0.038380 
#    y 0.000000 3.687120 0.000000 
#    z -0.038380 0.000000 4.057230 
# 
# 
# High freq. dielectric constant tensor:
#      x y z
#    x 1.796680 0.000000 -0.002930 
#    y 0.000000 1.778910 0.000000 
#    z -0.002930 0.000000 1.818800 
# 
# From -- ./inp_files/93593.got.cif
#   From: 2010.06.25/outbox.cif.g09.slc.cpg/sg13_47_cif.got.tgz:93593.got - 2010.06.28 04:50:58.
