data_PCOD8120104
_publ_section_title
;
Structure prediction by ZEFSAII (Michael W. Deem and Ramdas Pophale) SiO2 
 PCOD8120104
Probable space group: P 2/C
;
_chemical_formula_sum "Si O2"
_cell_formula_units_Z 24
_cell_length_a 14.674829
_cell_length_b 14.404986
_cell_length_c 8.793396
_cell_angle_alpha 90.000000
_cell_angle_beta 41.870632
_cell_angle_gamma 90.000000
_cell_volume 1240.686000
_symmetry_space_group_name_H-M "P 2/C"
_symmetry_group_IT_number 13
_symmetry_cell_setting 'monoclinic'
loop_
_space_group_symop_operation_xyz
x,y,z
-x,y,1/2-z
-x,-y,-z
x,-y,1/2+z
loop_
_atom_site_type_symbol
_atom_site_label
_atom_site_fract_x
_atom_site_fract_y
_atom_site_fract_z
Si Si1 0.180353 0.439942 0.670580
Si Si2 0.379327 0.114917 0.688257
Si Si3 0.148489 0.196824 0.494720
Si Si4 0.675586 0.067960 0.408216
Si Si5 0.348004 0.268433 0.501436
Si Si6 0.881769 0.609378 0.588965
O O1 0.304444 0.375865 0.576819
O O2 0.203525 0.548907 0.682264
O O3 0.164186 0.434781 0.512052
O O4 0.042564 0.402167 0.921671
O O5 0.541036 0.119977 0.515704
O O6 0.335699 0.215620 0.679082
O O7 0.341566 0.041337 0.602560
O O8 0.302630 0.086251 0.939200
O O9 0.193771 0.106160 0.345546
O O10 0.248878 0.217580 0.507524
O O11 0.152177 0.281630 0.368444
O O12 0.000000 0.180809 0.750000
O O13 0.500000 0.262926 0.250000
#
# Coordination Sequence:
#
# PCOD8120104 Si02
#       6
#     4   4   4   4   4   4
#     4   9  18  33  55  81 110 149 191 229 280 340
#     4  10  21  37  60  87 113 153 197 234 291 344
#     4  11  20  38  60  87 119 153 192 239 292 340
#     4  10  21  37  60  86 116 152 194 239 284 350
#     4  11  20  36  60  87 115 151 196 238 287 342
#     4   9  17  34  56  79 110 153 188 227 283 343
#
# _framework density 19.344135999999999
#
# number of rings (size 3 to 8) (size 9 to 14) (size 15 to 20)
#    0.000    2.000    5.000    1.000    2.333    1.333 
#    0.000    7.500    3.667    0.000    0.000    0.000 
#    0.000    0.000    0.000    0.000    0.000    0.000 
#
# Total GULP energy -297507.602113 kJ/mol
# GULP energy per Si atom -12396.150088 kJ/mol
# Density = 1.930011 g / cm^3
# Si number density = 19.344136 Si / 1000 Ang^3
#
#
#
# Elastic Constant Matrix: (Units=GPa)
#
#
# Indices 1 2 3 4 5 6 
#
# 1 65.6485 29.2885 36.4045 0.0000 -8.6121 0.0000
# 2 29.2885 60.9447 33.2234 0.0000 0.2088 0.0000
# 3 36.4045 33.2234 92.4061 0.0000 -4.3910 0.0000
# 4 0.0000 0.0000 0.0000 29.8315 0.0000 6.4254
# 5 -8.6121 0.2088 -4.3910 0.0000 23.5119 0.0000
# 6 0.0000 0.0000 0.0000 6.4254 0.0000 29.6413
#
#
#
# Elastic Compliance Matrix: (Units=1/GPa)
#
#
# Indices 1 2 3 4 5 6 
#
# 1 0.022963 -0.007861 -0.005869 0.000000 0.007385 0.000000
# 2 -0.007861 0.023157 -0.005423 0.000000 -0.004098 0.000000
# 3 -0.005869 -0.005423 0.015118 0.000000 0.000722 0.000000
# 4 0.000000 0.000000 0.000000 0.035163 0.000000 -0.007622
# 5 0.007385 -0.004098 0.000722 0.000000 0.045408 0.000000
# 6 0.000000 0.000000 0.000000 -0.007622 0.000000 0.035389
#
#
# Mechanical properties :
#
#
# Convention : Reuss Voigt Hill
#
# Bulk Modulus (GPa) = 43.61023 46.31467 44.96245
# Shear Modulus (GPa) = 22.40640 24.60247 23.50444
#
# Velocity S-wave (km/s) = 3.40708 3.57014 3.48956
# Velocity P-wave (km/s) = 6.17017 6.40227 6.28729
#
# Compressibility (1/GPa) = 0.02293040
#
# Stress axis : x y z
#
# Youngs Moduli (GPa) = 43.54747 43.18383 66.14493
#
# Poissons Ratio (x) = 0.33948 0.38823
# Poissons Ratio (y) = 0.34234 0.35873
# Poissons Ratio (z) = 0.25560 0.23420
#
# Static dielectric constant tensor:
#      x y z
#    x 3.558510 0.000000 -0.085050 
#    y 0.000000 3.598330 0.000000 
#    z -0.085050 0.000000 3.594190 
# 
# 
# High freq. dielectric constant tensor:
#      x y z
#    x 1.745630 0.000000 0.004530 
#    y 0.000000 1.750070 0.000000 
#    z 0.004530 0.000000 1.731040 
# 
# From -- ./inp_files/19481.got.cif
#   From: 2010.06.25/outbox.cif.g09.slc.cpg/sg13_10_cif.got.tgz:19481.got - 2010.06.28 04:50:58.
