data_PCOD8120766
_publ_section_title
;
Structure prediction by ZEFSAII (Michael W. Deem and Ramdas Pophale) SiO2 
 PCOD8120766
Probable space group: P 2/C
;
_chemical_formula_sum "Si O2"
_cell_formula_units_Z 20
_cell_length_a 10.373319
_cell_length_b 9.201455
_cell_length_c 15.371191
_cell_angle_alpha 90.000000
_cell_angle_beta 34.841980
_cell_angle_gamma 90.000000
_cell_volume 838.218868
_symmetry_space_group_name_H-M "P 2/C"
_symmetry_group_IT_number 13
_symmetry_cell_setting 'monoclinic'
loop_
_space_group_symop_operation_xyz
x,y,z
-x,y,1/2-z
-x,-y,-z
x,-y,1/2+z
loop_
_atom_site_type_symbol
_atom_site_label
_atom_site_fract_x
_atom_site_fract_y
_atom_site_fract_z
Si Si1 0.199335 0.768579 0.448226
Si Si2 0.770128 0.629798 0.752178
Si Si3 0.000000 0.597630 0.250000
Si Si4 0.500000 0.506408 0.250000
Si Si5 0.434695 0.074758 0.664201
Si Si6 0.606047 0.197861 0.991317
O O1 0.279666 0.605093 0.385704
O O2 0.343036 0.825606 0.449844
O O3 0.250421 0.882453 0.340430
O O4 0.937120 0.750619 0.617098
O O5 0.897330 0.496681 0.727850
O O6 0.576544 0.589073 0.789373
O O7 0.617106 0.708215 0.909700
O O8 0.814553 0.697978 0.400341
O O9 0.320443 0.106298 0.634393
O O10 0.529073 0.908909 0.613313
#
# Coordination Sequence:
#
# PCOD8120766 Si02
#       6
#     4   4   2   2   4   4
#     4  10  21  42  67  92 130 170 218 274 329 391
#     4  12  24  40  69  99 131 171 220 275 333 392
#     4  12  24  42  68 102 136 176 220 274 332 400
#     4  10  22  40  60  96 134 170 210 266 334 396
#     4   9  22  43  63  93 131 173 215 273 333 390
#     4  11  24  41  65  95 132 173 223 272 328 395
#
# _framework density 23.860116999999999
#
# number of rings (size 3 to 8) (size 9 to 14) (size 15 to 20)
#    0.000    1.600    0.000    6.000    0.000    7.200 
#    0.000    0.000    0.000    1.200    0.000    0.000 
#    0.000    0.000    0.000    0.000    0.000    0.000 
#
# Total GULP energy -247777.829782 kJ/mol
# GULP energy per Si atom -12388.891489 kJ/mol
# Density = 2.380581 g / cm^3
# Si number density = 23.860117 Si / 1000 Ang^3
#
#
#
# Elastic Constant Matrix: (Units=GPa)
#
#
# Indices 1 2 3 4 5 6 
#
# 1 95.0135 24.6772 27.4665 0.0000 10.7076 0.0000
# 2 24.6772 111.7013 62.5075 0.0000 1.8012 0.0000
# 3 27.4665 62.5075 151.6005 0.0000 -16.7718 0.0000
# 4 0.0000 0.0000 0.0000 19.8282 0.0000 -0.8632
# 5 10.7076 1.8012 -16.7718 0.0000 24.5990 0.0000
# 6 0.0000 0.0000 0.0000 -0.8632 0.0000 24.7834
#
#
#
# Elastic Compliance Matrix: (Units=1/GPa)
#
#
# Indices 1 2 3 4 5 6 
#
# 1 0.012355 -0.001209 -0.002515 0.000000 -0.007004 0.000000
# 2 -0.001209 0.012227 -0.005260 0.000000 -0.003955 0.000000
# 3 -0.002515 -0.005260 0.010150 0.000000 0.008400 0.000000
# 4 0.000000 0.000000 0.000000 0.050510 0.000000 0.001759
# 5 -0.007004 -0.003955 0.008400 0.000000 0.049718 0.000000
# 6 0.000000 0.000000 0.000000 0.001759 0.000000 0.040411
#
#
# Mechanical properties :
#
#
# Convention : Reuss Voigt Hill
#
# Bulk Modulus (GPa) = 59.65091 65.29084 62.47088
# Shear Modulus (GPa) = 25.13499 30.08637 27.61068
#
# Velocity S-wave (km/s) = 3.24918 3.55484 3.40544
# Velocity P-wave (km/s) = 6.25546 6.65376 6.45768
#
# Compressibility (1/GPa) = 0.01676420
#
# Stress axis : x y z
#
# Youngs Moduli (GPa) = 80.93753 81.78818 98.52348
#
# Poissons Ratio (x) = 0.09891 0.24776
# Poissons Ratio (y) = 0.09788 0.51821
# Poissons Ratio (z) = 0.20353 0.43018
#
# Static dielectric constant tensor:
#      x y z
#    x 3.934700 0.000000 -0.003070 
#    y 0.000000 4.426410 0.000000 
#    z -0.003070 0.000000 4.267920 
# 
# 
# High freq. dielectric constant tensor:
#      x y z
#    x 1.928580 0.000000 -0.000850 
#    y 0.000000 1.955320 0.000000 
#    z -0.000850 0.000000 1.947440 
# 
# From -- ./inp_files/66260.got.cif
#   From: 2010.06.25/outbox.cif.g09.slc.cpg/sg13_34_cif.got.tgz:66260.got - 2010.06.28 04:50:58.
