data_PCOD8120725
_publ_section_title
;
Structure prediction by ZEFSAII (Michael W. Deem and Ramdas Pophale) SiO2 
 PCOD8120725
Probable space group: P 2/C
;
_chemical_formula_sum "Si O2"
_cell_formula_units_Z 20
_cell_length_a 5.322127
_cell_length_b 12.218837
_cell_length_c 17.736531
_cell_angle_alpha 90.000000
_cell_angle_beta 53.999605
_cell_angle_gamma 90.000000
_cell_volume 933.123779
_symmetry_space_group_name_H-M "P 2/C"
_symmetry_group_IT_number 13
_symmetry_cell_setting 'monoclinic'
loop_
_space_group_symop_operation_xyz
x,y,z
-x,y,1/2-z
-x,-y,-z
x,-y,1/2+z
loop_
_atom_site_type_symbol
_atom_site_label
_atom_site_fract_x
_atom_site_fract_y
_atom_site_fract_z
Si Si1 0.954853 0.185548 0.905672
Si Si2 0.149408 0.973982 0.803850
Si Si3 0.752030 0.587299 0.977062
Si Si4 0.225507 0.410698 0.857646
Si Si5 0.242598 0.824393 0.520160
O O1 0.163147 0.103893 0.818957
O O2 0.001739 0.311621 0.868845
O O3 0.604789 0.145478 0.950927
O O4 0.058547 0.176067 0.973889
O O5 0.500000 0.927882 0.750000
O O6 0.000000 0.949043 0.750000
O O7 0.929959 0.915291 0.902024
O O8 0.762680 0.705791 0.935221
O O9 0.073304 0.529462 0.898473
O O10 0.500000 0.500000 0.000000
O O11 0.667986 0.621680 0.077574
O O12 0.500000 0.426746 0.750000
#
# Coordination Sequence:
#
# PCOD8120725 Si02
#       5
#     4   4   4   4   4
#     4  11  22  42  67  92 125 170 218 270 318 387
#     4  12  25  42  63  97 133 163 218 272 324 391
#     4  10  21  42  61  91 132 166 213 268 317 397
#     4  10  22  39  64  95 125 169 218 269 329 378
#     4  11  23  42  68  88 130 175 214 257 335 388
#
# _framework density 21.433382000000002
#
# number of rings (size 3 to 8) (size 9 to 14) (size 15 to 20)
#    0.000    1.200    2.000    4.200    0.000    3.200 
#    3.600    0.000    0.000    0.000    0.000    0.000 
#    0.000    0.000    0.000    0.000    0.000    0.000 
#
# Total GULP energy -247803.282296 kJ/mol
# GULP energy per Si atom -12390.164115 kJ/mol
# Density = 2.138460 g / cm^3
# Si number density = 21.433382 Si / 1000 Ang^3
#
#
#
# Elastic Constant Matrix: (Units=GPa)
#
#
# Indices 1 2 3 4 5 6 
#
# 1 93.2392 14.1481 23.1745 0.0000 -11.0767 0.0000
# 2 14.1481 71.7630 22.7277 0.0000 -5.5947 0.0000
# 3 23.1745 22.7277 120.3803 0.0000 -18.5338 0.0000
# 4 0.0000 0.0000 0.0000 12.2694 0.0000 0.3564
# 5 -11.0767 -5.5947 -18.5338 0.0000 25.9569 0.0000
# 6 0.0000 0.0000 0.0000 0.3564 0.0000 22.2155
#
#
#
# Elastic Compliance Matrix: (Units=1/GPa)
#
#
# Indices 1 2 3 4 5 6 
#
# 1 0.011750 -0.001588 -0.001396 0.000000 0.003675 0.000000
# 2 -0.001588 0.015077 -0.002410 0.000000 0.000852 0.000000
# 3 -0.001396 -0.002410 0.009953 0.000000 0.005992 0.000000
# 4 0.000000 0.000000 0.000000 0.081541 0.000000 -0.001308
# 5 0.003675 0.000852 0.005992 0.000000 0.044555 0.000000
# 6 0.000000 0.000000 0.000000 -0.001308 0.000000 0.045035
#
#
# Mechanical properties :
#
#
# Convention : Reuss Voigt Hill
#
# Bulk Modulus (GPa) = 38.47287 45.05369 41.76328
# Shear Modulus (GPa) = 21.99122 27.11051 24.55086
#
# Velocity S-wave (km/s) = 3.20664 3.56036 3.38812
# Velocity P-wave (km/s) = 5.63019 6.16178 5.90197
#
# Compressibility (1/GPa) = 0.02599234
#
# Stress axis : x y z
#
# Youngs Moduli (GPa) = 85.10894 66.32459 100.46953
#
# Poissons Ratio (x) = 0.10530 0.14030
# Poissons Ratio (y) = 0.13513 0.24211
# Poissons Ratio (z) = 0.11885 0.15983
#
# Static dielectric constant tensor:
#      x y z
#    x 4.267140 0.000000 -0.267590 
#    y 0.000000 5.820720 0.000000 
#    z -0.267590 0.000000 3.951820 
# 
# 
# High freq. dielectric constant tensor:
#      x y z
#    x 1.844750 0.000000 -0.008860 
#    y 0.000000 1.862770 0.000000 
#    z -0.008860 0.000000 1.824030 
# 
# From -- ./inp_files/43518.got.cif
#   From: 2010.06.25/outbox.cif.g09.slc.cpg/sg13_22_cif.got.tgz:43518.got - 2010.06.28 04:50:58.
