data_PCOD8120433
_publ_section_title
;
Structure prediction by ZEFSAII (Michael W. Deem and Ramdas Pophale) SiO2 
 PCOD8120433
Probable space group: P 2/C
;
_chemical_formula_sum "Si O2"
_cell_formula_units_Z 20
_cell_length_a 9.043663
_cell_length_b 12.361191
_cell_length_c 18.004763
_cell_angle_alpha 90.000000
_cell_angle_beta 27.798194
_cell_angle_gamma 90.000000
_cell_volume 938.668477
_symmetry_space_group_name_H-M "P 2/C"
_symmetry_group_IT_number 13
_symmetry_cell_setting 'monoclinic'
loop_
_space_group_symop_operation_xyz
x,y,z
-x,y,1/2-z
-x,-y,-z
x,-y,1/2+z
loop_
_atom_site_type_symbol
_atom_site_label
_atom_site_fract_x
_atom_site_fract_y
_atom_site_fract_z
Si Si1 0.424985 0.371138 0.599598
Si Si2 0.960815 0.761216 0.686523
Si Si3 0.878329 0.115717 0.078778
Si Si4 0.599253 0.602565 0.555582
Si Si5 0.179620 0.302684 0.851787
O O1 0.422059 0.488435 0.641446
O O2 0.265154 0.381546 0.589395
O O3 0.257350 0.285503 0.729469
O O4 0.786943 0.335268 0.428760
O O5 0.009435 0.852222 0.602037
O O6 0.624087 0.703282 0.824414
O O7 0.000000 0.818103 0.750000
O O8 0.500000 0.120595 0.250000
O O9 0.039168 0.193484 0.947191
O O10 0.000000 0.000000 0.000000
O O11 0.898856 0.607286 0.478997
O O12 0.500000 0.342654 0.750000
#
# Coordination Sequence:
#
# PCOD8120433 Si02
#       5
#     4   4   4   4   4
#     4  10  21  39  65  95 135 177 217 251 311 385
#     4  10  21  42  66  94 130 169 217 261 314 389
#     4  12  26  48  69  91 125 166 213 280 344 383
#     4  10  21  40  63  95 137 181 211 254 309 378
#     4  12  23  39  63  98 131 170 218 265 318 383
#
# _framework density 21.306778000000001
#
# number of rings (size 3 to 8) (size 9 to 14) (size 15 to 20)
#    0.000    1.200    4.000    2.400    0.000    4.000 
#    3.600    3.000    0.000    0.000    0.000    0.000 
#    0.000    0.000    0.000    0.000    0.000    0.000 
#
# Total GULP energy -247871.249494 kJ/mol
# GULP energy per Si atom -12393.562475 kJ/mol
# Density = 2.125828 g / cm^3
# Si number density = 21.306778 Si / 1000 Ang^3
#
#
#
# Elastic Constant Matrix: (Units=GPa)
#
#
# Indices 1 2 3 4 5 6 
#
# 1 125.0333 76.8714 54.3535 0.0000 -8.9704 0.0000
# 2 76.8714 106.4782 42.5540 0.0000 16.7243 0.0000
# 3 54.3535 42.5540 93.9678 0.0000 12.2044 0.0000
# 4 0.0000 0.0000 0.0000 35.4799 0.0000 6.2439
# 5 -8.9704 16.7243 12.2044 0.0000 50.1895 0.0000
# 6 0.0000 0.0000 0.0000 6.2439 0.0000 27.1905
#
#
#
# Elastic Compliance Matrix: (Units=1/GPa)
#
#
# Indices 1 2 3 4 5 6 
#
# 1 0.019487 -0.012883 -0.006658 0.000000 0.009395 0.000000
# 2 -0.012883 0.020334 -0.000596 0.000000 -0.008933 0.000000
# 3 -0.006658 -0.000596 0.015377 0.000000 -0.004730 0.000000
# 4 0.000000 0.000000 0.000000 0.029372 0.000000 -0.006745
# 5 0.009395 -0.008933 -0.004730 0.000000 0.025731 0.000000
# 6 0.000000 0.000000 0.000000 -0.006745 0.000000 0.038326
#
#
# Mechanical properties :
#
#
# Convention : Reuss Voigt Hill
#
# Bulk Modulus (GPa) = 67.00584 74.78188 70.89386
# Shear Modulus (GPa) = 25.78972 32.68534 29.23753
#
# Velocity S-wave (km/s) = 3.48285 3.92092 3.70836
# Velocity P-wave (km/s) = 6.90580 7.46137 7.18896
#
# Compressibility (1/GPa) = 0.01492407
#
# Stress axis : x y z
#
# Youngs Moduli (GPa) = 51.31690 49.17865 65.03137
#
# Poissons Ratio (x) = 0.63358 0.43295
# Poissons Ratio (y) = 0.66113 0.03877
# Poissons Ratio (z) = 0.34165 0.02932
#
# Static dielectric constant tensor:
#      x y z
#    x 4.148140 0.000000 0.045230 
#    y 0.000000 3.414050 0.000000 
#    z 0.045230 0.000000 4.118380 
# 
# 
# High freq. dielectric constant tensor:
#      x y z
#    x 1.845130 0.000000 -0.004760 
#    y 0.000000 1.790530 0.000000 
#    z -0.004760 0.000000 1.863000 
# 
# From -- ./inp_files/11690.got.cif
#   From: 2010.06.25/outbox.cif.g09.slc.cpg/sg13_6_cif.got.tgz:11690.got - 2010.06.28 04:50:58.
