data_PCOD8120228
_publ_section_title
;
Structure prediction by ZEFSAII (Michael W. Deem and Ramdas Pophale) SiO2 
 PCOD8120228
Probable space group: P 2/C
;
_chemical_formula_sum "Si O2"
_cell_formula_units_Z 26
_cell_length_a 10.654964
_cell_length_b 9.235153
_cell_length_c 15.457820
_cell_angle_alpha 90.000000
_cell_angle_beta 113.078429
_cell_angle_gamma 90.000000
_cell_volume 1399.321759
_symmetry_space_group_name_H-M "P 2/C"
_symmetry_group_IT_number 13
_symmetry_cell_setting 'monoclinic'
loop_
_space_group_symop_operation_xyz
x,y,z
-x,y,1/2-z
-x,-y,-z
x,-y,1/2+z
loop_
_atom_site_type_symbol
_atom_site_label
_atom_site_fract_x
_atom_site_fract_y
_atom_site_fract_z
Si Si1 0.343493 0.594277 0.050505
Si Si2 0.000000 0.046945 0.250000
Si Si3 0.340504 0.373606 0.201517
Si Si4 0.656271 0.551907 0.128893
Si Si5 0.141376 0.228513 0.763889
Si Si6 0.854909 0.818557 0.430796
Si Si7 0.109984 0.854454 0.605096
O O1 0.304439 0.480029 0.113525
O O2 0.505004 0.614538 0.096146
O O3 0.264442 0.746286 0.043195
O O4 0.305358 0.534579 0.946431
O O5 0.018164 0.138686 0.167862
O O6 0.133095 0.940686 0.291278
O O7 0.500000 0.327541 0.250000
O O8 0.300392 0.449717 0.280202
O O9 0.247071 0.233811 0.161036
O O10 0.739348 0.699990 0.149954
O O11 0.163962 0.249344 0.668313
O O12 0.000000 0.308580 0.750000
O O13 0.006055 0.780202 0.508667
O O14 0.840160 0.992266 0.420564
#
# Coordination Sequence:
#
# PCOD8120228 Si02
#       7
#     4   2   4   4   4   4   4
#     4  10  22  38  61  86 116 155 192 240 292 344
#     4   8  20  38  54  82 118 150 184 238 286 334
#     4  10  22  40  58  86 121 151 191 244 288 338
#     4  10  21  38  60  85 120 148 196 244 288 337
#     4   9  19  36  58  82 111 150 191 237 282 338
#     4  10  21  39  59  85 114 157 194 234 291 342
#     4  10  22  38  59  84 121 151 190 241 285 346
#
# _framework density 18.58043
#
# number of rings (size 3 to 8) (size 9 to 14) (size 15 to 20)
#    0.462    1.846    1.538    0.000    4.308    1.846 
#    5.538    0.000    0.000    3.692    0.000    0.000 
#    0.000    0.000    0.000    0.000    0.000    0.000 
#
# Total GULP energy -322195.634044 kJ/mol
# GULP energy per Si atom -12392.139771 kJ/mol
# Density = 1.853814 g / cm^3
# Si number density = 18.580430 Si / 1000 Ang^3
#
#
#
# Elastic Constant Matrix: (Units=GPa)
#
#
# Indices 1 2 3 4 5 6 
#
# 1 -38.3303 44.8335 235.4715 0.0000 -20.7526 0.0000
# 2 44.8335 71.8592 46.3532 0.0000 5.7226 0.0000
# 3 235.4715 46.3532 -233.3960 0.0000 16.7257 0.0000
# 4 0.0000 0.0000 0.0000 2151.2835 0.0000 313.7252
# 5 -20.7526 5.7226 16.7257 0.0000 30.9495 0.0000
# 6 0.0000 0.0000 0.0000 313.7252 0.0000 77.4176
#
#
#
# Elastic Compliance Matrix: (Units=1/GPa)
#
#
# Indices 1 2 3 4 5 6 
#
# 1 0.011192 -0.013211 0.009031 0.000000 0.005067 0.000000
# 2 -0.013211 0.028331 -0.008388 0.000000 -0.009564 0.000000
# 3 0.009031 -0.008388 0.003567 0.000000 0.005678 0.000000
# 4 0.000000 0.000000 0.000000 0.001136 0.000000 -0.004605
# 5 0.005067 -0.009564 0.005678 0.000000 0.034408 0.000000
# 6 0.000000 0.000000 0.000000 -0.004605 0.000000 0.031579
#
#
# Mechanical properties :
#
#
# Convention : Reuss Voigt Hill
#
# Bulk Modulus (GPa) = 55.70007 50.38324 53.04166
# Shear Modulus (GPa) = 35.37695 416.82843 226.10269
#
# Velocity S-wave (km/s) = 4.36821 14.99414 11.04322
# Velocity P-wave (km/s) = 7.44879 18.08151 13.82797
#
# Compressibility (1/GPa) = 0.01795330
#
# Stress axis : x y z
#
# Youngs Moduli (GPa) = 89.35128 35.29712 280.31300
#
# Poissons Ratio (x) = 0.46632 -2.53139
# Poissons Ratio (y) = 1.18045 2.35117
# Poissons Ratio (z) = -0.80690 0.29606
#
# Static dielectric constant tensor:
#      x y z
#    x 3.411240 0.000000 -0.162580 
#    y 0.000000 3.158260 0.000000 
#    z -0.162580 0.000000 3.565790 
# 
# 
# High freq. dielectric constant tensor:
#      x y z
#    x 1.718460 0.000000 -0.010330 
#    y 0.000000 1.701330 0.000000 
#    z -0.010330 0.000000 1.733400 
# 
# From -- ./inp_files/50177.got.cif
#   From: 2010.06.25/outbox.cif.g09.slc.cpg/sg13_26_cif.got.tgz:50177.got - 2010.06.28 04:50:58.
