data_PCOD8120023
_publ_section_title
;
Structure prediction by ZEFSAII (Michael W. Deem and Ramdas Pophale) SiO2 
 PCOD8120023
Probable space group: P 2/C
;
_chemical_formula_sum "Si O2"
_cell_formula_units_Z 32
_cell_length_a 14.621219
_cell_length_b 5.331956
_cell_length_c 21.830059
_cell_angle_alpha 90.000000
_cell_angle_beta 66.872722
_cell_angle_gamma 90.000000
_cell_volume 1565.093737
_symmetry_space_group_name_H-M "P 2/C"
_symmetry_group_IT_number 13
_symmetry_cell_setting 'monoclinic'
loop_
_space_group_symop_operation_xyz
x,y,z
-x,y,1/2-z
-x,-y,-z
x,-y,1/2+z
loop_
_atom_site_type_symbol
_atom_site_label
_atom_site_fract_x
_atom_site_fract_y
_atom_site_fract_z
Si Si1 0.110965 0.354122 0.792382
Si Si2 0.562911 0.801852 0.446891
Si Si3 0.115293 0.284146 0.653018
Si Si4 0.727586 0.099145 0.356873
Si Si5 0.589733 0.859796 0.679440
Si Si6 0.404346 0.635558 0.400511
Si Si7 0.780028 0.835384 0.712297
Si Si8 0.717650 0.476947 0.462958
O O1 0.124219 0.421812 0.716707
O O2 0.142751 0.605393 0.821594
O O3 0.998555 0.272473 0.837493
O O4 0.173542 0.112796 0.796726
O O5 0.488545 0.615928 0.431192
O O6 0.633863 0.688632 0.480255
O O7 0.500000 0.000000 0.500000
O O8 0.639689 0.895728 0.373922
O O9 0.171843 0.427065 0.582899
O O10 0.164515 0.011117 0.650630
O O11 0.733288 0.235871 0.290297
O O12 0.687217 0.275067 0.420625
O O13 0.500000 0.894930 0.750000
O O14 0.575703 0.597149 0.648824
O O15 0.696295 0.842579 0.683388
O O16 0.589435 0.098560 0.635016
O O17 0.295471 0.621663 0.463550
#
# Coordination Sequence:
#
# PCOD8120023 Si02
#       8
#     4   4   4   4   4   4   4   4
#     4  10  21  38  65  94 129 163 205 261 321 389
#     4  11  22  37  58  95 133 166 202 254 326 390
#     4   9  21  35  60 100 129 159 199 258 335 387
#     4  10  21  36  62  93 131 159 202 259 326 388
#     4  12  28  46  66  89 126 175 224 260 299 367
#     4  12  26  42  66  92 127 172 216 261 312 375
#     4  11  23  41  63  89 126 168 214 262 310 367
#     4  11  22  37  64  95 132 160 201 264 330 385
#
# _framework density 20.446059000000002
#
# number of rings (size 3 to 8) (size 9 to 14) (size 15 to 20)
#    0.000    1.250    2.500    3.000    7.000    1.000 
#    0.000    0.000    0.000    4.500    0.000    0.000 
#    0.000    0.000    0.000    0.000    0.000    0.000 
#
# Total GULP energy -396549.410638 kJ/mol
# GULP energy per Si atom -12392.169082 kJ/mol
# Density = 2.039952 g / cm^3
# Si number density = 20.446059 Si / 1000 Ang^3
#
#
#
# Elastic Constant Matrix: (Units=GPa)
#
#
# Indices 1 2 3 4 5 6 
#
# 1 101.0071 20.2715 31.2321 0.0000 -15.0693 0.0000
# 2 20.2715 90.8084 20.8903 0.0000 -3.5483 0.0000
# 3 31.2321 20.8903 87.9877 0.0000 -15.3613 0.0000
# 4 0.0000 0.0000 0.0000 37.3356 0.0000 -0.6693
# 5 -15.0693 -3.5483 -15.3613 0.0000 25.6612 0.0000
# 6 0.0000 0.0000 0.0000 -0.6693 0.0000 24.2208
#
#
#
# Elastic Compliance Matrix: (Units=1/GPa)
#
#
# Indices 1 2 3 4 5 6 
#
# 1 0.011911 -0.001789 -0.002931 0.000000 0.004992 0.000000
# 2 -0.001789 0.011917 -0.002334 0.000000 -0.000800 0.000000
# 3 -0.002931 -0.002334 0.014074 0.000000 0.006381 0.000000
# 4 0.000000 0.000000 0.000000 0.026797 0.000000 0.000740
# 5 0.004992 -0.000800 0.006381 0.000000 0.045610 0.000000
# 6 0.000000 0.000000 0.000000 0.000740 0.000000 0.041307
#
#
# Mechanical properties :
#
#
# Convention : Reuss Voigt Hill
#
# Bulk Modulus (GPa) = 42.03050 47.17679 44.60365
# Shear Modulus (GPa) = 28.79245 31.27081 30.03163
#
# Velocity S-wave (km/s) = 3.75669 3.91503 3.83668
# Velocity P-wave (km/s) = 6.27840 6.60004 6.44123
#
# Compressibility (1/GPa) = 0.02379224
#
# Stress axis : x y z
#
# Youngs Moduli (GPa) = 83.95878 83.91154 71.05372
#
# Poissons Ratio (x) = 0.15015 0.20829
# Poissons Ratio (y) = 0.15024 0.16584
# Poissons Ratio (z) = 0.24612 0.19585
#
# Static dielectric constant tensor:
#      x y z
#    x 3.696890 0.000000 -0.127220 
#    y 0.000000 3.857620 0.000000 
#    z -0.127220 0.000000 3.996050 
# 
# 
# High freq. dielectric constant tensor:
#      x y z
#    x 1.786300 0.000000 -0.023890 
#    y 0.000000 1.811860 0.000000 
#    z -0.023890 0.000000 1.789370 
# 
# From -- ./inp_files/79322.got.cif
#   From: 2010.06.25/outbox.cif.g09.slc.cpg/sg13_40_cif.got.tgz:79322.got - 2010.06.28 04:50:58.
