data_PCOD8120680
_publ_section_title
;
Structure prediction by ZEFSAII (Michael W. Deem and Ramdas Pophale) SiO2 
 PCOD8120680
Probable space group: P 2/C
;
_chemical_formula_sum "Si O2"
_cell_formula_units_Z 26
_cell_length_a 22.023491
_cell_length_b 9.442845
_cell_length_c 14.059208
_cell_angle_alpha 90.000000
_cell_angle_beta 154.666927
_cell_angle_gamma 90.000000
_cell_volume 1251.040930
_symmetry_space_group_name_H-M "P 2/C"
_symmetry_group_IT_number 13
_symmetry_cell_setting 'monoclinic'
loop_
_space_group_symop_operation_xyz
x,y,z
-x,y,1/2-z
-x,-y,-z
x,-y,1/2+z
loop_
_atom_site_type_symbol
_atom_site_label
_atom_site_fract_x
_atom_site_fract_y
_atom_site_fract_z
Si Si1 0.294756 0.762262 0.964150
Si Si2 0.301489 0.122399 0.809590
Si Si3 0.488270 0.639282 0.543451
Si Si4 0.500000 0.515411 0.250000
Si Si5 0.279093 0.184353 0.219730
Si Si6 0.013759 0.152952 0.164682
Si Si7 0.500000 0.999420 0.750000
Si Si8 0.000000 0.115057 0.750000
O O1 0.302272 0.768259 0.860425
O O2 0.132887 0.768456 0.770962
O O3 0.366893 0.613256 0.094248
O O4 0.384982 0.893432 0.136267
O O5 0.137425 0.154317 0.606160
O O6 0.305794 0.984658 0.748033
O O7 0.355824 0.259273 0.827471
O O8 0.411101 0.099877 0.052431
O O9 0.500000 0.500000 0.500000
O O10 0.462157 0.591953 0.613424
O O11 0.627027 0.733048 0.723134
O O12 0.120286 0.217996 0.960715
O O13 0.000000 0.227655 0.250000
O O14 0.055760 0.987997 0.242957
#
# Coordination Sequence:
#
# PCOD8120680 Si02
#       8
#     4   4   4   2   4   4   2   2
#     4  10  21  41  66  94 127 174 213 261 332 384
#     4  10  22  40  64  99 127 167 216 270 327 383
#     4  12  25  42  65  90 132 169 218 269 321 383
#     4  11  25  44  64  94 130 178 222 264 326 392
#     4  10  21  42  67  94 126 165 210 273 320 384
#     4   9  21  38  62  95 134 166 210 265 328 389
#     4   9  21  34  66  98 124 160 216 272 318 378
#     4   8  20  36  62 100 128 162 208 272 330 374
#
# _framework density 20.782692000000001
#
# number of rings (size 3 to 8) (size 9 to 14) (size 15 to 20)
#    0.462    1.538    1.538    0.923    4.308    5.538 
#    2.769    2.308    0.000    0.000    0.000    0.000 
#    0.000    0.000    0.000    0.000    0.000    0.000 
#
# Total GULP energy -322123.299927 kJ/mol
# GULP energy per Si atom -12389.357690 kJ/mol
# Density = 2.073539 g / cm^3
# Si number density = 20.782692 Si / 1000 Ang^3
#
#
#
# Elastic Constant Matrix: (Units=GPa)
#
#
# Indices 1 2 3 4 5 6 
#
# 1 66.7852 27.5163 29.7191 0.0000 17.3468 0.0000
# 2 27.5163 101.6292 40.3661 0.0000 20.2954 0.0000
# 3 29.7191 40.3661 148.4947 0.0000 8.5771 0.0000
# 4 0.0000 0.0000 0.0000 9.4837 0.0000 9.9775
# 5 17.3468 20.2954 8.5771 0.0000 34.4466 0.0000
# 6 0.0000 0.0000 0.0000 9.9775 0.0000 28.5587
#
#
#
# Elastic Compliance Matrix: (Units=1/GPa)
#
#
# Indices 1 2 3 4 5 6 
#
# 1 0.019192 -0.002641 -0.002693 0.000000 -0.007438 0.000000
# 2 -0.002641 0.012686 -0.002602 0.000000 -0.005496 0.000000
# 3 -0.002693 -0.002602 0.007928 0.000000 0.000916 0.000000
# 4 0.000000 0.000000 0.000000 0.166727 0.000000 -0.058249
# 5 -0.007438 -0.005496 0.000916 0.000000 0.035787 0.000000
# 6 0.000000 0.000000 0.000000 -0.058249 0.000000 0.055366
#
#
# Mechanical properties :
#
#
# Convention : Reuss Voigt Hill
#
# Bulk Modulus (GPa) = 41.78503 56.90132 49.34318
# Shear Modulus (GPa) = 15.55033 29.11829 22.33431
#
# Velocity S-wave (km/s) = 2.73836 3.74717 3.28176
# Velocity P-wave (km/s) = 5.49067 6.79414 6.17688
#
# Compressibility (1/GPa) = 0.02393202
#
# Stress axis : x y z
#
# Youngs Moduli (GPa) = 52.10480 78.82650 126.13744
#
# Poissons Ratio (x) = 0.20819 0.33975
# Poissons Ratio (y) = 0.13761 0.32827
# Poissons Ratio (z) = 0.14034 0.20514
#
# Static dielectric constant tensor:
#      x y z
#    x 3.369080 0.000000 -0.033410 
#    y 0.000000 3.899340 0.000000 
#    z -0.033410 0.000000 3.956280 
# 
# 
# High freq. dielectric constant tensor:
#      x y z
#    x 1.791900 0.000000 -0.001880 
#    y 0.000000 1.795320 0.000000 
#    z -0.001880 0.000000 1.823670 
# 
# From -- ./inp_files/71890.got.cif
#   From: 2010.06.25/outbox.cif.g09.slc.cpg/sg13_36_cif.got.tgz:71890.got - 2010.06.28 04:50:58.
