data_PCOD8120868
_publ_section_title
;
Structure prediction by ZEFSAII (Michael W. Deem and Ramdas Pophale) SiO2 
 PCOD8120868
Probable space group: P 2/C
;
_chemical_formula_sum "Si O2"
_cell_formula_units_Z 22
_cell_length_a 28.413654
_cell_length_b 6.260096
_cell_length_c 12.095792
_cell_angle_alpha 90.000000
_cell_angle_beta 26.517573
_cell_angle_gamma 90.000000
_cell_volume 960.587400
_symmetry_space_group_name_H-M "P 2/C"
_symmetry_group_IT_number 13
_symmetry_cell_setting 'monoclinic'
loop_
_space_group_symop_operation_xyz
x,y,z
-x,y,1/2-z
-x,-y,-z
x,-y,1/2+z
loop_
_atom_site_type_symbol
_atom_site_label
_atom_site_fract_x
_atom_site_fract_y
_atom_site_fract_z
Si Si1 0.827816 0.636573 0.119634
Si Si2 0.642465 0.444048 0.640294
Si Si3 0.450837 0.185364 0.034321
Si Si4 0.282305 0.879737 0.342224
Si Si5 0.000000 0.670203 0.250000
Si Si6 0.906648 0.005744 0.610134
O O1 0.742202 0.474641 0.351649
O O2 0.774083 0.803942 0.150406
O O3 0.894485 0.771420 0.069974
O O4 0.911472 0.484352 0.879873
O O5 0.608732 0.677114 0.748564
O O6 0.664172 0.319564 0.709155
O O7 0.545574 0.323802 0.778196
O O8 0.365851 0.068073 0.131918
O O9 0.500000 0.000000 0.000000
O O10 0.202012 0.976947 0.598556
O O11 0.933250 0.809851 0.474663
O O12 0.000000 0.000000 0.500000
#
# Coordination Sequence:
#
# PCOD8120868 Si02
#       6
#     4   4   4   4   2   4
#     4  12  26  43  71 106 141 194 244 282 364 430
#     4  10  21  44  71 100 140 179 230 292 349 422
#     4   9  20  43  72  98 137 180 228 294 351 408
#     4  11  23  43  71 100 141 186 231 293 352 413
#     4  12  26  44  66 104 142 188 246 290 356 428
#     4  12  26  45  69 101 143 186 235 303 350 418
#
# _framework density 22.902653000000001
#
# number of rings (size 3 to 8) (size 9 to 14) (size 15 to 20)
#    0.000    1.091    3.636    2.727    2.545    2.909 
#    0.000   10.000    0.000    0.000    0.000    0.000 
#    0.000    0.000    0.000    0.000    0.000    0.000 
#
# Total GULP energy -272605.447945 kJ/mol
# GULP energy per Si atom -12391.156725 kJ/mol
# Density = 2.285053 g / cm^3
# Si number density = 22.902653 Si / 1000 Ang^3
#
#
#
# Elastic Constant Matrix: (Units=GPa)
#
#
# Indices 1 2 3 4 5 6 
#
# 1 92.7656 39.0426 34.1238 0.0000 -15.1730 0.0000
# 2 39.0426 119.5729 58.7715 0.0000 -18.7040 0.0000
# 3 34.1238 58.7715 115.9995 0.0000 -24.7686 0.0000
# 4 0.0000 0.0000 0.0000 51.6342 0.0000 -14.3935
# 5 -15.1730 -18.7040 -24.7686 0.0000 30.6947 0.0000
# 6 0.0000 0.0000 0.0000 -14.3935 0.0000 38.8963
#
#
#
# Elastic Compliance Matrix: (Units=1/GPa)
#
#
# Indices 1 2 3 4 5 6 
#
# 1 0.013189 -0.002964 -0.001657 0.000000 0.003376 0.000000
# 2 -0.002964 0.011990 -0.004779 0.000000 0.001985 0.000000
# 3 -0.001657 -0.004779 0.012967 0.000000 0.006732 0.000000
# 4 0.000000 0.000000 0.000000 0.021595 0.000000 0.007991
# 5 0.003376 0.001985 0.006732 0.000000 0.040890 0.000000
# 6 0.000000 0.000000 0.000000 0.007991 0.000000 0.028666
#
#
# Mechanical properties :
#
#
# Convention : Reuss Voigt Hill
#
# Bulk Modulus (GPa) = 51.69068 65.80154 58.74611
# Shear Modulus (GPa) = 32.35268 37.33840 34.84554
#
# Velocity S-wave (km/s) = 3.76256 4.04209 3.90483
# Velocity P-wave (km/s) = 6.44162 7.11182 6.78500
#
# Compressibility (1/GPa) = 0.01934585
#
# Stress axis : x y z
#
# Youngs Moduli (GPa) = 75.82017 83.40034 77.11779
#
# Poissons Ratio (x) = 0.24718 0.12781
# Poissons Ratio (y) = 0.22471 0.36857
# Poissons Ratio (z) = 0.12566 0.39860
#
# Static dielectric constant tensor:
#      x y z
#    x 4.170860 0.000000 -0.629940 
#    y 0.000000 4.583030 0.000000 
#    z -0.629940 0.000000 4.489070 
# 
# 
# High freq. dielectric constant tensor:
#      x y z
#    x 1.879640 0.000000 -0.035030 
#    y 0.000000 1.927980 0.000000 
#    z -0.035030 0.000000 1.917420 
# 
# From -- ./inp_files/35336.got.cif
#   From: 2010.06.25/outbox.cif.g09.slc.cpg/sg13_18_cif.got.tgz:35336.got - 2010.06.28 04:50:58.
