data_PCOD8120683
_publ_section_title
;
Structure prediction by ZEFSAII (Michael W. Deem and Ramdas Pophale) SiO2 
 PCOD8120683
Probable space group: P 2/C
;
_chemical_formula_sum "Si O2"
_cell_formula_units_Z 28
_cell_length_a 25.270049
_cell_length_b 9.498032
_cell_length_c 8.629230
_cell_angle_alpha 90.000000
_cell_angle_beta 38.503914
_cell_angle_gamma 90.000000
_cell_volume 1289.432519
_symmetry_space_group_name_H-M "P 2/C"
_symmetry_group_IT_number 13
_symmetry_cell_setting 'monoclinic'
loop_
_space_group_symop_operation_xyz
x,y,z
-x,y,1/2-z
-x,-y,-z
x,-y,1/2+z
loop_
_atom_site_type_symbol
_atom_site_label
_atom_site_fract_x
_atom_site_fract_y
_atom_site_fract_z
Si Si1 0.723283 0.314168 0.164059
Si Si2 0.758037 0.407087 0.429175
Si Si3 0.043902 0.372095 0.484460
Si Si4 0.164578 0.081657 0.728676
Si Si5 0.313778 0.873079 0.331728
Si Si6 0.598649 0.905503 0.056353
Si Si7 0.937660 0.098530 0.255799
O O1 0.739947 0.374801 0.293917
O O2 0.638515 0.217965 0.356984
O O3 0.713926 0.444140 0.068553
O O4 0.803320 0.218719 0.933814
O O5 0.858276 0.413651 0.223025
O O6 0.714915 0.286997 0.636405
O O7 0.033140 0.238836 0.397348
O O8 0.000000 0.500000 0.500000
O O9 0.000000 0.341379 0.750000
O O10 0.229952 0.952970 0.582884
O O11 0.079271 0.027600 0.830255
O O12 0.149053 0.122149 0.944645
O O13 0.385564 0.875034 0.300415
O O14 0.355817 0.945115 0.085792
O O15 0.500000 0.914323 0.250000
O O16 0.000000 0.050538 0.250000
#
# Coordination Sequence:
#
# PCOD8120683 Si02
#       7
#     4   4   4   4   4   4   4
#     4  10  25  40  69  93 131 174 221 263 334 387
#     4  11  23  43  65  90 127 174 226 269 317 404
#     4  12  28  45  67  94 134 176 229 285 342 384
#     4  11  24  46  63  96 125 178 223 279 326 406
#     4  10  21  41  69  94 126 173 218 260 327 392
#     4  10  21  41  67 104 137 164 208 268 329 400
#     4  12  27  42  67  92 131 172 225 285 348 385
#
# _framework density 21.714979
#
# number of rings (size 3 to 8) (size 9 to 14) (size 15 to 20)
#    0.000    1.143    1.429    4.714    8.000    1.714 
#    0.000    3.571    0.000    0.000    0.000    0.000 
#    0.000    0.000    0.000    0.000    0.000    0.000 
#
# Total GULP energy -347246.159180 kJ/mol
# GULP energy per Si atom -12401.648542 kJ/mol
# Density = 2.166555 g / cm^3
# Si number density = 21.714979 Si / 1000 Ang^3
#
#
#
# Elastic Constant Matrix: (Units=GPa)
#
#
# Indices 1 2 3 4 5 6 
#
# 1 63.9470 24.3301 28.3306 0.0000 2.8363 0.0000
# 2 24.3301 156.8233 56.3458 0.0000 11.3734 0.0000
# 3 28.3306 56.3458 99.2442 0.0000 11.3518 0.0000
# 4 0.0000 0.0000 0.0000 30.9375 0.0000 11.5435
# 5 2.8363 11.3734 11.3518 0.0000 36.2275 0.0000
# 6 0.0000 0.0000 0.0000 11.5435 0.0000 36.1619
#
#
#
# Elastic Compliance Matrix: (Units=1/GPa)
#
#
# Indices 1 2 3 4 5 6 
#
# 1 0.018083 -0.001209 -0.004519 0.000000 0.000380 0.000000
# 2 -0.001209 0.008136 -0.004141 0.000000 -0.001162 0.000000
# 3 -0.004519 -0.004141 0.014031 0.000000 -0.002743 0.000000
# 4 0.000000 0.000000 0.000000 0.036694 0.000000 -0.011713
# 5 0.000380 -0.001162 -0.002743 0.000000 0.028798 0.000000
# 6 0.000000 0.000000 0.000000 -0.011713 0.000000 0.031392
#
#
# Mechanical properties :
#
#
# Convention : Reuss Voigt Hill
#
# Bulk Modulus (GPa) = 48.75310 59.78082 54.26696
# Shear Modulus (GPa) = 30.54158 34.73260 32.63709
#
# Velocity S-wave (km/s) = 3.75437 4.00368 3.88103
# Velocity P-wave (km/s) = 6.42603 6.99730 6.71774
#
# Compressibility (1/GPa) = 0.02051151
#
# Stress axis : x y z
#
# Youngs Moduli (GPa) = 55.29971 122.90362 71.27030
#
# Poissons Ratio (x) = 0.14864 0.32207
# Poissons Ratio (y) = 0.06688 0.29515
# Poissons Ratio (z) = 0.24990 0.50898
#
# Static dielectric constant tensor:
#      x y z
#    x 3.934450 0.000000 0.097900 
#    y 0.000000 4.152000 0.000000 
#    z 0.097900 0.000000 4.253560 
# 
# 
# High freq. dielectric constant tensor:
#      x y z
#    x 1.853480 0.000000 0.010850 
#    y 0.000000 1.856730 0.000000 
#    z 0.010850 0.000000 1.859460 
# 
# From -- ./inp_files/24508.got.cif
#   From: 2010.06.25/outbox.cif.g09.slc.cpg/sg13_13_cif.got.tgz:24508.got - 2010.06.28 04:50:58.
