data_PCOD8120869
_publ_section_title
;
Structure prediction by ZEFSAII (Michael W. Deem and Ramdas Pophale) SiO2 
 PCOD8120869
Probable space group: P 2/C
;
_chemical_formula_sum "Si O2"
_cell_formula_units_Z 24
_cell_length_a 10.838929
_cell_length_b 7.659239
_cell_length_c 16.351446
_cell_angle_alpha 90.000000
_cell_angle_beta 49.821005
_cell_angle_gamma 90.000000
_cell_volume 1037.146367
_symmetry_space_group_name_H-M "P 2/C"
_symmetry_group_IT_number 13
_symmetry_cell_setting 'monoclinic'
loop_
_space_group_symop_operation_xyz
x,y,z
-x,y,1/2-z
-x,-y,-z
x,-y,1/2+z
loop_
_atom_site_type_symbol
_atom_site_label
_atom_site_fract_x
_atom_site_fract_y
_atom_site_fract_z
Si Si1 0.576530 0.818573 0.436983
Si Si2 0.119328 0.320184 0.770881
Si Si3 0.255741 0.372132 0.315885
Si Si4 0.379025 0.854624 0.374765
Si Si5 0.031771 0.801276 0.476145
Si Si6 0.433700 0.748183 0.884615
O O1 0.756819 0.824971 0.319634
O O2 0.451144 0.753086 0.422272
O O3 0.585517 0.692836 0.512301
O O4 0.500000 0.000000 0.500000
O O5 0.232042 0.468079 0.764039
O O6 0.005934 0.243224 0.891393
O O7 0.000000 0.388505 0.750000
O O8 0.374442 0.236393 0.218204
O O9 0.346475 0.399871 0.365453
O O10 0.078458 0.303478 0.413250
O O11 0.500000 0.823937 0.250000
O O12 0.214359 0.756625 0.422841
O O13 0.351921 0.062577 0.402336
O O14 0.000000 0.000000 0.500000
#
# Coordination Sequence:
#
# PCOD8120869 Si02
#       6
#     4   4   4   4   4   4
#     4  10  24  42  70 106 137 183 240 298 350 421
#     4  12  28  46  68 104 149 183 236 300 367 427
#     4  11  24  43  71 101 144 194 230 287 369 435
#     4  11  19  40  70 108 138 179 244 294 356 425
#     4  12  24  43  75 102 136 190 243 293 359 430
#     4  10  21  44  72  98 145 185 237 297 357 421
#
# _framework density 23.140419000000001
#
# number of rings (size 3 to 8) (size 9 to 14) (size 15 to 20)
#    0.000    1.000    5.000    1.500    4.667    4.667 
#    0.000    0.833    0.000    0.000    0.000    0.000 
#    0.000    0.000    0.000    0.000    0.000    0.000 
#
# Total GULP energy -297317.013355 kJ/mol
# GULP energy per Si atom -12388.208890 kJ/mol
# Density = 2.308775 g / cm^3
# Si number density = 23.140419 Si / 1000 Ang^3
#
#
#
# Elastic Constant Matrix: (Units=GPa)
#
#
# Indices 1 2 3 4 5 6 
#
# 1 179.6259 32.3658 60.5919 0.0000 23.0647 0.0000
# 2 32.3658 48.7856 32.4389 0.0000 2.5527 0.0000
# 3 60.5919 32.4389 127.7918 0.0000 -1.1767 0.0000
# 4 0.0000 0.0000 0.0000 28.0513 0.0000 -6.1300
# 5 23.0647 2.5527 -1.1767 0.0000 56.2861 0.0000
# 6 0.0000 0.0000 0.0000 -6.1300 0.0000 32.5821
#
#
#
# Elastic Compliance Matrix: (Units=1/GPa)
#
#
# Indices 1 2 3 4 5 6 
#
# 1 0.007418 -0.002898 -0.002809 0.000000 -0.002967 0.000000
# 2 -0.002898 0.025881 -0.005196 0.000000 -0.000095 0.000000
# 3 -0.002809 -0.005196 0.010491 0.000000 0.001606 0.000000
# 4 0.000000 0.000000 0.000000 0.037177 0.000000 0.006995
# 5 -0.002967 -0.000095 0.001606 0.000000 0.019020 0.000000
# 6 0.000000 0.000000 0.000000 0.006995 0.000000 0.032008
#
#
# Mechanical properties :
#
#
# Convention : Reuss Voigt Hill
#
# Bulk Modulus (GPa) = 45.49025 67.44406 56.46715
# Shear Modulus (GPa) = 31.03110 38.77101 34.90105
#
# Velocity S-wave (km/s) = 3.66593 4.09769 3.88781
# Velocity P-wave (km/s) = 6.13349 7.18310 6.67895
#
# Compressibility (1/GPa) = 0.02198273
#
# Stress axis : x y z
#
# Youngs Moduli (GPa) = 134.81153 38.63868 95.32186
#
# Poissons Ratio (x) = 0.11199 0.26773
# Poissons Ratio (y) = 0.39073 0.49532
# Poissons Ratio (z) = 0.37864 0.20078
#
# Static dielectric constant tensor:
#      x y z
#    x 4.915550 0.000000 0.647770 
#    y 0.000000 3.655980 0.000000 
#    z 0.647770 0.000000 4.327090 
# 
# 
# High freq. dielectric constant tensor:
#      x y z
#    x 1.928340 0.000000 0.005200 
#    y 0.000000 1.873420 0.000000 
#    z 0.005200 0.000000 1.938410 
# 
# From -- ./inp_files/65926.got.cif
#   From: 2010.06.25/outbox.cif.g09.slc.cpg/sg13_33_cif.got.tgz:65926.got - 2010.06.28 04:50:58.
