data_PCOD8120712
_publ_section_title
;
Structure prediction by ZEFSAII (Michael W. Deem and Ramdas Pophale) SiO2 
 PCOD8120712
Probable space group: P 2/C
;
_chemical_formula_sum "Si O2"
_cell_formula_units_Z 28
_cell_length_a 8.550048
_cell_length_b 7.457005
_cell_length_c 30.378321
_cell_angle_alpha 90.000000
_cell_angle_beta 39.899786
_cell_angle_gamma 90.000000
_cell_volume 1242.388361
_symmetry_space_group_name_H-M "P 2/C"
_symmetry_group_IT_number 13
_symmetry_cell_setting 'monoclinic'
loop_
_space_group_symop_operation_xyz
x,y,z
-x,y,1/2-z
-x,-y,-z
x,-y,1/2+z
loop_
_atom_site_type_symbol
_atom_site_label
_atom_site_fract_x
_atom_site_fract_y
_atom_site_fract_z
Si Si1 0.583307 0.627298 0.442206
Si Si2 0.368425 0.488411 0.822908
Si Si3 0.274692 0.998945 0.682307
Si Si4 0.353842 0.888974 0.823612
Si Si5 0.429235 0.008962 0.964679
Si Si6 0.732333 0.422893 0.817448
Si Si7 0.978293 0.193292 0.913008
O O1 0.500000 0.500000 0.500000
O O2 0.379151 0.774743 0.470425
O O3 0.654427 0.514662 0.383530
O O4 0.824534 0.739001 0.404165
O O5 0.500000 0.414273 0.750000
O O6 0.256950 0.685120 0.838713
O O7 0.561975 0.519404 0.819386
O O8 0.162898 0.352744 0.885626
O O9 0.474162 0.912515 0.671258
O O10 0.000000 0.925411 0.750000
O O11 0.358981 0.947672 0.614619
O O12 0.281677 0.211177 0.687293
O O13 0.500000 0.952804 0.750000
O O14 0.117089 0.010972 0.873175
O O15 0.500000 0.000000 0.000000
O O16 0.201089 0.870356 0.008015
O O17 0.000000 0.497368 0.750000
#
# Coordination Sequence:
#
# PCOD8120712 Si02
#       7
#     4   4   4   4   4   4   4
#     4  10  23  42  67 102 132 182 228 279 345 414
#     4  11  24  43  65 104 139 181 234 284 354 417
#     4  10  22  42  70 100 136 179 237 280 344 421
#     4  11  26  41  69 107 136 185 230 284 356 411
#     4   9  22  41  65  99 132 179 230 273 346 409
#     4  10  21  41  70  98 132 181 230 284 344 409
#     4  11  23  44  71  91 144 177 221 290 347 405
#
# _framework density 22.537236
#
# number of rings (size 3 to 8) (size 9 to 14) (size 15 to 20)
#    0.000    1.714    1.429    1.286   10.000    3.429 
#    0.000    1.429    0.000    0.000    0.000    0.000 
#    0.000    0.000    0.000    0.000    0.000    0.000 
#
# Total GULP energy -346914.367669 kJ/mol
# GULP energy per Si atom -12389.798845 kJ/mol
# Density = 2.248594 g / cm^3
# Si number density = 22.537236 Si / 1000 Ang^3
#
#
#
# Elastic Constant Matrix: (Units=GPa)
#
#
# Indices 1 2 3 4 5 6 
#
# 1 101.6585 23.9464 61.0621 0.0000 8.5113 0.0000
# 2 23.9464 94.3234 55.6806 0.0000 -12.7824 0.0000
# 3 61.0621 55.6806 189.8565 0.0000 15.5241 0.0000
# 4 0.0000 0.0000 0.0000 30.3768 0.0000 2.3355
# 5 8.5113 -12.7824 15.5241 0.0000 43.0781 0.0000
# 6 0.0000 0.0000 0.0000 2.3355 0.0000 24.2374
#
#
#
# Elastic Compliance Matrix: (Units=1/GPa)
#
#
# Indices 1 2 3 4 5 6 
#
# 1 0.012356 -0.001308 -0.003461 0.000000 -0.001582 0.000000
# 2 -0.001308 0.014262 -0.004254 0.000000 0.006023 0.000000
# 3 -0.003461 -0.004254 0.007908 0.000000 -0.003428 0.000000
# 4 0.000000 0.000000 0.000000 0.033166 0.000000 -0.003196
# 5 -0.001582 0.006023 -0.003428 0.000000 0.026549 0.000000
# 6 0.000000 0.000000 0.000000 -0.003196 0.000000 0.041567
#
#
# Mechanical properties :
#
#
# Convention : Reuss Voigt Hill
#
# Bulk Modulus (GPa) = 60.68332 74.13518 67.40925
# Shear Modulus (GPa) = 31.37786 35.88174 33.62980
#
# Velocity S-wave (km/s) = 3.73536 3.99445 3.86708
# Velocity P-wave (km/s) = 6.75190 7.36479 7.06499
#
# Compressibility (1/GPa) = 0.01647899
#
# Stress axis : x y z
#
# Youngs Moduli (GPa) = 80.92968 70.11804 126.44915
#
# Poissons Ratio (x) = 0.09174 0.43764
# Poissons Ratio (y) = 0.10588 0.53796
# Poissons Ratio (z) = 0.28010 0.29831
#
# Static dielectric constant tensor:
#      x y z
#    x 4.064310 0.000000 -0.300560 
#    y 0.000000 4.271180 0.000000 
#    z -0.300560 0.000000 4.728940 
# 
# 
# High freq. dielectric constant tensor:
#      x y z
#    x 1.871850 0.000000 0.004170 
#    y 0.000000 1.894120 0.000000 
#    z 0.004170 0.000000 1.892640 
# 
# From -- ./inp_files/95920.got.cif
#   From: 2010.06.25/outbox.cif.g09.slc.cpg/sg13_48_cif.got.tgz:95920.got - 2010.06.28 04:50:58.
