data_PCOD8120517
_publ_section_title
;
Structure prediction by ZEFSAII (Michael W. Deem and Ramdas Pophale) SiO2 
 PCOD8120517
Probable space group: P 2/C
;
_chemical_formula_sum "Si O2"
_cell_formula_units_Z 16
_cell_length_a 11.801008
_cell_length_b 8.284024
_cell_length_c 16.401681
_cell_angle_alpha 90.000000
_cell_angle_beta 155.551472
_cell_angle_gamma 90.000000
_cell_volume 663.618744
_symmetry_space_group_name_H-M "P 2/C"
_symmetry_group_IT_number 13
_symmetry_cell_setting 'monoclinic'
loop_
_space_group_symop_operation_xyz
x,y,z
-x,y,1/2-z
-x,-y,-z
x,-y,1/2+z
loop_
_atom_site_type_symbol
_atom_site_label
_atom_site_fract_x
_atom_site_fract_y
_atom_site_fract_z
Si Si1 0.282320 0.307617 0.046066
Si Si2 0.144485 0.381903 0.531883
Si Si3 0.717234 0.836023 0.236238
Si Si4 0.647810 0.808210 0.650830
O O1 0.500000 0.223442 0.250000
O O2 0.309838 0.503168 0.077371
O O3 0.382211 0.268586 0.020899
O O4 0.981277 0.238713 0.864327
O O5 0.322104 0.249225 0.700419
O O6 0.000000 0.500000 0.500000
O O7 0.912027 0.302216 0.325193
O O8 0.747021 0.028695 0.261577
O O9 0.440651 0.818576 0.001398
#
# Coordination Sequence:
#
# PCOD8120517 Si02
#       4
#     4   4   4   4
#     4  11  22  41  64  95 128 170 213 257 324 381
#     4  10  21  40  62  96 125 167 209 258 323 379
#     4  10  23  42  69  94 128 167 217 266 322 375
#     4  11  22  44  66  95 131 167 213 271 314 379
#
# _framework density 24.110227999999999
#
# number of rings (size 3 to 8) (size 9 to 14) (size 15 to 20)
#    0.000    1.500    5.000    1.500    0.000    4.000 
#    9.000    0.000    0.000    0.000    0.000    0.000 
#    0.000    0.000    0.000    0.000    0.000    0.000 
#
# Total GULP energy -198266.633252 kJ/mol
# GULP energy per Si atom -12391.664578 kJ/mol
# Density = 2.405535 g / cm^3
# Si number density = 24.110228 Si / 1000 Ang^3
#
#
#
# Elastic Constant Matrix: (Units=GPa)
#
#
# Indices 1 2 3 4 5 6 
#
# 1 44.1918 22.7256 6.2743 0.0000 3.6277 0.0000
# 2 22.7256 134.1496 46.4512 0.0000 6.3671 0.0000
# 3 6.2743 46.4512 108.2477 0.0000 -8.2911 0.0000
# 4 0.0000 0.0000 0.0000 47.2854 0.0000 2.0526
# 5 3.6277 6.3671 -8.2911 0.0000 18.7770 0.0000
# 6 0.0000 0.0000 0.0000 2.0526 0.0000 20.4505
#
#
#
# Elastic Compliance Matrix: (Units=1/GPa)
#
#
# Indices 1 2 3 4 5 6 
#
# 1 0.025006 -0.004088 0.000043 0.000000 -0.003426 0.000000
# 2 -0.004088 0.009861 -0.004337 0.000000 -0.004469 0.000000
# 3 0.000043 -0.004337 0.011601 0.000000 0.006585 0.000000
# 4 0.000000 0.000000 0.000000 0.021241 0.000000 -0.002132
# 5 -0.003426 -0.004469 0.006585 0.000000 0.058341 0.000000
# 6 0.000000 0.000000 0.000000 -0.002132 0.000000 0.049112
#
#
# Mechanical properties :
#
#
# Convention : Reuss Voigt Hill
#
# Bulk Modulus (GPa) = 33.66675 48.61014 41.13844
# Shear Modulus (GPa) = 24.77354 31.37846 28.07600
#
# Velocity S-wave (km/s) = 3.20896 3.61149 3.41616
# Velocity P-wave (km/s) = 5.26535 6.13155 5.71488
#
# Compressibility (1/GPa) = 0.02970290
#
# Stress axis : x y z
#
# Youngs Moduli (GPa) = 39.98999 101.41279 86.19998
#
# Poissons Ratio (x) = 0.41461 -0.00367
# Poissons Ratio (y) = 0.16349 0.37383
# Poissons Ratio (z) = -0.00170 0.43980
#
# Static dielectric constant tensor:
#      x y z
#    x 3.695760 0.000000 -0.024120 
#    y 0.000000 4.146880 0.000000 
#    z -0.024120 0.000000 4.311550 
# 
# 
# High freq. dielectric constant tensor:
#      x y z
#    x 1.929010 0.000000 -0.006660 
#    y 0.000000 1.964870 0.000000 
#    z -0.006660 0.000000 1.974800 
# 
# From -- ./inp_files/79617.got.cif
#   From: 2010.06.25/outbox.cif.g09.slc.cpg/sg13_40_cif.got.tgz:79617.got - 2010.06.28 04:50:58.
