data_PCOD8120612
_publ_section_title
;
Structure prediction by ZEFSAII (Michael W. Deem and Ramdas Pophale) SiO2 
 PCOD8120612
Probable space group: P 2/C
;
_chemical_formula_sum "Si O2"
_cell_formula_units_Z 24
_cell_length_a 7.911500
_cell_length_b 8.891376
_cell_length_c 20.519049
_cell_angle_alpha 90.000000
_cell_angle_beta 128.907948
_cell_angle_gamma 90.000000
_cell_volume 1123.186112
_symmetry_space_group_name_H-M "P 2/C"
_symmetry_group_IT_number 13
_symmetry_cell_setting 'monoclinic'
loop_
_space_group_symop_operation_xyz
x,y,z
-x,y,1/2-z
-x,-y,-z
x,-y,1/2+z
loop_
_atom_site_type_symbol
_atom_site_label
_atom_site_fract_x
_atom_site_fract_y
_atom_site_fract_z
Si Si1 0.269032 0.921025 0.229986
Si Si2 0.478785 0.063157 0.395600
Si Si3 0.912164 0.579596 0.543372
Si Si4 0.515684 0.761319 0.474530
Si Si5 0.034279 0.355655 0.830318
Si Si6 0.113259 0.898391 0.580300
O O1 0.500000 0.900454 0.250000
O O2 0.278179 0.006493 0.302261
O O3 0.165332 0.758382 0.212761
O O4 0.105702 0.015410 0.146485
O O5 0.583441 0.911078 0.451378
O O6 0.430358 0.192722 0.437213
O O7 0.645886 0.138853 0.385981
O O8 0.651042 0.611813 0.484921
O O9 0.998422 0.487146 0.625563
O O10 0.000000 0.500000 0.500000
O O11 0.999611 0.745010 0.567696
O O12 0.263291 0.725517 0.400894
O O13 0.000000 0.425639 0.750000
O O14 0.000000 0.000000 0.500000
#
# Coordination Sequence:
#
# PCOD8120612 Si02
#       6
#     4   4   4   4   4   4
#     4  10  23  42  70 102 134 177 234 284 340 408
#     4  10  21  40  71  99 126 171 228 290 326 389
#     4  12  27  43  67  97 139 186 225 276 344 426
#     4  11  23  43  67  99 135 176 227 280 340 403
#     4  12  26  43  67 105 139 183 222 284 352 416
#     4  11  21  41  68  95 129 174 231 277 334 402
#
# _framework density 21.367782999999999
#
# number of rings (size 3 to 8) (size 9 to 14) (size 15 to 20)
#    0.000    1.000    3.333    3.500    4.667    1.333 
#    0.000    5.833    0.000    0.000    0.000    0.000 
#    0.000    0.000    0.000    0.000    0.000    0.000 
#
# Total GULP energy -297447.829391 kJ/mol
# GULP energy per Si atom -12393.659558 kJ/mol
# Density = 2.131915 g / cm^3
# Si number density = 21.367783 Si / 1000 Ang^3
#
#
#
# Elastic Constant Matrix: (Units=GPa)
#
#
# Indices 1 2 3 4 5 6 
#
# 1 78.8169 40.0325 48.5396 0.0000 -13.1299 0.0000
# 2 40.0325 92.0773 68.8871 0.0000 -8.7627 0.0000
# 3 48.5396 68.8871 169.8324 0.0000 -29.4365 0.0000
# 4 0.0000 0.0000 0.0000 43.1321 0.0000 -4.3342
# 5 -13.1299 -8.7627 -29.4365 0.0000 41.0244 0.0000
# 6 0.0000 0.0000 0.0000 -4.3342 0.0000 47.5569
#
#
#
# Elastic Compliance Matrix: (Units=1/GPa)
#
#
# Indices 1 2 3 4 5 6 
#
# 1 0.017369 -0.005647 -0.002192 0.000000 0.002780 0.000000
# 2 -0.005647 0.017497 -0.005880 0.000000 -0.002289 0.000000
# 3 -0.002192 -0.005880 0.009776 0.000000 0.005057 0.000000
# 4 0.000000 0.000000 0.000000 0.023399 0.000000 0.002133
# 5 0.002780 -0.002289 0.005057 0.000000 0.028405 0.000000
# 6 0.000000 0.000000 0.000000 0.002133 0.000000 0.021222
#
#
# Mechanical properties :
#
#
# Convention : Reuss Voigt Hill
#
# Bulk Modulus (GPa) = 58.12473 72.84946 65.48710
# Shear Modulus (GPa) = 33.14781 38.56053 35.85417
#
# Velocity S-wave (km/s) = 3.94293 4.25268 4.10073
# Velocity P-wave (km/s) = 6.92748 7.63419 7.28940
#
# Compressibility (1/GPa) = 0.01720438
#
# Stress axis : x y z
#
# Youngs Moduli (GPa) = 57.57446 57.15368 102.29074
#
# Poissons Ratio (x) = 0.32276 0.22419
# Poissons Ratio (y) = 0.32513 0.60144
# Poissons Ratio (z) = 0.12619 0.33605
#
# Static dielectric constant tensor:
#      x y z
#    x 4.707710 0.000000 -0.038870 
#    y 0.000000 3.962940 0.000000 
#    z -0.038870 0.000000 4.080810 
# 
# 
# High freq. dielectric constant tensor:
#      x y z
#    x 1.850550 0.000000 -0.008980 
#    y 0.000000 1.828510 0.000000 
#    z -0.008980 0.000000 1.846190 
# 
# From -- ./inp_files/75767.got.cif
#   From: 2010.06.25/outbox.cif.g09.slc.cpg/sg13_38_cif.got.tgz:75767.got - 2010.06.28 04:50:58.
