data_PCOD8120355
_publ_section_title
;
Structure prediction by ZEFSAII (Michael W. Deem and Ramdas Pophale) SiO2 
 PCOD8120355
Probable space group: P 2/C
;
_chemical_formula_sum "Si O2"
_cell_formula_units_Z 18
_cell_length_a 22.454522
_cell_length_b 7.896617
_cell_length_c 5.213912
_cell_angle_alpha 90.000000
_cell_angle_beta 69.423425
_cell_angle_gamma 90.000000
_cell_volume 865.523285
_symmetry_space_group_name_H-M "P 2/C"
_symmetry_group_IT_number 13
_symmetry_cell_setting 'monoclinic'
loop_
_space_group_symop_operation_xyz
x,y,z
-x,y,1/2-z
-x,-y,-z
x,-y,1/2+z
loop_
_atom_site_type_symbol
_atom_site_label
_atom_site_fract_x
_atom_site_fract_y
_atom_site_fract_z
Si Si1 0.105238 0.391386 0.569015
Si Si2 0.571228 0.573156 0.896548
Si Si3 0.643132 0.110395 0.333491
Si Si4 0.000000 0.886201 0.250000
Si Si5 0.749127 0.608931 0.634707
O O1 0.089307 0.481976 0.325269
O O2 0.063167 0.225619 0.657752
O O3 0.178049 0.329419 0.468798
O O4 0.607022 0.507570 0.587676
O O5 0.578530 0.776010 0.901412
O O6 0.500000 0.500000 0.000000
O O7 0.705200 0.225840 0.211766
O O8 0.642547 0.030701 0.615962
O O9 0.000000 0.000000 0.500000
O O10 0.734415 0.511899 0.395025
#
# Coordination Sequence:
#
# PCOD8120355 Si02
#       5
#     4   4   4   2   4
#     4  10  21  39  61  83 112 156 205 240 276 345
#     4  10  21  41  63  82 111 156 194 226 275 344
#     4  12  24  38  60  92 122 147 185 244 298 339
#     4  12  24  36  56  86 122 156 190 244 306 342
#     4  10  21  39  63  86 113 156 199 234 284 350
#
# _framework density 20.796666999999999
#
# number of rings (size 3 to 8) (size 9 to 14) (size 15 to 20)
#    0.000    1.333    0.000    6.000    0.000    1.778 
#    0.000   13.333    0.000    0.000    0.000    0.000 
#    0.000    0.000    0.000    0.000    0.000    0.000 
#
# Total GULP energy -223151.819081 kJ/mol
# GULP energy per Si atom -12397.323282 kJ/mol
# Density = 2.074933 g / cm^3
# Si number density = 20.796667 Si / 1000 Ang^3
#
#
#
# Elastic Constant Matrix: (Units=GPa)
#
#
# Indices 1 2 3 4 5 6 
#
# 1 124.0289 61.2147 41.5884 0.0000 -3.3472 0.0000
# 2 61.2147 110.7911 26.0135 0.0000 -5.8637 0.0000
# 3 41.5884 26.0135 103.8638 0.0000 26.6587 0.0000
# 4 0.0000 0.0000 0.0000 44.1388 0.0000 0.1755
# 5 -3.3472 -5.8637 26.6587 0.0000 63.1635 0.0000
# 6 0.0000 0.0000 0.0000 0.1755 0.0000 33.2613
#
#
#
# Elastic Compliance Matrix: (Units=1/GPa)
#
#
# Indices 1 2 3 4 5 6 
#
# 1 0.012272 -0.005765 -0.003925 0.000000 0.001772 0.000000
# 2 -0.005765 0.012562 -0.001187 0.000000 0.001362 0.000000
# 3 -0.003925 -0.001187 0.012985 0.000000 -0.005799 0.000000
# 4 0.000000 0.000000 0.000000 0.022656 0.000000 -0.000120
# 5 0.001772 0.001362 -0.005799 0.000000 0.018500 0.000000
# 6 0.000000 0.000000 0.000000 -0.000120 0.000000 0.030066
#
#
# Mechanical properties :
#
#
# Convention : Reuss Voigt Hill
#
# Bulk Modulus (GPa) = 62.24730 66.25747 64.25238
# Shear Modulus (GPa) = 36.72415 42.10386 39.41401
#
# Velocity S-wave (km/s) = 4.20678 4.50438 4.35812
# Velocity P-wave (km/s) = 7.32068 7.67994 7.50246
#
# Compressibility (1/GPa) = 0.01606495
#
# Stress axis : x y z
#
# Youngs Moduli (GPa) = 81.48730 79.60324 77.01094
#
# Poissons Ratio (x) = 0.45893 0.30223
# Poissons Ratio (y) = 0.46980 0.09144
# Poissons Ratio (z) = 0.31980 0.09452
#
# Static dielectric constant tensor:
#      x y z
#    x 4.194310 0.000000 0.767980 
#    y 0.000000 3.687350 0.000000 
#    z 0.767980 0.000000 5.823410 
# 
# 
# High freq. dielectric constant tensor:
#      x y z
#    x 1.827820 0.000000 0.009550 
#    y 0.000000 1.805360 0.000000 
#    z 0.009550 0.000000 1.846070 
# 
# From -- ./inp_files/7227.got.cif
#   From: 2010.06.25/outbox.cif.g09.slc.cpg/sg13_4_cif.got.tgz:7227.got - 2010.06.28 04:50:58.
