data_PCOD8120398
_publ_section_title
;
Structure prediction by ZEFSAII (Michael W. Deem and Ramdas Pophale) SiO2 
 PCOD8120398
Probable space group: P 2/C
;
_chemical_formula_sum "Si O2"
_cell_formula_units_Z 18
_cell_length_a 6.140343
_cell_length_b 9.557036
_cell_length_c 18.505699
_cell_angle_alpha 90.000000
_cell_angle_beta 123.678533
_cell_angle_gamma 90.000000
_cell_volume 903.710233
_symmetry_space_group_name_H-M "P 2/C"
_symmetry_group_IT_number 13
_symmetry_cell_setting 'monoclinic'
loop_
_space_group_symop_operation_xyz
x,y,z
-x,y,1/2-z
-x,-y,-z
x,-y,1/2+z
loop_
_atom_site_type_symbol
_atom_site_label
_atom_site_fract_x
_atom_site_fract_y
_atom_site_fract_z
Si Si1 0.055429 0.155983 0.033728
Si Si2 0.500000 0.497503 0.750000
Si Si3 0.567087 0.662267 0.969214
Si Si4 0.986633 0.705968 0.828438
Si Si5 0.626187 0.376545 0.920754
O O1 0.338798 0.197432 0.053658
O O2 0.055511 0.169400 0.120908
O O3 0.856530 0.263281 0.958819
O O4 0.000000 0.000000 0.000000
O O5 0.757718 0.592845 0.794995
O O6 0.500852 0.394907 0.818959
O O7 0.727917 0.528528 0.968409
O O8 0.262454 0.632105 0.895243
O O9 0.590848 0.677695 0.060694
O O10 0.000000 0.769606 0.750000
#
# Coordination Sequence:
#
# PCOD8120398 Si02
#       5
#     4   2   4   4   4
#     4  11  24  42  61  89 130 171 202 246 311 380
#     4  12  22  38  62 102 122 154 206 274 322 346
#     4  10  21  39  63  93 118 160 209 254 309 362
#     4  11  21  37  64  95 120 157 211 264 309 367
#     4  10  22  36  64  92 122 153 208 259 306 368
#
# _framework density 19.917888999999999
#
# number of rings (size 3 to 8) (size 9 to 14) (size 15 to 20)
#    0.000    1.333    4.444    0.667    6.222    3.556 
#    0.000    5.556    0.000    0.000    5.778    0.000 
#    0.000    0.000    0.000    0.000    0.000    0.000 
#
# Total GULP energy -223075.635307 kJ/mol
# GULP energy per Si atom -12393.090850 kJ/mol
# Density = 1.987255 g / cm^3
# Si number density = 19.917889 Si / 1000 Ang^3
#
#
#
# Elastic Constant Matrix: (Units=GPa)
#
#
# Indices 1 2 3 4 5 6 
#
# 1 118.6299 60.9492 69.2587 0.0000 -14.2368 0.0000
# 2 60.9492 115.6013 57.5017 0.0000 -0.5222 0.0000
# 3 69.2587 57.5017 146.7117 0.0000 -40.1801 0.0000
# 4 0.0000 0.0000 0.0000 27.1048 0.0000 -2.2905
# 5 -14.2368 -0.5222 -40.1801 0.0000 53.5698 0.0000
# 6 0.0000 0.0000 0.0000 -2.2905 0.0000 19.6241
#
#
#
# Elastic Compliance Matrix: (Units=1/GPa)
#
#
# Indices 1 2 3 4 5 6 
#
# 1 0.013580 -0.004977 -0.004386 0.000000 0.000271 0.000000
# 2 -0.004977 0.013237 -0.003984 0.000000 -0.004182 0.000000
# 3 -0.004386 -0.003984 0.012734 0.000000 0.008347 0.000000
# 4 0.000000 0.000000 0.000000 0.037261 0.000000 0.004349
# 5 0.000271 -0.004182 0.008347 0.000000 0.024959 0.000000
# 6 0.000000 0.000000 0.000000 0.004349 0.000000 0.051465
#
#
# Mechanical properties :
#
#
# Convention : Reuss Voigt Hill
#
# Bulk Modulus (GPa) = 77.77601 84.04022 80.90812
# Shear Modulus (GPa) = 27.14215 32.94195 30.04205
#
# Velocity S-wave (km/s) = 3.69548 4.07121 3.88789
# Velocity P-wave (km/s) = 7.57244 8.02400 7.80149
#
# Compressibility (1/GPa) = 0.01285743
#
# Stress axis : x y z
#
# Youngs Moduli (GPa) = 73.63995 75.54463 78.53085
#
# Poissons Ratio (x) = 0.37598 0.34442
# Poissons Ratio (y) = 0.36650 0.31286
# Poissons Ratio (z) = 0.32297 0.30097
#
# Static dielectric constant tensor:
#      x y z
#    x 4.061700 0.000000 -0.356500 
#    y 0.000000 3.188540 0.000000 
#    z -0.356500 0.000000 3.810760 
# 
# 
# High freq. dielectric constant tensor:
#      x y z
#    x 1.801870 0.000000 -0.020470 
#    y 0.000000 1.730970 0.000000 
#    z -0.020470 0.000000 1.774210 
# 
# From -- ./inp_files/60353.got.cif
#   From: 2010.06.25/outbox.cif.g09.slc.cpg/sg13_31_cif.got.tgz:60353.got - 2010.06.28 04:50:58.
