data_PCOD8120990
_publ_section_title
;
Structure prediction by ZEFSAII (Michael W. Deem and Ramdas Pophale) SiO2 
 PCOD8120990
Probable space group: P 2/C
;
_chemical_formula_sum "Si O2"
_cell_formula_units_Z 18
_cell_length_a 25.146968
_cell_length_b 7.781304
_cell_length_c 16.006091
_cell_angle_alpha 90.000000
_cell_angle_beta 162.981819
_cell_angle_gamma 90.000000
_cell_volume 916.661799
_symmetry_space_group_name_H-M "P 2/C"
_symmetry_group_IT_number 13
_symmetry_cell_setting 'monoclinic'
loop_
_space_group_symop_operation_xyz
x,y,z
-x,y,1/2-z
-x,-y,-z
x,-y,1/2+z
loop_
_atom_site_type_symbol
_atom_site_label
_atom_site_fract_x
_atom_site_fract_y
_atom_site_fract_z
Si Si1 0.500000 0.399750 0.750000
Si Si2 0.105721 0.801523 0.325509
Si Si3 0.613398 0.498844 0.252791
Si Si4 0.913277 0.689555 0.873219
Si Si5 0.118416 0.190333 0.346992
O O1 0.510452 0.512195 0.850288
O O2 0.307785 0.297529 0.460898
O O3 0.266605 0.668860 0.559669
O O4 0.000000 0.750135 0.250000
O O5 0.185900 0.993544 0.453921
O O6 0.976288 0.789137 0.050372
O O7 0.715606 0.679410 0.404555
O O8 0.500000 0.500000 0.000000
O O9 0.987794 0.783342 0.900876
O O10 0.000000 0.500000 0.000000
O O11 0.000000 0.237081 0.250000
#
# Coordination Sequence:
#
# PCOD8120990 Si02
#       5
#     2   4   4   4   4
#     4  10  22  38  60  96 116 160 210 246 312 370
#     4  11  22  40  64  90 122 166 205 253 310 365
#     4  11  23  38  61  89 128 161 204 255 306 365
#     4  11  21  40  67  87 124 164 205 252 312 366
#     4  10  23  39  62  92 120 164 208 250 310 365
#
# _framework density 19.636467
#
# number of rings (size 3 to 8) (size 9 to 14) (size 15 to 20)
#    0.000    1.333    4.444    2.667    3.111    0.889 
#    0.000    6.667    0.000    0.000    0.000    0.000 
#    0.000    0.000    0.000    0.000    0.000    0.000 
#
# Total GULP energy -223026.000676 kJ/mol
# GULP energy per Si atom -12390.333371 kJ/mol
# Density = 1.959177 g / cm^3
# Si number density = 19.636467 Si / 1000 Ang^3
#
#
#
# Elastic Constant Matrix: (Units=GPa)
#
#
# Indices 1 2 3 4 5 6 
#
# 1 213.3706 45.0592 56.8193 0.0000 -30.2597 0.0000
# 2 45.0592 95.2767 29.6403 0.0000 7.0335 0.0000
# 3 56.8193 29.6403 95.4162 0.0000 -17.5886 0.0000
# 4 0.0000 0.0000 0.0000 31.1556 0.0000 64.7489
# 5 -30.2597 7.0335 -17.5886 0.0000 40.7922 0.0000
# 6 0.0000 0.0000 0.0000 64.7489 0.0000 41.6035
#
#
#
# Elastic Compliance Matrix: (Units=1/GPa)
#
#
# Indices 1 2 3 4 5 6 
#
# 1 0.006452 -0.002677 -0.002219 0.000000 0.004291 0.000000
# 2 -0.002677 0.013320 -0.003620 0.000000 -0.005844 0.000000
# 3 -0.002219 -0.003620 0.013838 0.000000 0.004945 0.000000
# 4 0.000000 0.000000 0.000000 -0.014365 0.000000 0.022356
# 5 0.004291 -0.005844 0.004945 0.000000 0.030837 0.000000
# 6 0.000000 0.000000 0.000000 0.022356 0.000000 -0.010757
#
#
# Mechanical properties :
#
#
# Convention : Reuss Voigt Hill
#
# Bulk Modulus (GPa) = 60.33175 74.12236 67.22706
# Shear Modulus (GPa) = 80.79679 40.87990 60.83835
#
# Velocity S-wave (km/s) = 6.42150 4.56766 5.57222
# Velocity P-wave (km/s) = 9.26131 8.10230 8.70113
#
# Compressibility (1/GPa) = 0.01657502
#
# Stress axis : x y z
#
# Youngs Moduli (GPa) = 155.00179 75.07652 72.26449
#
# Poissons Ratio (x) = 0.20102 0.16037
# Poissons Ratio (y) = 0.41502 0.26163
# Poissons Ratio (z) = 0.34398 0.27181
#
# Static dielectric constant tensor:
#      x y z
#    x 4.442590 0.000000 -0.343300 
#    y 0.000000 3.498790 0.000000 
#    z -0.343300 0.000000 3.524260 
# 
# 
# High freq. dielectric constant tensor:
#      x y z
#    x 1.803280 0.000000 -0.021040 
#    y 0.000000 1.759390 0.000000 
#    z -0.021040 0.000000 1.748700 
# 
# From -- ./inp_files/58369.got.cif
#   From: 2010.06.25/outbox.cif.g09.slc.cpg/sg13_30_cif.got.tgz:58369.got - 2010.06.28 04:50:58.
