data_PCOD8120692
_publ_section_title
;
Structure prediction by ZEFSAII (Michael W. Deem and Ramdas Pophale) SiO2 
 PCOD8120692
Probable space group: P 2/C
;
_chemical_formula_sum "Si O2"
_cell_formula_units_Z 16
_cell_length_a 9.263299
_cell_length_b 8.313300
_cell_length_c 10.222210
_cell_angle_alpha 90.000000
_cell_angle_beta 126.501075
_cell_angle_gamma 90.000000
_cell_volume 632.785658
_symmetry_space_group_name_H-M "P 2/C"
_symmetry_group_IT_number 13
_symmetry_cell_setting 'monoclinic'
loop_
_space_group_symop_operation_xyz
x,y,z
-x,y,1/2-z
-x,-y,-z
x,-y,1/2+z
loop_
_atom_site_type_symbol
_atom_site_label
_atom_site_fract_x
_atom_site_fract_y
_atom_site_fract_z
Si Si1 0.700060 0.338764 0.378704
Si Si2 0.035124 0.182429 0.483233
Si Si3 0.286605 0.336863 0.828270
Si Si4 0.683694 0.650953 0.510265
O O1 0.500000 0.272046 0.250000
O O2 0.762464 0.272314 0.554029
O O3 0.703461 0.535768 0.389519
O O4 0.842290 0.266156 0.351693
O O5 0.130859 0.269369 0.655487
O O6 0.162624 0.211519 0.423370
O O7 0.000000 0.000000 0.500000
O O8 0.486113 0.270932 0.899535
O O9 0.297308 0.537764 0.847211
#
# Coordination Sequence:
#
# PCOD8120692 Si02
#       4
#     4   4   4   4
#     4  10  21  41  67  98 133 177 233 283 333 407
#     4  12  24  41  66 103 143 180 219 286 358 413
#     4   9  21  42  72  96 131 178 233 288 332 404
#     4   9  21  40  75  95 132 172 234 286 331 399
#
# _framework density 25.285025000000001
#
# number of rings (size 3 to 8) (size 9 to 14) (size 15 to 20)
#    1.500    0.500    0.000    3.750    0.000    2.000 
#    4.500    7.500    0.000    0.000    0.000    0.000 
#    0.000    0.000    0.000    0.000    0.000    0.000 
#
# Total GULP energy -198254.841685 kJ/mol
# GULP energy per Si atom -12390.927605 kJ/mol
# Density = 2.522747 g / cm^3
# Si number density = 25.285025 Si / 1000 Ang^3
#
#
#
# Elastic Constant Matrix: (Units=GPa)
#
#
# Indices 1 2 3 4 5 6 
#
# 1 144.6244 50.0605 18.3965 0.0000 56.4913 0.0000
# 2 50.0605 92.9784 30.4071 0.0000 21.7178 0.0000
# 3 18.3965 30.4071 84.2412 0.0000 34.5778 0.0000
# 4 0.0000 0.0000 0.0000 10.1145 0.0000 -6.0274
# 5 56.4913 21.7178 34.5778 0.0000 51.7458 0.0000
# 6 0.0000 0.0000 0.0000 -6.0274 0.0000 33.2067
#
#
#
# Elastic Compliance Matrix: (Units=1/GPa)
#
#
# Indices 1 2 3 4 5 6 
#
# 1 0.015510 -0.006105 0.006497 0.000000 -0.018712 0.000000
# 2 -0.006105 0.014945 -0.005818 0.000000 0.004280 0.000000
# 3 0.006497 -0.005818 0.019926 0.000000 -0.017966 0.000000
# 4 0.000000 0.000000 0.000000 0.110859 0.000000 0.020122
# 5 -0.018712 0.004280 -0.017966 0.000000 0.049962 0.000000
# 6 0.000000 0.000000 0.000000 0.020122 0.000000 0.033767
#
#
# Mechanical properties :
#
#
# Convention : Reuss Voigt Hill
#
# Bulk Modulus (GPa) = 25.29755 57.73026 41.51390
# Shear Modulus (GPa) = 18.58748 33.87872 26.23310
#
# Velocity S-wave (km/s) = 2.71425 3.66440 3.22451
# Velocity P-wave (km/s) = 4.45528 6.38632 5.50612
#
# Compressibility (1/GPa) = 0.03952953
#
# Stress axis : x y z
#
# Youngs Moduli (GPa) = 64.47418 66.91161 50.18470
#
# Poissons Ratio (x) = 0.40848 -0.32605
# Poissons Ratio (y) = 0.39360 0.29198
# Poissons Ratio (z) = -0.41888 0.38930
#
# Static dielectric constant tensor:
#      x y z
#    x 4.967340 0.000000 -0.179370 
#    y 0.000000 3.894960 0.000000 
#    z -0.179370 0.000000 4.538740 
# 
# 
# High freq. dielectric constant tensor:
#      x y z
#    x 2.045450 0.000000 -0.010240 
#    y 0.000000 1.931360 0.000000 
#    z -0.010240 0.000000 2.030210 
# 
# From -- ./inp_files/45649.got.cif
#   From: 2010.06.25/outbox.cif.g09.slc.cpg/sg13_23_cif.got.tgz:45649.got - 2010.06.28 04:50:58.
