data_PCOD8120115
_publ_section_title
;
Structure prediction by ZEFSAII (Michael W. Deem and Ramdas Pophale) SiO2 
 PCOD8120115
Probable space group: P 2/C
;
_chemical_formula_sum "Si O2"
_cell_formula_units_Z 20
_cell_length_a 26.531201
_cell_length_b 9.015273
_cell_length_c 9.661677
_cell_angle_alpha 90.000000
_cell_angle_beta 155.553522
_cell_angle_gamma 90.000000
_cell_volume 956.365624
_symmetry_space_group_name_H-M "P 2/C"
_symmetry_group_IT_number 13
_symmetry_cell_setting 'monoclinic'
loop_
_space_group_symop_operation_xyz
x,y,z
-x,y,1/2-z
-x,-y,-z
x,-y,1/2+z
loop_
_atom_site_type_symbol
_atom_site_label
_atom_site_fract_x
_atom_site_fract_y
_atom_site_fract_z
Si Si1 0.500000 0.499896 0.250000
Si Si2 0.667682 0.247718 0.569272
Si Si3 0.500000 0.999913 0.250000
Si Si4 0.136986 0.352500 0.932667
Si Si5 0.332536 0.752043 0.731364
Si Si6 0.136830 0.647775 0.752067
O O1 0.586067 0.396055 0.372549
O O2 0.585789 0.603749 0.557409
O O3 0.583292 0.103289 0.362624
O O4 0.732879 0.249353 0.582150
O O5 0.768229 0.236848 0.943142
O O6 0.583212 0.896579 0.553717
O O7 0.148341 0.500217 0.871071
O O8 0.000129 0.287834 0.580753
O O9 0.232057 0.237319 0.102813
O O10 0.172034 0.383383 0.180212
#
# Coordination Sequence:
#
# PCOD8120115 Si02
#       6
#     2   4   2   4   4   4
#     4  10  22  34  58  92 122 150 202 252 302 358
#     4  11  22  39  62  89 122 161 202 251 302 357
#     4  10  26  42  58  88 126 162 208 246 302 358
#     4  10  21  37  60  91 124 156 197 250 303 357
#     4  11  22  39  62  89 122 161 202 251 302 357
#     4  10  21  37  60  91 124 156 197 250 303 357
#
# _framework density 20.912503000000001
#
# number of rings (size 3 to 8) (size 9 to 14) (size 15 to 20)
#    0.000    1.600    2.000    2.400    0.000   10.400 
#    0.000    1.000    0.000    0.000    0.000    0.000 
#    0.000    0.000    0.000    0.000    0.000    0.000 
#
# Total GULP energy -247935.760180 kJ/mol
# GULP energy per Si atom -12396.788009 kJ/mol
# Density = 2.086491 g / cm^3
# Si number density = 20.912503 Si / 1000 Ang^3
#
#
#
# Elastic Constant Matrix: (Units=GPa)
#
#
# Indices 1 2 3 4 5 6 
#
# 1 176.3564 40.4196 87.7918 0.0000 -22.9052 0.0000
# 2 40.4196 102.6560 42.0075 0.0000 0.8890 0.0000
# 3 87.7918 42.0075 131.5897 0.0000 -5.4521 0.0000
# 4 0.0000 0.0000 0.0000 15.3625 0.0000 2.7222
# 5 -22.9052 0.8890 -5.4521 0.0000 37.0473 0.0000
# 6 0.0000 0.0000 0.0000 2.7222 0.0000 10.9217
#
#
#
# Elastic Compliance Matrix: (Units=1/GPa)
#
#
# Indices 1 2 3 4 5 6 
#
# 1 0.009472 -0.001465 -0.005642 0.000000 0.005061 0.000000
# 2 -0.001465 0.011455 -0.002745 0.000000 -0.001584 0.000000
# 3 -0.005642 -0.002745 0.012172 0.000000 -0.001631 0.000000
# 4 0.000000 0.000000 0.000000 0.068102 0.000000 -0.016974
# 5 0.005061 -0.001584 -0.001631 0.000000 0.029920 0.000000
# 6 0.000000 0.000000 0.000000 -0.016974 0.000000 0.095791
#
#
# Mechanical properties :
#
#
# Convention : Reuss Voigt Hill
#
# Bulk Modulus (GPa) = 74.65249 83.44888 79.05068
# Shear Modulus (GPa) = 19.91385 28.69185 24.30285
#
# Velocity S-wave (km/s) = 3.08920 3.70806 3.41269
# Velocity P-wave (km/s) = 6.96414 7.63698 7.30830
#
# Compressibility (1/GPa) = 0.01339540
#
# Stress axis : x y z
#
# Youngs Moduli (GPa) = 105.57356 87.29771 82.15259
#
# Poissons Ratio (x) = 0.12785 0.46352
# Poissons Ratio (y) = 0.15461 0.22554
# Poissons Ratio (z) = 0.59567 0.23967
#
# Static dielectric constant tensor:
#      x y z
#    x 3.765260 0.000000 0.174500 
#    y 0.000000 3.620710 0.000000 
#    z 0.174500 0.000000 4.047820 
# 
# 
# High freq. dielectric constant tensor:
#      x y z
#    x 1.827050 0.000000 -0.001730 
#    y 0.000000 1.789610 0.000000 
#    z -0.001730 0.000000 1.824220 
# 
# From -- ./inp_files/23980.got.cif
#   From: 2010.06.25/outbox.cif.g09.slc.cpg/sg13_12_cif.got.tgz:23980.got - 2010.06.28 04:50:58.
