data_PCOD8120758
_publ_section_title
;
Structure prediction by ZEFSAII (Michael W. Deem and Ramdas Pophale) SiO2 
 PCOD8120758
Probable space group: P 2/C
;
_chemical_formula_sum "Si O2"
_cell_formula_units_Z 32
_cell_length_a 16.557549
_cell_length_b 10.231770
_cell_length_c 18.496123
_cell_angle_alpha 90.000000
_cell_angle_beta 148.795674
_cell_angle_gamma 90.000000
_cell_volume 1623.431864
_symmetry_space_group_name_H-M "P 2/C"
_symmetry_group_IT_number 13
_symmetry_cell_setting 'monoclinic'
loop_
_space_group_symop_operation_xyz
x,y,z
-x,y,1/2-z
-x,-y,-z
x,-y,1/2+z
loop_
_atom_site_type_symbol
_atom_site_label
_atom_site_fract_x
_atom_site_fract_y
_atom_site_fract_z
Si Si1 0.949188 0.557742 0.294087
Si Si2 0.599890 0.988764 0.689707
Si Si3 0.410697 0.618882 0.465195
Si Si4 0.611251 0.159655 0.055667
Si Si5 0.947467 0.263399 0.292332
Si Si6 0.551700 0.742225 0.864194
Si Si7 0.897234 0.192230 0.600460
Si Si8 0.905075 0.956846 0.496936
O O1 0.983511 0.411110 0.347798
O O2 0.000000 0.560479 0.250000
O O3 0.054817 0.675133 0.407776
O O4 0.773193 0.597777 0.177759
O O5 0.660579 0.940045 0.657430
O O6 0.562177 0.863680 0.709380
O O7 0.447749 0.079325 0.559808
O O8 0.729778 0.068696 0.833875
O O9 0.500000 0.500000 0.500000
O O10 0.463071 0.751748 0.465322
O O11 0.466913 0.629103 0.591012
O O12 0.761008 0.244651 0.149458
O O13 0.000000 0.237960 0.250000
O O14 0.033475 0.173109 0.416536
O O15 0.500000 0.675675 0.750000
O O16 0.724283 0.797518 0.997347
O O17 0.917080 0.071618 0.563375
O O18 0.000000 0.167116 0.750000
O O19 0.000000 0.000000 0.500000
#
# Coordination Sequence:
#
# PCOD8120758 Si02
#       8
#     4   4   4   4   4   4   4   4
#     4  10  21  42  66  93 127 167 221 265 309 388
#     4  10  23  39  61  91 133 158 212 270 323 374
#     4  11  21  39  69  94 125 170 219 262 323 390
#     4  10  22  39  64  94 121 171 212 260 324 394
#     4  11  24  41  66  92 131 172 214 261 332 390
#     4  11  22  40  66  94 126 165 220 276 319 374
#     4  11  23  41  70  96 123 174 223 265 316 390
#     4  12  25  40  62  97 135 165 211 275 327 377
#
# _framework density 19.711327000000001
#
# number of rings (size 3 to 8) (size 9 to 14) (size 15 to 20)
#    0.000    1.250    6.250    0.375    5.250    0.000 
#    0.000    1.875    0.000    0.000    0.000    0.000 
#    0.000    0.000    0.000    0.000    0.000    0.000 
#
# Total GULP energy -396631.853448 kJ/mol
# GULP energy per Si atom -12394.745420 kJ/mol
# Density = 1.966646 g / cm^3
# Si number density = 19.711327 Si / 1000 Ang^3
#
#
#
# Elastic Constant Matrix: (Units=GPa)
#
#
# Indices 1 2 3 4 5 6 
#
# 1 91.2541 32.2929 39.8513 0.0000 -0.0987 0.0000
# 2 32.2929 114.5273 40.2408 0.0000 -10.7380 0.0000
# 3 39.8513 40.2408 103.5718 0.0000 -5.5110 0.0000
# 4 0.0000 0.0000 0.0000 8.8949 0.0000 12.3600
# 5 -0.0987 -10.7380 -5.5110 0.0000 36.4920 0.0000
# 6 0.0000 0.0000 0.0000 12.3600 0.0000 25.0004
#
#
#
# Elastic Compliance Matrix: (Units=1/GPa)
#
#
# Indices 1 2 3 4 5 6 
#
# 1 0.013751 -0.002455 -0.004409 0.000000 -0.001351 0.000000
# 2 -0.002455 0.010763 -0.003094 0.000000 0.002693 0.000000
# 3 -0.004409 -0.003094 0.012606 0.000000 0.000981 0.000000
# 4 0.000000 0.000000 0.000000 0.359162 0.000000 -0.177566
# 5 -0.001351 0.002693 0.000981 0.000000 0.028340 0.000000
# 6 0.000000 0.000000 0.000000 -0.177566 0.000000 0.127786
#
#
# Mechanical properties :
#
#
# Convention : Reuss Voigt Hill
#
# Bulk Modulus (GPa) = 58.12433 59.34702 58.73568
# Shear Modulus (GPa) = 8.64962 27.20868 17.92915
#
# Velocity S-wave (km/s) = 2.09706 3.71935 3.01921
# Velocity P-wave (km/s) = 5.95108 6.97267 6.48203
#
# Compressibility (1/GPa) = 0.01720450
#
# Stress axis : x y z
#
# Youngs Moduli (GPa) = 72.72115 92.90755 79.32741
#
# Poissons Ratio (x) = 0.22807 0.34977
# Poissons Ratio (y) = 0.17852 0.24544
# Poissons Ratio (z) = 0.32064 0.28746
#
# Static dielectric constant tensor:
#      x y z
#    x 1.329180 0.000000 -1.409590 
#    y 0.000000 3.972800 0.000000 
#    z -1.409590 0.000000 2.527680 
# 
# 
# High freq. dielectric constant tensor:
#      x y z
#    x 1.772590 0.000000 0.014300 
#    y 0.000000 1.769960 0.000000 
#    z 0.014300 0.000000 1.763400 
# 
# From -- ./inp_files/68685.got.cif
#   From: 2010.06.25/outbox.cif.g09.slc.cpg/sg13_35_cif.got.tgz:68685.got - 2010.06.28 04:50:58.
