data_PCOD8120358
_publ_section_title
;
Structure prediction by ZEFSAII (Michael W. Deem and Ramdas Pophale) SiO2 
 PCOD8120358
Probable space group: P 2/C
;
_chemical_formula_sum "Si O2"
_cell_formula_units_Z 18
_cell_length_a 7.898390
_cell_length_b 22.537213
_cell_length_c 5.162771
_cell_angle_alpha 90.000000
_cell_angle_beta 118.781327
_cell_angle_gamma 90.000000
_cell_volume 805.481461
_symmetry_space_group_name_H-M "P 2/C"
_symmetry_group_IT_number 13
_symmetry_cell_setting 'monoclinic'
loop_
_space_group_symop_operation_xyz
x,y,z
-x,y,1/2-z
-x,-y,-z
x,-y,1/2+z
loop_
_atom_site_type_symbol
_atom_site_label
_atom_site_fract_x
_atom_site_fract_y
_atom_site_fract_z
Si Si1 0.413151 0.565898 0.938749
Si Si2 0.727852 0.214870 0.427249
Si Si3 0.000000 0.959396 0.750000
Si Si4 0.727414 0.144499 0.930296
Si Si5 0.000000 0.681468 0.250000
Si Si6 0.000000 0.605208 0.750000
O O1 0.500000 0.599188 0.750000
O O2 0.180418 0.564741 0.788032
O O3 0.500000 0.600477 0.250000
O O4 0.500000 0.500000 0.000000
O O5 0.500000 0.222440 0.250000
O O6 0.799276 0.170185 0.707553
O O7 0.816394 0.279324 0.536322
O O8 0.798304 0.189828 0.204181
O O9 0.811773 0.918951 0.571737
O O10 0.000000 0.000000 0.500000
O O11 0.500000 0.136086 0.750000
O O12 0.938441 0.643340 0.454947
#
# Coordination Sequence:
#
# PCOD8120358 Si02
#       6
#     4   4   2   4   2   2
#     4  10  23  43  68  92 123 168 214 259 303 367
#     4  10  21  39  63  87 116 162 207 248 306 381
#     4  12  24  36  56  86 120 156 198 258 318 360
#     4  10  21  39  61  84 115 159 211 252 297 375
#     4  12  24  39  63  94 134 161 195 264 326 380
#     4  12  26  41  63 100 132 165 209 262 326 376
#
# _framework density 22.346882000000001
#
# number of rings (size 3 to 8) (size 9 to 14) (size 15 to 20)
#    0.000    1.333    0.000    5.333    0.000    7.111 
#    0.000    0.000    0.000    0.000    0.000    0.000 
#    0.000    0.000    0.000    0.000    0.000    0.000 
#
# Total GULP energy -223135.283526 kJ/mol
# GULP energy per Si atom -12396.404640 kJ/mol
# Density = 2.229602 g / cm^3
# Si number density = 22.346882 Si / 1000 Ang^3
#
#
#
# Elastic Constant Matrix: (Units=GPa)
#
#
# Indices 1 2 3 4 5 6 
#
# 1 135.9658 48.9081 73.1625 0.0000 -10.5770 0.0000
# 2 48.9081 102.5829 53.7411 0.0000 2.8752 0.0000
# 3 73.1625 53.7411 182.0885 0.0000 -21.3159 0.0000
# 4 0.0000 0.0000 0.0000 23.4770 0.0000 -4.5794
# 5 -10.5770 2.8752 -21.3159 0.0000 42.2627 0.0000
# 6 0.0000 0.0000 0.0000 -4.5794 0.0000 22.2985
#
#
#
# Elastic Compliance Matrix: (Units=1/GPa)
#
#
# Indices 1 2 3 4 5 6 
#
# 1 0.010273 -0.003373 -0.002980 0.000000 0.001297 0.000000
# 2 -0.003373 0.012926 -0.002829 0.000000 -0.003150 0.000000
# 3 -0.002980 -0.002829 0.007927 0.000000 0.003445 0.000000
# 4 0.000000 0.000000 0.000000 0.044372 0.000000 0.009113
# 5 0.001297 -0.003150 0.003445 0.000000 0.025938 0.000000
# 6 0.000000 0.000000 0.000000 0.009113 0.000000 0.046718
#
#
# Mechanical properties :
#
#
# Convention : Reuss Voigt Hill
#
# Bulk Modulus (GPa) = 78.35064 85.80674 82.07869
# Shear Modulus (GPa) = 29.27884 33.92934 31.60409
#
# Velocity S-wave (km/s) = 3.62359 3.90077 3.76473
# Velocity P-wave (km/s) = 7.25565 7.66609 7.46369
#
# Compressibility (1/GPa) = 0.01276314
#
# Stress axis : x y z
#
# Youngs Moduli (GPa) = 97.34717 77.36114 126.14484
#
# Poissons Ratio (x) = 0.26091 0.37594
# Poissons Ratio (y) = 0.32832 0.35683
# Poissons Ratio (z) = 0.29011 0.21883
#
# Static dielectric constant tensor:
#      x y z
#    x 20.736640 0.000000 -35.482450 
#    y 0.000000 3.773800 0.000000 
#    z -35.482450 0.000000 83.426100 
# 
# 
# High freq. dielectric constant tensor:
#      x y z
#    x 1.891440 0.000000 -0.005210 
#    y 0.000000 1.855220 0.000000 
#    z -0.005210 0.000000 1.917730 
# 
# From -- ./inp_files/1898.got.cif
#   From: 2010.06.25/outbox.cif.g09.slc.cpg/sg13_1_cif.got.tgz:1898.got - 2010.06.28 04:50:58.
