data_PCOD8120384
_publ_section_title
;
Structure prediction by ZEFSAII (Michael W. Deem and Ramdas Pophale) SiO2 
 PCOD8120384
Probable space group: P 2/C
;
_chemical_formula_sum "Si O2"
_cell_formula_units_Z 32
_cell_length_a 10.684639
_cell_length_b 8.575885
_cell_length_c 28.816183
_cell_angle_alpha 90.000000
_cell_angle_beta 144.862158
_cell_angle_gamma 90.000000
_cell_volume 1519.689662
_symmetry_space_group_name_H-M "P 2/C"
_symmetry_group_IT_number 13
_symmetry_cell_setting 'monoclinic'
loop_
_space_group_symop_operation_xyz
x,y,z
-x,y,1/2-z
-x,-y,-z
x,-y,1/2+z
loop_
_atom_site_type_symbol
_atom_site_label
_atom_site_fract_x
_atom_site_fract_y
_atom_site_fract_z
Si Si1 0.055274 0.825873 0.001345
Si Si2 0.473400 0.836852 0.466107
Si Si3 0.625703 0.757060 0.908998
Si Si4 0.516607 0.893336 0.138843
Si Si5 0.700624 0.755204 0.279765
Si Si6 0.830821 0.320437 0.560085
Si Si7 0.088486 0.682718 0.913578
Si Si8 0.638502 0.393225 0.247553
O O1 0.877270 0.717293 0.971725
O O2 0.035348 0.794765 0.940620
O O3 0.305525 0.789936 0.090528
O O4 0.000000 0.000000 0.000000
O O5 0.425891 0.859840 0.397033
O O6 0.270775 0.729427 0.421223
O O7 0.697259 0.747609 0.546022
O O8 0.500000 0.000000 0.500000
O O9 0.477001 0.636005 0.836536
O O10 0.540586 0.926974 0.870547
O O11 0.634796 0.735168 0.966818
O O12 0.706850 0.846791 0.232302
O O13 0.500000 0.820932 0.250000
O O14 0.666996 0.575757 0.259026
O O15 0.938442 0.773123 0.376116
O O16 0.868515 0.501943 0.561850
O O17 0.872854 0.692110 0.816390
O O18 0.500000 0.331484 0.250000
#
# Coordination Sequence:
#
# PCOD8120384 Si02
#       8
#     4   4   4   4   4   4   4   4
#     4   9  19  35  60  94 126 163 209 260 323 395
#     4  11  23  44  67  87 129 171 230 271 320 391
#     4  11  21  37  64  94 128 164 214 256 331 392
#     4  10  22  40  62  91 125 175 216 265 322 383
#     4  10  23  43  63  98 136 161 209 267 332 396
#     4  11  24  41  66  95 126 176 216 271 326 393
#     4  10  22  41  63  93 128 169 215 272 330 384
#     4  10  21  39  62  95 133 164 203 263 329 394
#
# _framework density 21.056930999999999
#
# number of rings (size 3 to 8) (size 9 to 14) (size 15 to 20)
#    0.000    1.750    2.500    1.125    3.500    2.500 
#    0.000    0.625    0.000    0.000    0.000    0.000 
#    0.000    0.000    0.000    0.000    0.000    0.000 
#
# Total GULP energy -396511.269689 kJ/mol
# GULP energy per Si atom -12390.977178 kJ/mol
# Density = 2.100900 g / cm^3
# Si number density = 21.056931 Si / 1000 Ang^3
#
#
#
# Elastic Constant Matrix: (Units=GPa)
#
#
# Indices 1 2 3 4 5 6 
#
# 1 94.0951 26.7601 30.1188 0.0000 3.2202 0.0000
# 2 26.7601 63.1264 37.8900 0.0000 -0.0821 0.0000
# 3 30.1188 37.8900 131.9977 0.0000 -11.4928 0.0000
# 4 0.0000 0.0000 0.0000 31.6704 0.0000 -2.3243
# 5 3.2202 -0.0821 -11.4928 0.0000 32.6137 0.0000
# 6 0.0000 0.0000 0.0000 -2.3243 0.0000 32.3668
#
#
#
# Elastic Compliance Matrix: (Units=1/GPa)
#
#
# Indices 1 2 3 4 5 6 
#
# 1 0.012464 -0.004206 -0.001800 0.000000 -0.001876 0.000000
# 2 -0.004206 0.020678 -0.005092 0.000000 -0.001327 0.000000
# 3 -0.001800 -0.005092 0.009762 0.000000 0.003605 0.000000
# 4 0.000000 0.000000 0.000000 0.031742 0.000000 0.002279
# 5 -0.001876 -0.001327 0.003605 0.000000 0.032114 0.000000
# 6 0.000000 0.000000 0.000000 0.002279 0.000000 0.031060
#
#
# Mechanical properties :
#
#
# Convention : Reuss Voigt Hill
#
# Bulk Modulus (GPa) = 48.28639 53.19523 50.74081
# Shear Modulus (GPa) = 29.95471 32.29355 31.12413
#
# Velocity S-wave (km/s) = 3.77577 3.92041 3.84877
# Velocity P-wave (km/s) = 6.47995 6.76832 6.62571
#
# Compressibility (1/GPa) = 0.02070977
#
# Stress axis : x y z
#
# Youngs Moduli (GPa) = 80.23126 48.35950 102.43727
#
# Poissons Ratio (x) = 0.20338 0.18439
# Poissons Ratio (y) = 0.33742 0.52158
# Poissons Ratio (z) = 0.14442 0.24623
#
# Static dielectric constant tensor:
#      x y z
#    x 3.936170 0.000000 0.246360 
#    y 0.000000 3.608290 0.000000 
#    z 0.246360 0.000000 4.058750 
# 
# 
# High freq. dielectric constant tensor:
#      x y z
#    x 1.817140 0.000000 0.005000 
#    y 0.000000 1.816980 0.000000 
#    z 0.005000 0.000000 1.829620 
# 
# From -- ./inp_files/96710.got.cif
#   From: 2010.06.25/outbox.cif.g09.slc.cpg/sg13_49_cif.got.tgz:96710.got - 2010.06.28 04:50:58.
