data_PCOD8120805
_publ_section_title
;
Structure prediction by ZEFSAII (Michael W. Deem and Ramdas Pophale) SiO2 
 PCOD8120805
Probable space group: P 2/C
;
_chemical_formula_sum "Si O2"
_cell_formula_units_Z 30
_cell_length_a 24.855108
_cell_length_b 8.835828
_cell_length_c 15.899541
_cell_angle_alpha 90.000000
_cell_angle_beta 26.038608
_cell_angle_gamma 90.000000
_cell_volume 1532.812212
_symmetry_space_group_name_H-M "P 2/C"
_symmetry_group_IT_number 13
_symmetry_cell_setting 'monoclinic'
loop_
_space_group_symop_operation_xyz
x,y,z
-x,y,1/2-z
-x,-y,-z
x,-y,1/2+z
loop_
_atom_site_type_symbol
_atom_site_label
_atom_site_fract_x
_atom_site_fract_y
_atom_site_fract_z
Si Si1 0.062175 0.817324 0.748684
Si Si2 0.469011 0.669339 0.012252
Si Si3 0.348032 0.178732 0.834533
Si Si4 0.938853 0.828009 0.251200
Si Si5 0.500000 0.366149 0.750000
Si Si6 0.052668 0.335344 0.928080
Si Si7 0.342014 0.638515 0.016511
Si Si8 0.343319 0.175752 0.353058
O O1 0.206587 0.776832 0.549784
O O2 0.000000 0.755009 0.750000
O O3 0.038281 0.994682 0.788728
O O4 0.995050 0.746100 0.922041
O O5 0.382353 0.766510 0.193889
O O6 0.397149 0.687071 0.026800
O O7 0.500000 0.500000 0.000000
O O8 0.597584 0.752822 0.814111
O O9 0.447359 0.261549 0.751772
O O10 0.369481 0.001951 0.818840
O O11 0.994314 0.751636 0.089474
O O12 0.798061 0.786825 0.457661
O O13 0.000000 0.762266 0.250000
O O14 0.615227 0.466313 0.558500
O O15 0.197772 0.345950 0.725964
O O16 0.000000 0.500000 0.000000
O O17 0.392473 0.743469 0.869219
#
# Coordination Sequence:
#
# PCOD8120805 Si02
#       8
#     4   4   4   4   2   4   4   4
#     4  10  21  43  64  88 123 161 207 257 306 365
#     4  12  22  39  60  89 123 161 203 247 305 365
#     4  11  24  39  62  93 120 162 210 257 299 361
#     4   9  21  41  64  89 122 159 202 257 309 356
#     4  12  22  40  60  84 132 160 202 250 310 368
#     4  11  23  37  62  93 123 158 207 248 306 371
#     4  11  22  41  62  86 123 168 194 252 313 365
#     4  10  22  41  62  89 123 160 209 251 305 366
#
# _framework density 19.571869
#
# number of rings (size 3 to 8) (size 9 to 14) (size 15 to 20)
#    0.000    1.333    2.667    2.400    1.867    2.667 
#    2.400    0.000    0.000    0.000    0.000    0.000 
#    0.000    0.000    0.000    0.000    0.000    0.000 
#
# Total GULP energy -371940.100933 kJ/mol
# GULP energy per Si atom -12398.003364 kJ/mol
# Density = 1.952732 g / cm^3
# Si number density = 19.571869 Si / 1000 Ang^3
#
#
#
# Elastic Constant Matrix: (Units=GPa)
#
#
# Indices 1 2 3 4 5 6 
#
# 1 139.3698 52.4339 57.2115 0.0000 16.2884 0.0000
# 2 52.4339 89.7946 61.9623 0.0000 4.1321 0.0000
# 3 57.2115 61.9623 134.9505 0.0000 22.4180 0.0000
# 4 0.0000 0.0000 0.0000 34.6090 0.0000 3.3516
# 5 16.2884 4.1321 22.4180 0.0000 29.7773 0.0000
# 6 0.0000 0.0000 0.0000 3.3516 0.0000 20.0866
#
#
#
# Elastic Compliance Matrix: (Units=1/GPa)
#
#
# Indices 1 2 3 4 5 6 
#
# 1 0.009953 -0.004615 -0.001489 0.000000 -0.003683 0.000000
# 2 -0.004615 0.018838 -0.007633 0.000000 0.005657 0.000000
# 3 -0.001489 -0.007633 0.012840 0.000000 -0.007793 0.000000
# 4 0.000000 0.000000 0.000000 0.029369 0.000000 -0.004900
# 5 -0.003683 0.005657 -0.007793 0.000000 0.040680 0.000000
# 6 0.000000 0.000000 0.000000 -0.004900 0.000000 0.050602
#
#
# Mechanical properties :
#
#
# Convention : Reuss Voigt Hill
#
# Bulk Modulus (GPa) = 70.62805 78.59225 74.61015
# Shear Modulus (GPa) = 25.71037 29.72840 27.71938
#
# Velocity S-wave (km/s) = 3.62835 3.90158 3.76744
# Velocity P-wave (km/s) = 7.32926 7.78070 7.55835
#
# Compressibility (1/GPa) = 0.01415868
#
# Stress axis : x y z
#
# Youngs Moduli (GPa) = 100.47189 53.08433 77.87975
#
# Poissons Ratio (x) = 0.24499 0.11593
# Poissons Ratio (y) = 0.46370 0.59442
# Poissons Ratio (z) = 0.14956 0.40517
#
# Static dielectric constant tensor:
#      x y z
#    x 3.799810 0.000000 -0.017880 
#    y 0.000000 3.985500 0.000000 
#    z -0.017880 0.000000 3.686290 
# 
# 
# High freq. dielectric constant tensor:
#      x y z
#    x 1.775430 0.000000 0.002520 
#    y 0.000000 1.764610 0.000000 
#    z 0.002520 0.000000 1.776950 
# 
# From -- ./inp_files/58686.got.cif
#   From: 2010.06.25/outbox.cif.g09.slc.cpg/sg13_30_cif.got.tgz:58686.got - 2010.06.28 04:50:58.
