data_PCOD8120513
_publ_section_title
;
Structure prediction by ZEFSAII (Michael W. Deem and Ramdas Pophale) SiO2 
 PCOD8120513
Probable space group: P 2/C
;
_chemical_formula_sum "Si O2"
_cell_formula_units_Z 24
_cell_length_a 12.811972
_cell_length_b 8.017306
_cell_length_c 11.080572
_cell_angle_alpha 90.000000
_cell_angle_beta 103.850123
_cell_angle_gamma 90.000000
_cell_volume 1105.076670
_symmetry_space_group_name_H-M "P 2/C"
_symmetry_group_IT_number 13
_symmetry_cell_setting 'monoclinic'
loop_
_space_group_symop_operation_xyz
x,y,z
-x,y,1/2-z
-x,-y,-z
x,-y,1/2+z
loop_
_atom_site_type_symbol
_atom_site_label
_atom_site_fract_x
_atom_site_fract_y
_atom_site_fract_z
Si Si1 0.736406 0.240479 0.210291
Si Si2 0.266026 0.602214 0.322457
Si Si3 0.625133 0.083504 0.762452
Si Si4 0.059574 0.267487 0.648208
Si Si5 0.844891 0.719039 0.990327
Si Si6 0.196101 0.080231 0.502274
O O1 0.678127 0.421972 0.184990
O O2 0.817209 0.251762 0.344400
O O3 0.652042 0.089061 0.199615
O O4 0.807323 0.209170 0.109907
O O5 0.343062 0.754340 0.307542
O O6 0.154249 0.604548 0.213336
O O7 0.239336 0.605389 0.458577
O O8 0.500000 0.091093 0.750000
O O9 0.684199 0.083671 0.907540
O O10 0.112119 0.120872 0.585169
O O11 0.000000 0.193994 0.750000
O O12 0.966210 0.352627 0.539797
O O13 0.836094 0.898726 0.055772
#
# Coordination Sequence:
#
# PCOD8120513 Si02
#       6
#     4   4   4   4   4   4
#     4  11  24  40  65  96 127 169 214 261 321 379
#     4  10  22  42  63  90 134 164 212 267 314 371
#     4  10  23  45  69  91 125 167 212 271 327 378
#     4   9  20  38  63  90 130 172 211 257 303 374
#     4  10  21  40  62  91 133 170 210 259 310 377
#     4  10  21  41  64  92 130 166 214 267 315 372
#
# _framework density 21.717952
#
# number of rings (size 3 to 8) (size 9 to 14) (size 15 to 20)
#    0.000    2.000    1.667    0.500    7.000    2.667 
#    6.000    0.833    0.000    0.000    0.000    0.000 
#    0.000    0.000    0.000    0.000    0.000    0.000 
#
# Total GULP energy -297409.304451 kJ/mol
# GULP energy per Si atom -12392.054352 kJ/mol
# Density = 2.166852 g / cm^3
# Si number density = 21.717952 Si / 1000 Ang^3
#
#
#
# Elastic Constant Matrix: (Units=GPa)
#
#
# Indices 1 2 3 4 5 6 
#
# 1 129.9435 45.7194 43.7167 0.0000 -11.0951 0.0000
# 2 45.7194 165.7687 35.0358 0.0000 -17.8688 0.0000
# 3 43.7167 35.0358 103.3524 0.0000 -11.3802 0.0000
# 4 0.0000 0.0000 0.0000 13.7234 0.0000 -1.0085
# 5 -11.0951 -17.8688 -11.3802 0.0000 18.6622 0.0000
# 6 0.0000 0.0000 0.0000 -1.0085 0.0000 9.7058
#
#
#
# Elastic Compliance Matrix: (Units=1/GPa)
#
#
# Indices 1 2 3 4 5 6 
#
# 1 0.009569 -0.001734 -0.003233 0.000000 0.002057 0.000000
# 2 -0.001734 0.007326 -0.001170 0.000000 0.005270 0.000000
# 3 -0.003233 -0.001170 0.011904 0.000000 0.004217 0.000000
# 4 0.000000 0.000000 0.000000 0.073429 0.000000 0.007630
# 5 0.002057 0.005270 0.004217 0.000000 0.062425 0.000000
# 6 0.000000 0.000000 0.000000 0.007630 0.000000 0.103824
#
#
# Mechanical properties :
#
#
# Convention : Reuss Voigt Hill
#
# Bulk Modulus (GPa) = 60.51334 72.00095 66.25715
# Shear Modulus (GPa) = 17.46664 26.72446 22.09555
#
# Velocity S-wave (km/s) = 2.83900 3.51169 3.19311
# Velocity P-wave (km/s) = 6.21855 7.04750 6.64596
#
# Compressibility (1/GPa) = 0.01652528
#
# Stress axis : x y z
#
# Youngs Moduli (GPa) = 104.50203 136.49822 84.00453
#
# Poissons Ratio (x) = 0.23670 0.27161
# Poissons Ratio (y) = 0.18122 0.09826
# Poissons Ratio (z) = 0.33789 0.15966
#
# Static dielectric constant tensor:
#      x y z
#    x 3.600150 0.000000 -0.005770 
#    y 0.000000 3.990660 0.000000 
#    z -0.005770 0.000000 4.024850 
# 
# 
# High freq. dielectric constant tensor:
#      x y z
#    x 1.818020 0.000000 -0.008420 
#    y 0.000000 1.853800 0.000000 
#    z -0.008420 0.000000 1.865770 
# 
# From -- ./inp_files/32614.got.cif
#   From: 2010.06.25/outbox.cif.g09.slc.cpg/sg13_17_cif.got.tgz:32614.got - 2010.06.28 04:50:58.
