data_PCOD8120928
_publ_section_title
;
Structure prediction by ZEFSAII (Michael W. Deem and Ramdas Pophale) SiO2 
 PCOD8120928
Probable space group: P 2/C
;
_chemical_formula_sum "Si O2"
_cell_formula_units_Z 22
_cell_length_a 29.400451
_cell_length_b 6.758895
_cell_length_c 17.361949
_cell_angle_alpha 90.000000
_cell_angle_beta 16.203955
_cell_angle_gamma 90.000000
_cell_volume 962.768117
_symmetry_space_group_name_H-M "P 2/C"
_symmetry_group_IT_number 13
_symmetry_cell_setting 'monoclinic'
loop_
_space_group_symop_operation_xyz
x,y,z
-x,y,1/2-z
-x,-y,-z
x,-y,1/2+z
loop_
_atom_site_type_symbol
_atom_site_label
_atom_site_fract_x
_atom_site_fract_y
_atom_site_fract_z
Si Si1 0.352467 0.831419 0.338386
Si Si2 0.000000 0.857707 0.750000
Si Si3 0.154897 0.841294 0.107809
Si Si4 0.608876 0.378506 0.505495
Si Si5 0.271743 0.442564 0.835666
Si Si6 0.911677 0.693093 0.615387
O O1 0.509174 0.820638 0.140317
O O2 0.371877 0.664242 0.240659
O O3 0.184656 0.789666 0.657580
O O4 0.330580 0.051075 0.337755
O O5 0.150156 0.711292 0.493302
O O6 0.033916 0.002195 0.765384
O O7 0.065986 0.814412 0.333941
O O8 0.183584 0.641821 0.011743
O O9 0.500000 0.480698 0.750000
O O10 0.608798 0.511655 0.429473
O O11 0.790359 0.337266 0.239675
O O12 0.000000 0.500000 0.500000
#
# Coordination Sequence:
#
# PCOD8120928 Si02
#       6
#     4   2   4   4   4   4
#     4  10  23  41  64  97 133 171 218 270 330 394
#     4  10  22  36  64 106 128 172 224 276 322 392
#     4  11  22  39  69  97 133 172 221 274 328 389
#     4  10  23  41  65  92 133 175 218 271 330 391
#     4  11  21  40  67  93 133 174 222 270 333 388
#     4  11  21  41  69  95 132 177 218 271 325 388
#
# _framework density 22.850778999999999
#
# number of rings (size 3 to 8) (size 9 to 14) (size 15 to 20)
#    0.000    1.455    1.818    3.818    2.545    0.727 
#    0.000    1.818    8.000    0.000    0.000    0.000 
#    0.000    0.000    0.000    0.000    0.000    0.000 
#
# Total GULP energy -272542.897580 kJ/mol
# GULP energy per Si atom -12388.313526 kJ/mol
# Density = 2.279877 g / cm^3
# Si number density = 22.850779 Si / 1000 Ang^3
#
#
#
# Elastic Constant Matrix: (Units=GPa)
#
#
# Indices 1 2 3 4 5 6 
#
# 1 124.7780 49.6280 45.2141 0.0000 -0.5293 0.0000
# 2 49.6280 120.4400 25.5613 0.0000 -8.7618 0.0000
# 3 45.2141 25.5613 57.1703 0.0000 -3.7075 0.0000
# 4 0.0000 0.0000 0.0000 20.2390 0.0000 6.6249
# 5 -0.5293 -8.7618 -3.7075 0.0000 62.5831 0.0000
# 6 0.0000 0.0000 0.0000 6.6249 0.0000 24.7431
#
#
#
# Elastic Compliance Matrix: (Units=1/GPa)
#
#
# Indices 1 2 3 4 5 6 
#
# 1 0.012379 -0.003396 -0.008328 0.000000 -0.000864 0.000000
# 2 -0.003396 0.010174 -0.001779 0.000000 0.001290 0.000000
# 3 -0.008328 -0.001779 0.024948 0.000000 0.001158 0.000000
# 4 0.000000 0.000000 0.000000 0.054156 0.000000 -0.014500
# 5 -0.000864 0.001290 0.001158 0.000000 0.016221 0.000000
# 6 0.000000 0.000000 0.000000 -0.014500 0.000000 0.044298
#
#
# Mechanical properties :
#
#
# Convention : Reuss Voigt Hill
#
# Bulk Modulus (GPa) = 48.79255 60.35502 54.57378
# Shear Modulus (GPa) = 25.50850 33.64536 29.57693
#
# Velocity S-wave (km/s) = 3.34474 3.84134 3.60161
# Velocity P-wave (km/s) = 6.02623 6.79298 6.42106
#
# Compressibility (1/GPa) = 0.02049493
#
# Stress axis : x y z
#
# Youngs Moduli (GPa) = 80.78237 98.29166 40.08298
#
# Poissons Ratio (x) = 0.33383 0.33380
# Poissons Ratio (y) = 0.27436 0.07131
# Poissons Ratio (z) = 0.67273 0.17487
#
# Static dielectric constant tensor:
#      x y z
#    x 4.661670 0.000000 0.162360 
#    y 0.000000 4.191690 0.000000 
#    z 0.162360 0.000000 4.239810 
# 
# 
# High freq. dielectric constant tensor:
#      x y z
#    x 1.920190 0.000000 -0.000020 
#    y 0.000000 1.887680 0.000000 
#    z -0.000020 0.000000 1.902240 
# 
# From -- ./inp_files/72084.got.cif
#   From: 2010.06.25/outbox.cif.g09.slc.cpg/sg13_37_cif.got.tgz:72084.got - 2010.06.28 04:50:58.
