data_PCOD8120574
_publ_section_title
;
Structure prediction by ZEFSAII (Michael W. Deem and Ramdas Pophale) SiO2 
 PCOD8120574
Probable space group: P 2/C
;
_chemical_formula_sum "Si O2"
_cell_formula_units_Z 28
_cell_length_a 14.131154
_cell_length_b 15.604228
_cell_length_c 8.940029
_cell_angle_alpha 90.000000
_cell_angle_beta 41.653588
_cell_angle_gamma 90.000000
_cell_volume 1310.194379
_symmetry_space_group_name_H-M "P 2/C"
_symmetry_group_IT_number 13
_symmetry_cell_setting 'monoclinic'
loop_
_space_group_symop_operation_xyz
x,y,z
-x,y,1/2-z
-x,-y,-z
x,-y,1/2+z
loop_
_atom_site_type_symbol
_atom_site_label
_atom_site_fract_x
_atom_site_fract_y
_atom_site_fract_z
Si Si1 0.893583 0.481638 0.762348
Si Si2 0.745095 0.801028 0.713797
Si Si3 0.529498 0.284476 0.048583
Si Si4 0.024001 0.223390 0.058406
Si Si5 0.602605 0.034803 0.504634
Si Si6 0.779902 0.385793 0.644403
Si Si7 0.260800 0.858796 0.105857
O O1 0.770746 0.431061 0.820661
O O2 0.000000 0.430384 0.750000
O O3 0.000000 0.500000 0.500000
O O4 0.819364 0.557956 0.949993
O O5 0.615600 0.732891 0.871274
O O6 0.784967 0.817542 0.496080
O O7 0.877010 0.759720 0.644947
O O8 0.708820 0.891688 0.829805
O O9 0.500000 0.323890 0.250000
O O10 0.621956 0.344952 0.827827
O O11 0.606894 0.192797 0.979135
O O12 0.000000 0.185221 0.250000
O O13 0.099456 0.314734 0.982539
O O14 0.119852 0.150334 0.870663
O O15 0.500000 0.075034 0.750000
O O16 0.500000 0.000000 0.500000
O O17 0.696677 0.957523 0.460953
#
# Coordination Sequence:
#
# PCOD8120574 Si02
#       7
#     4   4   4   4   4   4   4
#     4   9  18  35  62  93 120 160 204 252 321 385
#     4  11  23  40  65  94 126 176 216 265 331 382
#     4   9  19  38  63  91 127 169 212 262 320 389
#     4  11  25  40  63  95 129 162 220 279 321 375
#     4  12  22  38  64  93 129 178 221 265 320 386
#     4  10  21  40  66  95 127 162 212 268 316 400
#     4  10  21  41  61  91 127 168 223 266 316 383
#
# _framework density 21.370875999999999
#
# number of rings (size 3 to 8) (size 9 to 14) (size 15 to 20)
#    0.000    1.714    2.857    2.143    2.000    4.000 
#    0.000    0.714    0.000    5.143    0.000    1.000 
#    0.000    0.000    0.000    0.000    0.000    0.000 
#
# Total GULP energy -346876.596974 kJ/mol
# GULP energy per Si atom -12388.449892 kJ/mol
# Density = 2.132223 g / cm^3
# Si number density = 21.370876 Si / 1000 Ang^3
#
#
#
# Elastic Constant Matrix: (Units=GPa)
#
#
# Indices 1 2 3 4 5 6 
#
# 1 108.2660 9.8287 50.9431 0.0000 -7.4095 0.0000
# 2 9.8287 63.0738 45.5533 0.0000 -0.7427 0.0000
# 3 50.9431 45.5533 149.2490 0.0000 -0.5208 0.0000
# 4 0.0000 0.0000 0.0000 27.0641 0.0000 8.7618
# 5 -7.4095 -0.7427 -0.5208 0.0000 35.9148 0.0000
# 6 0.0000 0.0000 0.0000 8.7618 0.0000 21.1376
#
#
#
# Elastic Compliance Matrix: (Units=1/GPa)
#
#
# Indices 1 2 3 4 5 6 
#
# 1 0.011270 0.001338 -0.004247 0.000000 0.002291 0.000000
# 2 0.001338 0.020500 -0.006712 0.000000 0.000603 0.000000
# 3 -0.004247 -0.006712 0.010195 0.000000 -0.000867 0.000000
# 4 0.000000 0.000000 0.000000 0.042676 0.000000 -0.017690
# 5 0.002291 0.000603 -0.000867 0.000000 0.028316 0.000000
# 6 0.000000 0.000000 0.000000 -0.017690 0.000000 0.054642
#
#
# Mechanical properties :
#
#
# Convention : Reuss Voigt Hill
#
# Bulk Modulus (GPa) = 44.00527 59.24876 51.62701
# Shear Modulus (GPa) = 25.71792 31.10756 28.41274
#
# Velocity S-wave (km/s) = 3.47278 3.81938 3.65020
# Velocity P-wave (km/s) = 6.05939 6.87273 6.47884
#
# Compressibility (1/GPa) = 0.02272455
#
# Stress axis : x y z
#
# Youngs Moduli (GPa) = 88.72823 48.77958 98.08273
#
# Poissons Ratio (x) = -0.06528 0.41659
# Poissons Ratio (y) = -0.11874 0.65831
# Poissons Ratio (z) = 0.37686 0.32740
#
# Static dielectric constant tensor:
#      x y z
#    x 1.603860 0.000000 -0.436920 
#    y 0.000000 4.072100 0.000000 
#    z -0.436920 0.000000 4.030670 
# 
# 
# High freq. dielectric constant tensor:
#      x y z
#    x 1.835500 0.000000 0.007900 
#    y 0.000000 1.812910 0.000000 
#    z 0.007900 0.000000 1.857960 
# 
# From -- ./inp_files/19832.got.cif
#   From: 2010.06.25/outbox.cif.g09.slc.cpg/sg13_10_cif.got.tgz:19832.got - 2010.06.28 04:50:58.
