data_PCOD8120609
_publ_section_title
;
Structure prediction by ZEFSAII (Michael W. Deem and Ramdas Pophale) SiO2 
 PCOD8120609
Probable space group: P 2/C
;
_chemical_formula_sum "Si O2"
_cell_formula_units_Z 22
_cell_length_a 18.508989
_cell_length_b 13.774290
_cell_length_c 12.722742
_cell_angle_alpha 90.000000
_cell_angle_beta 19.850322
_cell_angle_gamma 90.000000
_cell_volume 1101.423842
_symmetry_space_group_name_H-M "P 2/C"
_symmetry_group_IT_number 13
_symmetry_cell_setting 'monoclinic'
loop_
_space_group_symop_operation_xyz
x,y,z
-x,y,1/2-z
-x,-y,-z
x,-y,1/2+z
loop_
_atom_site_type_symbol
_atom_site_label
_atom_site_fract_x
_atom_site_fract_y
_atom_site_fract_z
Si Si1 0.228851 0.228462 0.785897
Si Si2 0.599541 0.512205 0.252768
Si Si3 0.000000 0.376433 0.250000
Si Si4 0.500000 0.672188 0.250000
Si Si5 0.474760 0.905161 0.104228
Si Si6 0.500000 0.337458 0.250000
Si Si7 0.789401 0.848771 0.848103
O O1 0.406454 0.179334 0.617026
O O2 0.331834 0.268348 0.538414
O O3 0.121553 0.314283 0.996891
O O4 0.045664 0.151303 0.000421
O O5 0.500000 0.500000 0.500000
O O6 0.446386 0.597066 0.416746
O O7 0.611456 0.407820 0.181076
O O8 0.836547 0.551936 0.917785
O O9 0.295988 0.740452 0.506747
O O10 0.296798 0.918500 0.439721
O O11 0.697942 0.880145 0.858649
O O12 0.500000 0.000000 0.000000
#
# Coordination Sequence:
#
# PCOD8120609 Si02
#       7
#     4   4   2   2   4   2   4
#     4  12  22  45  66  96 130 178 219 266 333 396
#     4  11  22  36  59  94 131 166 221 277 311 370
#     4  12  20  40  70  84 124 186 220 256 328 396
#     4   9  18  36  59  90 120 166 219 254 302 389
#     4  10  22  40  68 101 126 158 221 281 326 397
#     4  11  28  38  59 100 140 168 221 290 324 365
#     4  10  21  40  71  93 119 185 214 251 336 413
#
# _framework density 19.974146000000001
#
# number of rings (size 3 to 8) (size 9 to 14) (size 15 to 20)
#    0.000    1.455    5.455    1.091    0.000    4.364 
#    0.000    1.818    0.000    0.000    0.000    0.000 
#    0.000    0.000    0.000    0.000    0.000    0.000 
#
# Total GULP energy -272613.374082 kJ/mol
# GULP energy per Si atom -12391.517004 kJ/mol
# Density = 1.992868 g / cm^3
# Si number density = 19.974146 Si / 1000 Ang^3
#
#
#
# Elastic Constant Matrix: (Units=GPa)
#
#
# Indices 1 2 3 4 5 6 
#
# 1 143.9746 62.3501 60.8260 0.0000 11.8093 0.0000
# 2 62.3501 94.4207 50.5448 0.0000 13.0849 0.0000
# 3 60.8260 50.5448 104.2745 0.0000 15.2801 0.0000
# 4 0.0000 0.0000 0.0000 31.9067 0.0000 5.2828
# 5 11.8093 13.0849 15.2801 0.0000 36.3133 0.0000
# 6 0.0000 0.0000 0.0000 5.2828 0.0000 30.0866
#
#
#
# Elastic Compliance Matrix: (Units=1/GPa)
#
#
# Indices 1 2 3 4 5 6 
#
# 1 0.010748 -0.005046 -0.003813 0.000000 -0.000073 0.000000
# 2 -0.005046 0.016867 -0.004884 0.000000 -0.002382 0.000000
# 3 -0.003813 -0.004884 0.014645 0.000000 -0.003163 0.000000
# 4 0.000000 0.000000 0.000000 0.032280 0.000000 -0.005668
# 5 -0.000073 -0.002382 -0.003163 0.000000 0.029751 0.000000
# 6 0.000000 0.000000 0.000000 -0.005668 0.000000 0.034233
#
#
# Mechanical properties :
#
#
# Convention : Reuss Voigt Hill
#
# Bulk Modulus (GPa) = 67.68167 76.67906 72.18037
# Shear Modulus (GPa) = 29.25123 30.92458 30.08790
#
# Velocity S-wave (km/s) = 3.83097 3.93902 3.88537
# Velocity P-wave (km/s) = 7.31619 7.69158 7.50623
#
# Compressibility (1/GPa) = 0.01477505
#
# Stress axis : x y z
#
# Youngs Moduli (GPa) = 93.04309 59.28613 68.28354
#
# Poissons Ratio (x) = 0.29916 0.26035
# Poissons Ratio (y) = 0.46950 0.33347
# Poissons Ratio (z) = 0.35475 0.28953
#
# Static dielectric constant tensor:
#      x y z
#    x 3.866970 0.000000 -0.018040 
#    y 0.000000 3.762980 0.000000 
#    z -0.018040 0.000000 3.451060 
# 
# 
# High freq. dielectric constant tensor:
#      x y z
#    x 1.799390 0.000000 -0.003860 
#    y 0.000000 1.773370 0.000000 
#    z -0.003860 0.000000 1.754880 
# 
# From -- ./inp_files/39375.got.cif
#   From: 2010.06.25/outbox.cif.g09.slc.cpg/sg13_20_cif.got.tgz:39375.got - 2010.06.28 04:50:58.
