data_PCOD8120978
_publ_section_title
;
Structure prediction by ZEFSAII (Michael W. Deem and Ramdas Pophale) SiO2 
 PCOD8120978
Probable space group: P 2/C
;
_chemical_formula_sum "Si O2"
_cell_formula_units_Z 30
_cell_length_a 18.143985
_cell_length_b 6.343524
_cell_length_c 22.488635
_cell_angle_alpha 90.000000
_cell_angle_beta 144.486976
_cell_angle_gamma 90.000000
_cell_volume 1503.553082
_symmetry_space_group_name_H-M "P 2/C"
_symmetry_group_IT_number 13
_symmetry_cell_setting 'monoclinic'
loop_
_space_group_symop_operation_xyz
x,y,z
-x,y,1/2-z
-x,-y,-z
x,-y,1/2+z
loop_
_atom_site_type_symbol
_atom_site_label
_atom_site_fract_x
_atom_site_fract_y
_atom_site_fract_z
Si Si1 0.677398 0.514627 0.163524
Si Si2 0.063469 0.577968 0.626161
Si Si3 0.371049 0.324350 0.741546
Si Si4 0.067058 0.194587 0.012410
Si Si5 0.402740 0.999330 0.101762
Si Si6 0.458289 0.810914 0.513743
Si Si7 0.500000 0.327710 0.250000
Si Si8 0.183577 0.156514 0.525904
O O1 0.821247 0.426907 0.250668
O O2 0.668541 0.657466 0.216221
O O3 0.583929 0.319166 0.111012
O O4 0.643609 0.656730 0.084311
O O5 0.123237 0.665135 0.603160
O O6 0.021323 0.338198 0.587211
O O7 0.948144 0.722368 0.575807
O O8 0.471187 0.135075 0.803282
O O9 0.428504 0.536816 0.752641
O O10 0.244724 0.276400 0.621722
O O11 0.167207 0.088797 0.033685
O O12 0.000000 0.000000 0.000000
O O13 0.279389 0.849460 0.032365
O O14 0.394177 0.092653 0.030182
O O15 0.400004 0.186540 0.147991
O O16 0.500000 0.000000 0.500000
#
# Coordination Sequence:
#
# PCOD8120978 Si02
#       8
#     4   4   4   4   4   4   2   4
#     4  11  24  41  66  93 122 168 223 266 319 371
#     4  10  22  38  59  91 131 167 205 262 310 383
#     4  12  22  37  64 101 131 164 211 260 330 394
#     4   9  19  35  56  91 128 168 200 244 315 388
#     4  12  24  39  62  97 130 172 209 267 331 388
#     4  11  25  43  65  91 121 169 223 276 309 370
#     4  12  22  38  60  96 138 162 196 262 332 384
#     4  11  23  36  60 100 133 166 203 252 337 399
#
# _framework density 19.952739000000001
#
# number of rings (size 3 to 8) (size 9 to 14) (size 15 to 20)
#    0.000    1.067    5.333    2.400    5.600    2.133 
#    0.000    0.000    0.000    4.800    0.000    0.000 
#    0.000    0.000    0.000    0.000    0.000    0.000 
#
# Total GULP energy -371917.633055 kJ/mol
# GULP energy per Si atom -12397.254435 kJ/mol
# Density = 1.990733 g / cm^3
# Si number density = 19.952739 Si / 1000 Ang^3
#
#
#
# Elastic Constant Matrix: (Units=GPa)
#
#
# Indices 1 2 3 4 5 6 
#
# 1 90.2130 33.7076 48.6981 0.0000 -2.6984 0.0000
# 2 33.7076 96.4529 42.0762 0.0000 4.1543 0.0000
# 3 48.6981 42.0762 131.1062 0.0000 14.5341 0.0000
# 4 0.0000 0.0000 0.0000 24.9529 0.0000 -3.3609
# 5 -2.6984 4.1543 14.5341 0.0000 31.4942 0.0000
# 6 0.0000 0.0000 0.0000 -3.3609 0.0000 37.3875
#
#
#
# Elastic Compliance Matrix: (Units=1/GPa)
#
#
# Indices 1 2 3 4 5 6 
#
# 1 0.015140 -0.003275 -0.005021 0.000000 0.004046 0.000000
# 2 -0.003275 0.012765 -0.002806 0.000000 -0.000669 0.000000
# 3 -0.005021 -0.002806 0.010960 0.000000 -0.005118 0.000000
# 4 0.000000 0.000000 0.000000 0.040567 0.000000 0.003647
# 5 0.004046 -0.000669 -0.005118 0.000000 0.034549 0.000000
# 6 0.000000 0.000000 0.000000 0.003647 0.000000 0.027075
#
#
# Mechanical properties :
#
#
# Convention : Reuss Voigt Hill
#
# Bulk Modulus (GPa) = 60.01935 62.97067 61.49501
# Shear Modulus (GPa) = 29.61838 31.65293 30.63566
#
# Velocity S-wave (km/s) = 3.85701 3.98728 3.92268
# Velocity P-wave (km/s) = 7.06975 7.26817 7.16965
#
# Compressibility (1/GPa) = 0.01666129
#
# Stress axis : x y z
#
# Youngs Moduli (GPa) = 66.04999 78.33799 91.23726
#
# Poissons Ratio (x) = 0.25655 0.45812
# Poissons Ratio (y) = 0.21631 0.25602
# Poissons Ratio (z) = 0.33165 0.21983
#
# Static dielectric constant tensor:
#      x y z
#    x 3.694100 0.000000 0.060410 
#    y 0.000000 4.088550 0.000000 
#    z 0.060410 0.000000 3.523960 
# 
# 
# High freq. dielectric constant tensor:
#      x y z
#    x 1.765460 0.000000 0.012920 
#    y 0.000000 1.799530 0.000000 
#    z 0.012920 0.000000 1.760160 
# 
# From -- ./inp_files/88359.got.cif
#   From: 2010.06.25/outbox.cif.g09.slc.cpg/sg13_45_cif.got.tgz:88359.got - 2010.06.28 04:50:58.
