data_PCOD8120001
_publ_section_title
;
Structure prediction by ZEFSAII (Michael W. Deem and Ramdas Pophale) SiO2 
 PCOD8120001
Probable space group: P 2/C
;
_chemical_formula_sum "Si O2"
_cell_formula_units_Z 32
_cell_length_a 14.838085
_cell_length_b 21.498981
_cell_length_c 9.057379
_cell_angle_alpha 90.000000
_cell_angle_beta 148.405723
_cell_angle_gamma 90.000000
_cell_volume 1513.726300
_symmetry_space_group_name_H-M "P 2/C"
_symmetry_group_IT_number 13
_symmetry_cell_setting 'monoclinic'
loop_
_space_group_symop_operation_xyz
x,y,z
-x,y,1/2-z
-x,-y,-z
x,-y,1/2+z
loop_
_atom_site_type_symbol
_atom_site_label
_atom_site_fract_x
_atom_site_fract_y
_atom_site_fract_z
Si Si1 0.680358 0.197923 0.084083
Si Si2 0.031152 0.233540 0.451432
Si Si3 0.689716 0.944857 0.561294
Si Si4 0.101256 0.455922 0.747246
Si Si5 0.150702 0.629740 0.061558
Si Si6 0.812596 0.046747 0.539867
Si Si7 0.399221 0.455780 0.751680
Si Si8 0.316533 0.824260 0.564033
O O1 0.729895 0.128198 0.101818
O O2 0.672357 0.200909 0.251513
O O3 0.840419 0.241758 0.257995
O O4 0.500000 0.217422 0.750000
O O5 0.126632 0.296762 0.534837
O O6 0.000000 0.197428 0.250000
O O7 0.159555 0.203103 0.748686
O O8 0.825931 0.984156 0.654931
O O9 0.700788 0.969345 0.741925
O O10 0.500000 0.962568 0.250000
O O11 0.146142 0.392933 0.723614
O O12 0.000000 0.434355 0.750000
O O13 0.000000 0.500000 0.500000
O O14 0.265108 0.494609 0.011813
O O15 0.327782 0.606021 0.233671
O O16 0.000000 0.599383 0.750000
O O17 0.716886 0.102203 0.491824
O O18 0.000000 0.069856 0.750000
O O19 0.500000 0.430005 0.750000
O O20 0.500000 0.500000 0.000000
O O21 0.500000 0.807459 0.750000
#
# Coordination Sequence:
#
# PCOD8120001 Si02
#       8
#     4   4   4   4   4   4   4   4
#     4  10  22  43  72  98 129 175 230 285 347 405
#     4  11  25  45  68  93 133 179 229 280 332 401
#     4  10  21  36  58  95 129 163 213 276 345 413
#     4  12  20  38  67  91 130 173 207 246 323 386
#     4  11  24  44  65  97 132 170 216 262 323 398
#     4  11  22  37  59  92 132 170 220 281 341 405
#     4  12  22  38  67 102 135 167 207 263 323 382
#     4  11  23  43  67  93 133 184 232 284 337 402
#
# _framework density 21.139885
#
# number of rings (size 3 to 8) (size 9 to 14) (size 15 to 20)
#    0.000    1.000    3.750    3.750    0.000    4.500 
#    2.250    5.000    0.000    0.000    0.000    0.000 
#    0.000    0.000    0.000    0.000    0.000    0.000 
#
# Total GULP energy -396525.530414 kJ/mol
# GULP energy per Si atom -12391.422825 kJ/mol
# Density = 2.109177 g / cm^3
# Si number density = 21.139885 Si / 1000 Ang^3
#
#
#
# Elastic Constant Matrix: (Units=GPa)
#
#
# Indices 1 2 3 4 5 6 
#
# 1 169.6350 46.7444 61.3819 0.0000 -3.6342 0.0000
# 2 46.7444 71.9181 38.9223 0.0000 -6.2161 0.0000
# 3 61.3819 38.9223 163.6819 0.0000 -12.3893 0.0000
# 4 0.0000 0.0000 0.0000 30.2684 0.0000 6.4448
# 5 -3.6342 -6.2161 -12.3893 0.0000 40.9835 0.0000
# 6 0.0000 0.0000 0.0000 6.4448 0.0000 38.8860
#
#
#
# Elastic Compliance Matrix: (Units=1/GPa)
#
#
# Indices 1 2 3 4 5 6 
#
# 1 0.007696 -0.003975 -0.001980 0.000000 -0.000519 0.000000
# 2 -0.003975 0.018080 -0.002689 0.000000 0.001577 0.000000
# 3 -0.001980 -0.002689 0.007622 0.000000 0.001721 0.000000
# 4 0.000000 0.000000 0.000000 0.034246 0.000000 -0.005676
# 5 -0.000519 0.001577 0.001721 0.000000 0.025113 0.000000
# 6 0.000000 0.000000 0.000000 -0.005676 0.000000 0.026657
#
#
# Mechanical properties :
#
#
# Convention : Reuss Voigt Hill
#
# Bulk Modulus (GPa) = 62.07844 77.70357 69.89101
# Shear Modulus (GPa) = 35.19328 39.24002 37.21665
#
# Velocity S-wave (km/s) = 4.08460 4.31305 4.20038
# Velocity P-wave (km/s) = 7.18850 7.85110 7.52710
#
# Compressibility (1/GPa) = 0.01610865
#
# Stress axis : x y z
#
# Youngs Moduli (GPa) = 129.94179 55.30902 131.20573
#
# Poissons Ratio (x) = 0.21987 0.25978
# Poissons Ratio (y) = 0.51656 0.35284
# Poissons Ratio (z) = 0.25728 0.14874
#
# Static dielectric constant tensor:
#      x y z
#    x 4.257310 0.000000 -0.234760 
#    y 0.000000 3.648770 0.000000 
#    z -0.234760 0.000000 4.094320 
# 
# 
# High freq. dielectric constant tensor:
#      x y z
#    x 1.840370 0.000000 -0.011850 
#    y 0.000000 1.802990 0.000000 
#    z -0.011850 0.000000 1.851590 
# 
# From -- ./inp_files/20239.got.cif
#   From: 2010.06.25/outbox.cif.g09.slc.cpg/sg13_11_cif.got.tgz:20239.got - 2010.06.28 04:50:58.
