data_PCOD8120132
_publ_section_title
;
Structure prediction by ZEFSAII (Michael W. Deem and Ramdas Pophale) SiO2 
 PCOD8120132
Probable space group: P 2/C
;
_chemical_formula_sum "Si O2"
_cell_formula_units_Z 32
_cell_length_a 9.504361
_cell_length_b 12.320736
_cell_length_c 13.553519
_cell_angle_alpha 90.000000
_cell_angle_beta 86.141352
_cell_angle_gamma 90.000000
_cell_volume 1583.529025
_symmetry_space_group_name_H-M "P 2/C"
_symmetry_group_IT_number 13
_symmetry_cell_setting 'monoclinic'
loop_
_space_group_symop_operation_xyz
x,y,z
-x,y,1/2-z
-x,-y,-z
x,-y,1/2+z
loop_
_atom_site_type_symbol
_atom_site_label
_atom_site_fract_x
_atom_site_fract_y
_atom_site_fract_z
Si Si1 0.138041 0.517564 0.609543
Si Si2 0.093145 0.982648 0.650689
Si Si3 0.783684 0.691468 0.051143
Si Si4 0.730078 0.333072 0.019215
Si Si5 0.814855 0.492552 0.166522
Si Si6 0.035291 0.167307 0.498045
Si Si7 0.489129 0.821348 0.478928
Si Si8 0.418021 0.983977 0.652734
O O1 0.205819 0.617057 0.546939
O O2 0.201827 0.403314 0.571970
O O3 0.183014 0.534434 0.719754
O O4 0.968638 0.517995 0.606917
O O5 0.252533 0.965483 0.678944
O O6 0.000000 0.011724 0.750000
O O7 0.035849 0.875054 0.599567
O O8 0.087840 0.076118 0.569853
O O9 0.759667 0.614636 0.147877
O O10 0.662592 0.780757 0.049287
O O11 0.927269 0.756745 0.061753
O O12 0.828168 0.232294 0.042942
O O13 0.579846 0.286936 0.992937
O O14 0.711628 0.407055 0.117677
O O15 0.477944 0.892256 0.577790
O O16 0.556274 0.895256 0.390233
O O17 0.500000 0.969626 0.750000
#
# Coordination Sequence:
#
# PCOD8120132 Si02
#       8
#     4   4   4   4   4   4   4   4
#     4  10  21  37  61  96 123 149 205 261 306 357
#     4  11  26  40  65  99 121 157 215 265 302 362
#     4  11  21  41  62  89 121 166 202 249 308 367
#     4  11  21  41  62  89 121 166 202 249 308 367
#     4  10  21  37  63  92 123 155 200 264 306 351
#     4  11  22  41  66  90 128 159 212 257 302 366
#     4  11  26  43  62  86 130 171 202 247 314 380
#     4  11  26  44  61  91 131 165 205 255 314 370
#
# _framework density 20.208030000000001
#
# number of rings (size 3 to 8) (size 9 to 14) (size 15 to 20)
#    0.000    1.250    5.000    0.750    3.500    6.000 
#    0.000    1.250    0.000    0.000    0.000    0.000 
#    0.000    0.000    0.000    0.000    0.000    0.000 
#
# Total GULP energy -396934.438329 kJ/mol
# GULP energy per Si atom -12404.201198 kJ/mol
# Density = 2.016204 g / cm^3
# Si number density = 20.208030 Si / 1000 Ang^3
#
#
#
# Elastic Constant Matrix: (Units=GPa)
#
#
# Indices 1 2 3 4 5 6 
#
# 1 71.0117 1.4057 14.8443 0.0000 4.5256 0.0000
# 2 1.4057 59.0116 -6.8998 0.0000 -1.7921 0.0000
# 3 14.8443 -6.8998 45.8933 0.0000 3.5728 0.0000
# 4 0.0000 0.0000 0.0000 10.2525 0.0000 7.2638
# 5 4.5256 -1.7921 3.5728 0.0000 23.7381 0.0000
# 6 0.0000 0.0000 0.0000 7.2638 0.0000 41.4478
#
#
#
# Elastic Compliance Matrix: (Units=1/GPa)
#
#
# Indices 1 2 3 4 5 6 
#
# 1 0.015273 -0.001007 -0.004917 0.000000 -0.002248 0.000000
# 2 -0.001007 0.017335 0.002849 0.000000 0.001072 0.000000
# 3 -0.004917 0.002849 0.024000 0.000000 -0.002460 0.000000
# 4 0.000000 0.000000 0.000000 0.111365 0.000000 -0.019517
# 5 -0.002248 0.001072 -0.002460 0.000000 0.043006 0.000000
# 6 0.000000 0.000000 0.000000 -0.019517 0.000000 0.027547
#
#
# Mechanical properties :
#
#
# Convention : Reuss Voigt Hill
#
# Bulk Modulus (GPa) = 19.81829 21.62408 20.72118
# Shear Modulus (GPa) = 19.12076 26.19211 22.65643
#
# Velocity S-wave (km/s) = 3.07937 3.60408 3.35201
# Velocity P-wave (km/s) = 4.74044 5.29558 5.02568
#
# Compressibility (1/GPa) = 0.05045844
#
# Stress axis : x y z
#
# Youngs Moduli (GPa) = 65.47446 57.68533 41.66718
#
# Poissons Ratio (x) = 0.05809 0.20486
# Poissons Ratio (y) = 0.06593 -0.11869
# Poissons Ratio (z) = 0.32191 -0.16432
#
# Static dielectric constant tensor:
#      x y z
#    x 3.620280 0.000000 0.066540 
#    y 0.000000 3.819200 0.000000 
#    z 0.066540 0.000000 3.522680 
# 
# 
# High freq. dielectric constant tensor:
#      x y z
#    x 1.786070 0.000000 0.010300 
#    y 0.000000 1.802640 0.000000 
#    z 0.010300 0.000000 1.782890 
# 
# From -- ./inp_files/47232.got.cif
#   From: 2010.06.25/outbox.cif.g09.slc.cpg/sg13_24_cif.got.tgz:47232.got - 2010.06.28 04:50:58.
