data_PCOD8120361
_publ_section_title
;
Structure prediction by ZEFSAII (Michael W. Deem and Ramdas Pophale) SiO2 
 PCOD8120361
Probable space group: P 2/C
;
_chemical_formula_sum "Si O2"
_cell_formula_units_Z 26
_cell_length_a 19.719883
_cell_length_b 11.486825
_cell_length_c 8.801849
_cell_angle_alpha 90.000000
_cell_angle_beta 140.935083
_cell_angle_gamma 90.000000
_cell_volume 1256.484106
_symmetry_space_group_name_H-M "P 2/C"
_symmetry_group_IT_number 13
_symmetry_cell_setting 'monoclinic'
loop_
_space_group_symop_operation_xyz
x,y,z
-x,y,1/2-z
-x,-y,-z
x,-y,1/2+z
loop_
_atom_site_type_symbol
_atom_site_label
_atom_site_fract_x
_atom_site_fract_y
_atom_site_fract_z
Si Si1 0.500000 0.410215 0.750000
Si Si2 0.385240 0.983038 0.111112
Si Si3 0.457155 0.235639 0.908946
Si Si4 0.691063 0.162192 0.298070
Si Si5 0.801661 0.486271 0.140435
Si Si6 0.340565 0.407209 0.873349
Si Si7 0.881486 0.337287 0.561241
O O1 0.422228 0.328730 0.717573
O O2 0.426375 0.488192 0.511734
O O3 0.500000 0.035486 0.250000
O O4 0.416353 0.892923 0.300141
O O5 0.308745 0.081437 0.050466
O O6 0.317495 0.919702 0.864285
O O7 0.402962 0.282469 0.970852
O O8 0.586638 0.243984 0.132798
O O9 0.798938 0.237003 0.468900
O O10 0.721755 0.582137 0.076349
O O11 0.847193 0.396798 0.343206
O O12 0.891033 0.564141 0.209312
O O13 0.742069 0.412238 0.909059
O O14 0.000000 0.281427 0.750000
#
# Coordination Sequence:
#
# PCOD8120361 Si02
#       7
#     2   4   4   4   4   4   4
#     4  12  20  32  50  88 140 172 192 232 288 364
#     4  10  21  39  61  86 122 163 208 246 297 367
#     4  11  19  35  57  85 133 166 197 241 294 368
#     4  11  23  40  61  86 118 166 209 254 305 351
#     4  10  22  39  61  88 124 164 203 236 310 380
#     4  11  22  33  54  94 131 169 196 238 298 380
#     4  11  24  44  66  89 119 158 207 266 314 363
#
# _framework density 20.69266
#
# number of rings (size 3 to 8) (size 9 to 14) (size 15 to 20)
#    0.000    1.231    3.846    5.538    2.154    2.462 
#    0.000    0.769    0.000    0.000    0.000    0.000 
#    0.000    0.000    0.000    0.000    0.000    0.000 
#
# Total GULP energy -322272.138709 kJ/mol
# GULP energy per Si atom -12395.082258 kJ/mol
# Density = 2.064556 g / cm^3
# Si number density = 20.692660 Si / 1000 Ang^3
#
#
#
# Elastic Constant Matrix: (Units=GPa)
#
#
# Indices 1 2 3 4 5 6 
#
# 1 91.2643 49.0005 41.5519 0.0000 19.2648 0.0000
# 2 49.0005 89.1073 36.1242 0.0000 9.4291 0.0000
# 3 41.5519 36.1242 63.7673 0.0000 10.0883 0.0000
# 4 0.0000 0.0000 0.0000 16.2885 0.0000 -2.9729
# 5 19.2648 9.4291 10.0883 0.0000 28.6862 0.0000
# 6 0.0000 0.0000 0.0000 -2.9729 0.0000 42.4129
#
#
#
# Elastic Compliance Matrix: (Units=1/GPa)
#
#
# Indices 1 2 3 4 5 6 
#
# 1 0.020006 -0.006965 -0.007759 0.000000 -0.008418 0.000000
# 2 -0.006965 0.017102 -0.005295 0.000000 0.000918 0.000000
# 3 -0.007759 -0.005295 0.023971 0.000000 -0.001479 0.000000
# 4 0.000000 0.000000 0.000000 0.062188 0.000000 0.004359
# 5 -0.008418 0.000918 -0.001479 0.000000 0.040731 0.000000
# 6 0.000000 0.000000 0.000000 0.004359 0.000000 0.023883
#
#
# Mechanical properties :
#
#
# Convention : Reuss Voigt Hill
#
# Bulk Modulus (GPa) = 47.52503 55.27691 51.40097
# Shear Modulus (GPa) = 21.28247 25.30833 23.29540
#
# Velocity S-wave (km/s) = 3.21051 3.50102 3.35891
# Velocity P-wave (km/s) = 6.06301 6.56614 6.31958
#
# Compressibility (1/GPa) = 0.02104154
#
# Stress axis : x y z
#
# Youngs Moduli (GPa) = 49.98402 58.47244 41.71639
#
# Poissons Ratio (x) = 0.40728 0.32367
# Poissons Ratio (y) = 0.34816 0.22088
# Poissons Ratio (z) = 0.38782 0.30960
#
# Static dielectric constant tensor:
#      x y z
#    x 4.041750 0.000000 -0.256210 
#    y 0.000000 3.676090 0.000000 
#    z -0.256210 0.000000 3.466510 
# 
# 
# High freq. dielectric constant tensor:
#      x y z
#    x 1.812530 0.000000 -0.031320 
#    y 0.000000 1.804450 0.000000 
#    z -0.031320 0.000000 1.782980 
# 
# From -- ./inp_files/23391.got.cif
#   From: 2010.06.25/outbox.cif.g09.slc.cpg/sg13_12_cif.got.tgz:23391.got - 2010.06.28 04:50:58.
