data_PCOD8120158
_publ_section_title
;
Structure prediction by ZEFSAII (Michael W. Deem and Ramdas Pophale) SiO2 
 PCOD8120158
Probable space group: P 2/C
;
_chemical_formula_sum "Si O2"
_cell_formula_units_Z 32
_cell_length_a 17.416241
_cell_length_b 5.990726
_cell_length_c 27.603702
_cell_angle_alpha 90.000000
_cell_angle_beta 31.875487
_cell_angle_gamma 90.000000
_cell_volume 1520.886751
_symmetry_space_group_name_H-M "P 2/C"
_symmetry_group_IT_number 13
_symmetry_cell_setting 'monoclinic'
loop_
_space_group_symop_operation_xyz
x,y,z
-x,y,1/2-z
-x,-y,-z
x,-y,1/2+z
loop_
_atom_site_type_symbol
_atom_site_label
_atom_site_fract_x
_atom_site_fract_y
_atom_site_fract_z
Si Si1 0.025970 0.693115 0.448210
Si Si2 0.456703 0.340275 0.650303
Si Si3 0.781230 0.999808 0.052027
Si Si4 0.748041 0.722031 0.754584
Si Si5 0.301893 0.674001 0.988558
Si Si6 0.061675 0.611912 0.586698
Si Si7 0.499189 0.036668 0.443841
Si Si8 0.313277 0.042110 0.798464
O O1 0.913047 0.896978 0.513033
O O2 0.006437 0.592160 0.405765
O O3 0.000000 0.500000 0.500000
O O4 0.187597 0.775314 0.367185
O O5 0.304517 0.464141 0.719403
O O6 0.571093 0.528447 0.603637
O O7 0.516832 0.206702 0.571503
O O8 0.447741 0.163677 0.699375
O O9 0.731936 0.142414 0.033212
O O10 0.653365 0.998350 0.161959
O O11 0.833791 0.762006 0.003106
O O12 0.916831 0.741608 0.683188
O O13 0.651749 0.858106 0.844692
O O14 0.733242 0.825597 0.708264
O O15 0.362537 0.800813 0.003670
O O16 0.163135 0.509936 0.073453
O O17 0.500000 0.000000 0.500000
#
# Coordination Sequence:
#
# PCOD8120158 Si02
#       8
#     4   4   4   4   4   4   4   4
#     4  11  19  30  55  89 121 171 222 251 297 359
#     4  10  22  42  62  86 122 157 212 257 311 380
#     4  11  22  34  57  87 134 173 209 254 310 362
#     4  10  21  37  64  97 118 159 213 260 311 378
#     4  10  24  40  59  89 123 168 205 255 328 378
#     4  11  20  36  60  89 129 164 206 266 314 363
#     4  10  23  46  72  90 113 156 210 265 323 401
#     4  11  20  34  58  90 127 169 222 255 288 369
#
# _framework density 21.040355999999999
#
# number of rings (size 3 to 8) (size 9 to 14) (size 15 to 20)
#    0.000    1.500    3.750    1.875    0.000    2.000 
#    0.000   15.000    0.000   11.250    0.000    0.000 
#    0.000    0.000    0.000    0.000    0.000    0.000 
#
# Total GULP energy -396515.400034 kJ/mol
# GULP energy per Si atom -12391.106251 kJ/mol
# Density = 2.099247 g / cm^3
# Si number density = 21.040356 Si / 1000 Ang^3
#
#
#
# Elastic Constant Matrix: (Units=GPa)
#
#
# Indices 1 2 3 4 5 6 
#
# 1 98.4706 29.4903 37.0764 0.0000 5.6105 0.0000
# 2 29.4903 85.3551 17.6399 0.0000 0.3483 0.0000
# 3 37.0764 17.6399 67.6882 0.0000 3.4274 0.0000
# 4 0.0000 0.0000 0.0000 34.5991 0.0000 -9.6760
# 5 5.6105 0.3483 3.4274 0.0000 29.9195 0.0000
# 6 0.0000 0.0000 0.0000 -9.6760 0.0000 29.3999
#
#
#
# Elastic Compliance Matrix: (Units=1/GPa)
#
#
# Indices 1 2 3 4 5 6 
#
# 1 0.013738 -0.003385 -0.006552 0.000000 -0.001786 0.000000
# 2 -0.003385 0.013218 -0.001624 0.000000 0.000667 0.000000
# 3 -0.006552 -0.001624 0.018832 0.000000 -0.000910 0.000000
# 4 0.000000 0.000000 0.000000 0.031832 0.000000 0.010477
# 5 -0.001786 0.000667 -0.000910 0.000000 0.033854 0.000000
# 6 0.000000 0.000000 0.000000 0.010477 0.000000 0.037462
#
#
# Mechanical properties :
#
#
# Convention : Reuss Voigt Hill
#
# Bulk Modulus (GPa) = 44.12143 46.65857 45.39000
# Shear Modulus (GPa) = 27.83725 29.93751 28.88738
#
# Velocity S-wave (km/s) = 3.64131 3.77618 3.70936
# Velocity P-wave (km/s) = 6.22047 6.42157 6.32182
#
# Compressibility (1/GPa) = 0.02266472
#
# Stress axis : x y z
#
# Youngs Moduli (GPa) = 72.79087 75.65281 53.10081
#
# Poissons Ratio (x) = 0.25609 0.34794
# Poissons Ratio (y) = 0.24640 0.08625
# Poissons Ratio (z) = 0.47696 0.12289
#
# Static dielectric constant tensor:
#      x y z
#    x 3.671780 0.000000 -0.365660 
#    y 0.000000 4.181620 0.000000 
#    z -0.365660 0.000000 4.129290 
# 
# 
# High freq. dielectric constant tensor:
#      x y z
#    x 1.791660 0.000000 -0.026740 
#    y 0.000000 1.845940 0.000000 
#    z -0.026740 0.000000 1.813480 
# 
# From -- ./inp_files/72201.got.cif
#   From: 2010.06.25/outbox.cif.g09.slc.cpg/sg13_37_cif.got.tgz:72201.got - 2010.06.28 04:50:58.
