data_PCOD8120276
_publ_section_title
;
Structure prediction by ZEFSAII (Michael W. Deem and Ramdas Pophale) SiO2 
 PCOD8120276
Probable space group: P 2/C
;
_chemical_formula_sum "Si O2"
_cell_formula_units_Z 20
_cell_length_a 20.356555
_cell_length_b 9.745344
_cell_length_c 12.724388
_cell_angle_alpha 90.000000
_cell_angle_beta 20.313659
_cell_angle_gamma 90.000000
_cell_volume 876.328782
_symmetry_space_group_name_H-M "P 2/C"
_symmetry_group_IT_number 13
_symmetry_cell_setting 'monoclinic'
loop_
_space_group_symop_operation_xyz
x,y,z
-x,y,1/2-z
-x,-y,-z
x,-y,1/2+z
loop_
_atom_site_type_symbol
_atom_site_label
_atom_site_fract_x
_atom_site_fract_y
_atom_site_fract_z
Si Si1 0.507729 0.750091 0.988356
Si Si2 0.678769 0.893109 0.051871
Si Si3 0.321185 0.393066 0.588347
Si Si4 0.815253 0.176499 0.862309
Si Si5 0.815206 0.676556 0.691799
O O1 0.636859 0.821183 0.707400
O O2 0.637150 0.679020 0.881281
O O3 0.378130 0.862603 0.241905
O O4 0.378115 0.637500 0.123785
O O5 0.500000 0.940609 0.250000
O O6 0.771258 0.755799 0.865784
O O7 0.837397 0.013615 0.808136
O O8 0.228387 0.255850 0.680256
O O9 0.162702 0.513674 0.820409
O O10 0.500000 0.440456 0.250000
O O11 0.999889 0.249960 0.636283
#
# Coordination Sequence:
#
# PCOD8120276 Si02
#       5
#     4   4   4   4   4
#     4  10  21  38  63  86 116 160 204 242 293 362
#     4  10  21  39  62  88 120 161 202 243 298 364
#     4  10  21  39  62  88 120 161 202 243 298 364
#     4  11  22  38  60  89 121 154 198 253 300 346
#     4  11  22  38  60  89 121 154 198 253 300 346
#
# _framework density 22.822483999999999
#
# number of rings (size 3 to 8) (size 9 to 14) (size 15 to 20)
#    0.000    1.600    0.000    6.600    0.000    3.200 
#    0.000    5.000    0.000    0.000    0.000    0.000 
#    0.000    0.000    0.000    0.000    0.000    0.000 
#
# Total GULP energy -247961.273112 kJ/mol
# GULP energy per Si atom -12398.063656 kJ/mol
# Density = 2.277054 g / cm^3
# Si number density = 22.822484 Si / 1000 Ang^3
#
#
#
# Elastic Constant Matrix: (Units=GPa)
#
#
# Indices 1 2 3 4 5 6 
#
# 1 109.0794 71.0035 42.3472 0.0000 13.4579 0.0000
# 2 71.0035 178.6942 63.1398 0.0000 3.1441 0.0000
# 3 42.3472 63.1398 85.9035 0.0000 -3.8531 0.0000
# 4 0.0000 0.0000 0.0000 37.0948 0.0000 -7.7403
# 5 13.4579 3.1441 -3.8531 0.0000 24.6896 0.0000
# 6 0.0000 0.0000 0.0000 -7.7403 0.0000 18.9342
#
#
#
# Elastic Compliance Matrix: (Units=1/GPa)
#
#
# Indices 1 2 3 4 5 6 
#
# 1 0.014576 -0.004026 -0.004592 0.000000 -0.008149 0.000000
# 2 -0.004026 0.008756 -0.004433 0.000000 0.000388 0.000000
# 3 -0.004592 -0.004433 0.017423 0.000000 0.005787 0.000000
# 4 0.000000 0.000000 0.000000 0.029472 0.000000 0.012048
# 5 -0.008149 0.000388 0.005787 0.000000 0.045799 0.000000
# 6 0.000000 0.000000 0.000000 0.012048 0.000000 0.057740
#
#
# Mechanical properties :
#
#
# Convention : Reuss Voigt Hill
#
# Bulk Modulus (GPa) = 68.24993 80.73978 74.49486
# Shear Modulus (GPa) = 24.41983 29.28951 26.85467
#
# Velocity S-wave (km/s) = 3.27462 3.58629 3.43399
# Velocity P-wave (km/s) = 6.65335 7.25277 6.95952
#
# Compressibility (1/GPa) = 0.01465203
#
# Stress axis : x y z
#
# Youngs Moduli (GPa) = 68.60386 114.21380 57.39609
#
# Poissons Ratio (x) = 0.45982 0.26357
# Poissons Ratio (y) = 0.27620 0.25446
# Poissons Ratio (z) = 0.31503 0.50635
#
# Static dielectric constant tensor:
#      x y z
#    x 4.008250 0.000000 -0.033870 
#    y 0.000000 3.987310 0.000000 
#    z -0.033870 0.000000 4.086330 
# 
# 
# High freq. dielectric constant tensor:
#      x y z
#    x 1.894120 0.000000 0.002810 
#    y 0.000000 1.905180 0.000000 
#    z 0.002810 0.000000 1.887220 
# 
# From -- ./inp_files/58610.got.cif
#   From: 2010.06.25/outbox.cif.g09.slc.cpg/sg13_30_cif.got.tgz:58610.got - 2010.06.28 04:50:58.
