data_PCOD8120852
_publ_section_title
;
Structure prediction by ZEFSAII (Michael W. Deem and Ramdas Pophale) SiO2 
 PCOD8120852
Probable space group: P 2/C
;
_chemical_formula_sum "Si O2"
_cell_formula_units_Z 18
_cell_length_a 4.881709
_cell_length_b 7.939889
_cell_length_c 17.782689
_cell_angle_alpha 90.000000
_cell_angle_beta 96.944772
_cell_angle_gamma 90.000000
_cell_volume 684.204076
_symmetry_space_group_name_H-M "P 2/C"
_symmetry_group_IT_number 13
_symmetry_cell_setting 'monoclinic'
loop_
_space_group_symop_operation_xyz
x,y,z
-x,y,1/2-z
-x,-y,-z
x,-y,1/2+z
loop_
_atom_site_type_symbol
_atom_site_label
_atom_site_fract_x
_atom_site_fract_y
_atom_site_fract_z
Si Si1 0.342198 0.114384 0.900115
Si Si2 0.144474 0.679530 0.132196
Si Si3 0.500000 0.545010 0.750000
Si Si4 0.318080 0.728230 0.883872
Si Si5 0.156356 0.675037 0.521893
O O1 0.634721 0.201072 0.898418
O O2 0.107467 0.209729 0.840797
O O3 0.394228 0.923480 0.879950
O O4 0.239239 0.146925 0.982554
O O5 0.270527 0.563771 0.199640
O O6 0.008077 0.571741 0.053948
O O7 0.313600 0.655696 0.799619
O O8 0.544148 0.613285 0.937316
O O9 0.020451 0.720956 0.911091
#
# Coordination Sequence:
#
# PCOD8120852 Si02
#       5
#     4   4   2   4   4
#     4  10  21  44  77 106 129 189 243 311 348 440
#     4  10  24  45  71  98 148 189 242 282 375 442
#     4  12  32  48  62 112 160 204 228 306 362 464
#     4  12  24  43  76 107 145 173 256 306 370 398
#     4  10  21  43  77 108 131 187 247 313 349 434
#
# _framework density 26.307941
#
# number of rings (size 3 to 8) (size 9 to 14) (size 15 to 20)
#    1.333    0.000    2.222    2.667    0.000    8.000 
#    0.000    2.222    0.000    0.000    0.000    0.000 
#    0.000    0.000    0.000    0.000    0.000    0.000 
#
# Total GULP energy -223047.670380 kJ/mol
# GULP energy per Si atom -12391.537243 kJ/mol
# Density = 2.624806 g / cm^3
# Si number density = 26.307941 Si / 1000 Ang^3
#
#
#
# Elastic Constant Matrix: (Units=GPa)
#
#
# Indices 1 2 3 4 5 6 
#
# 1 108.1413 18.2856 -0.7378 0.0000 27.1931 0.0000
# 2 18.2856 118.8278 51.1921 0.0000 17.9774 0.0000
# 3 -0.7378 51.1921 105.8606 0.0000 23.2173 0.0000
# 4 0.0000 0.0000 0.0000 9.8225 0.0000 16.0809
# 5 27.1931 17.9774 23.2173 0.0000 29.2003 0.0000
# 6 0.0000 0.0000 0.0000 16.0809 0.0000 11.9235
#
#
#
# Elastic Compliance Matrix: (Units=1/GPa)
#
#
# Indices 1 2 3 4 5 6 
#
# 1 0.013195 -0.001572 0.004039 0.000000 -0.014531 0.000000
# 2 -0.001572 0.011035 -0.005061 0.000000 -0.001306 0.000000
# 3 0.004039 -0.005061 0.014612 0.000000 -0.012263 0.000000
# 4 0.000000 0.000000 0.000000 -0.084279 0.000000 0.113665
# 5 -0.014531 -0.001306 -0.012263 0.000000 0.058333 0.000000
# 6 0.000000 0.000000 0.000000 0.113665 0.000000 -0.069428
#
#
# Mechanical properties :
#
#
# Convention : Reuss Voigt Hill
#
# Bulk Modulus (GPa) = 29.71456 52.25664 40.98560
# Shear Modulus (GPa) = -124.60554 27.79524 -48.40515
#
# Velocity S-wave (km/s) = -6.88963 3.25396 -4.29411
# Velocity P-wave (km/s) = 7.20902 5.83303 2.99547
#
# Compressibility (1/GPa) = 0.03365353
#
# Stress axis : x y z
#
# Youngs Moduli (GPa) = 75.78886 90.61771 68.43910
#
# Poissons Ratio (x) = 0.14246 -0.27644
# Poissons Ratio (y) = 0.11915 0.34637
# Poissons Ratio (z) = -0.30612 0.45862
#
# Static dielectric constant tensor:
#      x y z
#    x 5.006510 0.000000 0.257350 
#    y 0.000000 5.175440 0.000000 
#    z 0.257350 0.000000 4.873590 
# 
# 
# High freq. dielectric constant tensor:
#      x y z
#    x 2.082740 0.000000 0.007390 
#    y 0.000000 2.063130 0.000000 
#    z 0.007390 0.000000 2.045490 
# 
# From -- ./inp_files/60437.got.cif
#   From: 2010.06.25/outbox.cif.g09.slc.cpg/sg13_31_cif.got.tgz:60437.got - 2010.06.28 04:50:58.
