data_PCOD8120120
_publ_section_title
;
Structure prediction by ZEFSAII (Michael W. Deem and Ramdas Pophale) SiO2 
 PCOD8120120
Probable space group: P 2/C
;
_chemical_formula_sum "Si O2"
_cell_formula_units_Z 26
_cell_length_a 11.199113
_cell_length_b 10.052531
_cell_length_c 11.411753
_cell_angle_alpha 90.000000
_cell_angle_beta 59.605579
_cell_angle_gamma 90.000000
_cell_volume 1108.159324
_symmetry_space_group_name_H-M "P 2/C"
_symmetry_group_IT_number 13
_symmetry_cell_setting 'monoclinic'
loop_
_space_group_symop_operation_xyz
x,y,z
-x,y,1/2-z
-x,-y,-z
x,-y,1/2+z
loop_
_atom_site_type_symbol
_atom_site_label
_atom_site_fract_x
_atom_site_fract_y
_atom_site_fract_z
Si Si1 0.920663 0.315418 0.084672
Si Si2 0.295726 0.094747 0.039111
Si Si3 0.280453 0.370551 0.507342
Si Si4 0.123272 0.597096 0.310970
Si Si5 0.352363 0.642080 0.372950
Si Si6 0.000000 0.876321 0.750000
Si Si7 0.524391 0.147974 0.108380
O O1 0.950711 0.454350 0.136435
O O2 0.932732 0.204028 0.176264
O O3 0.771545 0.318065 0.094077
O O4 0.033308 0.292867 0.925251
O O5 0.136598 0.042750 0.139126
O O6 0.378619 0.119344 0.118657
O O7 0.285673 0.231004 0.970807
O O8 0.379107 0.982367 0.928247
O O9 0.146839 0.373999 0.661290
O O10 0.349279 0.516922 0.464107
O O11 0.394488 0.266497 0.499780
O O12 0.272632 0.598155 0.296471
O O13 0.500000 0.682118 0.250000
O O14 0.500000 0.201582 0.250000
#
# Coordination Sequence:
#
# PCOD8120120 Si02
#       7
#     4   4   4   4   4   2   4
#     4  10  22  37  62  95 133 176 209 269 329 388
#     4  11  25  45  69  94 130 175 218 269 327 396
#     4  11  23  40  65 100 133 168 220 276 323 383
#     4  10  21  37  60  95 137 173 213 262 335 387
#     4  11  22  39  66  99 129 174 222 268 320 389
#     4  12  22  44  68  96 128 176 228 266 320 402
#     4  11  25  47  68  94 132 176 215 271 335 388
#
# _framework density 23.462330000000001
#
# number of rings (size 3 to 8) (size 9 to 14) (size 15 to 20)
#    0.000    1.231    1.538    4.154    4.308    6.154 
#    2.769    1.538    0.000    0.000    0.000    0.000 
#    0.000    0.000    0.000    0.000    0.000    0.000 
#
# Total GULP energy -322316.947929 kJ/mol
# GULP energy per Si atom -12396.805690 kJ/mol
# Density = 2.340893 g / cm^3
# Si number density = 23.462330 Si / 1000 Ang^3
#
#
#
# Elastic Constant Matrix: (Units=GPa)
#
#
# Indices 1 2 3 4 5 6 
#
# 1 81.2496 10.6963 24.9508 0.0000 -11.3740 0.0000
# 2 10.6963 75.0068 10.7729 0.0000 0.2649 0.0000
# 3 24.9508 10.7729 106.3698 0.0000 -4.5589 0.0000
# 4 0.0000 0.0000 0.0000 22.3802 0.0000 -4.8001
# 5 -11.3740 0.2649 -4.5589 0.0000 45.2312 0.0000
# 6 0.0000 0.0000 0.0000 -4.8001 0.0000 28.8174
#
#
#
# Elastic Compliance Matrix: (Units=1/GPa)
#
#
# Indices 1 2 3 4 5 6 
#
# 1 0.013870 -0.001564 -0.002958 0.000000 0.003199 0.000000
# 2 -0.001564 0.013708 -0.001046 0.000000 -0.000579 0.000000
# 3 -0.002958 -0.001046 0.010213 0.000000 0.000292 0.000000
# 4 0.000000 0.000000 0.000000 0.046338 0.000000 0.007718
# 5 0.003199 -0.000579 0.000292 0.000000 0.022946 0.000000
# 6 0.000000 0.000000 0.000000 0.007718 0.000000 0.035987
#
#
# Mechanical properties :
#
#
# Convention : Reuss Voigt Hill
#
# Bulk Modulus (GPa) = 37.51779 39.49624 38.50702
# Shear Modulus (GPa) = 30.65930 33.69952 32.17941
#
# Velocity S-wave (km/s) = 3.61882 3.79400 3.70744
# Velocity P-wave (km/s) = 5.78675 6.00525 5.89701
#
# Compressibility (1/GPa) = 0.02665402
#
# Stress axis : x y z
#
# Youngs Moduli (GPa) = 72.09899 72.95272 97.91022
#
# Poissons Ratio (x) = 0.11413 0.28961
# Poissons Ratio (y) = 0.11279 0.10243
# Poissons Ratio (z) = 0.21326 0.07632
#
# Static dielectric constant tensor:
#      x y z
#    x 4.218740 0.000000 -0.071860 
#    y 0.000000 3.866030 0.000000 
#    z -0.071860 0.000000 4.238420 
# 
# 
# High freq. dielectric constant tensor:
#      x y z
#    x 1.941640 0.000000 -0.006370 
#    y 0.000000 1.895570 0.000000 
#    z -0.006370 0.000000 1.936390 
# 
# From -- ./inp_files/33760.got.cif
#   From: 2010.06.25/outbox.cif.g09.slc.cpg/sg13_17_cif.got.tgz:33760.got - 2010.06.28 04:50:58.
