data_PCOD8120194
_publ_section_title
;
Structure prediction by ZEFSAII (Michael W. Deem and Ramdas Pophale) SiO2 
 PCOD8120194
Probable space group: P 2/C
;
_chemical_formula_sum "Si O2"
_cell_formula_units_Z 26
_cell_length_a 25.660793
_cell_length_b 6.298559
_cell_length_c 22.927374
_cell_angle_alpha 90.000000
_cell_angle_beta 159.977748
_cell_angle_gamma 90.000000
_cell_volume 1268.762707
_symmetry_space_group_name_H-M "P 2/C"
_symmetry_group_IT_number 13
_symmetry_cell_setting 'monoclinic'
loop_
_space_group_symop_operation_xyz
x,y,z
-x,y,1/2-z
-x,-y,-z
x,-y,1/2+z
loop_
_atom_site_type_symbol
_atom_site_label
_atom_site_fract_x
_atom_site_fract_y
_atom_site_fract_z
Si Si1 0.080070 0.925275 0.893097
Si Si2 0.651773 0.244288 0.328604
Si Si3 0.880894 0.006065 0.289398
Si Si4 0.500000 0.562050 0.250000
Si Si5 0.709751 0.624177 0.313913
Si Si6 0.099759 0.300384 0.592540
Si Si7 0.441406 0.136783 0.584753
O O1 0.000000 0.844268 0.750000
O O2 0.955636 0.035054 0.804718
O O3 0.204210 0.099739 0.005397
O O4 0.159082 0.722916 0.006547
O O5 0.628741 0.414418 0.356218
O O6 0.682627 0.377609 0.301861
O O7 0.500983 0.098641 0.164055
O O8 0.846250 0.788901 0.287985
O O9 0.000585 0.134004 0.453029
O O10 0.722775 0.129155 0.117239
O O11 0.578063 0.714251 0.379317
O O12 0.754524 0.635292 0.293133
O O13 0.555982 0.759211 0.158923
O O14 0.000000 0.500000 0.500000
#
# Coordination Sequence:
#
# PCOD8120194 Si02
#       7
#     4   4   4   2   4   4   4
#     4  10  22  37  59  88 124 155 197 248 304 360
#     4  10  21  38  58  85 118 165 195 244 302 361
#     4  10  23  39  63  89 118 160 199 248 306 354
#     4  10  22  36  60  82 126 158 200 242 294 364
#     4   9  21  40  58  86 120 159 203 254 297 357
#     4  10  21  42  63  85 120 158 206 255 299 356
#     4  10  22  39  60  88 124 158 202 249 302 360
#
# _framework density 20.492407
#
# number of rings (size 3 to 8) (size 9 to 14) (size 15 to 20)
#    0.000    2.154    0.000    1.385    8.615    4.923 
#    2.769    1.538    0.000    0.000    0.000    0.000 
#    0.000    0.000    0.000    0.000    0.000    0.000 
#
# Total GULP energy -322416.518490 kJ/mol
# GULP energy per Si atom -12400.635327 kJ/mol
# Density = 2.044577 g / cm^3
# Si number density = 20.492407 Si / 1000 Ang^3
#
#
#
# Elastic Constant Matrix: (Units=GPa)
#
#
# Indices 1 2 3 4 5 6 
#
# 1 112.4186 11.1147 7.9083 0.0000 11.0247 0.0000
# 2 11.1147 70.8111 -15.1177 0.0000 5.0428 0.0000
# 3 7.9083 -15.1177 55.0147 0.0000 12.3318 0.0000
# 4 0.0000 0.0000 0.0000 12.5273 0.0000 9.1900
# 5 11.0247 5.0428 12.3318 0.0000 25.2101 0.0000
# 6 0.0000 0.0000 0.0000 9.1900 0.0000 24.5518
#
#
#
# Elastic Compliance Matrix: (Units=1/GPa)
#
#
# Indices 1 2 3 4 5 6 
#
# 1 0.009438 -0.001459 -0.001008 0.000000 -0.003342 0.000000
# 2 -0.001459 0.015976 0.005810 0.000000 -0.005400 0.000000
# 3 -0.001008 0.005810 0.022553 0.000000 -0.011753 0.000000
# 4 0.000000 0.000000 0.000000 0.110042 0.000000 -0.041190
# 5 -0.003342 -0.005400 -0.011753 0.000000 0.047958 0.000000
# 6 0.000000 0.000000 0.000000 -0.041190 0.000000 0.056148
#
#
# Mechanical properties :
#
#
# Convention : Reuss Voigt Hill
#
# Bulk Modulus (GPa) = 18.29697 27.33942 22.81820
# Shear Modulus (GPa) = 18.27175 28.08046 23.17611
#
# Velocity S-wave (km/s) = 2.98927 3.70575 3.36662
# Velocity P-wave (km/s) = 4.56753 5.62853 5.12556
#
# Compressibility (1/GPa) = 0.05465385
#
# Stress axis : x y z
#
# Youngs Moduli (GPa) = 105.95167 62.59367 44.33974
#
# Poissons Ratio (x) = 0.09131 0.04471
# Poissons Ratio (y) = 0.15455 -0.25763
# Poissons Ratio (z) = 0.10684 -0.36369
#
# Static dielectric constant tensor:
#      x y z
#    x 4.201280 0.000000 0.171870 
#    y 0.000000 3.747610 0.000000 
#    z 0.171870 0.000000 3.433030 
# 
# 
# High freq. dielectric constant tensor:
#      x y z
#    x 1.814810 0.000000 0.017260 
#    y 0.000000 1.803550 0.000000 
#    z 0.017260 0.000000 1.781520 
# 
# From -- ./inp_files/89406.got.cif
#   From: 2010.06.25/outbox.cif.g09.slc.cpg/sg13_45_cif.got.tgz:89406.got - 2010.06.28 04:50:58.
