data_PCOD8120881
_publ_section_title
;
Structure prediction by ZEFSAII (Michael W. Deem and Ramdas Pophale) SiO2 
 PCOD8120881
Probable space group: P 2/C
;
_chemical_formula_sum "Si O2"
_cell_formula_units_Z 28
_cell_length_a 13.028624
_cell_length_b 14.165966
_cell_length_c 9.184142
_cell_angle_alpha 90.000000
_cell_angle_beta 50.978930
_cell_angle_gamma 90.000000
_cell_volume 1316.911386
_symmetry_space_group_name_H-M "P 2/C"
_symmetry_group_IT_number 13
_symmetry_cell_setting 'monoclinic'
loop_
_space_group_symop_operation_xyz
x,y,z
-x,y,1/2-z
-x,-y,-z
x,-y,1/2+z
loop_
_atom_site_type_symbol
_atom_site_label
_atom_site_fract_x
_atom_site_fract_y
_atom_site_fract_z
Si Si1 0.996827 0.899222 0.929318
Si Si2 0.890361 0.594845 0.468151
Si Si3 0.353249 0.724441 0.905031
Si Si4 0.254589 0.781456 0.306208
Si Si5 0.917260 0.615606 0.966858
Si Si6 0.731946 0.896112 0.701253
Si Si7 0.644108 0.058882 0.594565
O O1 0.129841 0.850766 0.871154
O O2 0.000000 0.900252 0.750000
O O3 0.875850 0.842983 0.106545
O O4 0.000000 0.000000 0.000000
O O5 0.757548 0.646721 0.534947
O O6 0.856354 0.488330 0.551859
O O7 0.000000 0.582702 0.250000
O O8 0.970410 0.650070 0.520284
O O9 0.500000 0.680073 0.750000
O O10 0.349762 0.813058 0.800096
O O11 0.332224 0.761530 0.087737
O O12 0.210058 0.683254 0.418524
O O13 0.346087 0.838118 0.338342
O O14 0.000000 0.626234 0.750000
O O15 0.748160 0.985068 0.574396
O O16 0.660170 0.935995 0.908018
O O17 0.500000 0.015671 0.750000
#
# Coordination Sequence:
#
# PCOD8120881 Si02
#       7
#     4   4   4   4   4   4   4
#     4  12  24  40  63  99 132 164 217 278 328 378
#     4  10  21  45  71 101 131 174 217 272 332 400
#     4  12  27  45  67  99 134 177 224 272 330 397
#     4  12  24  42  65  97 136 172 216 275 329 393
#     4  10  22  40  73 101 134 167 219 269 338 396
#     4  12  24  43  65  91 131 176 220 274 325 386
#     4  12  25  43  63  90 132 182 222 261 325 398
#
# _framework density 21.261872
#
# number of rings (size 3 to 8) (size 9 to 14) (size 15 to 20)
#    0.000    0.571    4.286    3.857    4.000    0.000 
#    0.000    1.429    0.000    0.000    0.000    0.000 
#    0.000    0.000    0.000    0.000    0.000    0.000 
#
# Total GULP energy -347081.207274 kJ/mol
# GULP energy per Si atom -12395.757403 kJ/mol
# Density = 2.121348 g / cm^3
# Si number density = 21.261872 Si / 1000 Ang^3
#
#
#
# Elastic Constant Matrix: (Units=GPa)
#
#
# Indices 1 2 3 4 5 6 
#
# 1 75.3823 27.2996 21.1193 0.0000 -0.9447 0.0000
# 2 27.2996 99.7413 19.6611 0.0000 0.1742 0.0000
# 3 21.1193 19.6611 98.1667 0.0000 -2.1694 0.0000
# 4 0.0000 0.0000 0.0000 29.5543 0.0000 0.4396
# 5 -0.9447 0.1742 -2.1694 0.0000 40.7828 0.0000
# 6 0.0000 0.0000 0.0000 0.4396 0.0000 30.3665
#
#
#
# Elastic Compliance Matrix: (Units=1/GPa)
#
#
# Indices 1 2 3 4 5 6 
#
# 1 0.015320 -0.003691 -0.002552 0.000000 0.000235 0.000000
# 2 -0.003691 0.011328 -0.001480 0.000000 -0.000213 0.000000
# 3 -0.002552 -0.001480 0.011044 0.000000 0.000535 0.000000
# 4 0.000000 0.000000 0.000000 0.033843 0.000000 -0.000490
# 5 0.000235 -0.000213 0.000535 0.000000 0.024555 0.000000
# 6 0.000000 0.000000 0.000000 -0.000490 0.000000 0.032938
#
#
# Mechanical properties :
#
#
# Convention : Reuss Voigt Hill
#
# Bulk Modulus (GPa) = 44.94671 45.49450 45.22061
# Shear Modulus (GPa) = 32.91899 33.82139 33.37019
#
# Velocity S-wave (km/s) = 3.93907 3.99269 3.96597
# Velocity P-wave (km/s) = 6.47100 6.53446 6.50280
#
# Compressibility (1/GPa) = 0.02224857
#
# Stress axis : x y z
#
# Youngs Moduli (GPa) = 65.27392 88.27608 90.54828
#
# Poissons Ratio (x) = 0.32579 0.23104
# Poissons Ratio (y) = 0.24090 0.13397
# Poissons Ratio (z) = 0.16655 0.13061
#
# Static dielectric constant tensor:
#      x y z
#    x 4.103670 0.000000 0.025060 
#    y 0.000000 4.027980 0.000000 
#    z 0.025060 0.000000 3.842670 
# 
# 
# High freq. dielectric constant tensor:
#      x y z
#    x 1.838820 0.000000 0.009900 
#    y 0.000000 1.830680 0.000000 
#    z 0.009900 0.000000 1.839590 
# 
# From -- ./inp_files/16649.got.cif
#   From: 2010.06.25/outbox.cif.g09.slc.cpg/sg13_9_cif.got.tgz:16649.got - 2010.06.28 04:50:58.
