data_PCOD8120921
_publ_section_title
;
Structure prediction by ZEFSAII (Michael W. Deem and Ramdas Pophale) SiO2 
 PCOD8120921
Probable space group: P 2/C
;
_chemical_formula_sum "Si O2"
_cell_formula_units_Z 24
_cell_length_a 8.492940
_cell_length_b 16.356196
_cell_length_c 8.508511
_cell_angle_alpha 90.000000
_cell_angle_beta 86.526231
_cell_angle_gamma 90.000000
_cell_volume 1179.764269
_symmetry_space_group_name_H-M "P 2/C"
_symmetry_group_IT_number 13
_symmetry_cell_setting 'monoclinic'
loop_
_space_group_symop_operation_xyz
x,y,z
-x,y,1/2-z
-x,-y,-z
x,-y,1/2+z
loop_
_atom_site_type_symbol
_atom_site_label
_atom_site_fract_x
_atom_site_fract_y
_atom_site_fract_z
Si Si1 0.315237 0.906185 0.776193
Si Si2 0.295774 0.452492 0.154113
Si Si3 0.000000 0.635646 0.750000
Si Si4 0.805800 0.250062 0.032532
Si Si5 0.000000 0.173261 0.750000
Si Si6 0.601402 0.604324 0.513738
Si Si7 0.839412 0.951628 0.040507
O O1 0.500000 0.890228 0.750000
O O2 0.237969 0.831657 0.873283
O O3 0.229543 0.912668 0.613620
O O4 0.290528 0.988476 0.877482
O O5 0.116919 0.421648 0.140060
O O6 0.338917 0.435159 0.329487
O O7 0.410929 0.402836 0.026514
O O8 0.316384 0.549906 0.126863
O O9 0.908568 0.692603 0.635760
O O10 0.649078 0.300676 0.992622
O O11 0.901551 0.230173 0.871032
O O12 0.126318 0.119431 0.837599
O O13 0.000000 0.000000 0.000000
#
# Coordination Sequence:
#
# PCOD8120921 Si02
#       7
#     4   4   2   4   2   4   4
#     4  12  25  41  69  95 130 166 215 269 320 384
#     4   9  19  37  60  85 115 168 209 253 310 388
#     4  10  22  36  62  88 122 162 220 254 324 378
#     4  11  24  39  59  96 126 166 202 274 322 372
#     4  12  24  40  66  92 130 166 214 266 318 384
#     4   9  20  38  60  83 124 159 210 255 323 373
#     4  12  22  44  69  93 124 174 217 253 319 396
#
# _framework density 20.343048
#
# number of rings (size 3 to 8) (size 9 to 14) (size 15 to 20)
#    0.000    1.333    3.333    1.500    4.667    4.667 
#    0.000    0.000    0.000    0.000    0.000    0.000 
#    0.000    0.000    0.000    0.000    0.000    0.000 
#
# Total GULP energy -297603.200500 kJ/mol
# GULP energy per Si atom -12400.133354 kJ/mol
# Density = 2.029675 g / cm^3
# Si number density = 20.343048 Si / 1000 Ang^3
#
#
#
# Elastic Constant Matrix: (Units=GPa)
#
#
# Indices 1 2 3 4 5 6 
#
# 1 114.1940 39.5791 39.9675 0.0000 -18.3103 0.0000
# 2 39.5791 112.2419 57.3863 0.0000 -10.8895 0.0000
# 3 39.9675 57.3863 109.3518 0.0000 -15.9556 0.0000
# 4 0.0000 0.0000 0.0000 24.0140 0.0000 -1.5997
# 5 -18.3103 -10.8895 -15.9556 0.0000 28.2098 0.0000
# 6 0.0000 0.0000 0.0000 -1.5997 0.0000 29.3559
#
#
#
# Elastic Compliance Matrix: (Units=1/GPa)
#
#
# Indices 1 2 3 4 5 6 
#
# 1 0.011126 -0.002363 -0.002077 0.000000 0.005135 0.000000
# 2 -0.002363 0.012715 -0.005795 0.000000 0.000097 0.000000
# 3 -0.002077 -0.005795 0.013539 0.000000 0.004073 0.000000
# 4 0.000000 0.000000 0.000000 0.041794 0.000000 0.002278
# 5 0.005135 0.000097 0.004073 0.000000 0.041123 0.000000
# 6 0.000000 0.000000 0.000000 0.002278 0.000000 0.034189
#
#
# Mechanical properties :
#
#
# Convention : Reuss Voigt Hill
#
# Bulk Modulus (GPa) = 59.13613 67.73928 63.43771
# Shear Modulus (GPa) = 27.68660 29.57291 28.62976
#
# Velocity S-wave (km/s) = 3.69316 3.81689 3.75553
# Velocity P-wave (km/s) = 6.87884 7.26606 7.07510
#
# Compressibility (1/GPa) = 0.01691013
#
# Stress axis : x y z
#
# Youngs Moduli (GPa) = 89.87563 78.64914 73.85943
#
# Poissons Ratio (x) = 0.18587 0.15342
# Poissons Ratio (y) = 0.21240 0.42799
# Poissons Ratio (z) = 0.18669 0.45574
#
# Static dielectric constant tensor:
#      x y z
#    x 4.370800 0.000000 -0.127460 
#    y 0.000000 3.882640 0.000000 
#    z -0.127460 0.000000 3.797560 
# 
# 
# High freq. dielectric constant tensor:
#      x y z
#    x 1.796470 0.000000 -0.009970 
#    y 0.000000 1.797640 0.000000 
#    z -0.009970 0.000000 1.798750 
# 
# From -- ./inp_files/12436.got.cif
#   From: 2010.06.25/outbox.cif.g09.slc.cpg/sg13_7_cif.got.tgz:12436.got - 2010.06.28 04:50:58.
