data_PCOD8120707
_publ_section_title
;
Structure prediction by ZEFSAII (Michael W. Deem and Ramdas Pophale) SiO2 
 PCOD8120707
Probable space group: P 2/C
;
_chemical_formula_sum "Si O2"
_cell_formula_units_Z 24
_cell_length_a 14.775204
_cell_length_b 11.009595
_cell_length_c 12.438106
_cell_angle_alpha 90.000000
_cell_angle_beta 144.464100
_cell_angle_gamma 90.000000
_cell_volume 1175.964905
_symmetry_space_group_name_H-M "P 2/C"
_symmetry_group_IT_number 13
_symmetry_cell_setting 'monoclinic'
loop_
_space_group_symop_operation_xyz
x,y,z
-x,y,1/2-z
-x,-y,-z
x,-y,1/2+z
loop_
_atom_site_type_symbol
_atom_site_label
_atom_site_fract_x
_atom_site_fract_y
_atom_site_fract_z
Si Si1 0.000000 0.493977 0.750000
Si Si2 0.000334 0.142888 0.023111
Si Si3 0.203513 0.328856 0.578278
Si Si4 0.563176 0.877407 0.925388
Si Si5 0.816049 0.307990 0.706527
Si Si6 0.500000 0.745614 0.250000
Si Si7 0.342532 0.124341 0.401947
O O1 0.132211 0.412144 0.823936
O O2 0.923250 0.576441 0.585050
O O3 0.169767 0.179723 0.232390
O O4 0.873937 0.191395 0.990149
O O5 0.961050 0.216360 0.874726
O O6 0.000000 0.000000 0.000000
O O7 0.247083 0.367027 0.742607
O O8 0.354311 0.335005 0.647963
O O9 0.500000 0.923904 0.750000
O O10 0.418429 0.842413 0.861119
O O11 0.674686 0.762875 0.013343
O O12 0.664302 0.979294 0.085704
O O13 0.552419 0.824958 0.401079
#
# Coordination Sequence:
#
# PCOD8120707 Si02
#       7
#     2   4   4   4   4   2   4
#     4  12  24  48  70  96 136 188 242 298 338 404
#     4  10  21  41  70 100 138 173 230 287 350 426
#     4  10  24  45  68  99 133 185 233 289 349 408
#     4  11  23  39  62  98 144 181 218 281 355 417
#     4  10  24  45  66  99 136 178 239 287 347 415
#     4  12  22  44  68 100 142 184 228 286 350 440
#     4  11  21  38  63 101 141 180 218 275 356 434
#
# _framework density 20.408773
#
# number of rings (size 3 to 8) (size 9 to 14) (size 15 to 20)
#    1.000    0.333    4.167    1.500    4.667    0.000 
#    1.500    0.833    0.000    0.000    0.000    0.000 
#    0.000    0.000    0.000    0.000    0.000    0.000 
#
# Total GULP energy -297480.132975 kJ/mol
# GULP energy per Si atom -12395.005541 kJ/mol
# Density = 2.036232 g / cm^3
# Si number density = 20.408773 Si / 1000 Ang^3
#
#
#
# Elastic Constant Matrix: (Units=GPa)
#
#
# Indices 1 2 3 4 5 6 
#
# 1 128.2874 34.4783 30.2641 0.0000 5.2818 0.0000
# 2 34.4783 88.1916 17.9611 0.0000 3.1261 0.0000
# 3 30.2641 17.9611 92.4399 0.0000 3.6445 0.0000
# 4 0.0000 0.0000 0.0000 32.1413 0.0000 1.0780
# 5 5.2818 3.1261 3.6445 0.0000 36.8507 0.0000
# 6 0.0000 0.0000 0.0000 1.0780 0.0000 35.8164
#
#
#
# Elastic Compliance Matrix: (Units=1/GPa)
#
#
# Indices 1 2 3 4 5 6 
#
# 1 0.009222 -0.003090 -0.002386 0.000000 -0.000824 0.000000
# 2 -0.003090 0.012864 -0.001468 0.000000 -0.000503 0.000000
# 3 -0.002386 -0.001468 0.011912 0.000000 -0.000712 0.000000
# 4 0.000000 0.000000 0.000000 0.031144 0.000000 -0.000937
# 5 -0.000824 -0.000503 -0.000712 0.000000 0.027368 0.000000
# 6 0.000000 0.000000 0.000000 -0.000937 0.000000 0.027948
#
#
# Mechanical properties :
#
#
# Convention : Reuss Voigt Hill
#
# Bulk Modulus (GPa) = 49.72768 52.70286 51.21527
# Shear Modulus (GPa) = 35.44813 36.04270 35.74541
#
# Velocity S-wave (km/s) = 4.17214 4.20699 4.18960
# Velocity P-wave (km/s) = 6.90129 7.03406 6.96799
#
# Compressibility (1/GPa) = 0.02010953
#
# Stress axis : x y z
#
# Youngs Moduli (GPa) = 108.43134 77.73716 83.94613
#
# Poissons Ratio (x) = 0.24023 0.20033
# Poissons Ratio (y) = 0.33508 0.12322
# Poissons Ratio (z) = 0.25876 0.11411
#
# Static dielectric constant tensor:
#      x y z
#    x 3.617500 0.000000 0.028390 
#    y 0.000000 3.392280 0.000000 
#    z 0.028390 0.000000 3.651500 
# 
# 
# High freq. dielectric constant tensor:
#      x y z
#    x 1.792590 0.000000 0.000000 
#    y 0.000000 1.773860 0.000000 
#    z 0.000000 0.000000 1.806650 
# 
# From -- ./inp_files/36996.got.cif
#   From: 2010.06.25/outbox.cif.g09.slc.cpg/sg13_19_cif.got.tgz:36996.got - 2010.06.28 04:50:58.
