data_PCOD8120315
_publ_section_title
;
Structure prediction by ZEFSAII (Michael W. Deem and Ramdas Pophale) SiO2 
 PCOD8120315
Probable space group: P 2/C
;
_chemical_formula_sum "Si O2"
_cell_formula_units_Z 20
_cell_length_a 12.767768
_cell_length_b 5.169319
_cell_length_c 21.579572
_cell_angle_alpha 90.000000
_cell_angle_beta 41.366352
_cell_angle_gamma 90.000000
_cell_volume 941.256508
_symmetry_space_group_name_H-M "P 2/C"
_symmetry_group_IT_number 13
_symmetry_cell_setting 'monoclinic'
loop_
_space_group_symop_operation_xyz
x,y,z
-x,y,1/2-z
-x,-y,-z
x,-y,1/2+z
loop_
_atom_site_type_symbol
_atom_site_label
_atom_site_fract_x
_atom_site_fract_y
_atom_site_fract_z
Si Si1 0.235180 0.053740 0.017080
Si Si2 0.409449 0.468442 0.476391
Si Si3 0.867312 0.079212 0.183485
Si Si4 0.323240 0.095719 0.836655
Si Si5 0.701167 0.583580 0.264672
O O1 0.275343 0.311412 0.037378
O O2 0.330972 0.811621 0.002122
O O3 0.278393 0.118879 0.927514
O O4 0.049803 0.004655 0.106640
O O5 0.500000 0.500000 0.500000
O O6 0.528256 0.520926 0.367066
O O7 0.805428 0.091200 0.139506
O O8 0.824899 0.359767 0.229707
O O9 0.769611 0.853097 0.263234
O O10 0.500000 0.979173 0.750000
O O11 0.315136 0.372494 0.802927
#
# Coordination Sequence:
#
# PCOD8120315 Si02
#       5
#     4   4   4   4   4
#     4  12  24  42  68  99 130 170 216 277 333 377
#     4  12  26  46  67  92 130 181 231 263 313 395
#     4  10  23  39  65 102 134 161 209 271 343 390
#     4  10  21  38  66  99 130 167 206 267 325 406
#     4  10  22  41  63  93 133 168 217 257 331 385
#
# _framework density 21.248193000000001
#
# number of rings (size 3 to 8) (size 9 to 14) (size 15 to 20)
#    1.200    0.000    2.000    4.800    2.800    1.600 
#    0.000    6.000    0.000    0.000    0.000    0.000 
#    0.000    0.000    0.000    0.000    0.000    0.000 
#
# Total GULP energy -247809.488061 kJ/mol
# GULP energy per Si atom -12390.474403 kJ/mol
# Density = 2.119983 g / cm^3
# Si number density = 21.248193 Si / 1000 Ang^3
#
#
#
# Elastic Constant Matrix: (Units=GPa)
#
#
# Indices 1 2 3 4 5 6 
#
# 1 87.2191 35.1965 27.6263 0.0000 -15.9188 0.0000
# 2 35.1965 142.2426 25.5339 0.0000 -4.0912 0.0000
# 3 27.6263 25.5339 60.9556 0.0000 -30.7119 0.0000
# 4 0.0000 0.0000 0.0000 25.6919 0.0000 -15.9164
# 5 -15.9188 -4.0912 -30.7119 0.0000 31.0772 0.0000
# 6 0.0000 0.0000 0.0000 -15.9164 0.0000 28.9198
#
#
#
# Elastic Compliance Matrix: (Units=1/GPa)
#
#
# Indices 1 2 3 4 5 6 
#
# 1 0.014367 -0.002808 -0.003612 0.000000 0.003420 0.000000
# 2 -0.002808 0.008447 -0.004840 0.000000 -0.005110 0.000000
# 3 -0.003612 -0.004840 0.037477 0.000000 0.034550 0.000000
# 4 0.000000 0.000000 0.000000 0.059059 0.000000 0.032504
# 5 0.003420 -0.005110 0.034550 0.000000 0.067401 0.000000
# 6 0.000000 0.000000 0.000000 0.032504 0.000000 0.052467
#
#
# Mechanical properties :
#
#
# Convention : Reuss Voigt Hill
#
# Bulk Modulus (GPa) = 26.47537 51.90339 39.18938
# Shear Modulus (GPa) = 18.22628 30.60849 24.41739
#
# Velocity S-wave (km/s) = 2.93197 3.79954 3.39359
# Velocity P-wave (km/s) = 4.89377 6.61278 5.81713
#
# Compressibility (1/GPa) = 0.03777096
#
# Stress axis : x y z
#
# Youngs Moduli (GPa) = 69.60463 118.38547 26.68282
#
# Poissons Ratio (x) = 0.33245 0.09637
# Poissons Ratio (y) = 0.19546 0.12915
# Poissons Ratio (z) = 0.25140 0.57300
#
# Static dielectric constant tensor:
#      x y z
#    x 3.727420 0.000000 -0.174350 
#    y 0.000000 3.935120 0.000000 
#    z -0.174350 0.000000 3.697540 
# 
# 
# High freq. dielectric constant tensor:
#      x y z
#    x 1.825680 0.000000 -0.021780 
#    y 0.000000 1.839730 0.000000 
#    z -0.021780 0.000000 1.819120 
# 
# From -- ./inp_files/85488.got.cif
#   From: 2010.06.25/outbox.cif.g09.slc.cpg/sg13_43_cif.got.tgz:85488.got - 2010.06.28 04:50:58.
