data_PCOD8120772
_publ_section_title
;
Structure prediction by ZEFSAII (Michael W. Deem and Ramdas Pophale) SiO2 
 PCOD8120772
Probable space group: P 2/C
;
_chemical_formula_sum "Si O2"
_cell_formula_units_Z 26
_cell_length_a 18.346101
_cell_length_b 11.225634
_cell_length_c 12.161521
_cell_angle_alpha 90.000000
_cell_angle_beta 27.130042
_cell_angle_gamma 90.000000
_cell_volume 1142.137665
_symmetry_space_group_name_H-M "P 2/C"
_symmetry_group_IT_number 13
_symmetry_cell_setting 'monoclinic'
loop_
_space_group_symop_operation_xyz
x,y,z
-x,y,1/2-z
-x,-y,-z
x,-y,1/2+z
loop_
_atom_site_type_symbol
_atom_site_label
_atom_site_fract_x
_atom_site_fract_y
_atom_site_fract_z
Si Si1 0.351205 0.495507 0.619671
Si Si2 0.913106 0.850653 0.549405
Si Si3 0.816731 0.670341 0.518865
Si Si4 0.500000 0.075527 0.250000
Si Si5 0.000000 0.965376 0.750000
Si Si6 0.288409 0.123706 0.966409
Si Si7 0.249408 0.264320 0.629307
Si Si8 0.500000 0.668441 0.250000
O O1 0.500000 0.500000 0.500000
O O2 0.297102 0.366894 0.650963
O O3 0.383580 0.584896 0.476129
O O4 0.209892 0.544626 0.886259
O O5 0.785101 0.777439 0.647192
O O6 0.988202 0.957208 0.376876
O O7 0.063909 0.772710 0.392518
O O8 0.806045 0.896121 0.792575
O O9 0.716575 0.687550 0.541003
O O10 0.000000 0.682039 0.250000
O O11 0.370665 0.155697 0.488733
O O12 0.592005 0.988065 0.211391
O O13 0.156859 0.881364 0.546170
O O14 0.384968 0.247822 0.830037
#
# Coordination Sequence:
#
# PCOD8120772 Si02
#       8
#     4   4   4   2   2   4   4   2
#     4  12  25  44  70  97 139 183 227 291 350 410
#     4  11  21  44  69  96 135 177 231 280 342 417
#     4  10  21  42  67  97 133 180 224 283 340 413
#     4  11  21  42  64 100 131 177 226 272 354 405
#     4  12  22  42  70 100 132 182 228 288 348 412
#     4  11  25  43  70  97 143 177 223 297 339 413
#     4  11  23  42  72  99 133 180 233 283 343 424
#     4  11  25  48  64 102 143 179 230 286 350 413
#
# _framework density 22.764330999999999
#
# number of rings (size 3 to 8) (size 9 to 14) (size 15 to 20)
#    0.000    0.923    5.385    2.769    0.000    3.692 
#    5.538    2.308    0.000    0.000    0.000    0.000 
#    0.000    0.000    0.000    0.000    0.000    0.000 
#
# Total GULP energy -322299.007736 kJ/mol
# GULP energy per Si atom -12396.115682 kJ/mol
# Density = 2.271252 g / cm^3
# Si number density = 22.764331 Si / 1000 Ang^3
#
#
#
# Elastic Constant Matrix: (Units=GPa)
#
#
# Indices 1 2 3 4 5 6 
#
# 1 105.8087 34.9750 11.0694 0.0000 -23.7084 0.0000
# 2 34.9750 104.8777 8.7660 0.0000 -11.2811 0.0000
# 3 11.0694 8.7660 34.7776 0.0000 -0.6069 0.0000
# 4 0.0000 0.0000 0.0000 28.7328 0.0000 -11.7353
# 5 -23.7084 -11.2811 -0.6069 0.0000 36.7381 0.0000
# 6 0.0000 0.0000 0.0000 -11.7353 0.0000 33.1147
#
#
#
# Elastic Compliance Matrix: (Units=1/GPa)
#
#
# Indices 1 2 3 4 5 6 
#
# 1 0.012360 -0.003119 -0.003026 0.000000 0.006969 0.000000
# 2 -0.003119 0.010858 -0.001721 0.000000 0.001293 0.000000
# 3 -0.003026 -0.001721 0.030117 0.000000 -0.001984 0.000000
# 4 0.000000 0.000000 0.000000 0.040693 0.000000 0.014421
# 5 0.006969 0.001293 -0.001984 0.000000 0.032081 0.000000
# 6 0.000000 0.000000 0.000000 0.014421 0.000000 0.035309
#
#
# Mechanical properties :
#
#
# Convention : Reuss Voigt Hill
#
# Bulk Modulus (GPa) = 26.59522 39.45388 33.02455
# Shear Modulus (GPa) = 26.35938 32.42736 29.39337
#
# Velocity S-wave (km/s) = 3.40652 3.77832 3.59723
# Velocity P-wave (km/s) = 5.21351 6.03352 5.63844
#
# Compressibility (1/GPa) = 0.03760074
#
# Stress axis : x y z
#
# Youngs Moduli (GPa) = 80.90504 92.09700 33.20421
#
# Poissons Ratio (x) = 0.28729 0.10048
# Poissons Ratio (y) = 0.25238 0.05716
# Poissons Ratio (z) = 0.24484 0.15854
#
# Static dielectric constant tensor:
#      x y z
#    x 4.417330 0.000000 -0.287240 
#    y 0.000000 3.424150 0.000000 
#    z -0.287240 0.000000 3.881970 
# 
# 
# High freq. dielectric constant tensor:
#      x y z
#    x 1.893750 0.000000 -0.014330 
#    y 0.000000 1.900330 0.000000 
#    z -0.014330 0.000000 1.896520 
# 
# From -- ./inp_files/39161.got.cif
#   From: 2010.06.25/outbox.cif.g09.slc.cpg/sg13_20_cif.got.tgz:39161.got - 2010.06.28 04:50:58.
