data_PCOD8120410
_publ_section_title
;
Structure prediction by ZEFSAII (Michael W. Deem and Ramdas Pophale) SiO2 
 PCOD8120410
Probable space group: P 2/C
;
_chemical_formula_sum "Si O2"
_cell_formula_units_Z 22
_cell_length_a 12.071254
_cell_length_b 6.310199
_cell_length_c 23.041204
_cell_angle_alpha 90.000000
_cell_angle_beta 36.187754
_cell_angle_gamma 90.000000
_cell_volume 1036.266284
_symmetry_space_group_name_H-M "P 2/C"
_symmetry_group_IT_number 13
_symmetry_cell_setting 'monoclinic'
loop_
_space_group_symop_operation_xyz
x,y,z
-x,y,1/2-z
-x,-y,-z
x,-y,1/2+z
loop_
_atom_site_type_symbol
_atom_site_label
_atom_site_fract_x
_atom_site_fract_y
_atom_site_fract_z
Si Si1 0.418240 0.973783 0.879665
Si Si2 0.497243 0.198808 0.541975
Si Si3 0.172493 0.498511 0.635794
Si Si4 0.500000 0.678204 0.750000
Si Si5 0.101273 0.652154 0.044328
Si Si6 0.217247 0.334362 0.903785
O O1 0.548588 0.816410 0.786984
O O2 0.522942 0.112851 0.883781
O O3 0.342094 0.132786 0.863446
O O4 0.265101 0.824915 0.974330
O O5 0.313158 0.341601 0.610292
O O6 0.694913 0.317102 0.446488
O O7 0.500000 0.000000 0.500000
O O8 0.066053 0.386878 0.627179
O O9 0.000000 0.577838 0.750000
O O10 0.318910 0.534146 0.832452
O O11 0.928188 0.752979 0.082574
O O12 0.136250 0.423920 0.998687
#
# Coordination Sequence:
#
# PCOD8120410 Si02
#       6
#     4   4   4   2   4   4
#     4  11  21  41  67  93 131 170 215 264 328 396
#     4  11  24  45  69  94 135 180 218 272 333 384
#     4  11  25  43  68  99 130 176 226 274 323 391
#     4  10  24  36  62 100 126 170 212 260 336 386
#     4  10  21  40  63  93 125 168 212 265 335 375
#     4  10  21  39  64  91 130 164 208 271 319 391
#
# _framework density 21.230066000000001
#
# number of rings (size 3 to 8) (size 9 to 14) (size 15 to 20)
#    0.000    1.455    3.636    1.091    0.000    5.091 
#    0.000    0.000    0.000    0.000    0.000    0.000 
#    0.000    0.000    0.000    0.000    0.000    0.000 
#
# Total GULP energy -272610.057508 kJ/mol
# GULP energy per Si atom -12391.366250 kJ/mol
# Density = 2.118175 g / cm^3
# Si number density = 21.230066 Si / 1000 Ang^3
#
#
#
# Elastic Constant Matrix: (Units=GPa)
#
#
# Indices 1 2 3 4 5 6 
#
# 1 98.6887 -5.7909 20.3842 0.0000 19.0345 0.0000
# 2 -5.7909 38.8516 1.2858 0.0000 14.4015 0.0000
# 3 20.3842 1.2858 87.2290 0.0000 18.5758 0.0000
# 4 0.0000 0.0000 0.0000 5.2044 0.0000 10.2203
# 5 19.0345 14.4015 18.5758 0.0000 27.9428 0.0000
# 6 0.0000 0.0000 0.0000 10.2203 0.0000 33.9183
#
#
#
# Elastic Compliance Matrix: (Units=1/GPa)
#
#
# Indices 1 2 3 4 5 6 
#
# 1 0.012854 0.006212 -0.000639 0.000000 -0.011532 0.000000
# 2 0.006212 0.035776 0.003319 0.000000 -0.024876 0.000000
# 3 -0.000639 0.003319 0.013788 0.000000 -0.010441 0.000000
# 4 0.000000 0.000000 0.000000 0.470632 0.000000 -0.141812
# 5 -0.011532 -0.024876 -0.010441 0.000000 0.063405 0.000000
# 6 0.000000 0.000000 0.000000 -0.141812 0.000000 0.072214
#
#
# Mechanical properties :
#
#
# Convention : Reuss Voigt Hill
#
# Bulk Modulus (GPa) = 12.46883 28.50303 20.48593
# Shear Modulus (GPa) = 7.37877 27.33910 17.35894
#
# Velocity S-wave (km/s) = 1.86632 3.59242 2.86257
# Velocity P-wave (km/s) = 3.24502 5.53735 4.53831
#
# Compressibility (1/GPa) = 0.08019999
#
# Stress axis : x y z
#
# Youngs Moduli (GPa) = 77.79835 27.95150 72.52687
#
# Poissons Ratio (x) = -0.17363 0.04638
# Poissons Ratio (y) = -0.48327 -0.24069
# Poissons Ratio (z) = 0.04975 -0.09276
#
# Static dielectric constant tensor:
#      x y z
#    x 4.134070 0.000000 0.246330 
#    y 0.000000 4.118340 0.000000 
#    z 0.246330 0.000000 3.989330 
# 
# 
# High freq. dielectric constant tensor:
#      x y z
#    x 1.839450 0.000000 0.015090 
#    y 0.000000 1.841370 0.000000 
#    z 0.015090 0.000000 1.818360 
# 
# From -- ./inp_files/72167.got.cif
#   From: 2010.06.25/outbox.cif.g09.slc.cpg/sg13_37_cif.got.tgz:72167.got - 2010.06.28 04:50:58.
