data_PCOD8120392
_publ_section_title
;
Structure prediction by ZEFSAII (Michael W. Deem and Ramdas Pophale) SiO2 
 PCOD8120392
Probable space group: P 2/C
;
_chemical_formula_sum "Si O2"
_cell_formula_units_Z 24
_cell_length_a 8.941045
_cell_length_b 15.093679
_cell_length_c 12.243726
_cell_angle_alpha 90.000000
_cell_angle_beta 145.125209
_cell_angle_gamma 90.000000
_cell_volume 944.777900
_symmetry_space_group_name_H-M "P 2/C"
_symmetry_group_IT_number 13
_symmetry_cell_setting 'monoclinic'
loop_
_space_group_symop_operation_xyz
x,y,z
-x,y,1/2-z
-x,-y,-z
x,-y,1/2+z
loop_
_atom_site_type_symbol
_atom_site_label
_atom_site_fract_x
_atom_site_fract_y
_atom_site_fract_z
Si Si1 0.250993 0.790433 0.328610
Si Si2 0.514444 0.048846 0.885707
Si Si3 0.224199 0.403542 0.801807
Si Si4 0.060238 0.064487 0.137561
Si Si5 0.689816 0.762091 0.763293
Si Si6 0.659301 0.429601 0.236694
O O1 0.333330 0.864393 0.290942
O O2 0.181949 0.696368 0.228835
O O3 0.508982 0.771578 0.550845
O O4 0.000000 0.822590 0.250000
O O5 0.500000 0.023615 0.750000
O O6 0.359095 0.966892 0.857876
O O7 0.830903 0.059471 0.093986
O O8 0.183439 0.478027 0.683275
O O9 0.000000 0.426439 0.750000
O O10 0.495530 0.414097 0.028001
O O11 0.078793 0.165431 0.104689
O O12 0.000000 0.000000 0.000000
O O13 0.500000 0.781466 0.750000
O O14 0.819340 0.663126 0.847331
O O15 0.500000 0.444430 0.250000
#
# Coordination Sequence:
#
# PCOD8120392 Si02
#       6
#     4   4   4   4   4   4
#     4  10  23  39  63  92 125 166 211 257 319 377
#     4  10  23  41  63  91 125 164 207 259 319 376
#     4   9  19  39  58  86 127 160 199 262 312 364
#     4  10  22  41  64  92 127 164 205 263 318 372
#     4  10  21  39  63  89 126 166 210 259 315 377
#     4   9  19  37  60  89 117 162 210 250 308 372
#
# _framework density 25.402795999999999
#
# number of rings (size 3 to 8) (size 9 to 14) (size 15 to 20)
#    0.000    2.333    0.000    1.500    7.000    2.667 
#    9.000    0.000    0.000    0.000    0.000    0.000 
#    0.000    0.000    0.000    0.000    0.000    0.000 
#
# Total GULP energy -297322.575571 kJ/mol
# GULP energy per Si atom -12388.440649 kJ/mol
# Density = 2.534498 g / cm^3
# Si number density = 25.402796 Si / 1000 Ang^3
#
#
#
# Elastic Constant Matrix: (Units=GPa)
#
#
# Indices 1 2 3 4 5 6 
#
# 1 144.4057 117.2090 15.4567 0.0000 42.8757 0.0000
# 2 117.2090 242.9029 22.7855 0.0000 35.8829 0.0000
# 3 15.4567 22.7855 53.4918 0.0000 23.3884 0.0000
# 4 0.0000 0.0000 0.0000 26.6864 0.0000 6.8496
# 5 42.8757 35.8829 23.3884 0.0000 33.0398 0.0000
# 6 0.0000 0.0000 0.0000 6.8496 0.0000 71.0089
#
#
#
# Elastic Compliance Matrix: (Units=1/GPa)
#
#
# Indices 1 2 3 4 5 6 
#
# 1 0.016952 -0.005790 0.006426 0.000000 -0.020259 0.000000
# 2 -0.005790 0.006886 -0.001847 0.000000 0.001343 0.000000
# 3 0.006426 -0.001847 0.029535 0.000000 -0.027240 0.000000
# 4 0.000000 0.000000 0.000000 0.038424 0.000000 -0.003706
# 5 -0.020259 0.001343 -0.027240 0.000000 0.074381 0.000000
# 6 0.000000 0.000000 0.000000 -0.003706 0.000000 0.014440
#
#
# Mechanical properties :
#
#
# Convention : Reuss Voigt Hill
#
# Bulk Modulus (GPa) = 19.62719 83.52253 51.57486
# Shear Modulus (GPa) = 24.99727 45.17030 35.08378
#
# Velocity S-wave (km/s) = 3.14034 4.22140 3.72035
# Velocity P-wave (km/s) = 4.57079 7.53067 6.22909
#
# Compressibility (1/GPa) = 0.05094974
#
# Stress axis : x y z
#
# Youngs Moduli (GPa) = 58.99159 145.23250 33.85839
#
# Poissons Ratio (x) = 0.84086 -0.21757
# Poissons Ratio (y) = 0.34155 0.06254
# Poissons Ratio (z) = -0.37907 0.26827
#
# Static dielectric constant tensor:
#      x y z
#    x 4.741210 0.000000 0.451070 
#    y 0.000000 5.681780 0.000000 
#    z 0.451070 0.000000 5.645610 
# 
# 
# High freq. dielectric constant tensor:
#      x y z
#    x 2.008270 0.000000 -0.011570 
#    y 0.000000 2.029780 0.000000 
#    z -0.011570 0.000000 2.032330 
# 
# From -- ./inp_files/47795.got.cif
#   From: 2010.06.25/outbox.cif.g09.slc.cpg/sg13_24_cif.got.tgz:47795.got - 2010.06.28 04:50:58.
