data_PCOD8120520
_publ_section_title
;
Structure prediction by ZEFSAII (Michael W. Deem and Ramdas Pophale) SiO2 
 PCOD8120520
Probable space group: P 2/C
;
_chemical_formula_sum "Si O2"
_cell_formula_units_Z 26
_cell_length_a 8.996797
_cell_length_b 6.631887
_cell_length_c 21.474155
_cell_angle_alpha 90.000000
_cell_angle_beta 83.286242
_cell_angle_gamma 90.000000
_cell_volume 1272.485189
_symmetry_space_group_name_H-M "P 2/C"
_symmetry_group_IT_number 13
_symmetry_cell_setting 'monoclinic'
loop_
_space_group_symop_operation_xyz
x,y,z
-x,y,1/2-z
-x,-y,-z
x,-y,1/2+z
loop_
_atom_site_type_symbol
_atom_site_label
_atom_site_fract_x
_atom_site_fract_y
_atom_site_fract_z
Si Si1 0.000000 0.732089 0.750000
Si Si2 0.474348 0.566476 0.109506
Si Si3 0.046516 0.915211 0.150972
Si Si4 0.235403 0.392906 0.723046
Si Si5 0.574086 0.128528 0.086248
Si Si6 0.308554 0.112035 0.550914
Si Si7 0.715289 0.169635 0.657143
O O1 0.853783 0.590162 0.748181
O O2 0.978711 0.872305 0.812072
O O3 0.375077 0.532275 0.175870
O O4 0.548937 0.363352 0.083964
O O5 0.364974 0.659154 0.061972
O O6 0.619821 0.705015 0.112086
O O7 0.122158 0.753500 0.192713
O O8 0.142556 0.937892 0.083361
O O9 0.891340 0.821931 0.135011
O O10 0.311364 0.256749 0.772925
O O11 0.411949 0.029694 0.088254
O O12 0.654328 0.059258 0.147181
O O13 0.680575 0.065287 0.022750
#
# Coordination Sequence:
#
# PCOD8120520 Si02
#       7
#     2   4   4   4   4   4   4
#     4  12  20  36  66  80 112 160 204 232 300 364
#     4  10  22  38  61  86 116 154 197 242 299 346
#     4  11  22  39  61  86 119 155 192 249 302 345
#     4  11  22  40  56  86 119 156 195 245 292 358
#     4  10  21  40  63  87 116 158 200 239 294 351
#     4   9  21  41  63  85 116 153 202 248 284 352
#     4  11  22  38  55  87 129 144 190 249 296 349
#
# _framework density 20.432456999999999
#
# number of rings (size 3 to 8) (size 9 to 14) (size 15 to 20)
#    0.000    1.538    3.077    1.846    2.154    0.615 
#    2.769    0.769    0.000    0.000    0.000    0.000 
#    0.000    0.000    0.000    0.000    0.000    0.000 
#
# Total GULP energy -322260.022525 kJ/mol
# GULP energy per Si atom -12394.616251 kJ/mol
# Density = 2.038595 g / cm^3
# Si number density = 20.432457 Si / 1000 Ang^3
#
#
#
# Elastic Constant Matrix: (Units=GPa)
#
#
# Indices 1 2 3 4 5 6 
#
# 1 84.9700 22.0476 39.3733 0.0000 -6.9138 0.0000
# 2 22.0476 88.6308 20.5893 0.0000 -1.9437 0.0000
# 3 39.3733 20.5893 67.4180 0.0000 -8.3085 0.0000
# 4 0.0000 0.0000 0.0000 22.4168 0.0000 -5.2842
# 5 -6.9138 -1.9437 -8.3085 0.0000 29.8661 0.0000
# 6 0.0000 0.0000 0.0000 -5.2842 0.0000 22.7362
#
#
#
# Elastic Compliance Matrix: (Units=1/GPa)
#
#
# Indices 1 2 3 4 5 6 
#
# 1 0.016502 -0.002018 -0.008871 0.000000 0.001221 0.000000
# 2 -0.002018 0.012393 -0.002656 0.000000 -0.000399 0.000000
# 3 -0.008871 -0.002656 0.021280 0.000000 0.003693 0.000000
# 4 0.000000 0.000000 0.000000 0.047195 0.000000 0.010969
# 5 0.001221 -0.000399 0.003693 0.000000 0.034767 0.000000
# 6 0.000000 0.000000 0.000000 0.010969 0.000000 0.046532
#
#
# Mechanical properties :
#
#
# Convention : Reuss Voigt Hill
#
# Bulk Modulus (GPa) = 43.31523 45.00437 44.15980
# Shear Modulus (GPa) = 23.42435 25.60440 24.51437
#
# Velocity S-wave (km/s) = 3.38957 3.54379 3.46754
# Velocity P-wave (km/s) = 6.04683 6.23044 6.13932
#
# Compressibility (1/GPa) = 0.02308657
#
# Stress axis : x y z
#
# Youngs Moduli (GPa) = 60.59729 80.69206 46.99272
#
# Poissons Ratio (x) = 0.16280 0.41688
# Poissons Ratio (y) = 0.12226 0.12480
# Poissons Ratio (z) = 0.53756 0.21429
#
# Static dielectric constant tensor:
#      x y z
#    x 3.814650 0.000000 -0.066440 
#    y 0.000000 3.846530 0.000000 
#    z -0.066440 0.000000 3.594840 
# 
# 
# High freq. dielectric constant tensor:
#      x y z
#    x 1.803080 0.000000 -0.009390 
#    y 0.000000 1.801330 0.000000 
#    z -0.009390 0.000000 1.783590 
# 
# From -- ./inp_files/84377.got.cif
#   From: 2010.06.25/outbox.cif.g09.slc.cpg/sg13_43_cif.got.tgz:84377.got - 2010.06.28 04:50:58.
