data_PCOD8120255
_publ_section_title
;
Structure prediction by ZEFSAII (Michael W. Deem and Ramdas Pophale) SiO2 
 PCOD8120255
Probable space group: P 2/C
;
_chemical_formula_sum "Si O2"
_cell_formula_units_Z 20
_cell_length_a 5.060082
_cell_length_b 23.338927
_cell_length_c 9.594889
_cell_angle_alpha 90.000000
_cell_angle_beta 121.046433
_cell_angle_gamma 90.000000
_cell_volume 970.805705
_symmetry_space_group_name_H-M "P 2/C"
_symmetry_group_IT_number 13
_symmetry_cell_setting 'monoclinic'
loop_
_space_group_symop_operation_xyz
x,y,z
-x,y,1/2-z
-x,-y,-z
x,-y,1/2+z
loop_
_atom_site_type_symbol
_atom_site_label
_atom_site_fract_x
_atom_site_fract_y
_atom_site_fract_z
Si Si1 0.602565 0.222345 0.934259
Si Si2 0.364884 0.544993 0.858257
Si Si3 0.810660 0.964782 0.056897
Si Si4 0.750883 0.838693 0.935001
Si Si5 0.358659 0.327596 0.357992
O O1 0.500000 0.231650 0.750000
O O2 0.349326 0.183927 0.941513
O O3 0.581163 0.283994 0.000924
O O4 0.932474 0.190516 0.031230
O O5 0.500000 0.525085 0.750000
O O6 0.490103 0.609172 0.929687
O O7 0.000000 0.541884 0.750000
O O8 0.500000 0.500000 0.000000
O O9 0.000000 0.954188 0.250000
O O10 0.764432 0.906225 0.960569
O O11 0.500000 0.000000 0.000000
O O12 0.000000 0.000000 0.000000
O O13 0.500000 0.823151 0.750000
O O14 0.500000 0.304579 0.250000
O O15 0.000000 0.334849 0.250000
#
# Coordination Sequence:
#
# PCOD8120255 Si02
#       5
#     4   4   4   4   4
#     4  12  24  40  62  92 122 156 202 256 304 356
#     4  10  21  38  61  89 122 161 205 253 306 365
#     4  12  25  44  66  93 125 160 202 250 301 360
#     4  12  25  43  65  90 122 163 202 245 303 366
#     4  10  21  39  61  86 121 164 204 246 305 371
#
# _framework density 20.601445999999999
#
# number of rings (size 3 to 8) (size 9 to 14) (size 15 to 20)
#    0.000    0.800    0.000    9.000    0.000    0.800 
#    0.000    2.000    0.000    0.000    0.000    0.000 
#    0.000    0.000    0.000    0.000    0.000    0.000 
#
# Total GULP energy -247960.496606 kJ/mol
# GULP energy per Si atom -12398.024830 kJ/mol
# Density = 2.055456 g / cm^3
# Si number density = 20.601446 Si / 1000 Ang^3
#
#
#
# Elastic Constant Matrix: (Units=GPa)
#
#
# Indices 1 2 3 4 5 6 
#
# 1 133.5486 49.1274 25.6811 0.0000 -20.2400 0.0000
# 2 49.1274 158.2343 63.0581 0.0000 -15.6601 0.0000
# 3 25.6811 63.0581 102.4332 0.0000 -16.6326 0.0000
# 4 0.0000 0.0000 0.0000 21.0782 0.0000 -4.2702
# 5 -20.2400 -15.6601 -16.6326 0.0000 40.1023 0.0000
# 6 0.0000 0.0000 0.0000 -4.2702 0.0000 40.0821
#
#
#
# Elastic Compliance Matrix: (Units=1/GPa)
#
#
# Indices 1 2 3 4 5 6 
#
# 1 0.008920 -0.002330 -0.000234 0.000000 0.003495 0.000000
# 2 -0.002330 0.009038 -0.004930 0.000000 0.000309 0.000000
# 3 -0.000234 -0.004930 0.013428 0.000000 0.003526 0.000000
# 4 0.000000 0.000000 0.000000 0.048489 0.000000 0.005166
# 5 0.003495 0.000309 0.003526 0.000000 0.028283 0.000000
# 6 0.000000 0.000000 0.000000 0.005166 0.000000 0.025499
#
#
# Mechanical properties :
#
#
# Convention : Reuss Voigt Hill
#
# Bulk Modulus (GPa) = 60.98205 74.43880 67.71042
# Shear Modulus (GPa) = 32.44392 37.34249 34.89321
#
# Velocity S-wave (km/s) = 3.97273 4.26210 4.11996
# Velocity P-wave (km/s) = 7.12099 7.77380 7.45454
#
# Compressibility (1/GPa) = 0.01639827
#
# Stress axis : x y z
#
# Youngs Moduli (GPa) = 112.11036 110.64088 74.46849
#
# Poissons Ratio (x) = 0.25780 0.01746
# Poissons Ratio (y) = 0.26122 0.36710
# Poissons Ratio (z) = 0.02628 0.54542
#
# Static dielectric constant tensor:
#      x y z
#    x 4.118830 0.000000 -0.156480 
#    y 0.000000 1.723050 0.000000 
#    z -0.156480 0.000000 3.620350 
# 
# 
# High freq. dielectric constant tensor:
#      x y z
#    x 1.830760 0.000000 -0.012840 
#    y 0.000000 1.827230 0.000000 
#    z -0.012840 0.000000 1.800570 
# 
# From -- ./inp_files/9903.got.cif
#   From: 2010.06.25/outbox.cif.g09.slc.cpg/sg13_5_cif.got.tgz:9903.got - 2010.06.28 04:50:58.
