data_PCOD8120972
_publ_section_title
;
Structure prediction by ZEFSAII (Michael W. Deem and Ramdas Pophale) SiO2 
 PCOD8120972
Probable space group: P 2/C
;
_chemical_formula_sum "Si O2"
_cell_formula_units_Z 30
_cell_length_a 14.957089
_cell_length_b 5.246695
_cell_length_c 21.065961
_cell_angle_alpha 90.000000
_cell_angle_beta 52.723978
_cell_angle_gamma 90.000000
_cell_volume 1315.461902
_symmetry_space_group_name_H-M "P 2/C"
_symmetry_group_IT_number 13
_symmetry_cell_setting 'monoclinic'
loop_
_space_group_symop_operation_xyz
x,y,z
-x,y,1/2-z
-x,-y,-z
x,-y,1/2+z
loop_
_atom_site_type_symbol
_atom_site_label
_atom_site_fract_x
_atom_site_fract_y
_atom_site_fract_z
Si Si1 0.085482 0.523853 0.770901
Si Si2 0.866412 0.491589 0.558540
Si Si3 0.226327 0.022393 0.706034
Si Si4 0.500000 0.561522 0.750000
Si Si5 0.238565 0.851767 0.066389
Si Si6 0.123209 0.662695 0.578695
Si Si7 0.684811 0.873852 0.601365
Si Si8 0.309796 0.242568 0.791634
O O1 0.128133 0.233964 0.754124
O O2 0.000000 0.565843 0.750000
O O3 0.009478 0.589240 0.865498
O O4 0.185208 0.730929 0.723285
O O5 0.834141 0.310276 0.512211
O O6 0.807870 0.761411 0.567412
O O7 0.810388 0.392695 0.648856
O O8 0.000000 0.500000 0.500000
O O9 0.294189 0.092336 0.611749
O O10 0.305188 0.049718 0.734417
O O11 0.578678 0.708713 0.667458
O O12 0.419370 0.414008 0.735076
O O13 0.190428 0.564602 0.086352
O O14 0.139204 0.063770 0.105110
O O15 0.323674 0.906740 0.971472
O O16 0.670142 0.129301 0.647237
#
# Coordination Sequence:
#
# PCOD8120972 Si02
#       8
#     4   4   4   2   4   4   4   4
#     4  12  22  39  59  92 141 195 227 259 329 401
#     4  10  22  38  58  98 138 176 216 276 333 403
#     4  12  25  38  64  98 137 174 232 284 322 401
#     4  10  24  48  74  92 122 174 232 292 356 410
#     4  11  21  41  60  93 129 173 217 269 325 398
#     4  11  21  36  60  85 133 186 227 253 315 399
#     4  10  23  43  69  93 129 177 226 276 344 414
#     4  11  24  43  68  99 130 174 232 287 346 396
#
# _framework density 22.805676999999999
#
# number of rings (size 3 to 8) (size 9 to 14) (size 15 to 20)
#    0.000    1.067    4.000    2.400    5.600    1.600 
#    0.000    0.667    0.000    3.200    0.000    0.000 
#    0.000    0.000    0.000    0.000    0.000    0.000 
#
# Total GULP energy -371672.279995 kJ/mol
# GULP energy per Si atom -12389.076000 kJ/mol
# Density = 2.275377 g / cm^3
# Si number density = 22.805677 Si / 1000 Ang^3
#
#
#
# Elastic Constant Matrix: (Units=GPa)
#
#
# Indices 1 2 3 4 5 6 
#
# 1 52.3939 5.3951 36.5828 0.0000 -6.9790 0.0000
# 2 5.3951 81.0056 10.9636 0.0000 -6.3837 0.0000
# 3 36.5828 10.9636 118.1451 0.0000 6.5071 0.0000
# 4 0.0000 0.0000 0.0000 25.7415 0.0000 4.6203
# 5 -6.9790 -6.3837 6.5071 0.0000 43.4176 0.0000
# 6 0.0000 0.0000 0.0000 4.6203 0.0000 14.1492
#
#
#
# Elastic Compliance Matrix: (Units=1/GPa)
#
#
# Indices 1 2 3 4 5 6 
#
# 1 0.025521 -0.000175 -0.008178 0.000000 0.005302 0.000000
# 2 -0.000175 0.012683 -0.001234 0.000000 0.002022 0.000000
# 3 -0.008178 -0.001234 0.011287 0.000000 -0.003188 0.000000
# 4 0.000000 0.000000 0.000000 0.041266 0.000000 -0.013475
# 5 0.005302 0.002022 -0.003188 0.000000 0.024659 0.000000
# 6 0.000000 0.000000 0.000000 -0.013475 0.000000 0.075075
#
#
# Mechanical properties :
#
#
# Convention : Reuss Voigt Hill
#
# Bulk Modulus (GPa) = 32.98627 39.71417 36.35022
# Shear Modulus (GPa) = 22.75098 29.90189 26.32644
#
# Velocity S-wave (km/s) = 3.16191 3.62492 3.40130
# Velocity P-wave (km/s) = 5.27501 5.91372 5.60347
#
# Compressibility (1/GPa) = 0.03031564
#
# Stress axis : x y z
#
# Youngs Moduli (GPa) = 39.18395 78.84684 88.60110
#
# Poissons Ratio (x) = 0.01380 0.72459
# Poissons Ratio (y) = 0.00686 0.10934
# Poissons Ratio (z) = 0.32045 0.09730
#
# Static dielectric constant tensor:
#      x y z
#    x 3.972530 0.000000 0.234940 
#    y 0.000000 4.081860 0.000000 
#    z 0.234940 0.000000 4.782160 
# 
# 
# High freq. dielectric constant tensor:
#      x y z
#    x 1.865060 0.000000 0.029700 
#    y 0.000000 1.905420 0.000000 
#    z 0.029700 0.000000 1.912130 
# 
# From -- ./inp_files/86980.got.cif
#   From: 2010.06.25/outbox.cif.g09.slc.cpg/sg13_44_cif.got.tgz:86980.got - 2010.06.28 04:50:58.
