data_PCOD8120039
_publ_section_title
;
Structure prediction by ZEFSAII (Michael W. Deem and Ramdas Pophale) SiO2 
 PCOD8120039
Probable space group: P 2/C
;
_chemical_formula_sum "Si O2"
_cell_formula_units_Z 22
_cell_length_a 8.274004
_cell_length_b 24.523625
_cell_length_c 5.331648
_cell_angle_alpha 90.000000
_cell_angle_beta 82.916019
_cell_angle_gamma 90.000000
_cell_volume 1073.578828
_symmetry_space_group_name_H-M "P 2/C"
_symmetry_group_IT_number 13
_symmetry_cell_setting 'monoclinic'
loop_
_space_group_symop_operation_xyz
x,y,z
-x,y,1/2-z
-x,-y,-z
x,-y,1/2+z
loop_
_atom_site_type_symbol
_atom_site_label
_atom_site_fract_x
_atom_site_fract_y
_atom_site_fract_z
Si Si1 0.814466 0.965337 0.783580
Si Si2 0.500000 0.109440 0.250000
Si Si3 0.000000 0.309677 0.250000
Si Si4 0.201419 0.630599 0.079032
Si Si5 0.000000 0.535393 0.250000
Si Si6 0.500000 0.660954 0.750000
Si Si7 0.500000 0.821506 0.250000
Si Si8 0.298538 0.275384 0.929319
O O1 0.666789 0.923186 0.773470
O O2 0.000000 0.939930 0.750000
O O3 0.793065 0.007957 0.561122
O O4 0.467048 0.144046 0.506419
O O5 0.847542 0.270421 0.340093
O O6 0.036732 0.350946 0.470589
O O7 0.246406 0.681087 0.238552
O O8 0.162792 0.573319 0.221441
O O9 0.348685 0.622023 0.851681
O O10 0.000000 0.500000 0.500000
O O11 0.460666 0.701259 0.527797
O O12 0.661578 0.784189 0.186208
#
# Coordination Sequence:
#
# PCOD8120039 Si02
#       8
#     4   2   2   4   2   2   2   4
#     4  10  21  42  74 102 130 186 249 284 332 412
#     4  12  25  43  64 102 154 183 214 301 362 394
#     4  10  21  36  68  92 120 160 240 263 310 370
#     4  11  21  41  65  94 119 167 213 270 322 405
#     4  12  27  44  66  98 130 158 202 283 356 400
#     4  10  21  36  70  87 123 156 226 267 304 376
#     4  12  26  41  64  97 145 181 222 268 358 394
#     4  11  21  40  64  94 122 178 225 267 306 412
#
# _framework density 20.492208000000002
#
# number of rings (size 3 to 8) (size 9 to 14) (size 15 to 20)
#    0.000    1.091    3.636    2.727    5.091    0.000 
#    1.636    0.909    0.000    0.000    0.000    0.000 
#    0.000    0.000    0.000    0.000    0.000    0.000 
#
# Total GULP energy -272613.351077 kJ/mol
# GULP energy per Si atom -12391.515958 kJ/mol
# Density = 2.044557 g / cm^3
# Si number density = 20.492208 Si / 1000 Ang^3
#
#
#
# Elastic Constant Matrix: (Units=GPa)
#
#
# Indices 1 2 3 4 5 6 
#
# 1 141.8955 66.4745 42.7427 0.0000 -4.2470 0.0000
# 2 66.4745 112.5722 56.9471 0.0000 -4.0948 0.0000
# 3 42.7427 56.9471 116.3704 0.0000 15.9557 0.0000
# 4 0.0000 0.0000 0.0000 45.6985 0.0000 -5.5008
# 5 -4.2470 -4.0948 15.9557 0.0000 47.6634 0.0000
# 6 0.0000 0.0000 0.0000 -5.5008 0.0000 27.3800
#
#
#
# Elastic Compliance Matrix: (Units=1/GPa)
#
#
# Indices 1 2 3 4 5 6 
#
# 1 0.009864 -0.005188 -0.001199 0.000000 0.000834 0.000000
# 2 -0.005188 0.014985 -0.005807 0.000000 0.002769 0.000000
# 3 -0.001199 -0.005807 0.012534 0.000000 -0.004801 0.000000
# 4 0.000000 0.000000 0.000000 0.022425 0.000000 0.004505
# 5 0.000834 0.002769 -0.004801 0.000000 0.022900 0.000000
# 6 0.000000 0.000000 0.000000 0.004505 0.000000 0.037428
#
#
# Mechanical properties :
#
#
# Convention : Reuss Voigt Hill
#
# Bulk Modulus (GPa) = 76.95276 78.12963 77.54120
# Shear Modulus (GPa) = 33.58965 37.79330 35.69148
#
# Velocity S-wave (km/s) = 4.05302 4.29916 4.17791
# Velocity P-wave (km/s) = 7.71598 7.92799 7.82271
#
# Compressibility (1/GPa) = 0.01299499
#
# Stress axis : x y z
#
# Youngs Moduli (GPa) = 101.37962 66.73248 79.78481
#
# Poissons Ratio (x) = 0.34621 0.09563
# Poissons Ratio (y) = 0.52596 0.46334
# Poissons Ratio (z) = 0.12152 0.38754
#
# Static dielectric constant tensor:
#      x y z
#    x 7.179500 0.000000 2.077600 
#    y 0.000000 3.481020 0.000000 
#    z 2.077600 0.000000 5.915080 
# 
# 
# High freq. dielectric constant tensor:
#      x y z
#    x 1.816790 0.000000 -0.010900 
#    y 0.000000 1.764260 0.000000 
#    z -0.010900 0.000000 1.834470 
# 
# From -- ./inp_files/2121.got.cif
#   From: 2010.06.25/outbox.cif.g09.slc.cpg/sg13_2_cif.got.tgz:2121.got - 2010.06.28 04:50:58.
