data_PCOD8120815
_publ_section_title
;
Structure prediction by ZEFSAII (Michael W. Deem and Ramdas Pophale) SiO2 
 PCOD8120815
Probable space group: P 2/C
;
_chemical_formula_sum "Si O2"
_cell_formula_units_Z 20
_cell_length_a 11.690319
_cell_length_b 8.764626
_cell_length_c 8.967843
_cell_angle_alpha 90.000000
_cell_angle_beta 99.791010
_cell_angle_gamma 90.000000
_cell_volume 905.473097
_symmetry_space_group_name_H-M "P 2/C"
_symmetry_group_IT_number 13
_symmetry_cell_setting 'monoclinic'
loop_
_space_group_symop_operation_xyz
x,y,z
-x,y,1/2-z
-x,-y,-z
x,-y,1/2+z
loop_
_atom_site_type_symbol
_atom_site_label
_atom_site_fract_x
_atom_site_fract_y
_atom_site_fract_z
Si Si1 0.980684 0.835648 0.923736
Si Si2 0.786141 0.649880 0.021676
Si Si3 0.554438 0.207300 0.403150
Si Si4 0.819754 0.335441 0.868511
Si Si5 0.602032 0.130840 0.875670
O O1 0.000000 0.842618 0.750000
O O2 0.852229 0.774193 0.933667
O O3 0.064811 0.715451 0.021519
O O4 0.000000 0.000000 0.000000
O O5 0.843892 0.637404 0.198104
O O6 0.651473 0.697031 0.011357
O O7 0.780674 0.490272 0.936499
O O8 0.500000 0.297766 0.250000
O O9 0.437887 0.172383 0.468178
O O10 0.615268 0.050766 0.360898
O O11 0.724728 0.203941 0.864626
O O12 0.500000 0.196930 0.750000
#
# Coordination Sequence:
#
# PCOD8120815 Si02
#       5
#     4   4   4   4   4
#     4  12  27  48  75 101 130 171 221 274 332 397
#     4  12  26  45  66 100 136 180 222 276 336 396
#     4  10  23  39  69  96 134 174 227 276 331 396
#     4  12  26  44  69  96 140 176 224 276 334 399
#     4  10  21  43  65  97 131 177 223 275 331 394
#
# _framework density 22.087899
#
# number of rings (size 3 to 8) (size 9 to 14) (size 15 to 20)
#    0.000    0.800    2.000    4.800    5.600    1.600 
#    0.000    0.000    0.000    0.000    0.000    0.000 
#    0.000    0.000    0.000    0.000    0.000    0.000 
#
# Total GULP energy -247997.538800 kJ/mol
# GULP energy per Si atom -12399.876940 kJ/mol
# Density = 2.203763 g / cm^3
# Si number density = 22.087899 Si / 1000 Ang^3
#
#
#
# Elastic Constant Matrix: (Units=GPa)
#
#
# Indices 1 2 3 4 5 6 
#
# 1 64.6534 7.4783 16.6963 0.0000 -1.9590 0.0000
# 2 7.4783 80.6073 19.0482 0.0000 -7.7621 0.0000
# 3 16.6963 19.0482 169.7074 0.0000 -5.7321 0.0000
# 4 0.0000 0.0000 0.0000 33.3431 0.0000 -0.4402
# 5 -1.9590 -7.7621 -5.7321 0.0000 37.9852 0.0000
# 6 0.0000 0.0000 0.0000 -0.4402 0.0000 26.5607
#
#
#
# Elastic Compliance Matrix: (Units=1/GPa)
#
#
# Indices 1 2 3 4 5 6 
#
# 1 0.015977 -0.001106 -0.001435 0.000000 0.000381 0.000000
# 2 -0.001106 0.013042 -0.001273 0.000000 0.002416 0.000000
# 3 -0.001435 -0.001273 0.006197 0.000000 0.000601 0.000000
# 4 0.000000 0.000000 0.000000 0.029998 0.000000 0.000497
# 5 0.000381 0.002416 0.000601 0.000000 0.026930 0.000000
# 6 0.000000 0.000000 0.000000 0.000497 0.000000 0.037658
#
#
# Mechanical properties :
#
#
# Convention : Reuss Voigt Hill
#
# Bulk Modulus (GPa) = 36.24938 44.60152 40.42545
# Shear Modulus (GPa) = 34.10018 37.69414 35.89716
#
# Velocity S-wave (km/s) = 3.93344 4.13552 4.03575
# Velocity P-wave (km/s) = 6.08903 6.56049 6.32915
#
# Compressibility (1/GPa) = 0.02758668
#
# Stress axis : x y z
#
# Youngs Moduli (GPa) = 62.58932 76.67518 161.37151
#
# Poissons Ratio (x) = 0.08484 0.23154
# Poissons Ratio (y) = 0.06926 0.20549
# Poissons Ratio (z) = 0.08980 0.09764
#
# Static dielectric constant tensor:
#      x y z
#    x 4.040180 0.000000 0.005050 
#    y 0.000000 3.886180 0.000000 
#    z 0.005050 0.000000 4.236130 
# 
# 
# High freq. dielectric constant tensor:
#      x y z
#    x 1.872270 0.000000 0.000260 
#    y 0.000000 1.862770 0.000000 
#    z 0.000260 0.000000 1.888990 
# 
# From -- ./inp_files/14942.got.cif
#   From: 2010.06.25/outbox.cif.g09.slc.cpg/sg13_8_cif.got.tgz:14942.got - 2010.06.28 04:50:58.
