data_PCOD8120568
_publ_section_title
;
Structure prediction by ZEFSAII (Michael W. Deem and Ramdas Pophale) SiO2 
 PCOD8120568
Probable space group: P 2/C
;
_chemical_formula_sum "Si O2"
_cell_formula_units_Z 18
_cell_length_a 8.046520
_cell_length_b 18.713525
_cell_length_c 5.508909
_cell_angle_alpha 90.000000
_cell_angle_beta 62.685792
_cell_angle_gamma 90.000000
_cell_volume 737.035530
_symmetry_space_group_name_H-M "P 2/C"
_symmetry_group_IT_number 13
_symmetry_cell_setting 'monoclinic'
loop_
_space_group_symop_operation_xyz
x,y,z
-x,y,1/2-z
-x,-y,-z
x,-y,1/2+z
loop_
_atom_site_type_symbol
_atom_site_label
_atom_site_fract_x
_atom_site_fract_y
_atom_site_fract_z
Si Si1 0.208028 0.972172 0.893909
Si Si2 0.210339 0.528623 0.098960
Si Si3 0.500000 0.772960 0.250000
Si Si4 0.698082 0.688581 0.493250
Si Si5 0.184412 0.817304 0.786841
O O1 0.200340 0.886860 0.946526
O O2 0.306874 0.992729 0.566911
O O3 0.000000 0.000000 0.000000
O O4 0.310105 0.500331 0.282398
O O5 0.000000 0.497232 0.250000
O O6 0.198063 0.613971 0.105409
O O7 0.659901 0.722890 0.258302
O O8 0.383138 0.821117 0.513448
O O9 0.500000 0.674678 0.750000
O O10 0.828913 0.743660 0.553794
O O11 0.000000 0.823934 0.750000
#
# Coordination Sequence:
#
# PCOD8120568 Si02
#       5
#     4   4   2   4   4
#     4  10  21  40  66 102 139 173 236 289 348 426
#     4  10  24  43  68 101 138 177 232 288 346 416
#     4  10  26  44  62 104 144 174 250 282 346 426
#     4  10  25  44  66 100 138 181 236 285 344 422
#     4  11  24  42  73  99 137 188 229 294 355 415
#
# _framework density 24.422163000000001
#
# number of rings (size 3 to 8) (size 9 to 14) (size 15 to 20)
#    0.000    1.778    2.222    0.000   12.444    1.778 
#    0.000    1.111    0.000    0.000    0.000    0.000 
#    0.000    0.000    0.000    0.000    0.000    0.000 
#
# Total GULP energy -223087.424062 kJ/mol
# GULP energy per Si atom -12393.745781 kJ/mol
# Density = 2.436658 g / cm^3
# Si number density = 24.422163 Si / 1000 Ang^3
#
#
#
# Elastic Constant Matrix: (Units=GPa)
#
#
# Indices 1 2 3 4 5 6 
#
# 1 67.7973 21.8723 25.6400 0.0000 16.7645 0.0000
# 2 21.8723 174.4677 42.1934 0.0000 10.9864 0.0000
# 3 25.6400 42.1934 118.1524 0.0000 41.3799 0.0000
# 4 0.0000 0.0000 0.0000 23.1555 0.0000 2.5744
# 5 16.7645 10.9864 41.3799 0.0000 31.3819 0.0000
# 6 0.0000 0.0000 0.0000 2.5744 0.0000 -47.6304
#
#
#
# Elastic Compliance Matrix: (Units=1/GPa)
#
#
# Indices 1 2 3 4 5 6 
#
# 1 0.017444 -0.001591 -0.000276 0.000000 -0.008397 0.000000
# 2 -0.001591 0.006452 -0.002723 0.000000 0.002182 0.000000
# 3 -0.000276 -0.002723 0.016928 0.000000 -0.021220 0.000000
# 4 0.000000 0.000000 0.000000 0.042928 0.000000 0.002320
# 5 -0.008397 0.002182 -0.021220 0.000000 0.063568 0.000000
# 6 0.000000 0.000000 0.000000 0.002320 0.000000 -0.020870
#
#
# Mechanical properties :
#
#
# Convention : Reuss Voigt Hill
#
# Bulk Modulus (GPa) = 31.60231 59.98099 45.79165
# Shear Modulus (GPa) = 34.20445 19.42886 26.81665
#
# Velocity S-wave (km/s) = 3.74645 2.82360 3.31727
# Velocity P-wave (km/s) = 5.62873 5.93664 5.78473
#
# Compressibility (1/GPa) = 0.03164326
#
# Stress axis : x y z
#
# Youngs Moduli (GPa) = 57.32574 154.98226 59.07474
#
# Poissons Ratio (x) = 0.24662 0.01632
# Poissons Ratio (y) = 0.09122 0.16086
# Poissons Ratio (z) = 0.01584 0.42201
#
# Static dielectric constant tensor:
#      x y z
#    x 4.134780 0.000000 0.511190 
#    y 0.000000 4.276420 0.000000 
#    z 0.511190 0.000000 5.196150 
# 
# 
# High freq. dielectric constant tensor:
#      x y z
#    x 1.957440 0.000000 0.012340 
#    y 0.000000 1.970760 0.000000 
#    z 0.012340 0.000000 1.976340 
# 
# From -- ./inp_files/1418.got.cif
#   From: 2010.06.25/outbox.cif.g09.slc.cpg/sg13_1_cif.got.tgz:1418.got - 2010.06.28 04:50:58.
