data_PCOD8120936
_publ_section_title
;
Structure prediction by ZEFSAII (Michael W. Deem and Ramdas Pophale) SiO2 
 PCOD8120936
Probable space group: P 2/C
;
_chemical_formula_sum "Si O2"
_cell_formula_units_Z 18
_cell_length_a 7.836066
_cell_length_b 5.332046
_cell_length_c 18.446055
_cell_angle_alpha 90.000000
_cell_angle_beta 90.534979
_cell_angle_gamma 90.000000
_cell_volume 770.684350
_symmetry_space_group_name_H-M "P 2/C"
_symmetry_group_IT_number 13
_symmetry_cell_setting 'monoclinic'
loop_
_space_group_symop_operation_xyz
x,y,z
-x,y,1/2-z
-x,-y,-z
x,-y,1/2+z
loop_
_atom_site_type_symbol
_atom_site_label
_atom_site_fract_x
_atom_site_fract_y
_atom_site_fract_z
Si Si1 0.500000 0.926925 0.750000
Si Si2 0.647398 0.258349 0.866877
Si Si3 0.809224 0.558113 0.742534
Si Si4 0.696030 0.552582 0.089738
Si Si5 0.698683 0.043138 0.009088
O O1 0.672784 0.776615 0.741614
O O2 0.514391 0.084252 0.823233
O O3 0.778301 0.383723 0.812166
O O4 0.513262 0.448460 0.905828
O O5 0.760713 0.107753 0.926964
O O6 0.784181 0.405444 0.668218
O O7 0.000000 0.667326 0.750000
O O8 0.748981 0.280888 0.059031
O O9 0.772387 0.780605 0.040466
O O10 0.500000 0.000000 0.000000
#
# Coordination Sequence:
#
# PCOD8120936 Si02
#       5
#     2   4   4   4   4
#     4  12  22  44  70  96 140 178 238 280 350 402
#     4  11  22  41  69  99 133 184 229 283 344 418
#     4  12  26  42  69 103 138 181 235 288 345 412
#     4  11  21  43  65 103 135 178 228 288 341 412
#     4  10  22  36  70 101 133 176 234 279 345 412
#
# _framework density 23.355861999999998
#
# number of rings (size 3 to 8) (size 9 to 14) (size 15 to 20)
#    0.000    0.889    4.444    5.333    3.111    0.889 
#    0.000    2.222    0.000    0.000    0.000    0.000 
#    0.000    0.000    0.000    0.000    0.000    0.000 
#
# Total GULP energy -223098.144342 kJ/mol
# GULP energy per Si atom -12394.341352 kJ/mol
# Density = 2.330270 g / cm^3
# Si number density = 23.355862 Si / 1000 Ang^3
#
#
#
# Elastic Constant Matrix: (Units=GPa)
#
#
# Indices 1 2 3 4 5 6 
#
# 1 107.7203 28.6591 11.1714 0.0000 -2.9562 0.0000
# 2 28.6591 134.0071 41.9195 0.0000 -6.7153 0.0000
# 3 11.1714 41.9195 134.3879 0.0000 -11.0253 0.0000
# 4 0.0000 0.0000 0.0000 47.2447 0.0000 24.5672
# 5 -2.9562 -6.7153 -11.0253 0.0000 7.4973 0.0000
# 6 0.0000 0.0000 0.0000 24.5672 0.0000 12.3062
#
#
#
# Elastic Compliance Matrix: (Units=1/GPa)
#
#
# Indices 1 2 3 4 5 6 
#
# 1 0.009875 -0.002000 -0.000028 0.000000 0.002061 0.000000
# 2 -0.002000 0.008787 -0.002267 0.000000 0.003748 0.000000
# 3 -0.000028 -0.002267 0.009078 0.000000 0.011309 0.000000
# 4 0.000000 0.000000 0.000000 -0.555697 0.000000 1.109356
# 5 0.002061 0.003748 0.011309 0.000000 0.154180 0.000000
# 6 0.000000 0.000000 0.000000 1.109356 0.000000 -2.133385
#
#
# Mechanical properties :
#
#
# Convention : Reuss Voigt Hill
#
# Bulk Modulus (GPa) = 52.21853 59.95728 56.08790
# Shear Modulus (GPa) = -2.00627 33.03399 15.51386
#
# Velocity S-wave (km/s) = -0.92783 3.76490 2.58008
# Velocity P-wave (km/s) = 4.61069 6.68029 5.73954
#
# Compressibility (1/GPa) = 0.01915029
#
# Stress axis : x y z
#
# Youngs Moduli (GPa) = 101.26763 113.80447 110.15088
#
# Poissons Ratio (x) = 0.22759 0.00308
# Poissons Ratio (y) = 0.20252 0.24974
# Poissons Ratio (z) = 0.00283 0.25802
#
# Static dielectric constant tensor:
#      x y z
#    x 3.399030 0.000000 0.677360 
#    y 0.000000 4.423790 0.000000 
#    z 0.677360 0.000000 2.804080 
# 
# 
# High freq. dielectric constant tensor:
#      x y z
#    x 1.865320 0.000000 0.007610 
#    y 0.000000 1.923520 0.000000 
#    z 0.007610 0.000000 1.955330 
# 
# From -- ./inp_files/61946.got.cif
#   From: 2010.06.25/outbox.cif.g09.slc.cpg/sg13_31_cif.got.tgz:61946.got - 2010.06.28 04:50:58.
