data_PCOD8120534
_publ_section_title
;
Structure prediction by ZEFSAII (Michael W. Deem and Ramdas Pophale) SiO2 
 PCOD8120534
Probable space group: P 2/C
;
_chemical_formula_sum "Si O2"
_cell_formula_units_Z 28
_cell_length_a 12.526569
_cell_length_b 9.607825
_cell_length_c 16.611024
_cell_angle_alpha 90.000000
_cell_angle_beta 136.402673
_cell_angle_gamma 90.000000
_cell_volume 1378.611537
_symmetry_space_group_name_H-M "P 2/C"
_symmetry_group_IT_number 13
_symmetry_cell_setting 'monoclinic'
loop_
_space_group_symop_operation_xyz
x,y,z
-x,y,1/2-z
-x,-y,-z
x,-y,1/2+z
loop_
_atom_site_type_symbol
_atom_site_label
_atom_site_fract_x
_atom_site_fract_y
_atom_site_fract_z
Si Si1 0.231121 0.276923 0.257191
Si Si2 0.602127 0.825207 0.227193
Si Si3 0.175111 0.943548 0.597256
Si Si4 0.269858 0.592235 0.298684
Si Si5 0.211141 0.931264 0.434741
Si Si6 0.000000 0.165934 0.250000
Si Si7 0.000000 0.703072 0.250000
Si Si8 0.521340 0.800588 0.013386
O O1 0.192293 0.206390 0.150147
O O2 0.287536 0.435005 0.277959
O O3 0.077385 0.266611 0.226929
O O4 0.367677 0.197703 0.377775
O O5 0.500000 0.803447 0.250000
O O6 0.707766 0.687947 0.268705
O O7 0.721627 0.951139 0.295466
O O8 0.489169 0.851444 0.088223
O O9 0.250727 0.934465 0.550687
O O10 0.000000 0.000000 0.500000
O O11 0.397326 0.646198 0.434693
O O12 0.101283 0.607380 0.246401
O O13 0.364087 0.912050 0.464940
O O14 0.100654 0.799477 0.363036
O O15 0.127773 0.072793 0.363784
#
# Coordination Sequence:
#
# PCOD8120534 Si02
#       8
#     4   4   4   4   4   2   2   4
#     4  12  24  41  66  99 125 169 217 273 317 389
#     4  10  24  44  64  92 133 170 209 264 326 386
#     4  12  25  41  61  98 135 162 217 267 324 379
#     4   9  21  43  66  94 128 168 218 263 324 384
#     4  10  21  40  63  95 128 171 207 271 313 383
#     4  11  23  36  66  94 128 164 218 262 326 370
#     4   9  17  42  70  90 126 176 214 252 332 378
#     4   9  23  42  67  90 125 172 216 257 327 382
#
# _framework density 20.310289999999998
#
# number of rings (size 3 to 8) (size 9 to 14) (size 15 to 20)
#    0.857    0.857    1.429    2.571    4.000    1.143 
#    2.571    2.857    0.000    0.000    0.000    0.000 
#    0.000    0.000    0.000    0.000    0.000    0.000 
#
# Total GULP energy -347064.926863 kJ/mol
# GULP energy per Si atom -12395.175959 kJ/mol
# Density = 2.026406 g / cm^3
# Si number density = 20.310290 Si / 1000 Ang^3
#
#
#
# Elastic Constant Matrix: (Units=GPa)
#
#
# Indices 1 2 3 4 5 6 
#
# 1 118.0903 10.5679 15.3367 0.0000 -14.5933 0.0000
# 2 10.5679 94.0925 18.1405 0.0000 -8.5332 0.0000
# 3 15.3367 18.1405 66.1485 0.0000 -11.4479 0.0000
# 4 0.0000 0.0000 0.0000 22.0538 0.0000 -0.2365
# 5 -14.5933 -8.5332 -11.4479 0.0000 34.6456 0.0000
# 6 0.0000 0.0000 0.0000 -0.2365 0.0000 24.9518
#
#
#
# Elastic Compliance Matrix: (Units=1/GPa)
#
#
# Indices 1 2 3 4 5 6 
#
# 1 0.009095 -0.000453 -0.001422 0.000000 0.003250 0.000000
# 2 -0.000453 0.011357 -0.002714 0.000000 0.001710 0.000000
# 3 -0.001422 -0.002714 0.016941 0.000000 0.004330 0.000000
# 4 0.000000 0.000000 0.000000 0.045348 0.000000 0.000430
# 5 0.003250 0.001710 0.004330 0.000000 0.032084 0.000000
# 6 0.000000 0.000000 0.000000 0.000430 0.000000 0.040081
#
#
# Mechanical properties :
#
#
# Convention : Reuss Voigt Hill
#
# Bulk Modulus (GPa) = 35.44113 40.71347 38.07730
# Shear Modulus (GPa) = 28.82031 31.94933 30.38482
#
# Velocity S-wave (km/s) = 3.77105 3.97049 3.87205
# Velocity P-wave (km/s) = 6.03728 6.41163 6.22727
#
# Compressibility (1/GPa) = 0.02821581
#
# Stress axis : x y z
#
# Youngs Moduli (GPa) = 109.95212 88.05210 59.02890
#
# Poissons Ratio (x) = 0.03985 0.08395
# Poissons Ratio (y) = 0.04976 0.16018
# Poissons Ratio (z) = 0.15637 0.23894
#
# Static dielectric constant tensor:
#      x y z
#    x 3.698620 0.000000 0.077470 
#    y 0.000000 3.484740 0.000000 
#    z 0.077470 0.000000 3.647710 
# 
# 
# High freq. dielectric constant tensor:
#      x y z
#    x 1.801160 0.000000 0.005370 
#    y 0.000000 1.786930 0.000000 
#    z 0.005370 0.000000 1.785320 
# 
# From -- ./inp_files/68285.got.cif
#   From: 2010.06.25/outbox.cif.g09.slc.cpg/sg13_35_cif.got.tgz:68285.got - 2010.06.28 04:50:58.
