data_PCOD8120644
_publ_section_title
;
Structure prediction by ZEFSAII (Michael W. Deem and Ramdas Pophale) SiO2 
 PCOD8120644
Probable space group: P 2/C
;
_chemical_formula_sum "Si O2"
_cell_formula_units_Z 20
_cell_length_a 6.943777
_cell_length_b 6.570372
_cell_length_c 21.034266
_cell_angle_alpha 90.000000
_cell_angle_beta 57.928865
_cell_angle_gamma 90.000000
_cell_volume 813.197768
_symmetry_space_group_name_H-M "P 2/C"
_symmetry_group_IT_number 13
_symmetry_cell_setting 'monoclinic'
loop_
_space_group_symop_operation_xyz
x,y,z
-x,y,1/2-z
-x,-y,-z
x,-y,1/2+z
loop_
_atom_site_type_symbol
_atom_site_label
_atom_site_fract_x
_atom_site_fract_y
_atom_site_fract_z
Si Si1 0.478443 0.563445 0.922413
Si Si2 0.820179 0.834715 0.451448
Si Si3 0.891302 0.136538 0.337685
Si Si4 0.665827 0.211810 0.166472
Si Si5 0.306331 0.149555 0.918674
O O1 0.718271 0.673750 0.867289
O O2 0.312473 0.631381 0.894579
O O3 0.480407 0.321224 0.912798
O O4 0.351652 0.637448 0.010583
O O5 0.075264 0.766206 0.425840
O O6 0.791571 0.924366 0.384333
O O7 0.743489 0.014836 0.511050
O O8 0.000000 0.096387 0.250000
O O9 0.080178 0.198821 0.354609
O O10 0.500000 0.292730 0.250000
O O11 0.570003 0.995248 0.155584
#
# Coordination Sequence:
#
# PCOD8120644 Si02
#       5
#     4   4   4   4   4
#     4  11  21  39  69  92 125 169 223 274 331 385
#     4   9  20  39  64  94 129 168 217 268 331 395
#     4  11  22  39  64  93 129 175 216 271 334 398
#     4  10  21  41  63  88 130 172 214 271 333 395
#     4   9  20  38  66  94 122 167 220 268 328 394
#
# _framework density 24.594259999999998
#
# number of rings (size 3 to 8) (size 9 to 14) (size 15 to 20)
#    0.000    2.000    2.000    2.400    0.000    1.600 
#    0.000    8.000    0.000    0.000    0.000    0.000 
#    0.000    0.000    0.000    0.000    0.000    0.000 
#
# Total GULP energy -247896.470292 kJ/mol
# GULP energy per Si atom -12394.823515 kJ/mol
# Density = 2.453828 g / cm^3
# Si number density = 24.594260 Si / 1000 Ang^3
#
#
#
# Elastic Constant Matrix: (Units=GPa)
#
#
# Indices 1 2 3 4 5 6 
#
# 1 44.8908 34.6208 13.0977 0.0000 17.9074 0.0000
# 2 34.6208 96.8555 8.8768 0.0000 -14.5658 0.0000
# 3 13.0977 8.8768 97.4303 0.0000 -1.2553 0.0000
# 4 0.0000 0.0000 0.0000 15.1898 0.0000 -17.4976
# 5 17.9074 -14.5658 -1.2553 0.0000 31.2746 0.0000
# 6 0.0000 0.0000 0.0000 -17.4976 0.0000 26.7898
#
#
#
# Elastic Compliance Matrix: (Units=1/GPa)
#
#
# Indices 1 2 3 4 5 6 
#
# 1 0.076104 -0.035584 -0.007768 0.000000 -0.060460 0.000000
# 2 -0.035584 0.027828 0.002679 0.000000 0.033443 0.000000
# 3 -0.007768 0.002679 0.011143 0.000000 0.006143 0.000000
# 4 0.000000 0.000000 0.000000 0.265866 0.000000 0.173649
# 5 -0.060460 0.033443 0.006143 0.000000 0.082415 0.000000
# 6 0.000000 0.000000 0.000000 0.173649 0.000000 0.150745
#
#
# Mechanical properties :
#
#
# Convention : Reuss Voigt Hill
#
# Bulk Modulus (GPa) = 29.64719 39.15190 34.39954
# Shear Modulus (GPa) = 7.07525 26.82292 16.94908
#
# Velocity S-wave (km/s) = 1.69795 3.30603 2.62801
# Velocity P-wave (km/s) = 3.99058 5.52511 4.81931
#
# Compressibility (1/GPa) = 0.03373001
#
# Stress axis : x y z
#
# Youngs Moduli (GPa) = 13.13993 35.93532 89.74220
#
# Poissons Ratio (x) = 1.27871 0.69709
# Poissons Ratio (y) = 0.46757 -0.24043
# Poissons Ratio (z) = 0.10207 -0.09627
#
# Static dielectric constant tensor:
#      x y z
#    x 4.859160 0.000000 0.251520 
#    y 0.000000 4.311260 0.000000 
#    z 0.251520 0.000000 5.042180 
# 
# 
# High freq. dielectric constant tensor:
#      x y z
#    x 2.014680 0.000000 0.014600 
#    y 0.000000 1.960810 0.000000 
#    z 0.014600 0.000000 1.965870 
# 
# From -- ./inp_files/84262.got.cif
#   From: 2010.06.25/outbox.cif.g09.slc.cpg/sg13_43_cif.got.tgz:84262.got - 2010.06.28 04:50:58.
