data_PCOD8120349
_publ_section_title
;
Structure prediction by ZEFSAII (Michael W. Deem and Ramdas Pophale) SiO2 
 PCOD8120349
Probable space group: P 2/C
;
_chemical_formula_sum "Si O2"
_cell_formula_units_Z 30
_cell_length_a 12.913563
_cell_length_b 8.309275
_cell_length_c 13.020005
_cell_angle_alpha 90.000000
_cell_angle_beta 84.916266
_cell_angle_gamma 90.000000
_cell_volume 1391.581349
_symmetry_space_group_name_H-M "P 2/C"
_symmetry_group_IT_number 13
_symmetry_cell_setting 'monoclinic'
loop_
_space_group_symop_operation_xyz
x,y,z
-x,y,1/2-z
-x,-y,-z
x,-y,1/2+z
loop_
_atom_site_type_symbol
_atom_site_label
_atom_site_fract_x
_atom_site_fract_y
_atom_site_fract_z
Si Si1 0.518778 0.766448 0.433606
Si Si2 0.090082 0.050193 0.569854
Si Si3 0.319461 0.591651 0.413584
Si Si4 0.257172 0.296129 0.535729
Si Si5 0.806059 0.464338 0.765197
Si Si6 0.000000 0.282911 0.750000
Si Si7 0.237520 0.779690 0.619612
Si Si8 0.457372 0.107431 0.146223
O O1 0.443691 0.625249 0.397571
O O2 0.640092 0.738147 0.405554
O O3 0.501053 0.772028 0.557240
O O4 0.491455 0.932777 0.378916
O O5 0.188815 0.141604 0.505667
O O6 0.042522 0.165378 0.659054
O O7 0.135458 0.888332 0.616257
O O8 0.000000 0.000000 0.500000
O O9 0.290479 0.405178 0.436397
O O10 0.278359 0.619389 0.302091
O O11 0.267799 0.703068 0.506174
O O12 0.187760 0.394208 0.620942
O O13 0.915943 0.406783 0.708109
O O14 0.787703 0.653865 0.786375
O O15 0.332108 0.891208 0.651843
O O16 0.500000 0.172515 0.250000
#
# Coordination Sequence:
#
# PCOD8120349 Si02
#       8
#     4   4   4   4   4   2   4   4
#     4  10  21  39  59  91 129 164 208 253 306 389
#     4  11  23  42  67  90 123 166 211 270 327 370
#     4  10  22  38  62  91 122 170 202 250 321 378
#     4  10  22  40  59  91 127 156 211 262 303 383
#     4  10  23  41  62  87 126 166 208 263 316 372
#     4  10  24  42  60  92 120 156 216 264 316 376
#     4  10  22  42  61  93 129 157 216 265 305 391
#     4  10  22  37  61  93 127 166 205 256 313 373
#
# _framework density 21.558208
#
# number of rings (size 3 to 8) (size 9 to 14) (size 15 to 20)
#    0.000    1.867    1.333    1.200    3.733    2.667 
#    0.000    4.000    0.000    0.000    0.000    0.000 
#    0.000    0.000    0.000    0.000    0.000    0.000 
#
# Total GULP energy -371737.965532 kJ/mol
# GULP energy per Si atom -12391.265518 kJ/mol
# Density = 2.150914 g / cm^3
# Si number density = 21.558208 Si / 1000 Ang^3
#
#
#
# Elastic Constant Matrix: (Units=GPa)
#
#
# Indices 1 2 3 4 5 6 
#
# 1 150.5412 59.0473 39.4553 0.0000 17.4300 0.0000
# 2 59.0473 96.8756 34.8769 0.0000 3.1015 0.0000
# 3 39.4553 34.8769 76.0083 0.0000 21.1023 0.0000
# 4 0.0000 0.0000 0.0000 18.9869 0.0000 -1.9620
# 5 17.4300 3.1015 21.1023 0.0000 32.2937 0.0000
# 6 0.0000 0.0000 0.0000 -1.9620 0.0000 42.9630
#
#
#
# Elastic Compliance Matrix: (Units=1/GPa)
#
#
# Indices 1 2 3 4 5 6 
#
# 1 0.009468 -0.005085 -0.001586 0.000000 -0.003586 0.000000
# 2 -0.005085 0.015352 -0.005812 0.000000 0.005068 0.000000
# 3 -0.001586 -0.005812 0.019856 0.000000 -0.011561 0.000000
# 4 0.000000 0.000000 0.000000 0.052918 0.000000 0.002417
# 5 -0.003586 0.005068 -0.011561 0.000000 0.039969 0.000000
# 6 0.000000 0.000000 0.000000 0.002417 0.000000 0.023386
#
#
# Mechanical properties :
#
#
# Convention : Reuss Voigt Hill
#
# Bulk Modulus (GPa) = 50.73443 65.57601 58.15522
# Shear Modulus (GPa) = 25.97608 31.51843 28.74725
#
# Velocity S-wave (km/s) = 3.47497 3.82778 3.65563
# Velocity P-wave (km/s) = 6.29963 7.07248 6.69721
#
# Compressibility (1/GPa) = 0.01971048
#
# Stress axis : x y z
#
# Youngs Moduli (GPa) = 105.61788 65.13757 50.36225
#
# Poissons Ratio (x) = 0.33124 0.07987
# Poissons Ratio (y) = 0.53709 0.29269
# Poissons Ratio (z) = 0.16751 0.37856
#
# Static dielectric constant tensor:
#      x y z
#    x 4.181130 0.000000 -0.083780 
#    y 0.000000 3.951920 0.000000 
#    z -0.083780 0.000000 3.629920 
# 
# 
# High freq. dielectric constant tensor:
#      x y z
#    x 1.852450 0.000000 0.001770 
#    y 0.000000 1.845600 0.000000 
#    z 0.001770 0.000000 1.830460 
# 
# From -- ./inp_files/50052.got.cif
#   From: 2010.06.25/outbox.cif.g09.slc.cpg/sg13_26_cif.got.tgz:50052.got - 2010.06.28 04:50:58.
