data_PCOD8120586
_publ_section_title
;
Structure prediction by ZEFSAII (Michael W. Deem and Ramdas Pophale) SiO2 
 PCOD8120586
Probable space group: P 2/C
;
_chemical_formula_sum "Si O2"
_cell_formula_units_Z 28
_cell_length_a 15.145485
_cell_length_b 8.685348
_cell_length_c 18.713070
_cell_angle_alpha 90.000000
_cell_angle_beta 149.855392
_cell_angle_gamma 90.000000
_cell_volume 1236.170731
_symmetry_space_group_name_H-M "P 2/C"
_symmetry_group_IT_number 13
_symmetry_cell_setting 'monoclinic'
loop_
_space_group_symop_operation_xyz
x,y,z
-x,y,1/2-z
-x,-y,-z
x,-y,1/2+z
loop_
_atom_site_type_symbol
_atom_site_label
_atom_site_fract_x
_atom_site_fract_y
_atom_site_fract_z
Si Si1 0.944489 0.771988 0.131028
Si Si2 0.561444 0.156117 0.082267
Si Si3 0.157825 0.662274 0.163697
Si Si4 0.860302 0.436664 0.089530
Si Si5 0.908733 0.316076 0.362061
Si Si6 0.535075 0.269686 0.915381
Si Si7 0.391575 0.945487 0.601283
O O1 0.851673 0.607440 0.050513
O O2 0.000000 0.799388 0.250000
O O3 0.121544 0.774389 0.206591
O O4 0.806705 0.904919 0.014809
O O5 0.769684 0.179216 0.247363
O O6 0.460492 0.173838 0.087602
O O7 0.524047 0.282527 0.994551
O O8 0.500000 0.000000 0.000000
O O9 0.179604 0.485444 0.203840
O O10 0.337109 0.707198 0.248423
O O11 0.990141 0.700911 0.997360
O O12 0.000000 0.434069 0.250000
O O13 0.928535 0.311798 0.079747
O O14 0.664089 0.401878 0.978378
O O15 0.607201 0.111432 0.934217
O O16 0.500000 0.937696 0.750000
#
# Coordination Sequence:
#
# PCOD8120586 Si02
#       7
#     4   4   4   4   4   4   4
#     4  10  22  44  65  92 128 171 220 267 332 401
#     4  10  22  42  65  96 132 176 225 270 334 410
#     4  10  23  40  65  99 129 175 219 279 345 393
#     4  10  21  40  67  99 126 167 217 280 333 384
#     4  10  21  41  65  95 137 167 219 280 342 400
#     4  11  24  42  66  99 131 169 228 274 332 402
#     4  11  25  43  61  94 133 174 222 266 330 398
#
# _framework density 22.650592
#
# number of rings (size 3 to 8) (size 9 to 14) (size 15 to 20)
#    0.000    1.714    1.429    1.714    4.000    1.143 
#    5.143    3.571    0.000    0.000    0.000    0.000 
#    0.000    0.000    0.000    0.000    0.000    0.000 
#
# Total GULP energy -346978.469819 kJ/mol
# GULP energy per Si atom -12392.088208 kJ/mol
# Density = 2.259904 g / cm^3
# Si number density = 22.650592 Si / 1000 Ang^3
#
#
#
# Elastic Constant Matrix: (Units=GPa)
#
#
# Indices 1 2 3 4 5 6 
#
# 1 95.3781 21.2194 30.0539 0.0000 5.4310 0.0000
# 2 21.2194 62.7134 41.0280 0.0000 11.9938 0.0000
# 3 30.0539 41.0280 121.7951 0.0000 14.7207 0.0000
# 4 0.0000 0.0000 0.0000 31.8411 0.0000 7.6935
# 5 5.4310 11.9938 14.7207 0.0000 49.5375 0.0000
# 6 0.0000 0.0000 0.0000 7.6935 0.0000 21.2110
#
#
#
# Elastic Compliance Matrix: (Units=1/GPa)
#
#
# Indices 1 2 3 4 5 6 
#
# 1 0.011704 -0.002649 -0.001990 0.000000 -0.000051 0.000000
# 2 -0.002649 0.021495 -0.006217 0.000000 -0.003067 0.000000
# 3 -0.001990 -0.006217 0.010982 0.000000 -0.001540 0.000000
# 4 0.000000 0.000000 0.000000 0.034423 0.000000 -0.012485
# 5 -0.000051 -0.003067 -0.001540 0.000000 0.021392 0.000000
# 6 0.000000 0.000000 0.000000 -0.012485 0.000000 0.051674
#
#
# Mechanical properties :
#
#
# Convention : Reuss Voigt Hill
#
# Bulk Modulus (GPa) = 44.50234 51.60992 48.05613
# Shear Modulus (GPa) = 27.64416 33.02361 30.33389
#
# Velocity S-wave (km/s) = 3.49730 3.82246 3.66349
# Velocity P-wave (km/s) = 5.99984 6.50510 6.25757
#
# Compressibility (1/GPa) = 0.02247073
#
# Stress axis : x y z
#
# Youngs Moduli (GPa) = 85.44327 46.52182 91.05998
#
# Poissons Ratio (x) = 0.12322 0.18118
# Poissons Ratio (y) = 0.22631 0.56609
# Poissons Ratio (z) = 0.17000 0.28921
#
# Static dielectric constant tensor:
#      x y z
#    x 4.539800 0.000000 0.030530 
#    y 0.000000 3.857430 0.000000 
#    z 0.030530 0.000000 4.058910 
# 
# 
# High freq. dielectric constant tensor:
#      x y z
#    x 1.911510 0.000000 -0.001670 
#    y 0.000000 1.866350 0.000000 
#    z -0.001670 0.000000 1.890240 
# 
# From -- ./inp_files/79998.got.cif
#   From: 2010.06.25/outbox.cif.g09.slc.cpg/sg13_40_cif.got.tgz:79998.got - 2010.06.28 04:50:58.
