data_PCOD8120475
_publ_section_title
;
Structure prediction by ZEFSAII (Michael W. Deem and Ramdas Pophale) SiO2 
 PCOD8120475
Probable space group: P 2/C
;
_chemical_formula_sum "Si O2"
_cell_formula_units_Z 20
_cell_length_a 9.717210
_cell_length_b 7.682432
_cell_length_c 29.426443
_cell_angle_alpha 90.000000
_cell_angle_beta 153.442804
_cell_angle_gamma 90.000000
_cell_volume 982.141307
_symmetry_space_group_name_H-M "P 2/C"
_symmetry_group_IT_number 13
_symmetry_cell_setting 'monoclinic'
loop_
_space_group_symop_operation_xyz
x,y,z
-x,y,1/2-z
-x,-y,-z
x,-y,1/2+z
loop_
_atom_site_type_symbol
_atom_site_label
_atom_site_fract_x
_atom_site_fract_y
_atom_site_fract_z
Si Si1 0.630699 0.141149 0.478174
Si Si2 0.112234 0.171366 0.388665
Si Si3 0.486693 0.951121 0.656057
Si Si4 0.266889 0.283032 0.640234
Si Si5 0.224818 0.670090 0.635770
O O1 0.357176 0.243973 0.424016
O O2 0.485189 0.061637 0.389532
O O3 0.915112 0.265630 0.551614
O O4 0.750935 0.993360 0.546204
O O5 0.807447 0.105272 0.272822
O O6 0.061502 0.317040 0.413335
O O7 0.217335 0.819514 0.594713
O O8 0.376428 0.148317 0.634149
O O9 0.500000 0.253181 0.750000
O O10 0.276961 0.484065 0.626629
O O11 0.500000 0.720076 0.750000
#
# Coordination Sequence:
#
# PCOD8120475 Si02
#       5
#     4   4   4   4   4
#     4  11  22  35  62  85 113 154 189 227 296 331
#     4  10  21  40  57  85 117 151 187 235 283 343
#     4  11  20  40  60  83 115 150 189 239 276 338
#     4  11  20  37  61  85 114 151 190 237 278 335
#     4   9  20  36  61  82 112 152 191 228 285 332
#
# _framework density 20.363669000000002
#
# number of rings (size 3 to 8) (size 9 to 14) (size 15 to 20)
#    0.000    1.600    4.000    1.800    0.000    1.600 
#    0.000    0.000    0.000    2.400    0.000    0.000 
#    0.000    0.000    0.000    0.000    0.000    0.000 
#
# Total GULP energy -247782.623836 kJ/mol
# GULP energy per Si atom -12389.131192 kJ/mol
# Density = 2.031732 g / cm^3
# Si number density = 20.363669 Si / 1000 Ang^3
#
#
#
# Elastic Constant Matrix: (Units=GPa)
#
#
# Indices 1 2 3 4 5 6 
#
# 1 131.8089 48.5505 38.4452 0.0000 0.6260 0.0000
# 2 48.5505 122.2331 12.2981 0.0000 -13.7102 0.0000
# 3 38.4452 12.2981 78.9387 0.0000 5.3423 0.0000
# 4 0.0000 0.0000 0.0000 -15.1895 0.0000 25.7979
# 5 0.6260 -13.7102 5.3423 0.0000 31.5761 0.0000
# 6 0.0000 0.0000 0.0000 25.7979 0.0000 4.7363
#
#
#
# Elastic Compliance Matrix: (Units=1/GPa)
#
#
# Indices 1 2 3 4 5 6 
#
# 1 0.010237 -0.003754 -0.004326 0.000000 -0.001101 0.000000
# 2 -0.003754 0.010184 -0.000063 0.000000 0.004507 0.000000
# 3 -0.004326 -0.000063 0.014952 0.000000 -0.002471 0.000000
# 4 0.000000 0.000000 0.000000 -0.006422 0.000000 0.034981
# 5 -0.001101 0.004507 -0.002471 0.000000 0.034066 0.000000
# 6 0.000000 0.000000 0.000000 0.034981 0.000000 0.020597
#
#
# Mechanical properties :
#
#
# Convention : Reuss Voigt Hill
#
# Bulk Modulus (GPa) = 52.39508 59.06315 55.72912
# Shear Modulus (GPa) = 47.05324 19.80370 33.42847
#
# Velocity S-wave (km/s) = 4.81213 3.12188 4.05603
# Velocity P-wave (km/s) = 7.52735 6.48552 7.02578
#
# Compressibility (1/GPa) = 0.01908576
#
# Stress axis : x y z
#
# Youngs Moduli (GPa) = 97.68871 98.19204 66.88022
#
# Poissons Ratio (x) = 0.36863 0.28933
# Poissons Ratio (y) = 0.36674 0.00423
# Poissons Ratio (z) = 0.42261 0.00621
#
# Static dielectric constant tensor:
#      x y z
#    x 4.485380 0.000000 0.405070 
#    y 0.000000 3.484360 0.000000 
#    z 0.405070 0.000000 4.042950 
# 
# 
# High freq. dielectric constant tensor:
#      x y z
#    x 1.797320 0.000000 -0.000780 
#    y 0.000000 1.773400 0.000000 
#    z -0.000780 0.000000 1.804620 
# 
# From -- ./inp_files/59258.got.cif
#   From: 2010.06.25/outbox.cif.g09.slc.cpg/sg13_30_cif.got.tgz:59258.got - 2010.06.28 04:50:58.
