data_PCOD8120382
_publ_section_title
;
Structure prediction by ZEFSAII (Michael W. Deem and Ramdas Pophale) SiO2 
 PCOD8120382
Probable space group: P 2/C
;
_chemical_formula_sum "Si O2"
_cell_formula_units_Z 22
_cell_length_a 8.271029
_cell_length_b 8.037627
_cell_length_c 19.321777
_cell_angle_alpha 90.000000
_cell_angle_beta 135.958740
_cell_angle_gamma 90.000000
_cell_volume 892.954550
_symmetry_space_group_name_H-M "P 2/C"
_symmetry_group_IT_number 13
_symmetry_cell_setting 'monoclinic'
loop_
_space_group_symop_operation_xyz
x,y,z
-x,y,1/2-z
-x,-y,-z
x,-y,1/2+z
loop_
_atom_site_type_symbol
_atom_site_label
_atom_site_fract_x
_atom_site_fract_y
_atom_site_fract_z
Si Si1 0.502755 0.171981 0.120274
Si Si2 0.336537 0.851932 0.294636
Si Si3 0.822687 0.186797 0.602740
Si Si4 0.646343 0.540598 0.382597
Si Si5 0.967978 0.529587 0.605421
Si Si6 0.000000 0.738336 0.750000
O O1 0.453989 0.353676 0.137345
O O2 0.761580 0.160951 0.165178
O O3 0.504480 0.015454 0.175204
O O4 0.312046 0.119302 0.005267
O O5 0.314352 0.853539 0.370441
O O6 0.447970 0.676739 0.305936
O O7 0.086789 0.880001 0.182082
O O8 0.826346 0.385968 0.600075
O O9 0.801474 0.535453 0.361706
O O10 0.796000 0.606877 0.494301
O O11 0.044650 0.646892 0.691149
#
# Coordination Sequence:
#
# PCOD8120382 Si02
#       6
#     4   4   4   4   4   2
#     4  11  24  41  63  97 129 165 215 267 320 383
#     4  11  22  40  66  94 127 172 214 263 322 383
#     4  10  21  39  62  92 130 167 215 264 315 382
#     4  10  23  44  67  94 133 170 211 266 323 379
#     4  10  22  42  68  97 129 171 215 264 321 380
#     4  12  22  38  68  96 128 170 214 264 320 380
#
# _framework density 24.637311
#
# number of rings (size 3 to 8) (size 9 to 14) (size 15 to 20)
#    0.000    1.455    0.000    6.000    0.000    7.273 
#    0.000   13.636    0.000    0.000    0.000    0.000 
#    0.000    0.000    0.000    0.000    0.000    0.000 
#
# Total GULP energy -272595.145000 kJ/mol
# GULP energy per Si atom -12390.688409 kJ/mol
# Density = 2.458124 g / cm^3
# Si number density = 24.637311 Si / 1000 Ang^3
#
#
#
# Elastic Constant Matrix: (Units=GPa)
#
#
# Indices 1 2 3 4 5 6 
#
# 1 75.7647 30.3312 38.8504 0.0000 1.9221 0.0000
# 2 30.3312 132.4391 56.0092 0.0000 7.3204 0.0000
# 3 38.8504 56.0092 149.4116 0.0000 6.1583 0.0000
# 4 0.0000 0.0000 0.0000 -22.2453 0.0000 88.0104
# 5 1.9221 7.3204 6.1583 0.0000 38.0541 0.0000
# 6 0.0000 0.0000 0.0000 88.0104 0.0000 -85.0937
#
#
#
# Elastic Compliance Matrix: (Units=1/GPa)
#
#
# Indices 1 2 3 4 5 6 
#
# 1 0.015766 -0.002238 -0.003267 0.000000 0.000163 0.000000
# 2 -0.002238 0.009345 -0.002871 0.000000 -0.001220 0.000000
# 3 -0.003267 -0.002871 0.008647 0.000000 -0.000682 0.000000
# 4 0.000000 0.000000 0.000000 0.014539 0.000000 0.015037
# 5 0.000163 -0.001220 -0.000682 0.000000 0.026615 0.000000
# 6 0.000000 0.000000 0.000000 0.015037 0.000000 0.003801
#
#
# Mechanical properties :
#
#
# Convention : Reuss Voigt Hill
#
# Bulk Modulus (GPa) = 58.80518 67.55524 63.18021
# Shear Modulus (GPa) = 49.44004 1.63799 25.53901
#
# Velocity S-wave (km/s) = 4.48450 0.81626 3.22312
# Velocity P-wave (km/s) = 7.12281 5.32614 6.28897
#
# Compressibility (1/GPa) = 0.01700530
#
# Stress axis : x y z
#
# Youngs Moduli (GPa) = 63.42783 107.01272 115.65026
#
# Poissons Ratio (x) = 0.23949 0.37786
# Poissons Ratio (y) = 0.14195 0.33201
# Poissons Ratio (z) = 0.20724 0.30721
#
# Static dielectric constant tensor:
#      x y z
#    x 4.246060 0.000000 0.117800 
#    y 0.000000 4.552840 0.000000 
#    z 0.117800 0.000000 4.848940 
# 
# 
# High freq. dielectric constant tensor:
#      x y z
#    x 1.960420 0.000000 0.006490 
#    y 0.000000 1.979870 0.000000 
#    z 0.006490 0.000000 2.007750 
# 
# From -- ./inp_files/75858.got.cif
#   From: 2010.06.25/outbox.cif.g09.slc.cpg/sg13_38_cif.got.tgz:75858.got - 2010.06.28 04:50:58.
