data_PCOD8120309
_publ_section_title
;
Structure prediction by ZEFSAII (Michael W. Deem and Ramdas Pophale) SiO2 
 PCOD8120309
Probable space group: P 2/C
;
_chemical_formula_sum "Si O2"
_cell_formula_units_Z 28
_cell_length_a 5.015068
_cell_length_b 12.993093
_cell_length_c 21.529734
_cell_angle_alpha 90.000000
_cell_angle_beta 109.116691
_cell_angle_gamma 90.000000
_cell_volume 1325.539079
_symmetry_space_group_name_H-M "P 2/C"
_symmetry_group_IT_number 13
_symmetry_cell_setting 'monoclinic'
loop_
_space_group_symop_operation_xyz
x,y,z
-x,y,1/2-z
-x,-y,-z
x,-y,1/2+z
loop_
_atom_site_type_symbol
_atom_site_label
_atom_site_fract_x
_atom_site_fract_y
_atom_site_fract_z
Si Si1 0.594693 0.480934 0.888000
Si Si2 0.500000 0.459832 0.250000
Si Si3 0.351823 0.707322 0.557600
Si Si4 0.937273 0.201497 0.121909
Si Si5 0.802680 0.212833 0.793932
Si Si6 0.196351 0.978662 0.705891
Si Si7 0.892762 0.355030 0.585894
Si Si8 0.000000 0.325118 0.250000
O O1 0.638517 0.474469 0.815963
O O2 0.555997 0.594501 0.912538
O O3 0.321471 0.416930 0.886819
O O4 0.888108 0.430448 0.933636
O O5 0.723125 0.394571 0.227273
O O6 0.601510 0.790078 0.587247
O O7 0.283291 0.705596 0.479534
O O8 0.079507 0.744102 0.574228
O O9 0.029229 0.256840 0.191731
O O10 0.051676 0.084931 0.138347
O O11 0.500000 0.257623 0.750000
O O12 0.000000 0.221577 0.750000
O O13 0.928398 0.274417 0.860911
O O14 0.768457 0.095413 0.814900
O O15 0.500000 0.932704 0.750000
O O16 0.000000 0.972163 0.750000
#
# Coordination Sequence:
#
# PCOD8120309 Si02
#       8
#     4   2   4   4   4   4   4   2
#     4  12  24  41  63  88 126 165 214 254 311 362
#     4  12  24  38  60  94 122 160 202 276 302 356
#     4  12  25  43  59  93 130 172 204 250 303 387
#     4  12  22  38  65  93 127 163 201 248 318 378
#     4  10  23  44  66  93 121 156 212 270 305 356
#     4  10  21  38  65  95 125 157 200 257 322 369
#     4  12  26  43  65  85 126 174 215 250 307 365
#     4  12  20  38  58  88 132 154 196 260 314 358
#
# _framework density 21.123481999999999
#
# number of rings (size 3 to 8) (size 9 to 14) (size 15 to 20)
#    0.000    0.571    3.571    5.143    4.000    0.000 
#    0.000    1.429    0.000    0.000    0.000    0.000 
#    0.000    0.000    0.000    0.000    0.000    0.000 
#
# Total GULP energy -347298.788541 kJ/mol
# GULP energy per Si atom -12403.528162 kJ/mol
# Density = 2.107540 g / cm^3
# Si number density = 21.123482 Si / 1000 Ang^3
#
#
#
# Elastic Constant Matrix: (Units=GPa)
#
#
# Indices 1 2 3 4 5 6 
#
# 1 123.2365 26.8647 21.3490 0.0000 7.7202 0.0000
# 2 26.8647 73.3900 42.9891 0.0000 3.6930 0.0000
# 3 21.3490 42.9891 126.3522 0.0000 7.8098 0.0000
# 4 0.0000 0.0000 0.0000 26.1835 0.0000 15.5574
# 5 7.7202 3.6930 7.8098 0.0000 33.0720 0.0000
# 6 0.0000 0.0000 0.0000 15.5574 0.0000 71.3262
#
#
#
# Elastic Compliance Matrix: (Units=1/GPa)
#
#
# Indices 1 2 3 4 5 6 
#
# 1 0.008931 -0.002950 -0.000403 0.000000 -0.001660 0.000000
# 2 -0.002950 0.018001 -0.005627 0.000000 0.000007 0.000000
# 3 -0.000403 -0.005627 0.009998 0.000000 -0.001639 0.000000
# 4 0.000000 0.000000 0.000000 0.043879 0.000000 -0.009571
# 5 -0.001660 0.000007 -0.001639 0.000000 0.031011 0.000000
# 6 0.000000 0.000000 0.000000 -0.009571 0.000000 0.016108
#
#
# Mechanical properties :
#
#
# Convention : Reuss Voigt Hill
#
# Bulk Modulus (GPa) = 52.70915 56.15379 54.43147
# Shear Modulus (GPa) = 32.84934 41.56807 37.20870
#
# Velocity S-wave (km/s) = 3.94777 4.44087 4.20156
# Velocity P-wave (km/s) = 6.76660 7.27574 7.02578
#
# Compressibility (1/GPa) = 0.01897204
#
# Stress axis : x y z
#
# Youngs Moduli (GPa) = 111.96553 55.55210 100.01921
#
# Poissons Ratio (x) = 0.16387 0.04029
# Poissons Ratio (y) = 0.33028 0.56277
# Poissons Ratio (z) = 0.04510 0.31257
#
# Static dielectric constant tensor:
#      x y z
#    x 3.932040 0.000000 0.082480 
#    y 0.000000 3.949280 0.000000 
#    z 0.082480 0.000000 3.711310 
# 
# 
# High freq. dielectric constant tensor:
#      x y z
#    x 1.849370 0.000000 0.005000 
#    y 0.000000 1.818560 0.000000 
#    z 0.005000 0.000000 1.820270 
# 
# From -- ./inp_files/73690.got.cif
#   From: 2010.06.25/outbox.cif.g09.slc.cpg/sg13_37_cif.got.tgz:73690.got - 2010.06.28 04:50:58.
