data_PCOD8120873
_publ_section_title
;
Structure prediction by ZEFSAII (Michael W. Deem and Ramdas Pophale) SiO2 
 PCOD8120873
Probable space group: P 2/C
;
_chemical_formula_sum "Si O2"
_cell_formula_units_Z 32
_cell_length_a 10.606944
_cell_length_b 21.697967
_cell_length_c 9.057765
_cell_angle_alpha 90.000000
_cell_angle_beta 128.289938
_cell_angle_gamma 90.000000
_cell_volume 1636.200457
_symmetry_space_group_name_H-M "P 2/C"
_symmetry_group_IT_number 13
_symmetry_cell_setting 'monoclinic'
loop_
_space_group_symop_operation_xyz
x,y,z
-x,y,1/2-z
-x,-y,-z
x,-y,1/2+z
loop_
_atom_site_type_symbol
_atom_site_label
_atom_site_fract_x
_atom_site_fract_y
_atom_site_fract_z
Si Si1 0.090654 0.363343 0.965799
Si Si2 0.900711 0.955468 0.035670
Si Si3 0.611213 0.031070 0.956981
Si Si4 0.364345 0.627085 0.026630
Si Si5 0.152503 0.272425 0.256554
Si Si6 0.344704 0.552888 0.721513
Si Si7 0.150637 0.869474 0.752206
Si Si8 0.899492 0.449353 0.037492
O O1 0.000000 0.349255 0.750000
O O2 0.095079 0.299560 0.057749
O O3 0.272921 0.388681 0.076631
O O4 0.018093 0.421969 0.001051
O O5 0.000000 0.939162 0.250000
O O6 0.883663 0.890853 0.939065
O O7 0.730800 0.982533 0.965538
O O8 0.000000 0.000000 0.000000
O O9 0.500000 0.059030 0.750000
O O10 0.702408 0.089457 0.087098
O O11 0.500000 0.000000 0.000000
O O12 0.500000 0.631646 0.250000
O O13 0.318102 0.693965 0.927550
O O14 0.398945 0.575606 0.925046
O O15 0.197998 0.609237 0.980348
O O16 0.201021 0.201373 0.280579
O O17 0.000000 0.281572 0.250000
O O18 0.500000 0.527378 0.750000
O O19 0.217296 0.496990 0.630869
O O20 0.000000 0.881316 0.750000
O O21 0.000000 0.477599 0.250000
#
# Coordination Sequence:
#
# PCOD8120873 Si02
#       8
#     4   4   4   4   4   4   4   4
#     4  11  23  41  67  87 119 163 210 261 313 368
#     4  12  20  38  62  94 129 170 207 255 316 371
#     4  12  22  36  62  93 134 167 200 256 321 372
#     4  11  24  42  67  86 125 167 202 259 320 375
#     4  10  21  45  67  89 119 167 222 255 299 374
#     4  11  26  39  58  97 128 153 198 261 325 386
#     4  11  23  39  67  96 124 167 220 258 300 382
#     4  12  22  43  63  91 119 163 207 251 319 379
#
# _framework density 19.557507000000001
#
# number of rings (size 3 to 8) (size 9 to 14) (size 15 to 20)
#    0.000    0.750    7.500    1.125    3.500    2.000 
#    0.000    0.000   11.000    0.000    0.000    0.000 
#    0.000    0.000    0.000    0.000    0.000    0.000 
#
# Total GULP energy -396573.009628 kJ/mol
# GULP energy per Si atom -12392.906551 kJ/mol
# Density = 1.951299 g / cm^3
# Si number density = 19.557507 Si / 1000 Ang^3
#
#
#
# Elastic Constant Matrix: (Units=GPa)
#
#
# Indices 1 2 3 4 5 6 
#
# 1 96.2245 51.1817 37.8943 0.0000 -2.4756 0.0000
# 2 51.1817 131.6735 65.5426 0.0000 -3.5790 0.0000
# 3 37.8943 65.5426 192.9897 0.0000 -7.8557 0.0000
# 4 0.0000 0.0000 0.0000 29.6842 0.0000 -0.8747
# 5 -2.4756 -3.5790 -7.8557 0.0000 27.5949 0.0000
# 6 0.0000 0.0000 0.0000 -0.8747 0.0000 12.6841
#
#
#
# Elastic Compliance Matrix: (Units=1/GPa)
#
#
# Indices 1 2 3 4 5 6 
#
# 1 0.013271 -0.004644 -0.001016 0.000000 0.000299 0.000000
# 2 -0.004644 0.010767 -0.002737 0.000000 0.000201 0.000000
# 3 -0.001016 -0.002737 0.006366 0.000000 0.001366 0.000000
# 4 0.000000 0.000000 0.000000 0.033757 0.000000 0.002328
# 5 0.000299 0.000201 0.001366 0.000000 0.036680 0.000000
# 6 0.000000 0.000000 0.000000 0.002328 0.000000 0.079000
#
#
# Mechanical properties :
#
#
# Convention : Reuss Voigt Hill
#
# Bulk Modulus (GPa) = 73.47712 81.12499 77.30106
# Shear Modulus (GPa) = 24.85436 31.74392 28.29914
#
# Velocity S-wave (km/s) = 3.56874 4.03315 3.80803
# Velocity P-wave (km/s) = 7.39139 7.95353 7.67761
#
# Compressibility (1/GPa) = 0.01360968
#
# Stress axis : x y z
#
# Youngs Moduli (GPa) = 75.35472 92.87212 157.07903
#
# Poissons Ratio (x) = 0.43133 0.15964
# Poissons Ratio (y) = 0.34997 0.42988
# Poissons Ratio (z) = 0.07658 0.25417
#
# Static dielectric constant tensor:
#      x y z
#    x 3.712200 0.000000 -0.053240 
#    y 0.000000 3.502790 0.000000 
#    z -0.053240 0.000000 3.890960 
# 
# 
# High freq. dielectric constant tensor:
#      x y z
#    x 1.766560 0.000000 0.000300 
#    y 0.000000 1.745020 0.000000 
#    z 0.000300 0.000000 1.777060 
# 
# From -- ./inp_files/17296.got.cif
#   From: 2010.06.25/outbox.cif.g09.slc.cpg/sg13_9_cif.got.tgz:17296.got - 2010.06.28 04:50:58.
