data_PCOD8120579
_publ_section_title
;
Structure prediction by ZEFSAII (Michael W. Deem and Ramdas Pophale) SiO2 
 PCOD8120579
Probable space group: P 2/C
;
_chemical_formula_sum "Si O2"
_cell_formula_units_Z 30
_cell_length_a 11.779530
_cell_length_b 8.571200
_cell_length_c 16.107153
_cell_angle_alpha 90.000000
_cell_angle_beta 117.820136
_cell_angle_gamma 90.000000
_cell_volume 1438.286699
_symmetry_space_group_name_H-M "P 2/C"
_symmetry_group_IT_number 13
_symmetry_cell_setting 'monoclinic'
loop_
_space_group_symop_operation_xyz
x,y,z
-x,y,1/2-z
-x,-y,-z
x,-y,1/2+z
loop_
_atom_site_type_symbol
_atom_site_label
_atom_site_fract_x
_atom_site_fract_y
_atom_site_fract_z
Si Si1 0.717890 0.094293 0.763239
Si Si2 0.991245 0.314551 0.127514
Si Si3 0.963404 0.834803 0.449526
Si Si4 0.500000 0.129743 0.250000
Si Si5 0.913603 0.657274 0.147149
Si Si6 0.372027 0.656295 0.389193
Si Si7 0.461940 0.316133 0.399432
Si Si8 0.190330 0.822430 0.803003
O O1 0.821809 0.167239 0.861162
O O2 0.631717 0.227387 0.690553
O O3 0.625927 0.976657 0.781912
O O4 0.794144 0.004170 0.715819
O O5 0.973732 0.493660 0.141491
O O6 0.902270 0.196580 0.150104
O O7 0.136653 0.269350 0.203247
O O8 0.962286 0.292746 0.021485
O O9 0.074123 0.781752 0.423115
O O10 0.000000 0.000000 0.500000
O O11 0.521547 0.240600 0.336890
O O12 0.770377 0.622242 0.126993
O O13 0.000000 0.727459 0.250000
O O14 0.446328 0.502201 0.383343
O O15 0.447756 0.729592 0.492591
O O16 0.325641 0.245579 0.375586
#
# Coordination Sequence:
#
# PCOD8120579 Si02
#       8
#     4   4   4   2   4   4   4   4
#     4  11  25  43  66 100 137 175 223 277 345 403
#     4  11  22  41  67  95 135 176 226 274 339 402
#     4  12  27  40  65 103 139 172 224 284 346 400
#     4  10  26  46  66  96 136 178 218 282 336 396
#     4  12  23  43  68  99 133 179 223 282 335 411
#     4  11  24  43  70  98 128 178 232 273 335 412
#     4  10  23  45  68  95 130 178 229 279 332 404
#     4  10  21  40  67  91 131 179 218 269 342 405
#
# _framework density 20.858149999999998
#
# number of rings (size 3 to 8) (size 9 to 14) (size 15 to 20)
#    0.000    1.067    5.333    0.400    3.733    3.733 
#    2.400    0.000    0.000    0.000    0.000    0.000 
#    0.000    0.000    0.000    0.000    0.000    0.000 
#
# Total GULP energy -372068.793016 kJ/mol
# GULP energy per Si atom -12402.293101 kJ/mol
# Density = 2.081068 g / cm^3
# Si number density = 20.858150 Si / 1000 Ang^3
#
#
#
# Elastic Constant Matrix: (Units=GPa)
#
#
# Indices 1 2 3 4 5 6 
#
# 1 80.8147 20.4682 45.0037 0.0000 1.6644 0.0000
# 2 20.4682 80.2010 42.9851 0.0000 -3.5480 0.0000
# 3 45.0037 42.9851 160.0740 0.0000 9.9167 0.0000
# 4 0.0000 0.0000 0.0000 37.3334 0.0000 1.5834
# 5 1.6644 -3.5480 9.9167 0.0000 43.0863 0.0000
# 6 0.0000 0.0000 0.0000 1.5834 0.0000 25.8755
#
#
#
# Elastic Compliance Matrix: (Units=1/GPa)
#
#
# Indices 1 2 3 4 5 6 
#
# 1 0.014895 -0.001807 -0.003711 0.000000 0.000130 0.000000
# 2 -0.001807 0.014979 -0.003647 0.000000 0.002143 0.000000
# 3 -0.003711 -0.003647 0.008399 0.000000 -0.002090 0.000000
# 4 0.000000 0.000000 0.000000 0.026855 0.000000 -0.001643
# 5 0.000130 0.002143 -0.002090 0.000000 0.023862 0.000000
# 6 0.000000 0.000000 0.000000 -0.001643 0.000000 0.038747
#
#
# Mechanical properties :
#
#
# Convention : Reuss Voigt Hill
#
# Bulk Modulus (GPa) = 50.13920 59.77819 54.95870
# Shear Modulus (GPa) = 32.74060 35.43455 34.08758
#
# Velocity S-wave (km/s) = 3.96622 4.12616 4.04698
# Velocity P-wave (km/s) = 6.71304 7.17091 6.94575
#
# Compressibility (1/GPa) = 0.01994447
#
# Stress axis : x y z
#
# Youngs Moduli (GPa) = 67.13541 66.75836 119.05943
#
# Poissons Ratio (x) = 0.12063 0.44177
# Poissons Ratio (y) = 0.12131 0.43423
# Poissons Ratio (z) = 0.24911 0.24348
#
# Static dielectric constant tensor:
#      x y z
#    x 3.861180 0.000000 -0.033080 
#    y 0.000000 3.833710 0.000000 
#    z -0.033080 0.000000 4.062700 
# 
# 
# High freq. dielectric constant tensor:
#      x y z
#    x 1.810230 0.000000 0.007090 
#    y 0.000000 1.824450 0.000000 
#    z 0.007090 0.000000 1.826040 
# 
# From -- ./inp_files/50378.got.cif
#   From: 2010.06.25/outbox.cif.g09.slc.cpg/sg13_26_cif.got.tgz:50378.got - 2010.06.28 04:50:58.
