data_PCOD8120090
_publ_section_title
;
Structure prediction by ZEFSAII (Michael W. Deem and Ramdas Pophale) SiO2 
 PCOD8120090
Probable space group: P 2/C
;
_chemical_formula_sum "Si O2"
_cell_formula_units_Z 18
_cell_length_a 21.533238
_cell_length_b 8.431083
_cell_length_c 27.308741
_cell_angle_alpha 90.000000
_cell_angle_beta 11.362559
_cell_angle_gamma 90.000000
_cell_volume 976.781604
_symmetry_space_group_name_H-M "P 2/C"
_symmetry_group_IT_number 13
_symmetry_cell_setting 'monoclinic'
loop_
_space_group_symop_operation_xyz
x,y,z
-x,y,1/2-z
-x,-y,-z
x,-y,1/2+z
loop_
_atom_site_type_symbol
_atom_site_label
_atom_site_fract_x
_atom_site_fract_y
_atom_site_fract_z
Si Si1 0.183498 0.920648 0.226157
Si Si2 0.295053 0.145665 0.954942
Si Si3 0.288699 0.708460 0.057530
Si Si4 0.000000 0.404967 0.250000
Si Si5 0.774533 0.920618 0.635121
O O1 0.266991 0.763978 0.130642
O O2 0.007027 0.045654 0.328055
O O3 0.964604 0.866444 0.440254
O O4 0.500000 0.000000 0.000000
O O5 0.500000 0.199097 0.750000
O O6 0.503686 0.045728 0.831437
O O7 0.177946 0.302836 0.072049
O O8 0.000000 0.786462 0.250000
O O9 0.258961 0.516858 0.077383
O O10 0.618832 0.764031 0.778795
O O11 0.000000 0.000000 0.500000
#
# Coordination Sequence:
#
# PCOD8120090 Si02
#       5
#     4   4   4   2   4
#     4  11  21  36  64  89 114 148 203 248 281 332
#     4  10  21  37  59  87 113 154 194 238 290 342
#     4  10  21  38  59  85 115 153 194 231 295 337
#     4  10  22  38  62  76 126 158 186 224 308 348
#     4  11  21  36  64  89 114 148 203 248 281 332
#
# _framework density 18.427865000000001
#
# number of rings (size 3 to 8) (size 9 to 14) (size 15 to 20)
#    0.667    0.889    4.444    1.333    0.000    1.778 
#    0.000    2.222    0.000    0.000    0.000    0.000 
#    0.000    0.000    0.000    0.000    0.000    0.000 
#
# Total GULP energy -223191.809600 kJ/mol
# GULP energy per Si atom -12399.544978 kJ/mol
# Density = 1.838592 g / cm^3
# Si number density = 18.427865 Si / 1000 Ang^3
#
#
#
# Elastic Constant Matrix: (Units=GPa)
#
#
# Indices 1 2 3 4 5 6 
#
# 1 108.3726 49.8342 47.8040 0.0000 3.1453 0.0000
# 2 49.8342 107.6870 52.6604 0.0000 17.6150 0.0000
# 3 47.8040 52.6604 109.6850 0.0000 6.1516 0.0000
# 4 0.0000 0.0000 0.0000 24.7100 0.0000 14.4140
# 5 3.1453 17.6150 6.1516 0.0000 49.1776 0.0000
# 6 0.0000 0.0000 0.0000 14.4140 0.0000 22.4968
#
#
#
# Elastic Compliance Matrix: (Units=1/GPa)
#
#
# Indices 1 2 3 4 5 6 
#
# 1 0.012761 -0.004375 -0.003528 0.000000 0.001192 0.000000
# 2 -0.004375 0.014320 -0.004730 0.000000 -0.004258 0.000000
# 3 -0.003528 -0.004730 0.012908 0.000000 0.000305 0.000000
# 4 0.000000 0.000000 0.000000 0.064621 0.000000 -0.041404
# 5 0.001192 -0.004258 0.000305 0.000000 0.021745 0.000000
# 6 0.000000 0.000000 0.000000 -0.041404 0.000000 0.070979
#
#
# Mechanical properties :
#
#
# Convention : Reuss Voigt Hill
#
# Bulk Modulus (GPa) = 67.91657 69.59354 68.75506
# Shear Modulus (GPa) = 21.97728 30.97328 26.47528
#
# Velocity S-wave (km/s) = 3.45717 4.10419 3.79449
# Velocity P-wave (km/s) = 7.27127 7.76573 7.52256
#
# Compressibility (1/GPa) = 0.01472395
#
# Stress axis : x y z
#
# Youngs Moduli (GPa) = 78.36435 69.83143 77.47033
#
# Poissons Ratio (x) = 0.30553 0.27331
# Poissons Ratio (y) = 0.34286 0.36640
# Poissons Ratio (z) = 0.27646 0.33027
#
# Static dielectric constant tensor:
#      x y z
#    x 3.529930 0.000000 0.063080 
#    y 0.000000 3.078530 0.000000 
#    z 0.063080 0.000000 3.538000 
# 
# 
# High freq. dielectric constant tensor:
#      x y z
#    x 1.726020 0.000000 0.008510 
#    y 0.000000 1.688040 0.000000 
#    z 0.008510 0.000000 1.727220 
# 
# From -- ./inp_files/62620.got.cif
#   From: 2010.06.25/outbox.cif.g09.slc.cpg/sg13_32_cif.got.tgz:62620.got - 2010.06.28 04:50:58.
