data_PCOD8120322
_publ_section_title
;
Structure prediction by ZEFSAII (Michael W. Deem and Ramdas Pophale) SiO2 
 PCOD8120322
Probable space group: P 2/C
;
_chemical_formula_sum "Si O2"
_cell_formula_units_Z 28
_cell_length_a 16.852737
_cell_length_b 16.545820
_cell_length_c 5.227345
_cell_angle_alpha 90.000000
_cell_angle_beta 57.504243
_cell_angle_gamma 90.000000
_cell_volume 1229.389733
_symmetry_space_group_name_H-M "P 2/C"
_symmetry_group_IT_number 13
_symmetry_cell_setting 'monoclinic'
loop_
_space_group_symop_operation_xyz
x,y,z
-x,y,1/2-z
-x,-y,-z
x,-y,1/2+z
loop_
_atom_site_type_symbol
_atom_site_label
_atom_site_fract_x
_atom_site_fract_y
_atom_site_fract_z
Si Si1 0.250320 0.044626 0.312037
Si Si2 0.401020 0.877502 0.818858
Si Si3 0.696683 0.454252 0.242735
Si Si4 0.397216 0.713310 0.527278
Si Si5 0.736489 0.817965 0.047703
Si Si6 0.894674 0.608026 0.426814
Si Si7 0.896278 0.285992 0.426222
O O1 0.364135 0.061024 0.159815
O O2 0.213337 0.015173 0.651591
O O3 0.218677 0.134923 0.276282
O O4 0.500000 0.908502 0.750000
O O5 0.408357 0.784403 0.715780
O O6 0.323345 0.882781 0.182008
O O7 0.659462 0.490969 0.573717
O O8 0.654711 0.365012 0.267099
O O9 0.811219 0.457281 0.060291
O O10 0.500000 0.688250 0.250000
O O11 0.332047 0.744655 0.409514
O O12 0.821219 0.785529 0.073184
O O13 0.878832 0.664140 0.698493
O O14 0.000000 0.567739 0.250000
O O15 0.882269 0.658807 0.193575
O O16 0.000000 0.247288 0.250000
#
# Coordination Sequence:
#
# PCOD8120322 Si02
#       7
#     4   4   4   4   4   4   4
#     4  11  24  42  60  95 136 172 206 253 314 381
#     4  11  23  39  67  96 124 169 220 259 318 371
#     4  12  27  42  63  91 128 172 211 259 326 378
#     4  11  24  41  65  91 125 167 222 270 307 372
#     4  11  22  41  69  92 126 171 210 265 313 370
#     4  10  21  40  64  93 127 159 204 267 328 382
#     4  10  21  38  68 100 122 156 212 271 318 365
#
# _framework density 22.77553
#
# number of rings (size 3 to 8) (size 9 to 14) (size 15 to 20)
#    0.000    1.143    4.286    1.714    4.000    1.714 
#    0.000    0.000    0.000    0.857    0.000    0.000 
#    0.000    0.000    0.000    0.000    0.000    0.000 
#
# Total GULP energy -346953.626627 kJ/mol
# GULP energy per Si atom -12391.200951 kJ/mol
# Density = 2.272369 g / cm^3
# Si number density = 22.775530 Si / 1000 Ang^3
#
#
#
# Elastic Constant Matrix: (Units=GPa)
#
#
# Indices 1 2 3 4 5 6 
#
# 1 92.3157 12.6436 27.7297 0.0000 15.0229 0.0000
# 2 12.6436 40.2787 8.7037 0.0000 7.2554 0.0000
# 3 27.7297 8.7037 87.2053 0.0000 25.1497 0.0000
# 4 0.0000 0.0000 0.0000 29.5666 0.0000 11.0209
# 5 15.0229 7.2554 25.1497 0.0000 43.9373 0.0000
# 6 0.0000 0.0000 0.0000 11.0209 0.0000 27.0389
#
#
#
# Elastic Compliance Matrix: (Units=1/GPa)
#
#
# Indices 1 2 3 4 5 6 
#
# 1 0.012488 -0.002886 -0.003101 0.000000 -0.002018 0.000000
# 2 -0.002886 0.026443 -0.000894 0.000000 -0.002868 0.000000
# 3 -0.003101 -0.000894 0.014605 0.000000 -0.007152 0.000000
# 4 0.000000 0.000000 0.000000 0.039881 0.000000 -0.016255
# 5 -0.002018 -0.002868 -0.007152 0.000000 0.028017 0.000000
# 6 0.000000 0.000000 0.000000 -0.016255 0.000000 0.043609
#
#
# Mechanical properties :
#
#
# Convention : Reuss Voigt Hill
#
# Bulk Modulus (GPa) = 25.14283 35.32820 30.23551
# Shear Modulus (GPa) = 26.03311 31.49009 28.76160
#
# Velocity S-wave (km/s) = 3.38454 3.72240 3.55749
# Velocity P-wave (km/s) = 5.13194 5.83268 5.49350
#
# Compressibility (1/GPa) = 0.03977277
#
# Stress axis : x y z
#
# Youngs Moduli (GPa) = 80.08000 37.81740 68.46954
#
# Poissons Ratio (x) = 0.10915 0.21230
# Poissons Ratio (y) = 0.23114 0.06123
# Poissons Ratio (z) = 0.24830 0.03382
#
# Static dielectric constant tensor:
#      x y z
#    x 4.242500 0.000000 0.179270 
#    y 0.000000 3.919200 0.000000 
#    z 0.179270 0.000000 4.155740 
# 
# 
# High freq. dielectric constant tensor:
#      x y z
#    x 1.901310 0.000000 0.029030 
#    y 0.000000 1.890350 0.000000 
#    z 0.029030 0.000000 1.887600 
# 
# From -- ./inp_files/6245.got.cif
#   From: 2010.06.25/outbox.cif.g09.slc.cpg/sg13_4_cif.got.tgz:6245.got - 2010.06.28 04:50:58.
