data_PCOD8120718
_publ_section_title
;
Structure prediction by ZEFSAII (Michael W. Deem and Ramdas Pophale) SiO2 
 PCOD8120718
Probable space group: P 2/C
;
_chemical_formula_sum "Si O2"
_cell_formula_units_Z 20
_cell_length_a 9.065092
_cell_length_b 7.320447
_cell_length_c 28.017528
_cell_angle_alpha 90.000000
_cell_angle_beta 150.320467
_cell_angle_gamma 90.000000
_cell_volume 920.608468
_symmetry_space_group_name_H-M "P 2/C"
_symmetry_group_IT_number 13
_symmetry_cell_setting 'monoclinic'
loop_
_space_group_symop_operation_xyz
x,y,z
-x,y,1/2-z
-x,-y,-z
x,-y,1/2+z
loop_
_atom_site_type_symbol
_atom_site_label
_atom_site_fract_x
_atom_site_fract_y
_atom_site_fract_z
Si Si1 0.272184 0.252652 0.357717
Si Si2 0.845247 0.081390 0.849117
Si Si3 0.165000 0.835183 0.342477
Si Si4 0.786846 0.716775 0.550163
Si Si5 0.908106 0.603623 0.021742
O O1 0.232497 0.324739 0.399684
O O2 0.573832 0.326778 0.419698
O O3 0.000000 0.327856 0.250000
O O4 0.281164 0.034623 0.360910
O O5 0.500000 0.026994 0.750000
O O6 0.948707 0.164312 0.827545
O O7 0.891371 0.223334 0.905821
O O8 0.037713 0.901027 0.913659
O O9 0.454542 0.716719 0.435309
O O10 0.000000 0.748538 0.250000
O O11 0.954599 0.543536 0.576337
O O12 0.000000 0.500000 0.000000
#
# Coordination Sequence:
#
# PCOD8120718 Si02
#       5
#     4   4   4   4   4
#     4  10  21  43  71  99 130 174 230 271 326 407
#     4  11  25  45  67 100 140 170 220 282 337 394
#     4  10  21  41  75 100 125 180 230 268 331 403
#     4  11  23  46  72  92 134 180 223 273 331 396
#     4  12  27  42  65 101 138 177 219 279 336 394
#
# _framework density 21.724761999999998
#
# number of rings (size 3 to 8) (size 9 to 14) (size 15 to 20)
#    0.000    1.200    4.000    1.800    2.800    8.800 
#    0.000    0.000    0.000    0.000    0.000    0.000 
#    0.000    0.000    0.000    0.000    0.000    0.000 
#
# Total GULP energy -248030.375660 kJ/mol
# GULP energy per Si atom -12401.518783 kJ/mol
# Density = 2.167532 g / cm^3
# Si number density = 21.724762 Si / 1000 Ang^3
#
#
#
# Elastic Constant Matrix: (Units=GPa)
#
#
# Indices 1 2 3 4 5 6 
#
# 1 98.5642 35.9180 57.5919 0.0000 5.6664 0.0000
# 2 35.9180 58.0585 29.6416 0.0000 2.3284 0.0000
# 3 57.5919 29.6416 160.6855 0.0000 -7.5959 0.0000
# 4 0.0000 0.0000 0.0000 -26.8966 0.0000 12.6090
# 5 5.6664 2.3284 -7.5959 0.0000 38.0576 0.0000
# 6 0.0000 0.0000 0.0000 12.6090 0.0000 34.8301
#
#
#
# Elastic Compliance Matrix: (Units=1/GPa)
#
#
# Indices 1 2 3 4 5 6 
#
# 1 0.015481 -0.007252 -0.004340 0.000000 -0.002727 0.000000
# 2 -0.007252 0.022547 -0.001589 0.000000 -0.000617 0.000000
# 3 -0.004340 -0.001589 0.008184 0.000000 0.002377 0.000000
# 4 0.000000 0.000000 0.000000 -0.031785 0.000000 0.011507
# 5 -0.002727 -0.000617 0.002377 0.000000 0.027194 0.000000
# 6 0.000000 0.000000 0.000000 0.011507 0.000000 0.024545
#
#
# Mechanical properties :
#
#
# Convention : Reuss Voigt Hill
#
# Bulk Modulus (GPa) = 50.37829 62.62349 56.50089
# Shear Modulus (GPa) = 50.43115 22.14198 36.28657
#
# Velocity S-wave (km/s) = 4.82328 3.19596 4.09135
# Velocity P-wave (km/s) = 7.36603 6.51977 6.95578
#
# Compressibility (1/GPa) = 0.01984982
#
# Stress axis : x y z
#
# Youngs Moduli (GPa) = 64.59499 44.35239 122.18624
#
# Poissons Ratio (x) = 0.32166 0.53025
# Poissons Ratio (y) = 0.46847 0.19415
# Poissons Ratio (z) = 0.28032 0.07048
#
# Static dielectric constant tensor:
#      x y z
#    x 3.925080 0.000000 -0.168660 
#    y 0.000000 3.947860 0.000000 
#    z -0.168660 0.000000 4.306080 
# 
# 
# High freq. dielectric constant tensor:
#      x y z
#    x 1.846940 0.000000 -0.006090 
#    y 0.000000 1.863450 0.000000 
#    z -0.006090 0.000000 1.861600 
# 
# From -- ./inp_files/67910.got.cif
#   From: 2010.06.25/outbox.cif.g09.slc.cpg/sg13_34_cif.got.tgz:67910.got - 2010.06.28 04:50:58.
