data_PCOD8120774
_publ_section_title
;
Structure prediction by ZEFSAII (Michael W. Deem and Ramdas Pophale) SiO2 
 PCOD8120774
Probable space group: P 2/C
;
_chemical_formula_sum "Si O2"
_cell_formula_units_Z 28
_cell_length_a 28.251268
_cell_length_b 11.663496
_cell_length_c 22.579803
_cell_angle_alpha 90.000000
_cell_angle_beta 169.431300
_cell_angle_gamma 90.000000
_cell_volume 1364.646503
_symmetry_space_group_name_H-M "P 2/C"
_symmetry_group_IT_number 13
_symmetry_cell_setting 'monoclinic'
loop_
_space_group_symop_operation_xyz
x,y,z
-x,y,1/2-z
-x,-y,-z
x,-y,1/2+z
loop_
_atom_site_type_symbol
_atom_site_label
_atom_site_fract_x
_atom_site_fract_y
_atom_site_fract_z
Si Si1 0.485658 0.373853 0.458823
Si Si2 0.517568 0.275980 0.617103
Si Si3 0.000000 0.155572 0.250000
Si Si4 0.802562 0.964816 0.931213
Si Si5 0.705282 0.481352 0.621118
Si Si6 0.007392 0.721029 0.195769
Si Si7 0.500000 0.374323 0.250000
Si Si8 0.243622 0.049115 0.263574
O O1 0.500000 0.500000 0.500000
O O2 0.610233 0.288155 0.661372
O O3 0.613774 0.374956 0.551063
O O4 0.186079 0.340330 0.087201
O O5 0.432268 0.398734 0.535286
O O6 0.290618 0.180846 0.341541
O O7 0.751313 0.237203 0.946712
O O8 0.022716 0.073642 0.335373
O O9 0.826023 0.956099 0.890307
O O10 0.511635 0.977861 0.600157
O O11 0.922902 0.850367 0.105479
O O12 0.638722 0.451623 0.471157
O O13 0.000000 0.500000 0.000000
O O14 0.292595 0.712632 0.521193
O O15 0.000000 0.655715 0.250000
O O16 0.000000 0.000000 0.000000
#
# Coordination Sequence:
#
# PCOD8120774 Si02
#       8
#     4   4   2   4   4   4   2   4
#     4  10  21  42  68  89 126 175 217 273 333 394
#     4  10  22  43  66  92 131 178 222 271 339 394
#     4  10  22  42  64  96 130 172 220 268 332 406
#     4  10  22  42  64  95 133 168 222 275 329 398
#     4  11  25  43  65 101 135 171 232 280 334 411
#     4  12  23  42  66  95 134 176 214 275 343 382
#     4  12  26  42  66 100 136 176 228 282 332 414
#     4  10  22  42  68  96 127 173 227 273 328 399
#
# _framework density 20.518135000000001
#
# number of rings (size 3 to 8) (size 9 to 14) (size 15 to 20)
#    0.000    1.429    3.571    1.714    0.000    5.714 
#    2.571    0.000    0.000    0.000    0.000    0.000 
#    0.000    0.000    0.000    0.000    0.000    0.000 
#
# Total GULP energy -346960.521674 kJ/mol
# GULP energy per Si atom -12391.447203 kJ/mol
# Density = 2.047143 g / cm^3
# Si number density = 20.518135 Si / 1000 Ang^3
#
#
#
# Elastic Constant Matrix: (Units=GPa)
#
#
# Indices 1 2 3 4 5 6 
#
# 1 105.9177 28.4189 64.3153 0.0000 1.5968 0.0000
# 2 28.4189 99.3425 54.3967 0.0000 2.8566 0.0000
# 3 64.3153 54.3967 148.9989 0.0000 -3.7110 0.0000
# 4 0.0000 0.0000 0.0000 28.6422 0.0000 0.8424
# 5 1.5968 2.8566 -3.7110 0.0000 41.4174 0.0000
# 6 0.0000 0.0000 0.0000 0.8424 0.0000 27.4263
#
#
#
# Elastic Compliance Matrix: (Units=1/GPa)
#
#
# Indices 1 2 3 4 5 6 
#
# 1 0.012880 -0.000752 -0.005308 0.000000 -0.000920 0.000000
# 2 -0.000752 0.012693 -0.004341 0.000000 -0.001235 0.000000
# 3 -0.005308 -0.004341 0.010624 0.000000 0.001456 0.000000
# 4 0.000000 0.000000 0.000000 0.034945 0.000000 -0.001073
# 5 -0.000920 -0.001235 0.001456 0.000000 0.024396 0.000000
# 6 0.000000 0.000000 0.000000 -0.001073 0.000000 0.036494
#
#
# Mechanical properties :
#
#
# Convention : Reuss Voigt Hill
#
# Bulk Modulus (GPa) = 64.94931 72.05790 68.50360
# Shear Modulus (GPa) = 31.65260 33.30572 32.47916
#
# Velocity S-wave (km/s) = 3.93194 4.03331 3.98295
# Velocity P-wave (km/s) = 7.23442 7.54225 7.38994
#
# Compressibility (1/GPa) = 0.01539662
#
# Stress axis : x y z
#
# Youngs Moduli (GPa) = 77.63929 78.78096 94.12956
#
# Poissons Ratio (x) = 0.05921 0.49966
# Poissons Ratio (y) = 0.05835 0.40857
# Poissons Ratio (z) = 0.41213 0.34195
#
# Static dielectric constant tensor:
#      x y z
#    x 4.093150 0.000000 -0.252040 
#    y 0.000000 3.674830 0.000000 
#    z -0.252040 0.000000 3.864990 
# 
# 
# High freq. dielectric constant tensor:
#      x y z
#    x 1.802260 0.000000 -0.024620 
#    y 0.000000 1.805920 0.000000 
#    z -0.024620 0.000000 1.806360 
# 
# From -- ./inp_files/89711.got.cif
#   From: 2010.06.25/outbox.cif.g09.slc.cpg/sg13_45_cif.got.tgz:89711.got - 2010.06.28 04:50:58.
