data_PCOD8120390
_publ_section_title
;
Structure prediction by ZEFSAII (Michael W. Deem and Ramdas Pophale) SiO2 
 PCOD8120390
Probable space group: P 2/C
;
_chemical_formula_sum "Si O2"
_cell_formula_units_Z 18
_cell_length_a 22.209346
_cell_length_b 7.823388
_cell_length_c 5.269407
_cell_angle_alpha 90.000000
_cell_angle_beta 60.134149
_cell_angle_gamma 90.000000
_cell_volume 793.978053
_symmetry_space_group_name_H-M "P 2/C"
_symmetry_group_IT_number 13
_symmetry_cell_setting 'monoclinic'
loop_
_space_group_symop_operation_xyz
x,y,z
-x,y,1/2-z
-x,-y,-z
x,-y,1/2+z
loop_
_atom_site_type_symbol
_atom_site_label
_atom_site_fract_x
_atom_site_fract_y
_atom_site_fract_z
Si Si1 0.500000 0.888276 0.750000
Si Si2 0.920947 0.394010 0.933278
Si Si3 0.193790 0.889515 0.865407
Si Si4 0.415575 0.575339 0.026428
Si Si5 0.261352 0.565178 0.828498
O O1 0.569610 0.771267 0.584003
O O2 0.500000 0.000000 0.500000
O O3 0.906290 0.533978 0.745580
O O4 0.000000 0.329042 0.750000
O O5 0.873507 0.229853 0.974272
O O6 0.261992 0.767867 0.766709
O O7 0.195442 0.970656 0.583255
O O8 0.450194 0.536259 0.227073
O O9 0.335051 0.526092 0.226855
O O10 0.221284 0.470330 0.679712
#
# Coordination Sequence:
#
# PCOD8120390 Si02
#       5
#     2   4   4   4   4
#     4  12  24  40  64  98 126 148 194 256 306 348
#     4  10  21  39  63  88 118 162 208 244 293 370
#     4  12  24  38  60  92 124 155 198 258 311 346
#     4  10  21  41  65  87 117 164 201 232 291 366
#     4  10  21  41  63  84 116 164 206 238 287 365
#
# _framework density 22.670653000000001
#
# number of rings (size 3 to 8) (size 9 to 14) (size 15 to 20)
#    0.000    1.333    0.000    6.000    0.000    0.889 
#    0.000   26.667    0.000    0.000    0.000    0.000 
#    0.000    0.000    0.000    0.000    0.000    0.000 
#
# Total GULP energy -222996.139770 kJ/mol
# GULP energy per Si atom -12388.674432 kJ/mol
# Density = 2.261905 g / cm^3
# Si number density = 22.670653 Si / 1000 Ang^3
#
#
#
# Elastic Constant Matrix: (Units=GPa)
#
#
# Indices 1 2 3 4 5 6 
#
# 1 102.7850 44.3380 41.7462 0.0000 8.9769 0.0000
# 2 44.3380 135.9484 41.9151 0.0000 10.5924 0.0000
# 3 41.7462 41.9151 126.9686 0.0000 53.3115 0.0000
# 4 0.0000 0.0000 0.0000 40.0696 0.0000 22.2647
# 5 8.9769 10.5924 53.3115 0.0000 48.6742 0.0000
# 6 0.0000 0.0000 0.0000 22.2647 0.0000 29.5781
#
#
#
# Elastic Compliance Matrix: (Units=1/GPa)
#
#
# Indices 1 2 3 4 5 6 
#
# 1 0.012558 -0.002953 -0.004539 0.000000 0.003298 0.000000
# 2 -0.002953 0.009011 -0.002609 0.000000 0.001441 0.000000
# 3 -0.004539 -0.002609 0.017847 0.000000 -0.018143 0.000000
# 4 0.000000 0.000000 0.000000 0.042900 0.000000 -0.032293
# 5 0.003298 0.001441 -0.018143 0.000000 0.039494 0.000000
# 6 0.000000 0.000000 0.000000 -0.032293 0.000000 0.058117
#
#
# Mechanical properties :
#
#
# Convention : Reuss Voigt Hill
#
# Bulk Modulus (GPa) = 52.04293 69.07784 60.56039
# Shear Modulus (GPa) = 24.20898 39.51123 31.86010
#
# Velocity S-wave (km/s) = 3.27135 4.17926 3.75286
# Velocity P-wave (km/s) = 6.10532 7.33652 6.74905
#
# Compressibility (1/GPa) = 0.01921491
#
# Stress axis : x y z
#
# Youngs Moduli (GPa) = 79.62759 110.97590 56.03074
#
# Poissons Ratio (x) = 0.32775 0.25432
# Poissons Ratio (y) = 0.23517 0.14617
# Poissons Ratio (z) = 0.36142 0.28951
#
# Static dielectric constant tensor:
#      x y z
#    x 4.697110 0.000000 0.431990 
#    y 0.000000 3.998000 0.000000 
#    z 0.431990 0.000000 5.140220 
# 
# 
# High freq. dielectric constant tensor:
#      x y z
#    x 1.910990 0.000000 0.019460 
#    y 0.000000 1.874100 0.000000 
#    z 0.019460 0.000000 1.933310 
# 
# From -- ./inp_files/7232.got.cif
#   From: 2010.06.25/outbox.cif.g09.slc.cpg/sg13_4_cif.got.tgz:7232.got - 2010.06.28 04:50:58.
