data_PCOD8120879
_publ_section_title
;
Structure prediction by ZEFSAII (Michael W. Deem and Ramdas Pophale) SiO2 
 PCOD8120879
Probable space group: P 2/C
;
_chemical_formula_sum "Si O2"
_cell_formula_units_Z 16
_cell_length_a 8.287412
_cell_length_b 6.833059
_cell_length_c 25.798829
_cell_angle_alpha 90.000000
_cell_angle_beta 150.915603
_cell_angle_gamma 90.000000
_cell_volume 710.161959
_symmetry_space_group_name_H-M "P 2/C"
_symmetry_group_IT_number 13
_symmetry_cell_setting 'monoclinic'
loop_
_space_group_symop_operation_xyz
x,y,z
-x,y,1/2-z
-x,-y,-z
x,-y,1/2+z
loop_
_atom_site_type_symbol
_atom_site_label
_atom_site_fract_x
_atom_site_fract_y
_atom_site_fract_z
Si Si1 0.739483 0.851888 0.453001
Si Si2 0.151137 0.609114 0.911854
Si Si3 0.761439 0.024993 0.118469
Si Si4 0.679032 0.729844 0.251804
O O1 0.866311 0.724055 0.537695
O O2 0.599266 0.697899 0.371005
O O3 0.432882 0.995188 0.382360
O O4 0.000000 0.000000 0.500000
O O5 0.093712 0.757523 0.847530
O O6 0.836726 0.467586 0.819346
O O7 0.500000 0.500000 0.000000
O O8 0.037929 0.862123 0.192320
O O9 0.500000 0.000000 0.000000
O O10 0.500000 0.836639 0.250000
#
# Coordination Sequence:
#
# PCOD8120879 Si02
#       4
#     4   4   4   4
#     4  11  25  47  75 104 151 198 243 307 387 450
#     4  11  24  45  74 103 147 188 249 314 364 443
#     4  10  21  45  69  98 142 188 235 308 371 435
#     4  12  25  45  71 107 145 191 251 299 375 451
#
# _framework density 22.530073000000002
#
# number of rings (size 3 to 8) (size 9 to 14) (size 15 to 20)
#    0.000    1.000    5.000    3.750    0.000    4.000 
#    9.000    0.000    0.000    0.000    0.000    0.000 
#    0.000    0.000    0.000    0.000    0.000    0.000 
#
# Total GULP energy -198229.439748 kJ/mol
# GULP energy per Si atom -12389.339984 kJ/mol
# Density = 2.247879 g / cm^3
# Si number density = 22.530073 Si / 1000 Ang^3
#
#
#
# Elastic Constant Matrix: (Units=GPa)
#
#
# Indices 1 2 3 4 5 6 
#
# 1 174.2499 59.1849 56.5866 0.0000 8.8249 0.0000
# 2 59.1849 122.7270 57.1770 0.0000 -1.8860 0.0000
# 3 56.5866 57.1770 117.8431 0.0000 -15.7110 0.0000
# 4 0.0000 0.0000 0.0000 33.2522 0.0000 -4.7590
# 5 8.8249 -1.8860 -15.7110 0.0000 41.9934 0.0000
# 6 0.0000 0.0000 0.0000 -4.7590 0.0000 40.7490
#
#
#
# Elastic Compliance Matrix: (Units=1/GPa)
#
#
# Indices 1 2 3 4 5 6 
#
# 1 0.007622 -0.002378 -0.002878 0.000000 -0.002785 0.000000
# 2 -0.002378 0.011362 -0.004459 0.000000 -0.000658 0.000000
# 3 -0.002878 -0.004459 0.012719 0.000000 0.005163 0.000000
# 4 0.000000 0.000000 0.000000 0.030584 0.000000 0.003572
# 5 -0.002785 -0.000658 0.005163 0.000000 0.026301 0.000000
# 6 0.000000 0.000000 0.000000 0.003572 0.000000 0.024958
#
#
# Mechanical properties :
#
#
# Convention : Reuss Voigt Hill
#
# Bulk Modulus (GPa) = 81.46610 84.52412 82.99511
# Shear Modulus (GPa) = 36.47868 39.32369 37.90118
#
# Velocity S-wave (km/s) = 4.02818 4.18231 4.10597
# Velocity P-wave (km/s) = 7.60739 7.80512 7.70689
#
# Compressibility (1/GPa) = 0.01227504
#
# Stress axis : x y z
#
# Youngs Moduli (GPa) = 131.19769 88.01215 78.62038
#
# Poissons Ratio (x) = 0.20928 0.22624
# Poissons Ratio (y) = 0.31198 0.35055
# Poissons Ratio (z) = 0.37753 0.39242
#
# Static dielectric constant tensor:
#      x y z
#    x 4.504440 0.000000 0.114710 
#    y 0.000000 4.765610 0.000000 
#    z 0.114710 0.000000 4.040110 
# 
# 
# High freq. dielectric constant tensor:
#      x y z
#    x 1.907780 0.000000 0.001190 
#    y 0.000000 1.876910 0.000000 
#    z 0.001190 0.000000 1.894720 
# 
# From -- ./inp_files/90741.got.cif
#   From: 2010.06.25/outbox.cif.g09.slc.cpg/sg13_46_cif.got.tgz:90741.got - 2010.06.28 04:50:58.
