data_PCOD8120411
_publ_section_title
;
Structure prediction by ZEFSAII (Michael W. Deem and Ramdas Pophale) SiO2 
 PCOD8120411
Probable space group: P 2/C
;
_chemical_formula_sum "Si O2"
_cell_formula_units_Z 20
_cell_length_a 9.696146
_cell_length_b 5.038351
_cell_length_c 16.753485
_cell_angle_alpha 90.000000
_cell_angle_beta 95.461342
_cell_angle_gamma 90.000000
_cell_volume 814.735838
_symmetry_space_group_name_H-M "P 2/C"
_symmetry_group_IT_number 13
_symmetry_cell_setting 'monoclinic'
loop_
_space_group_symop_operation_xyz
x,y,z
-x,y,1/2-z
-x,-y,-z
x,-y,1/2+z
loop_
_atom_site_type_symbol
_atom_site_label
_atom_site_fract_x
_atom_site_fract_y
_atom_site_fract_z
Si Si1 0.448256 0.469504 0.086639
Si Si2 0.288204 0.354748 0.289405
Si Si3 0.110464 0.224987 0.424047
Si Si4 0.646188 0.844755 0.295868
Si Si5 0.178537 0.262436 0.025834
O O1 0.570233 0.357593 0.149922
O O2 0.377315 0.746859 0.113666
O O3 0.326138 0.247332 0.078957
O O4 0.500000 0.500000 0.000000
O O5 0.157281 0.285956 0.337063
O O6 0.254805 0.633257 0.244841
O O7 0.300384 0.140797 0.218178
O O8 0.162330 0.445632 0.488447
O O9 0.943296 0.200653 0.417333
O O10 0.176854 0.945678 0.453260
O O11 0.500000 0.797162 0.250000
#
# Coordination Sequence:
#
# PCOD8120411 Si02
#       5
#     4   4   4   4   4
#     4  11  23  42  68 103 127 172 228 283 315 395
#     4  11  22  41  64  91 130 173 208 259 345 388
#     4  10  21  39  64  91 131 173 203 270 335 390
#     4  10  23  40  59  92 132 169 205 267 335 394
#     4  10  22  39  61  98 130 160 222 270 321 379
#
# _framework density 24.547833000000001
#
# number of rings (size 3 to 8) (size 9 to 14) (size 15 to 20)
#    0.000    1.600    2.000    3.000    2.800    5.600 
#    0.000    1.000    0.000    7.200    0.000    0.000 
#    0.000    0.000    0.000    0.000    0.000    0.000 
#
# Total GULP energy -247878.466673 kJ/mol
# GULP energy per Si atom -12393.923334 kJ/mol
# Density = 2.449196 g / cm^3
# Si number density = 24.547833 Si / 1000 Ang^3
#
#
#
# Elastic Constant Matrix: (Units=GPa)
#
#
# Indices 1 2 3 4 5 6 
#
# 1 67.3778 12.6740 29.5975 0.0000 -9.5116 0.0000
# 2 12.6740 96.1421 15.4245 0.0000 2.3954 0.0000
# 3 29.5975 15.4245 123.6506 0.0000 -28.4845 0.0000
# 4 0.0000 0.0000 0.0000 34.6680 0.0000 -6.6839
# 5 -9.5116 2.3954 -28.4845 0.0000 32.2597 0.0000
# 6 0.0000 0.0000 0.0000 -6.6839 0.0000 10.4917
#
#
#
# Elastic Compliance Matrix: (Units=1/GPa)
#
#
# Indices 1 2 3 4 5 6 
#
# 1 0.016944 -0.001753 -0.003335 0.000000 0.002182 0.000000
# 2 -0.001753 0.010952 -0.001573 0.000000 -0.002719 0.000000
# 3 -0.003335 -0.001573 0.011150 0.000000 0.008979 0.000000
# 4 0.000000 0.000000 0.000000 0.032884 0.000000 0.020949
# 5 0.002182 -0.002719 0.008979 0.000000 0.039772 0.000000
# 6 0.000000 0.000000 0.000000 0.020949 0.000000 0.108659
#
#
# Mechanical properties :
#
#
# Convention : Reuss Voigt Hill
#
# Bulk Modulus (GPa) = 38.87180 44.72915 41.80048
# Shear Modulus (GPa) = 20.63916 30.78218 25.71067
#
# Velocity S-wave (km/s) = 2.90275 3.54498 3.23982
# Velocity P-wave (km/s) = 5.20616 5.91749 5.57319
#
# Compressibility (1/GPa) = 0.02572559
#
# Stress axis : x y z
#
# Youngs Moduli (GPa) = 59.01715 91.30361 89.68536
#
# Poissons Ratio (x) = 0.16006 0.29906
# Poissons Ratio (y) = 0.10346 0.14107
# Poissons Ratio (z) = 0.19680 0.14362
#
# Static dielectric constant tensor:
#      x y z
#    x 4.595670 0.000000 -0.279850 
#    y 0.000000 4.743260 0.000000 
#    z -0.279850 0.000000 4.739320 
# 
# 
# High freq. dielectric constant tensor:
#      x y z
#    x 1.959650 0.000000 -0.017850 
#    y 0.000000 1.985530 0.000000 
#    z -0.017850 0.000000 1.978990 
# 
# From -- ./inp_files/48820.got.cif
#   From: 2010.06.25/outbox.cif.g09.slc.cpg/sg13_25_cif.got.tgz:48820.got - 2010.06.28 04:50:58.
