data_PCOD8120233
_publ_section_title
;
Structure prediction by ZEFSAII (Michael W. Deem and Ramdas Pophale) SiO2 
 PCOD8120233
Probable space group: P 2/C
;
_chemical_formula_sum "Si O2"
_cell_formula_units_Z 20
_cell_length_a 23.184141
_cell_length_b 8.182063
_cell_length_c 15.817300
_cell_angle_alpha 90.000000
_cell_angle_beta 18.951709
_cell_angle_gamma 90.000000
_cell_volume 974.459030
_symmetry_space_group_name_H-M "P 2/C"
_symmetry_group_IT_number 13
_symmetry_cell_setting 'monoclinic'
loop_
_space_group_symop_operation_xyz
x,y,z
-x,y,1/2-z
-x,-y,-z
x,-y,1/2+z
loop_
_atom_site_type_symbol
_atom_site_label
_atom_site_fract_x
_atom_site_fract_y
_atom_site_fract_z
Si Si1 0.481802 0.820195 0.985408
Si Si2 0.467536 0.687421 0.181852
Si Si3 0.829843 0.189371 0.711177
Si Si4 0.227094 0.830852 0.640700
Si Si5 0.650475 0.330905 0.104182
O O1 0.480475 0.692525 0.063700
O O2 0.304061 0.774619 0.180044
O O3 0.648492 0.779319 0.692495
O O4 0.500000 0.000000 0.000000
O O5 0.337154 0.830379 0.399580
O O6 0.378909 0.518495 0.332650
O O7 0.665504 0.708064 0.945667
O O8 0.025462 0.224499 0.403696
O O9 0.783274 0.006341 0.802653
O O10 0.823098 0.302544 0.805908
O O11 0.500000 0.261061 0.250000
#
# Coordination Sequence:
#
# PCOD8120233 Si02
#       5
#     4   4   4   4   4
#     4  11  21  36  63  88 117 155 202 245 293 351
#     4  11  21  39  61  87 120 157 196 246 307 354
#     4  10  22  39  62  89 116 158 207 246 290 356
#     4  10  21  39  63  86 118 159 203 243 296 356
#     4  10  21  38  60  87 117 161 195 239 302 362
#
# _framework density 20.52421
#
# number of rings (size 3 to 8) (size 9 to 14) (size 15 to 20)
#    0.000    1.600    4.000    1.800    5.600    1.600 
#    0.000    1.000    4.400    0.000    0.000    0.000 
#    0.000    0.000    0.000    0.000    0.000    0.000 
#
# Total GULP energy -247786.581669 kJ/mol
# GULP energy per Si atom -12389.329083 kJ/mol
# Density = 2.047750 g / cm^3
# Si number density = 20.524210 Si / 1000 Ang^3
#
#
#
# Elastic Constant Matrix: (Units=GPa)
#
#
# Indices 1 2 3 4 5 6 
#
# 1 138.5930 22.6027 37.2949 0.0000 21.1195 0.0000
# 2 22.6027 72.1624 2.9531 0.0000 1.3348 0.0000
# 3 37.2949 2.9531 81.6347 0.0000 -3.3770 0.0000
# 4 0.0000 0.0000 0.0000 19.8595 0.0000 8.4659
# 5 21.1195 1.3348 -3.3770 0.0000 26.6788 0.0000
# 6 0.0000 0.0000 0.0000 8.4659 0.0000 36.3940
#
#
#
# Elastic Compliance Matrix: (Units=1/GPa)
#
#
# Indices 1 2 3 4 5 6 
#
# 1 0.010348 -0.002877 -0.004982 0.000000 -0.008678 0.000000
# 2 -0.002877 0.014693 0.000851 0.000000 0.001650 0.000000
# 3 -0.004982 0.000851 0.014734 0.000000 0.005766 0.000000
# 4 0.000000 0.000000 0.000000 0.055897 0.000000 -0.013003
# 5 -0.008678 0.001650 0.005766 0.000000 0.045000 0.000000
# 6 0.000000 0.000000 0.000000 -0.013003 0.000000 0.030502
#
#
# Mechanical properties :
#
#
# Convention : Reuss Voigt Hill
#
# Bulk Modulus (GPa) = 38.82202 46.45461 42.63832
# Shear Modulus (GPa) = 25.80309 31.88908 28.84609
#
# Velocity S-wave (km/s) = 3.54955 3.94601 3.75302
# Velocity P-wave (km/s) = 5.97958 6.59125 6.29285
#
# Compressibility (1/GPa) = 0.02575858
#
# Stress axis : x y z
#
# Youngs Moduli (GPa) = 96.64026 68.05808 67.87198
#
# Poissons Ratio (x) = 0.19578 0.33816
# Poissons Ratio (y) = 0.27800 -0.05775
# Poissons Ratio (z) = 0.48149 -0.05791
#
# Static dielectric constant tensor:
#      x y z
#    x 3.977710 0.000000 0.354290 
#    y 0.000000 3.606800 0.000000 
#    z 0.354290 0.000000 3.956700 
# 
# 
# High freq. dielectric constant tensor:
#      x y z
#    x 1.802420 0.000000 0.024320 
#    y 0.000000 1.802840 0.000000 
#    z 0.024320 0.000000 1.787830 
# 
# From -- ./inp_files/57131.got.cif
#   From: 2010.06.25/outbox.cif.g09.slc.cpg/sg13_29_cif.got.tgz:57131.got - 2010.06.28 04:50:58.
