data_PCOD8120050
_publ_section_title
;
Structure prediction by ZEFSAII (Michael W. Deem and Ramdas Pophale) SiO2 
 PCOD8120050
Probable space group: P 2/C
;
_chemical_formula_sum "Si O2"
_cell_formula_units_Z 20
_cell_length_a 20.599555
_cell_length_b 9.469588
_cell_length_c 14.786216
_cell_angle_alpha 90.000000
_cell_angle_beta 20.640715
_cell_angle_gamma 90.000000
_cell_volume 1016.748139
_symmetry_space_group_name_H-M "P 2/C"
_symmetry_group_IT_number 13
_symmetry_cell_setting 'monoclinic'
loop_
_space_group_symop_operation_xyz
x,y,z
-x,y,1/2-z
-x,-y,-z
x,-y,1/2+z
loop_
_atom_site_type_symbol
_atom_site_label
_atom_site_fract_x
_atom_site_fract_y
_atom_site_fract_z
Si Si1 0.066401 0.477839 0.564389
Si Si2 0.622481 0.184083 0.503232
Si Si3 0.960756 0.701755 0.043058
Si Si4 0.607732 0.140463 0.017546
Si Si5 0.435058 0.658877 0.592903
O O1 0.118451 0.623747 0.444575
O O2 0.216499 0.356680 0.388017
O O3 0.000000 0.522802 0.750000
O O4 0.931294 0.403463 0.667490
O O5 0.516130 0.268822 0.564979
O O6 0.605277 0.022755 0.493354
O O7 0.500000 0.213948 0.750000
O O8 0.832364 0.239393 0.242957
O O9 0.824856 0.829604 0.242166
O O10 0.500000 0.166489 0.250000
O O11 0.513153 0.246164 0.070745
O O12 0.500000 0.500000 0.500000
#
# Coordination Sequence:
#
# PCOD8120050 Si02
#       5
#     4   4   4   4   4
#     4  10  21  37  56  88 119 151 193 244 296 347
#     4  10  24  40  60  87 121 158 197 241 294 354
#     4  10  21  38  59  86 119 152 198 244 287 353
#     4  11  22  40  62  88 118 158 197 241 299 351
#     4  11  22  38  59  87 119 151 197 243 294 345
#
# _framework density 19.670555
#
# number of rings (size 3 to 8) (size 9 to 14) (size 15 to 20)
#    0.000    1.600    2.000    2.400    2.800    0.800 
#    0.000    0.000    0.000    9.600    0.000    0.000 
#    0.000    0.000    0.000    0.000    0.000    0.000 
#
# Total GULP energy -247762.081226 kJ/mol
# GULP energy per Si atom -12388.104061 kJ/mol
# Density = 1.962578 g / cm^3
# Si number density = 19.670555 Si / 1000 Ang^3
#
#
#
# Elastic Constant Matrix: (Units=GPa)
#
#
# Indices 1 2 3 4 5 6 
#
# 1 121.0844 74.2120 42.8444 0.0000 18.8455 0.0000
# 2 74.2120 144.1306 48.0962 0.0000 15.0058 0.0000
# 3 42.8444 48.0962 95.3176 0.0000 10.1049 0.0000
# 4 0.0000 0.0000 0.0000 86.5342 0.0000 8.6238
# 5 18.8455 15.0058 10.1049 0.0000 27.9408 0.0000
# 6 0.0000 0.0000 0.0000 8.6238 0.0000 42.2047
#
#
#
# Elastic Compliance Matrix: (Units=1/GPa)
#
#
# Indices 1 2 3 4 5 6 
#
# 1 0.013343 -0.005433 -0.002715 0.000000 -0.005100 0.000000
# 2 -0.005433 0.010818 -0.002900 0.000000 -0.001096 0.000000
# 3 -0.002715 -0.002900 0.013327 0.000000 -0.001431 0.000000
# 4 0.000000 0.000000 0.000000 0.011796 0.000000 -0.002410
# 5 -0.005100 -0.001096 -0.001431 0.000000 0.040336 0.000000
# 6 0.000000 0.000000 0.000000 -0.002410 0.000000 0.024187
#
#
# Mechanical properties :
#
#
# Convention : Reuss Voigt Hill
#
# Bulk Modulus (GPa) = 64.97667 76.75978 70.86822
# Shear Modulus (GPa) = 35.45245 44.36126 39.90685
#
# Velocity S-wave (km/s) = 4.24997 4.75406 4.50906
# Velocity P-wave (km/s) = 7.56222 8.32119 7.95076
#
# Compressibility (1/GPa) = 0.01539014
#
# Stress axis : x y z
#
# Youngs Moduli (GPa) = 74.94391 92.44210 75.03673
#
# Poissons Ratio (x) = 0.50227 0.20376
# Poissons Ratio (y) = 0.40719 0.21761
# Poissons Ratio (z) = 0.20351 0.26808
#
# Static dielectric constant tensor:
#      x y z
#    x 2.628520 0.000000 1.327780 
#    y 0.000000 4.043120 0.000000 
#    z 1.327780 0.000000 2.049320 
# 
# 
# High freq. dielectric constant tensor:
#      x y z
#    x 1.775820 0.000000 0.000770 
#    y 0.000000 1.777860 0.000000 
#    z 0.000770 0.000000 1.762580 
# 
# From -- ./inp_files/57121.got.cif
#   From: 2010.06.25/outbox.cif.g09.slc.cpg/sg13_29_cif.got.tgz:57121.got - 2010.06.28 04:50:58.
