data_PCOD8120413
_publ_section_title
;
Structure prediction by ZEFSAII (Michael W. Deem and Ramdas Pophale) SiO2 
 PCOD8120413
Probable space group: P 2/C
;
_chemical_formula_sum "Si O2"
_cell_formula_units_Z 20
_cell_length_a 10.929656
_cell_length_b 17.658717
_cell_length_c 13.353203
_cell_angle_alpha 90.000000
_cell_angle_beta 20.765879
_cell_angle_gamma 90.000000
_cell_volume 913.752991
_symmetry_space_group_name_H-M "P 2/C"
_symmetry_group_IT_number 13
_symmetry_cell_setting 'monoclinic'
loop_
_space_group_symop_operation_xyz
x,y,z
-x,y,1/2-z
-x,-y,-z
x,-y,1/2+z
loop_
_atom_site_type_symbol
_atom_site_label
_atom_site_fract_x
_atom_site_fract_y
_atom_site_fract_z
Si Si1 0.414796 0.374667 0.533407
Si Si2 0.779769 0.941386 0.826636
Si Si3 0.819512 0.282735 0.071950
Si Si4 0.714597 0.840483 0.180070
Si Si5 0.606924 0.528234 0.056476
O O1 0.667680 0.313442 0.292446
O O2 0.529316 0.449910 0.385090
O O3 0.498367 0.394631 0.584305
O O4 0.018170 0.343518 0.846353
O O5 0.000000 0.978357 0.750000
O O6 0.038748 0.910339 0.542639
O O7 0.575608 0.869158 0.022507
O O8 0.500000 0.000000 0.000000
O O9 0.500000 0.251329 0.250000
O O10 0.079855 0.218777 0.909238
O O11 0.500000 0.805262 0.250000
O O12 0.500000 0.539964 0.250000
O O13 0.000000 0.513912 0.750000
#
# Coordination Sequence:
#
# PCOD8120413 Si02
#       5
#     4   4   4   4   4
#     4  11  24  39  59  87 118 155 202 259 310 363
#     4  10  21  39  64  92 123 158 196 243 295 346
#     4  12  24  40  62  87 121 164 204 247 306 365
#     4  10  23  41  60  89 126 160 198 246 294 350
#     4  11  22  39  61  85 115 153 203 257 314 372
#
# _framework density 21.887753
#
# number of rings (size 3 to 8) (size 9 to 14) (size 15 to 20)
#    0.000    1.200    0.000    6.600    0.000    7.200 
#    0.000    0.000    0.000    0.000    0.000    0.000 
#    0.000    0.000    0.000    0.000    0.000    0.000 
#
# Total GULP energy -247799.129942 kJ/mol
# GULP energy per Si atom -12389.956497 kJ/mol
# Density = 2.183794 g / cm^3
# Si number density = 21.887753 Si / 1000 Ang^3
#
#
#
# Elastic Constant Matrix: (Units=GPa)
#
#
# Indices 1 2 3 4 5 6 
#
# 1 150.2534 50.3416 68.7574 0.0000 -24.9081 0.0000
# 2 50.3416 60.3033 11.2013 0.0000 -11.9453 0.0000
# 3 68.7574 11.2013 194.0238 0.0000 -46.5548 0.0000
# 4 0.0000 0.0000 0.0000 33.3901 0.0000 -10.2392
# 5 -24.9081 -11.9453 -46.5548 0.0000 78.1895 0.0000
# 6 0.0000 0.0000 0.0000 -10.2392 0.0000 24.5196
#
#
#
# Elastic Compliance Matrix: (Units=1/GPa)
#
#
# Indices 1 2 3 4 5 6 
#
# 1 0.011133 -0.008622 -0.003398 0.000000 0.000206 0.000000
# 2 -0.008622 0.023807 0.002211 0.000000 0.002207 0.000000
# 3 -0.003398 0.002211 0.007061 0.000000 0.003459 0.000000
# 4 0.000000 0.000000 0.000000 0.034347 0.000000 0.014343
# 5 0.000206 0.002207 0.003459 0.000000 0.015252 0.000000
# 6 0.000000 0.000000 0.000000 0.014343 0.000000 0.046773
#
#
# Mechanical properties :
#
#
# Convention : Reuss Voigt Hill
#
# Bulk Modulus (GPa) = 44.67971 73.90901 59.29436
# Shear Modulus (GPa) = 30.21984 45.50518 37.86251
#
# Velocity S-wave (km/s) = 3.71977 4.56458 4.16366
# Velocity P-wave (km/s) = 6.23750 7.84991 7.08969
#
# Compressibility (1/GPa) = 0.02238152
#
# Stress axis : x y z
#
# Youngs Moduli (GPa) = 89.81913 42.00401 141.63036
#
# Poissons Ratio (x) = 0.36217 0.48129
# Poissons Ratio (y) = 0.77444 -0.31308
# Poissons Ratio (z) = 0.30522 -0.09285
#
# Static dielectric constant tensor:
#      x y z
#    x 4.265520 0.000000 0.017790 
#    y 0.000000 3.690630 0.000000 
#    z 0.017790 0.000000 4.208580 
# 
# 
# High freq. dielectric constant tensor:
#      x y z
#    x 1.871270 0.000000 0.005330 
#    y 0.000000 1.830170 0.000000 
#    z 0.005330 0.000000 1.888580 
# 
# From -- ./inp_files/51590.got.cif
#   From: 2010.06.25/outbox.cif.g09.slc.cpg/sg13_26_cif.got.tgz:51590.got - 2010.06.28 04:50:58.
