data_PCOD8120121
_publ_section_title
;
Structure prediction by ZEFSAII (Michael W. Deem and Ramdas Pophale) SiO2 
 PCOD8120121
Probable space group: P 2/C
;
_chemical_formula_sum "Si O2"
_cell_formula_units_Z 32
_cell_length_a 8.881238
_cell_length_b 14.085658
_cell_length_c 14.457118
_cell_angle_alpha 90.000000
_cell_angle_beta 113.371111
_cell_angle_gamma 90.000000
_cell_volume 1660.174157
_symmetry_space_group_name_H-M "P 2/C"
_symmetry_group_IT_number 13
_symmetry_cell_setting 'monoclinic'
loop_
_space_group_symop_operation_xyz
x,y,z
-x,y,1/2-z
-x,-y,-z
x,-y,1/2+z
loop_
_atom_site_type_symbol
_atom_site_label
_atom_site_fract_x
_atom_site_fract_y
_atom_site_fract_z
Si Si1 0.175636 0.885708 0.841612
Si Si2 0.676971 0.602991 0.558570
Si Si3 0.823967 0.097847 0.666896
Si Si4 0.673632 0.604708 0.108440
Si Si5 0.882612 0.250934 0.006406
Si Si6 0.313163 0.249768 0.731984
Si Si7 0.785636 0.761314 0.001532
Si Si8 0.445586 0.243815 0.337207
O O1 0.173197 0.837001 0.942578
O O2 0.306850 0.836352 0.806120
O O3 0.000000 0.877495 0.750000
O O4 0.244440 0.992583 0.870130
O O5 0.523788 0.599754 0.450295
O O6 0.739436 0.502223 0.612977
O O7 0.827297 0.651444 0.541239
O O8 0.623910 0.661402 0.634745
O O9 0.710414 0.157896 0.708584
O O10 0.852187 0.153495 0.579445
O O11 0.000000 0.080501 0.750000
O O12 0.720945 0.653018 0.218302
O O13 0.764537 0.663073 0.050732
O O14 0.803747 0.243111 0.885223
O O15 0.080143 0.253952 0.046496
O O16 0.500000 0.248037 0.750000
O O17 0.608701 0.796314 0.925004
O O18 0.500000 0.274811 0.250000
#
# Coordination Sequence:
#
# PCOD8120121 Si02
#       8
#     4   4   4   4   4   4   4   4
#     4  10  23  41  61  85 118 155 200 249 298 352
#     4   9  19  37  58  86 118 153 196 242 294 346
#     4  10  21  40  59  87 121 156 192 244 302 355
#     4   9  19  36  58  85 119 154 193 242 292 354
#     4  11  21  38  62  88 118 154 197 251 296 351
#     4  11  21  37  61  90 119 157 199 245 297 354
#     4  10  21  37  61  84 119 154 193 242 300 358
#     4  10  21  39  59  83 115 159 194 240 296 355
#
# _framework density 19.275086000000002
#
# number of rings (size 3 to 8) (size 9 to 14) (size 15 to 20)
#    0.000    2.000    2.500    0.750    1.750    2.500 
#    4.500    0.000   13.750    0.000    0.000    0.000 
#    0.000    0.000    0.000    0.000    0.000    0.000 
#
# Total GULP energy -396719.265498 kJ/mol
# GULP energy per Si atom -12397.477047 kJ/mol
# Density = 1.923122 g / cm^3
# Si number density = 19.275086 Si / 1000 Ang^3
#
#
#
# Elastic Constant Matrix: (Units=GPa)
#
#
# Indices 1 2 3 4 5 6 
#
# 1 117.1782 46.2713 31.6736 0.0000 -8.6919 0.0000
# 2 46.2713 155.1625 53.6065 0.0000 -5.2910 0.0000
# 3 31.6736 53.6065 75.4009 0.0000 -16.0633 0.0000
# 4 0.0000 0.0000 0.0000 22.7994 0.0000 2.5277
# 5 -8.6919 -5.2910 -16.0633 0.0000 28.4234 0.0000
# 6 0.0000 0.0000 0.0000 2.5277 0.0000 18.9320
#
#
#
# Elastic Compliance Matrix: (Units=1/GPa)
#
#
# Indices 1 2 3 4 5 6 
#
# 1 0.010138 -0.002126 -0.002468 0.000000 0.001309 0.000000
# 2 -0.002126 0.009100 -0.006087 0.000000 -0.002396 0.000000
# 3 -0.002468 -0.006087 0.020719 0.000000 0.009822 0.000000
# 4 0.000000 0.000000 0.000000 0.044520 0.000000 -0.005944
# 5 0.001309 -0.002396 0.009822 0.000000 0.040687 0.000000
# 6 0.000000 0.000000 0.000000 -0.005944 0.000000 0.053614
#
#
# Mechanical properties :
#
#
# Convention : Reuss Voigt Hill
#
# Bulk Modulus (GPa) = 53.77889 67.87158 60.82524
# Shear Modulus (GPa) = 24.23190 28.44363 26.33776
#
# Velocity S-wave (km/s) = 3.54949 3.84561 3.70052
# Velocity P-wave (km/s) = 6.69028 7.41666 7.06281
#
# Compressibility (1/GPa) = 0.01859466
#
# Stress axis : x y z
#
# Youngs Moduli (GPa) = 98.64121 109.88818 48.26387
#
# Poissons Ratio (x) = 0.23360 0.11913
# Poissons Ratio (y) = 0.20969 0.29380
# Poissons Ratio (z) = 0.24347 0.66892
#
# Static dielectric constant tensor:
#      x y z
#    x 3.603240 0.000000 -0.018560 
#    y 0.000000 3.627970 0.000000 
#    z -0.018560 0.000000 3.395360 
# 
# 
# High freq. dielectric constant tensor:
#      x y z
#    x 1.758250 0.000000 -0.003900 
#    y 0.000000 1.748610 0.000000 
#    z -0.003900 0.000000 1.743620 
# 
# From -- ./inp_files/47716.got.cif
#   From: 2010.06.25/outbox.cif.g09.slc.cpg/sg13_24_cif.got.tgz:47716.got - 2010.06.28 04:50:58.
