data_PCOD8120857
_publ_section_title
;
Structure prediction by ZEFSAII (Michael W. Deem and Ramdas Pophale) SiO2 
 PCOD8120857
Probable space group: P 2/C
;
_chemical_formula_sum "Si O2"
_cell_formula_units_Z 26
_cell_length_a 15.296932
_cell_length_b 15.879528
_cell_length_c 9.542746
_cell_angle_alpha 90.000000
_cell_angle_beta 148.732221
_cell_angle_gamma 90.000000
_cell_volume 1203.136424
_symmetry_space_group_name_H-M "P 2/C"
_symmetry_group_IT_number 13
_symmetry_cell_setting 'monoclinic'
loop_
_space_group_symop_operation_xyz
x,y,z
-x,y,1/2-z
-x,-y,-z
x,-y,1/2+z
loop_
_atom_site_type_symbol
_atom_site_label
_atom_site_fract_x
_atom_site_fract_y
_atom_site_fract_z
Si Si1 0.345492 0.942336 0.932687
Si Si2 0.320633 0.418600 0.832294
Si Si3 0.000000 0.706616 0.250000
Si Si4 0.222993 0.242487 0.601613
Si Si5 0.295866 0.575284 0.619328
Si Si6 0.926568 0.190596 0.371198
Si Si7 0.543848 0.119626 0.459004
O O1 0.171415 0.898111 0.741766
O O2 0.324617 0.043667 0.896464
O O3 0.500000 0.920116 0.250000
O O4 0.383481 0.915431 0.824190
O O5 0.215091 0.334876 0.656854
O O6 0.241930 0.491532 0.628116
O O7 0.517528 0.399280 0.071122
O O8 0.295570 0.448216 0.956237
O O9 0.167196 0.650718 0.469333
O O10 0.027687 0.765777 0.420958
O O11 0.188419 0.249719 0.387818
O O12 0.398264 0.195797 0.863188
O O13 0.096567 0.180147 0.513726
O O14 0.500000 0.161710 0.250000
#
# Coordination Sequence:
#
# PCOD8120857 Si02
#       7
#     4   4   2   4   4   4   4
#     4  10  21  44  64  98 130 171 224 269 328 405
#     4  10  23  45  67  95 127 177 217 275 332 402
#     4  12  26  42  64 102 126 174 220 278 330 402
#     4  11  24  44  64  95 134 173 220 280 333 392
#     4  10  24  43  67  93 134 166 224 267 339 400
#     4  11  26  41  63  94 134 170 221 271 338 390
#     4  10  23  39  71  96 129 174 218 272 331 388
#
# _framework density 21.610185000000001
#
# number of rings (size 3 to 8) (size 9 to 14) (size 15 to 20)
#    0.000    1.538    3.077    0.000    8.615    2.462 
#    0.000    1.538    0.000    0.000    0.000    0.000 
#    0.000    0.000    0.000    0.000    0.000    0.000 
#
# Total GULP energy -322224.649214 kJ/mol
# GULP energy per Si atom -12393.255739 kJ/mol
# Density = 2.156100 g / cm^3
# Si number density = 21.610185 Si / 1000 Ang^3
#
#
#
# Elastic Constant Matrix: (Units=GPa)
#
#
# Indices 1 2 3 4 5 6 
#
# 1 65.5825 11.5135 17.1985 0.0000 -22.6942 0.0000
# 2 11.5135 80.9061 29.4834 0.0000 -8.8287 0.0000
# 3 17.1985 29.4834 89.4278 0.0000 -32.2310 0.0000
# 4 0.0000 0.0000 0.0000 23.9102 0.0000 4.3183
# 5 -22.6942 -8.8287 -32.2310 0.0000 42.5303 0.0000
# 6 0.0000 0.0000 0.0000 4.3183 0.0000 34.5441
#
#
#
# Elastic Compliance Matrix: (Units=1/GPa)
#
#
# Indices 1 2 3 4 5 6 
#
# 1 0.018932 -0.001812 0.000635 0.000000 0.010207 0.000000
# 2 -0.001812 0.014242 -0.004994 0.000000 -0.001795 0.000000
# 3 0.000635 -0.004994 0.017135 0.000000 0.012288 0.000000
# 4 0.000000 0.000000 0.000000 0.042789 0.000000 -0.005349
# 5 0.010207 -0.001795 0.012288 0.000000 0.037899 0.000000
# 6 0.000000 0.000000 0.000000 -0.005349 0.000000 0.029617
#
#
# Mechanical properties :
#
#
# Convention : Reuss Voigt Hill
#
# Bulk Modulus (GPa) = 26.33801 39.14525 32.74163
# Shear Modulus (GPa) = 26.93811 32.04497 29.49154
#
# Velocity S-wave (km/s) = 3.53448 3.85498 3.69820
# Velocity P-wave (km/s) = 5.37317 6.16182 5.78096
#
# Compressibility (1/GPa) = 0.03796794
#
# Stress axis : x y z
#
# Youngs Moduli (GPa) = 52.82183 70.21577 58.35937
#
# Poissons Ratio (x) = 0.12721 -0.03707
# Poissons Ratio (y) = 0.09570 0.29144
# Poissons Ratio (z) = -0.03356 0.35065
#
# Static dielectric constant tensor:
#      x y z
#    x 3.956130 0.000000 -0.132190 
#    y 0.000000 3.730840 0.000000 
#    z -0.132190 0.000000 4.021520 
# 
# 
# High freq. dielectric constant tensor:
#      x y z
#    x 1.850460 0.000000 -0.019430 
#    y 0.000000 1.838720 0.000000 
#    z -0.019430 0.000000 1.849240 
# 
# From -- ./inp_files/19774.got.cif
#   From: 2010.06.25/outbox.cif.g09.slc.cpg/sg13_10_cif.got.tgz:19774.got - 2010.06.28 04:50:58.
