data_PCOD8120622
_publ_section_title
;
Structure prediction by ZEFSAII (Michael W. Deem and Ramdas Pophale) SiO2 
 PCOD8120622
Probable space group: P 2/C
;
_chemical_formula_sum "Si O2"
_cell_formula_units_Z 24
_cell_length_a 14.077919
_cell_length_b 6.474177
_cell_length_c 18.777797
_cell_angle_alpha 90.000000
_cell_angle_beta 40.186214
_cell_angle_gamma 90.000000
_cell_volume 1104.362786
_symmetry_space_group_name_H-M "P 2/C"
_symmetry_group_IT_number 13
_symmetry_cell_setting 'monoclinic'
loop_
_space_group_symop_operation_xyz
x,y,z
-x,y,1/2-z
-x,-y,-z
x,-y,1/2+z
loop_
_atom_site_type_symbol
_atom_site_label
_atom_site_fract_x
_atom_site_fract_y
_atom_site_fract_z
Si Si1 0.599412 0.198598 0.440613
Si Si2 0.710087 0.487436 0.065982
Si Si3 0.873886 0.102061 0.994314
Si Si4 0.131792 0.786046 0.625949
Si Si5 0.427964 0.540998 0.149454
Si Si6 0.821626 0.751301 0.129804
O O1 0.752926 0.116831 0.384504
O O2 0.623360 0.312560 0.349615
O O3 0.529923 0.368280 0.530831
O O4 0.500000 0.000000 0.500000
O O5 0.533331 0.519364 0.159195
O O6 0.779405 0.569804 0.099542
O O7 0.739111 0.242954 0.046314
O O8 0.798804 0.586648 0.950269
O O9 0.011257 0.251514 0.936409
O O10 0.920194 0.951103 0.903570
O O11 0.808405 0.973949 0.098995
O O12 0.000000 0.706620 0.750000
O O13 0.293710 0.702968 0.240513
#
# Coordination Sequence:
#
# PCOD8120622 Si02
#       6
#     4   4   4   4   4   4
#     4  10  22  39  60  88 128 160 208 258 308 388
#     4  10  21  41  61  88 126 160 208 265 317 382
#     4  10  22  40  63  90 127 163 211 264 317 383
#     4  10  23  38  59  92 123 162 214 257 314 384
#     4  10  22  39  61  90 124 163 206 259 321 378
#     4  10  22  39  63  93 123 162 212 263 318 388
#
# _framework density 21.73199
#
# number of rings (size 3 to 8) (size 9 to 14) (size 15 to 20)
#    0.000    2.000    0.000    2.000    4.667    2.000 
#    0.000    5.000    0.000    0.000    0.000    0.000 
#    0.000    0.000    0.000    0.000    0.000    0.000 
#
# Total GULP energy -297369.819085 kJ/mol
# GULP energy per Si atom -12390.409129 kJ/mol
# Density = 2.168253 g / cm^3
# Si number density = 21.731990 Si / 1000 Ang^3
#
#
#
# Elastic Constant Matrix: (Units=GPa)
#
#
# Indices 1 2 3 4 5 6 
#
# 1 123.6118 38.2784 33.1019 0.0000 -9.2971 0.0000
# 2 38.2784 79.7822 16.4253 0.0000 -10.8548 0.0000
# 3 33.1019 16.4253 76.5104 0.0000 -11.0111 0.0000
# 4 0.0000 0.0000 0.0000 29.0064 0.0000 -3.3563
# 5 -9.2971 -10.8548 -11.0111 0.0000 27.5317 0.0000
# 6 0.0000 0.0000 0.0000 -3.3563 0.0000 31.9855
#
#
#
# Elastic Compliance Matrix: (Units=1/GPa)
#
#
# Indices 1 2 3 4 5 6 
#
# 1 0.010362 -0.004187 -0.003521 0.000000 0.000440 0.000000
# 2 -0.004187 0.015301 -0.000858 0.000000 0.004276 0.000000
# 3 -0.003521 -0.000858 0.015447 0.000000 0.004651 0.000000
# 4 0.000000 0.000000 0.000000 0.034899 0.000000 0.003662
# 5 0.000440 0.004276 0.004651 0.000000 0.040016 0.000000
# 6 0.000000 0.000000 0.000000 0.003662 0.000000 0.031648
#
#
# Mechanical properties :
#
#
# Convention : Reuss Voigt Hill
#
# Bulk Modulus (GPa) = 41.70381 50.61282 46.15832
# Shear Modulus (GPa) = 28.93533 30.51133 29.72333
#
# Velocity S-wave (km/s) = 3.65288 3.75104 3.70229
# Velocity P-wave (km/s) = 6.08466 6.48849 6.28982
#
# Compressibility (1/GPa) = 0.02397862
#
# Stress axis : x y z
#
# Youngs Moduli (GPa) = 96.50276 65.35372 64.73752
#
# Poissons Ratio (x) = 0.27363 0.22794
# Poissons Ratio (y) = 0.40405 0.05555
# Poissons Ratio (z) = 0.33979 0.05608
#
# Static dielectric constant tensor:
#      x y z
#    x 17.294340 0.000000 -15.409410 
#    y 0.000000 3.872120 0.000000 
#    z -15.409410 0.000000 22.135240 
# 
# 
# High freq. dielectric constant tensor:
#      x y z
#    x 1.870080 0.000000 -0.000590 
#    y 0.000000 1.843730 0.000000 
#    z -0.000590 0.000000 1.841220 
# 
# From -- ./inp_files/79236.got.cif
#   From: 2010.06.25/outbox.cif.g09.slc.cpg/sg13_40_cif.got.tgz:79236.got - 2010.06.28 04:50:58.
