data_PCOD8120311
_publ_section_title
;
Structure prediction by ZEFSAII (Michael W. Deem and Ramdas Pophale) SiO2 
 PCOD8120311
Probable space group: P 2/C
;
_chemical_formula_sum "Si O2"
_cell_formula_units_Z 28
_cell_length_a 13.862085
_cell_length_b 11.108735
_cell_length_c 8.614371
_cell_angle_alpha 90.000000
_cell_angle_beta 82.390664
_cell_angle_gamma 90.000000
_cell_volume 1314.847516
_symmetry_space_group_name_H-M "P 2/C"
_symmetry_group_IT_number 13
_symmetry_cell_setting 'monoclinic'
loop_
_space_group_symop_operation_xyz
x,y,z
-x,y,1/2-z
-x,-y,-z
x,-y,1/2+z
loop_
_atom_site_type_symbol
_atom_site_label
_atom_site_fract_x
_atom_site_fract_y
_atom_site_fract_z
Si Si1 0.226972 0.328997 0.371505
Si Si2 0.288956 0.494404 0.107404
Si Si3 0.397310 0.637640 0.335474
Si Si4 0.613422 0.860903 0.720506
Si Si5 0.666943 0.890298 0.059877
Si Si6 0.123323 0.903910 0.347011
Si Si7 0.920669 0.146692 0.988378
O O1 0.226424 0.387996 0.200709
O O2 0.225124 0.435572 0.496723
O O3 0.323176 0.244492 0.373951
O O4 0.126777 0.260156 0.417888
O O5 0.319318 0.591842 0.228336
O O6 0.379594 0.427393 0.004430
O O7 0.500000 0.596077 0.250000
O O8 0.394242 0.781873 0.352084
O O9 0.500000 0.821339 0.750000
O O10 0.621980 0.983140 0.620967
O O11 0.660355 0.886111 0.876719
O O12 0.778351 0.870958 0.085788
O O13 0.135819 0.885978 0.159625
O O14 0.033943 0.823039 0.431155
O O15 0.092026 0.040838 0.384233
#
# Coordination Sequence:
#
# PCOD8120311 Si02
#       7
#     4   4   4   4   4   4   4
#     4  11  23  44  66  94 132 174 224 284 325 395
#     4  10  24  41  64  90 125 175 230 271 326 378
#     4  11  23  39  63  89 123 169 224 272 323 386
#     4  12  27  41  63  96 139 173 219 270 346 397
#     4  12  24  42  63  97 134 173 212 272 336 408
#     4  10  21  38  66 103 134 170 213 262 336 404
#     4  10  21  39  67 100 137 169 213 271 329 395
#
# _framework density 21.295245999999999
#
# number of rings (size 3 to 8) (size 9 to 14) (size 15 to 20)
#    0.000    1.143    2.857    3.000    4.000    2.286 
#    0.000    0.000    0.000   15.429    0.000    0.000 
#    0.000    0.000    0.000    0.000    0.000    0.000 
#
# Total GULP energy -347236.653313 kJ/mol
# GULP energy per Si atom -12401.309047 kJ/mol
# Density = 2.124678 g / cm^3
# Si number density = 21.295246 Si / 1000 Ang^3
#
#
#
# Elastic Constant Matrix: (Units=GPa)
#
#
# Indices 1 2 3 4 5 6 
#
# 1 82.7937 13.5676 18.0735 0.0000 -7.1814 0.0000
# 2 13.5676 115.5401 43.6434 0.0000 -18.5505 0.0000
# 3 18.0735 43.6434 114.3730 0.0000 -7.3133 0.0000
# 4 0.0000 0.0000 0.0000 41.5730 0.0000 -4.2570
# 5 -7.1814 -18.5505 -7.3133 0.0000 33.0186 0.0000
# 6 0.0000 0.0000 0.0000 -4.2570 0.0000 20.0343
#
#
#
# Elastic Compliance Matrix: (Units=1/GPa)
#
#
# Indices 1 2 3 4 5 6 
#
# 1 0.012712 -0.000523 -0.001675 0.000000 0.002100 0.000000
# 2 -0.000523 0.010980 -0.003773 0.000000 0.005219 0.000000
# 3 -0.001675 -0.003773 0.010437 0.000000 -0.000173 0.000000
# 4 0.000000 0.000000 0.000000 0.024589 0.000000 0.005225
# 5 0.002100 0.005219 -0.000173 0.000000 0.033637 0.000000
# 6 0.000000 0.000000 0.000000 0.005225 0.000000 0.051025
#
#
# Mechanical properties :
#
#
# Convention : Reuss Voigt Hill
#
# Bulk Modulus (GPa) = 45.07373 51.47508 48.27440
# Shear Modulus (GPa) = 30.72836 34.75335 32.74086
#
# Velocity S-wave (km/s) = 3.80276 4.04416 3.92532
# Velocity P-wave (km/s) = 6.36344 6.78465 6.57742
#
# Compressibility (1/GPa) = 0.02218587
#
# Stress axis : x y z
#
# Youngs Moduli (GPa) = 78.66786 91.07731 95.81452
#
# Poissons Ratio (x) = 0.04762 0.16048
# Poissons Ratio (y) = 0.04113 0.36154
# Poissons Ratio (z) = 0.13176 0.34367
#
# Static dielectric constant tensor:
#      x y z
#    x 3.680040 0.000000 -0.116150 
#    y 0.000000 3.926870 0.000000 
#    z -0.116150 0.000000 4.112850 
# 
# 
# High freq. dielectric constant tensor:
#      x y z
#    x 1.813670 0.000000 -0.005690 
#    y 0.000000 1.834400 0.000000 
#    z -0.005690 0.000000 1.855550 
# 
# From -- ./inp_files/18751.got.cif
#   From: 2010.06.25/outbox.cif.g09.slc.cpg/sg13_10_cif.got.tgz:18751.got - 2010.06.28 04:50:58.
