data_PCOD8120124
_publ_section_title
;
Structure prediction by ZEFSAII (Michael W. Deem and Ramdas Pophale) SiO2 
 PCOD8120124
Probable space group: P 2/C
;
_chemical_formula_sum "Si O2"
_cell_formula_units_Z 28
_cell_length_a 27.227990
_cell_length_b 8.901177
_cell_length_c 8.826774
_cell_angle_alpha 90.000000
_cell_angle_beta 39.156335
_cell_angle_gamma 90.000000
_cell_volume 1350.815730
_symmetry_space_group_name_H-M "P 2/C"
_symmetry_group_IT_number 13
_symmetry_cell_setting 'monoclinic'
loop_
_space_group_symop_operation_xyz
x,y,z
-x,y,1/2-z
-x,-y,-z
x,-y,1/2+z
loop_
_atom_site_type_symbol
_atom_site_label
_atom_site_fract_x
_atom_site_fract_y
_atom_site_fract_z
Si Si1 0.676412 0.658917 0.330042
Si Si2 0.986960 0.160796 0.962726
Si Si3 0.399437 0.839107 0.750022
Si Si4 0.855441 0.656881 0.891755
Si Si5 0.414708 0.629663 0.444097
Si Si6 0.574900 0.169300 0.854797
Si Si7 0.071617 0.392065 0.974745
O O1 0.664886 0.798756 0.471166
O O2 0.647660 0.495904 0.460324
O O3 0.621919 0.696376 0.319073
O O4 0.765254 0.653504 0.066120
O O5 0.000000 0.169768 0.750000
O O6 0.045517 0.263251 0.920999
O O7 0.897199 0.199518 0.216736
O O8 0.000000 0.000000 0.000000
O O9 0.388111 0.700392 0.664911
O O10 0.485043 0.839590 0.623263
O O11 0.384165 0.006214 0.720780
O O12 0.896918 0.517924 0.711425
O O13 0.863840 0.658612 0.055628
O O14 0.500000 0.551686 0.250000
O O15 0.422513 0.779499 0.324794
O O16 0.000000 0.451258 0.250000
#
# Coordination Sequence:
#
# PCOD8120124 Si02
#       7
#     4   4   4   4   4   4   4
#     4  12  24  37  58  94 132 155 216 262 332 369
#     4  11  22  45  73  99 126 166 216 257 303 380
#     4  10  21  40  62  85 120 170 220 261 324 387
#     4  11  24  39  63  98 125 174 203 264 324 379
#     4  10  21  37  61  89 120 167 220 267 317 374
#     4  10  21  40  63  84 119 173 216 267 318 388
#     4  10  21  42  67  91 128 167 219 249 306 391
#
# _framework density 20.728216
#
# number of rings (size 3 to 8) (size 9 to 14) (size 15 to 20)
#    0.000    1.429    0.000    7.286    4.000    4.571 
#    5.143    0.000    0.000    0.000    0.000    0.000 
#    0.000    0.000    0.000    0.000    0.000    0.000 
#
# Total GULP energy -346991.485757 kJ/mol
# GULP energy per Si atom -12392.553063 kJ/mol
# Density = 2.068104 g / cm^3
# Si number density = 20.728216 Si / 1000 Ang^3
#
#
#
# Elastic Constant Matrix: (Units=GPa)
#
#
# Indices 1 2 3 4 5 6 
#
# 1 67.8910 19.3365 34.9785 0.0000 12.8747 0.0000
# 2 19.3365 125.3486 57.9578 0.0000 -5.7784 0.0000
# 3 34.9785 57.9578 99.9111 0.0000 -2.9361 0.0000
# 4 0.0000 0.0000 0.0000 14.7306 0.0000 9.2801
# 5 12.8747 -5.7784 -2.9361 0.0000 37.6115 0.0000
# 6 0.0000 0.0000 0.0000 9.2801 0.0000 21.2969
#
#
#
# Elastic Compliance Matrix: (Units=1/GPa)
#
#
# Indices 1 2 3 4 5 6 
#
# 1 0.019805 -0.000121 -0.007080 0.000000 -0.007351 0.000000
# 2 -0.000121 0.010955 -0.006277 0.000000 0.001234 0.000000
# 3 -0.007080 -0.006277 0.016209 0.000000 0.002724 0.000000
# 4 0.000000 0.000000 0.000000 0.093573 0.000000 -0.040774
# 5 -0.007351 0.001234 0.002724 0.000000 0.029506 0.000000
# 6 0.000000 0.000000 0.000000 -0.040774 0.000000 0.064722
#
#
# Mechanical properties :
#
#
# Convention : Reuss Voigt Hill
#
# Bulk Modulus (GPa) = 49.96180 57.52181 53.74180
# Shear Modulus (GPa) = 18.62908 26.78631 22.70769
#
# Velocity S-wave (km/s) = 3.00114 3.59871 3.31342
# Velocity P-wave (km/s) = 6.01371 6.71404 6.37350
#
# Compressibility (1/GPa) = 0.02001529
#
# Stress axis : x y z
#
# Youngs Moduli (GPa) = 50.49109 91.27893 61.69526
#
# Poissons Ratio (x) = 0.01100 0.43680
# Poissons Ratio (y) = 0.00609 0.38724
# Poissons Ratio (z) = 0.35747 0.57293
#
# Static dielectric constant tensor:
#      x y z
#    x 3.880440 0.000000 0.205340 
#    y 0.000000 13.246150 0.000000 
#    z 0.205340 0.000000 3.424430 
# 
# 
# High freq. dielectric constant tensor:
#      x y z
#    x 1.806770 0.000000 0.021830 
#    y 0.000000 1.817470 0.000000 
#    z 0.021830 0.000000 1.802020 
# 
# From -- ./inp_files/24511.got.cif
#   From: 2010.06.25/outbox.cif.g09.slc.cpg/sg13_13_cif.got.tgz:24511.got - 2010.06.28 04:50:58.
