data_PCOD8120205
_publ_section_title
;
Structure prediction by ZEFSAII (Michael W. Deem and Ramdas Pophale) SiO2 
 PCOD8120205
Probable space group: P 2/C
;
_chemical_formula_sum "Si O2"
_cell_formula_units_Z 26
_cell_length_a 17.170210
_cell_length_b 6.688308
_cell_length_c 12.175574
_cell_angle_alpha 90.000000
_cell_angle_beta 119.903877
_cell_angle_gamma 90.000000
_cell_volume 1212.081410
_symmetry_space_group_name_H-M "P 2/C"
_symmetry_group_IT_number 13
_symmetry_cell_setting 'monoclinic'
loop_
_space_group_symop_operation_xyz
x,y,z
-x,y,1/2-z
-x,-y,-z
x,-y,1/2+z
loop_
_atom_site_type_symbol
_atom_site_label
_atom_site_fract_x
_atom_site_fract_y
_atom_site_fract_z
Si Si1 0.340453 0.244624 0.780696
Si Si2 0.357992 0.015997 0.497110
Si Si3 0.038746 0.194614 0.974754
Si Si4 0.500000 0.830554 0.250000
Si Si5 0.740031 0.635091 0.681721
Si Si6 0.936581 0.468171 0.300215
Si Si7 0.767937 0.917751 0.907410
O O1 0.421311 0.297375 0.753072
O O2 0.317218 0.443800 0.827338
O O3 0.377078 0.088454 0.895539
O O4 0.255985 0.140659 0.657305
O O5 0.453166 0.032681 0.624928
O O6 0.311742 0.233348 0.445257
O O7 0.292708 0.880962 0.527774
O O8 0.057128 0.351969 0.082471
O O9 0.129889 0.116412 0.980282
O O10 0.970218 0.301212 0.841273
O O11 0.000000 0.000000 0.000000
O O12 0.832663 0.553306 0.691742
O O13 0.751401 0.757678 0.801183
O O14 0.000000 0.372947 0.250000
#
# Coordination Sequence:
#
# PCOD8120205 Si02
#       7
#     4   4   4   2   4   4   4
#     4  10  21  40  64  87 123 155 197 252 302 368
#     4  10  22  39  64  89 120 162 200 248 302 369
#     4  10  21  38  59  84 121 163 204 247 295 351
#     4  10  22  42  60  94 120 156 200 252 308 356
#     4  10  22  40  60  90 123 160 203 246 306 354
#     4  10  23  38  57  92 124 156 206 256 287 347
#     4   9  21  39  59  88 120 160 201 244 306 355
#
# _framework density 21.450703000000001
#
# number of rings (size 3 to 8) (size 9 to 14) (size 15 to 20)
#    0.000    2.154    0.000    1.385    4.308    3.692 
#    2.769    7.692    0.000    0.000    0.000    0.000 
#    0.000    0.000    0.000    0.000    0.000    0.000 
#
# Total GULP energy -322202.692417 kJ/mol
# GULP energy per Si atom -12392.411247 kJ/mol
# Density = 2.140188 g / cm^3
# Si number density = 21.450703 Si / 1000 Ang^3
#
#
#
# Elastic Constant Matrix: (Units=GPa)
#
#
# Indices 1 2 3 4 5 6 
#
# 1 151.1485 45.1094 29.8258 0.0000 8.3264 0.0000
# 2 45.1094 84.8918 26.7711 0.0000 19.2205 0.0000
# 3 29.8258 26.7711 72.6762 0.0000 13.1572 0.0000
# 4 0.0000 0.0000 0.0000 3.9750 0.0000 -7.5070
# 5 8.3264 19.2205 13.1572 0.0000 35.8990 0.0000
# 6 0.0000 0.0000 0.0000 -7.5070 0.0000 23.0002
#
#
#
# Elastic Compliance Matrix: (Units=1/GPa)
#
#
# Indices 1 2 3 4 5 6 
#
# 1 0.008132 -0.003881 -0.002081 0.000000 0.000954 0.000000
# 2 -0.003881 0.016373 -0.003229 0.000000 -0.006683 0.000000
# 3 -0.002081 -0.003229 0.016497 0.000000 -0.003835 0.000000
# 4 0.000000 0.000000 0.000000 0.655847 0.000000 0.214062
# 5 0.000954 -0.006683 -0.003835 0.000000 0.032618 0.000000
# 6 0.000000 0.000000 0.000000 0.214062 0.000000 0.113345
#
#
# Mechanical properties :
#
#
# Convention : Reuss Voigt Hill
#
# Bulk Modulus (GPa) = 44.20485 56.90324 50.55404
# Shear Modulus (GPa) = 5.75550 26.37552 16.06551
#
# Velocity S-wave (km/s) = 1.63980 3.51035 2.73966
# Velocity P-wave (km/s) = 4.92317 6.55859 5.79883
#
# Compressibility (1/GPa) = 0.02262195
#
# Stress axis : x y z
#
# Youngs Moduli (GPa) = 122.96592 61.07472 60.61676
#
# Poissons Ratio (x) = 0.23705 0.12611
# Poissons Ratio (y) = 0.47727 0.19571
# Poissons Ratio (z) = 0.25583 0.19719
#
# Static dielectric constant tensor:
#      x y z
#    x 4.102380 0.000000 0.118140 
#    y 0.000000 3.798140 0.000000 
#    z 0.118140 0.000000 3.978530 
# 
# 
# High freq. dielectric constant tensor:
#      x y z
#    x 1.854830 0.000000 -0.005360 
#    y 0.000000 1.821350 0.000000 
#    z -0.005360 0.000000 1.841270 
# 
# From -- ./inp_files/54512.got.cif
#   From: 2010.06.25/outbox.cif.g09.slc.cpg/sg13_28_cif.got.tgz:54512.got - 2010.06.28 04:50:58.
