data_PCOD8120466
_publ_section_title
;
Structure prediction by ZEFSAII (Michael W. Deem and Ramdas Pophale) SiO2 
 PCOD8120466
Probable space group: P 2/C
;
_chemical_formula_sum "Si O2"
_cell_formula_units_Z 28
_cell_length_a 13.557411
_cell_length_b 8.959548
_cell_length_c 12.195816
_cell_angle_alpha 90.000000
_cell_angle_beta 65.169654
_cell_angle_gamma 90.000000
_cell_volume 1344.456554
_symmetry_space_group_name_H-M "P 2/C"
_symmetry_group_IT_number 13
_symmetry_cell_setting 'monoclinic'
loop_
_space_group_symop_operation_xyz
x,y,z
-x,y,1/2-z
-x,-y,-z
x,-y,1/2+z
loop_
_atom_site_type_symbol
_atom_site_label
_atom_site_fract_x
_atom_site_fract_y
_atom_site_fract_z
Si Si1 0.719665 0.333089 0.227141
Si Si2 0.494257 0.331713 0.041976
Si Si3 0.301149 0.837150 0.972160
Si Si4 0.411476 0.856110 0.378828
Si Si5 0.120346 0.386554 0.160749
Si Si6 0.778871 0.657761 0.114427
Si Si7 0.122058 0.730420 0.208281
O O1 0.594742 0.321240 0.321243
O O2 0.742392 0.202498 0.128915
O O3 0.795107 0.306146 0.297658
O O4 0.747240 0.490229 0.159230
O O5 0.610547 0.287610 0.036432
O O6 0.500000 0.500000 0.000000
O O7 0.468728 0.223841 0.953304
O O8 0.349257 0.001679 0.954666
O O9 0.201809 0.836998 0.103394
O O10 0.500000 0.911570 0.250000
O O11 0.332399 0.743744 0.353524
O O12 0.133708 0.563833 0.156801
O O13 0.000000 0.336067 0.250000
O O14 0.143772 0.333708 0.027068
O O15 0.846660 0.736376 0.178808
O O16 0.000000 0.790480 0.250000
#
# Coordination Sequence:
#
# PCOD8120466 Si02
#       7
#     4   4   4   4   4   4   4
#     4  11  22  39  66  96 130 165 220 274 327 386
#     4  12  23  41  67  98 130 166 219 272 327 388
#     4  12  25  42  62  98 133 174 220 263 330 396
#     4  12  25  43  65  94 137 178 211 265 330 399
#     4  10  21  39  69 101 127 171 220 281 330 378
#     4  11  22  43  65  98 131 167 222 271 332 388
#     4  10  23  41  68  97 131 172 218 278 331 382
#
# _framework density 20.826259
#
# number of rings (size 3 to 8) (size 9 to 14) (size 15 to 20)
#    0.000    0.857    2.857    6.000    2.000    2.857 
#    0.000    1.429    0.000    0.000    0.000    0.000 
#    0.000    0.000    0.000    0.000    0.000    0.000 
#
# Total GULP energy -347413.113821 kJ/mol
# GULP energy per Si atom -12407.611208 kJ/mol
# Density = 2.077886 g / cm^3
# Si number density = 20.826259 Si / 1000 Ang^3
#
#
#
# Elastic Constant Matrix: (Units=GPa)
#
#
# Indices 1 2 3 4 5 6 
#
# 1 79.7749 -9.8431 70.6067 0.0000 -10.8021 0.0000
# 2 -9.8431 52.5948 41.2784 0.0000 1.4110 0.0000
# 3 70.6067 41.2784 182.1265 0.0000 -4.1786 0.0000
# 4 0.0000 0.0000 0.0000 19.4260 0.0000 -2.3630
# 5 -10.8021 1.4110 -4.1786 0.0000 41.1170 0.0000
# 6 0.0000 0.0000 0.0000 -2.3630 0.0000 14.6482
#
#
#
# Elastic Compliance Matrix: (Units=1/GPa)
#
#
# Indices 1 2 3 4 5 6 
#
# 1 0.028188 0.016557 -0.014558 0.000000 0.005358 0.000000
# 2 0.016557 0.032925 -0.013840 0.000000 0.001813 0.000000
# 3 -0.014558 -0.013840 0.014227 0.000000 -0.001904 0.000000
# 4 0.000000 0.000000 0.000000 0.052508 0.000000 0.008470
# 5 0.005358 0.001813 -0.001904 0.000000 0.025473 0.000000
# 6 0.000000 0.000000 0.000000 0.008470 0.000000 0.069634
#
#
# Mechanical properties :
#
#
# Convention : Reuss Voigt Hill
#
# Bulk Modulus (GPa) = 19.35715 57.62001 38.48858
# Shear Modulus (GPa) = 18.94971 29.20186 24.07578
#
# Velocity S-wave (km/s) = 3.01972 3.74861 3.40373
# Velocity P-wave (km/s) = 4.63390 6.81639 5.82822
#
# Compressibility (1/GPa) = 0.05166050
#
# Stress axis : x y z
#
# Youngs Moduli (GPa) = 35.47562 30.37195 70.28668
#
# Poissons Ratio (x) = -0.50287 1.02322
# Poissons Ratio (y) = -0.58737 0.97274
# Poissons Ratio (z) = 0.51644 0.42034
#
# Static dielectric constant tensor:
#      x y z
#    x 3.910490 0.000000 -0.527020 
#    y 0.000000 3.510580 0.000000 
#    z -0.527020 0.000000 4.125340 
# 
# 
# High freq. dielectric constant tensor:
#      x y z
#    x 1.824680 0.000000 0.003990 
#    y 0.000000 1.794350 0.000000 
#    z 0.003990 0.000000 1.835730 
# 
# From -- ./inp_files/36329.got.cif
#   From: 2010.06.25/outbox.cif.g09.slc.cpg/sg13_19_cif.got.tgz:36329.got - 2010.06.28 04:50:58.
