data_PCOD8120841
_publ_section_title
;
Structure prediction by ZEFSAII (Michael W. Deem and Ramdas Pophale) SiO2 
 PCOD8120841
Probable space group: P 2/C
;
_chemical_formula_sum "Si O2"
_cell_formula_units_Z 20
_cell_length_a 7.580167
_cell_length_b 13.977375
_cell_length_c 8.926419
_cell_angle_alpha 90.000000
_cell_angle_beta 90.297004
_cell_angle_gamma 90.000000
_cell_volume 945.748855
_symmetry_space_group_name_H-M "P 2/C"
_symmetry_group_IT_number 13
_symmetry_cell_setting 'monoclinic'
loop_
_space_group_symop_operation_xyz
x,y,z
-x,y,1/2-z
-x,-y,-z
x,-y,1/2+z
loop_
_atom_site_type_symbol
_atom_site_label
_atom_site_fract_x
_atom_site_fract_y
_atom_site_fract_z
Si Si1 0.772710 0.220785 0.403775
Si Si2 0.166851 0.438852 0.450846
Si Si3 0.673409 0.425121 0.347811
Si Si4 0.828134 0.781924 0.560108
Si Si5 0.480835 0.102613 0.573334
O O1 0.737276 0.332123 0.440101
O O2 0.746000 0.207078 0.225680
O O3 0.635204 0.164493 0.502595
O O4 0.968551 0.185005 0.447685
O O5 0.175060 0.448983 0.272330
O O6 0.337096 0.486771 0.535055
O O7 0.172201 0.327609 0.496811
O O8 0.000000 0.500000 0.500000
O O9 0.500000 0.405128 0.250000
O O10 0.710231 0.849326 0.454632
O O11 0.500000 0.093061 0.750000
O O12 0.500000 0.000000 0.500000
#
# Coordination Sequence:
#
# PCOD8120841 Si02
#       5
#     4   4   4   4   4
#     4  10  21  43  69  97 131 177 227 273 339 404
#     4  11  21  38  59  93 134 179 223 267 330 391
#     4  11  22  37  61  92 133 178 227 276 327 394
#     4  10  22  42  70  96 136 182 222 278 338 398
#     4  12  27  47  71 101 133 170 223 286 346 408
#
# _framework density 21.147264
#
# number of rings (size 3 to 8) (size 9 to 14) (size 15 to 20)
#    0.000    1.200    2.000    5.400    0.000    4.000 
#    3.600    0.000    0.000    0.000    0.000    0.000 
#    0.000    0.000    0.000    0.000    0.000    0.000 
#
# Total GULP energy -247932.159047 kJ/mol
# GULP energy per Si atom -12396.607952 kJ/mol
# Density = 2.109913 g / cm^3
# Si number density = 21.147264 Si / 1000 Ang^3
#
#
#
# Elastic Constant Matrix: (Units=GPa)
#
#
# Indices 1 2 3 4 5 6 
#
# 1 127.8108 59.8083 47.1595 0.0000 6.1386 0.0000
# 2 59.8083 145.9502 78.4928 0.0000 5.7880 0.0000
# 3 47.1595 78.4928 107.2059 0.0000 5.5313 0.0000
# 4 0.0000 0.0000 0.0000 41.4726 0.0000 -4.9855
# 5 6.1386 5.7880 5.5313 0.0000 34.1157 0.0000
# 6 0.0000 0.0000 0.0000 -4.9855 0.0000 11.3040
#
#
#
# Elastic Compliance Matrix: (Units=1/GPa)
#
#
# Indices 1 2 3 4 5 6 
#
# 1 0.010046 -0.002852 -0.002282 0.000000 -0.000954 0.000000
# 2 -0.002852 0.012123 -0.007605 0.000000 -0.000311 0.000000
# 3 -0.002282 -0.007605 0.015946 0.000000 -0.000884 0.000000
# 4 0.000000 0.000000 0.000000 0.025462 0.000000 0.011230
# 5 -0.000954 -0.000311 -0.000884 0.000000 0.029680 0.000000
# 6 0.000000 0.000000 0.000000 0.011230 0.000000 0.093417
#
#
# Mechanical properties :
#
#
# Convention : Reuss Voigt Hill
#
# Bulk Modulus (GPa) = 79.13686 83.54310 81.33998
# Shear Modulus (GPa) = 23.10913 30.41220 26.76067
#
# Velocity S-wave (km/s) = 3.30930 3.79636 3.56117
# Velocity P-wave (km/s) = 7.21838 7.66862 7.44690
#
# Compressibility (1/GPa) = 0.01263634
#
# Stress axis : x y z
#
# Youngs Moduli (GPa) = 99.53822 82.48925 62.71178
#
# Poissons Ratio (x) = 0.23523 0.14313
# Poissons Ratio (y) = 0.28384 0.47695
# Poissons Ratio (z) = 0.22718 0.62737
#
# Static dielectric constant tensor:
#      x y z
#    x 4.008130 0.000000 0.077960 
#    y 0.000000 2.755670 0.000000 
#    z 0.077960 0.000000 4.047700 
# 
# 
# High freq. dielectric constant tensor:
#      x y z
#    x 1.851800 0.000000 -0.001650 
#    y 0.000000 1.822090 0.000000 
#    z -0.001650 0.000000 1.822490 
# 
# From -- ./inp_files/11682.got.cif
#   From: 2010.06.25/outbox.cif.g09.slc.cpg/sg13_6_cif.got.tgz:11682.got - 2010.06.28 04:50:58.
