data_PCOD8120822
_publ_section_title
;
Structure prediction by ZEFSAII (Michael W. Deem and Ramdas Pophale) SiO2 
 PCOD8120822
Probable space group: P 2/C
;
_chemical_formula_sum "Si O2"
_cell_formula_units_Z 26
_cell_length_a 13.574812
_cell_length_b 15.943313
_cell_length_c 8.742680
_cell_angle_alpha 90.000000
_cell_angle_beta 40.017982
_cell_angle_gamma 90.000000
_cell_volume 1216.709394
_symmetry_space_group_name_H-M "P 2/C"
_symmetry_group_IT_number 13
_symmetry_cell_setting 'monoclinic'
loop_
_space_group_symop_operation_xyz
x,y,z
-x,y,1/2-z
-x,-y,-z
x,-y,1/2+z
loop_
_atom_site_type_symbol
_atom_site_label
_atom_site_fract_x
_atom_site_fract_y
_atom_site_fract_z
Si Si1 0.000000 0.644333 0.750000
Si Si2 0.689555 0.556607 0.125894
Si Si3 0.046993 0.224726 0.935033
Si Si4 0.754708 0.773145 0.587482
Si Si5 0.349059 0.945036 0.839654
Si Si6 0.395049 0.606372 0.613149
Si Si7 0.850258 0.947418 0.144382
O O1 0.138308 0.582700 0.547726
O O2 0.988705 0.701031 0.612668
O O3 0.579545 0.609387 0.372417
O O4 0.660867 0.458126 0.190063
O O5 0.664734 0.574768 0.978177
O O6 0.184684 0.251523 0.655080
O O7 0.103164 0.145201 0.972528
O O8 0.898428 0.197228 0.016815
O O9 0.630800 0.849913 0.746240
O O10 0.665585 0.696472 0.768618
O O11 0.500000 0.977992 0.750000
O O12 0.290999 0.012268 0.783044
O O13 0.206217 0.933429 0.118531
O O14 0.000000 0.000000 0.000000
#
# Coordination Sequence:
#
# PCOD8120822 Si02
#       7
#     2   4   4   4   4   4   4
#     4  12  24  40  62 102 126 160 230 276 316 394
#     4  10  24  41  65  94 130 172 217 263 335 392
#     4  10  23  38  64  97 122 171 220 270 328 391
#     4  10  21  43  66  90 131 172 219 271 330 395
#     4  11  24  41  65 100 129 168 223 274 332 391
#     4  10  22  45  65  92 131 176 213 270 330 395
#     4  11  22  41  67  89 128 177 216 265 333 398
#
# _framework density 21.369112999999999
#
# number of rings (size 3 to 8) (size 9 to 14) (size 15 to 20)
#    0.000    1.538    3.077    0.923    4.308    4.308 
#    2.769    0.000    0.000    0.000    0.000    0.000 
#    0.000    0.000    0.000    0.000    0.000    0.000 
#
# Total GULP energy -322153.519520 kJ/mol
# GULP energy per Si atom -12390.519982 kJ/mol
# Density = 2.132048 g / cm^3
# Si number density = 21.369113 Si / 1000 Ang^3
#
#
#
# Elastic Constant Matrix: (Units=GPa)
#
#
# Indices 1 2 3 4 5 6 
#
# 1 103.1937 51.0511 35.1861 0.0000 -13.5596 0.0000
# 2 51.0511 134.4932 59.4182 0.0000 -6.2579 0.0000
# 3 35.1861 59.4182 94.1080 0.0000 -8.6870 0.0000
# 4 0.0000 0.0000 0.0000 33.8184 0.0000 -0.5609
# 5 -13.5596 -6.2579 -8.6870 0.0000 34.0606 0.0000
# 6 0.0000 0.0000 0.0000 -0.5609 0.0000 32.0626
#
#
#
# Elastic Compliance Matrix: (Units=1/GPa)
#
#
# Indices 1 2 3 4 5 6 
#
# 1 0.012754 -0.003761 -0.002037 0.000000 0.003867 0.000000
# 2 -0.003761 0.011423 -0.005889 0.000000 -0.000901 0.000000
# 3 -0.002037 -0.005889 0.015291 0.000000 0.002007 0.000000
# 4 0.000000 0.000000 0.000000 0.029578 0.000000 0.000517
# 5 0.003867 -0.000901 0.002007 0.000000 0.031245 0.000000
# 6 0.000000 0.000000 0.000000 0.000517 0.000000 0.031198
#
#
# Mechanical properties :
#
#
# Convention : Reuss Voigt Hill
#
# Bulk Modulus (GPa) = 62.13655 69.23397 65.68526
# Shear Modulus (GPa) = 31.20547 32.39761 31.80154
#
# Velocity S-wave (km/s) = 3.82554 3.89793 3.86191
# Velocity P-wave (km/s) = 6.97523 7.26140 7.11975
#
# Compressibility (1/GPa) = 0.01609359
#
# Stress axis : x y z
#
# Youngs Moduli (GPa) = 78.40753 87.54351 65.39748
#
# Poissons Ratio (x) = 0.32929 0.13320
# Poissons Ratio (y) = 0.29492 0.38513
# Poissons Ratio (z) = 0.15970 0.51554
#
# Static dielectric constant tensor:
#      x y z
#    x 3.690260 0.000000 -0.025930 
#    y 0.000000 7.527090 0.000000 
#    z -0.025930 0.000000 4.030060 
# 
# 
# High freq. dielectric constant tensor:
#      x y z
#    x 1.834260 0.000000 -0.001440 
#    y 0.000000 1.836860 0.000000 
#    z -0.001440 0.000000 1.847880 
# 
# From -- ./inp_files/19813.got.cif
#   From: 2010.06.25/outbox.cif.g09.slc.cpg/sg13_10_cif.got.tgz:19813.got - 2010.06.28 04:50:58.
