data_PCOD8120846
_publ_section_title
;
Structure prediction by ZEFSAII (Michael W. Deem and Ramdas Pophale) SiO2 
 PCOD8120846
Probable space group: P 2/C
;
_chemical_formula_sum "Si O2"
_cell_formula_units_Z 20
_cell_length_a 10.284306
_cell_length_b 6.904705
_cell_length_c 16.297989
_cell_angle_alpha 90.000000
_cell_angle_beta 52.025409
_cell_angle_gamma 90.000000
_cell_volume 912.297926
_symmetry_space_group_name_H-M "P 2/C"
_symmetry_group_IT_number 13
_symmetry_cell_setting 'monoclinic'
loop_
_space_group_symop_operation_xyz
x,y,z
-x,y,1/2-z
-x,-y,-z
x,-y,1/2+z
loop_
_atom_site_type_symbol
_atom_site_label
_atom_site_fract_x
_atom_site_fract_y
_atom_site_fract_z
Si Si1 0.414642 0.269323 0.864269
Si Si2 0.640602 0.108313 0.897324
Si Si3 0.888195 0.161721 0.215080
Si Si4 0.828362 0.053984 0.976009
Si Si5 0.169130 0.596252 0.908529
O O1 0.500000 0.180824 0.750000
O O2 0.562654 0.287102 0.875007
O O3 0.328219 0.471532 0.873701
O O4 0.282639 0.127683 0.955698
O O5 0.770042 0.173053 0.916965
O O6 0.725577 0.954289 0.803462
O O7 0.500000 0.000000 0.000000
O O8 0.832979 0.358439 0.188584
O O9 0.000000 0.221390 0.250000
O O10 0.989493 0.024457 0.113201
O O11 0.822947 0.196687 0.053093
O O12 0.000000 0.500000 0.000000
#
# Coordination Sequence:
#
# PCOD8120846 Si02
#       5
#     4   4   4   4   4
#     4  11  24  41  64  99 134 169 219 276 337 396
#     4   9  21  41  69  94 126 174 217 270 339 390
#     4  10  21  43  72  96 133 182 225 275 335 402
#     4  10  22  44  70  90 131 176 222 275 329 403
#     4  12  25  40  66 100 132 174 225 275 327 399
#
# _framework density 21.922664000000001
#
# number of rings (size 3 to 8) (size 9 to 14) (size 15 to 20)
#    0.000    1.600    2.000    1.800    2.800    4.800 
#    3.600    0.000    0.000    0.000    0.000    0.000 
#    0.000    0.000    0.000    0.000    0.000    0.000 
#
# Total GULP energy -247843.452179 kJ/mol
# GULP energy per Si atom -12392.172609 kJ/mol
# Density = 2.187277 g / cm^3
# Si number density = 21.922664 Si / 1000 Ang^3
#
#
#
# Elastic Constant Matrix: (Units=GPa)
#
#
# Indices 1 2 3 4 5 6 
#
# 1 142.7207 64.8174 39.1201 0.0000 15.1122 0.0000
# 2 64.8174 83.0464 33.5346 0.0000 11.7001 0.0000
# 3 39.1201 33.5346 133.4192 0.0000 -8.6057 0.0000
# 4 0.0000 0.0000 0.0000 19.0165 0.0000 5.8294
# 5 15.1122 11.7001 -8.6057 0.0000 38.7812 0.0000
# 6 0.0000 0.0000 0.0000 5.8294 0.0000 42.5386
#
#
#
# Elastic Compliance Matrix: (Units=1/GPa)
#
#
# Indices 1 2 3 4 5 6 
#
# 1 0.011212 -0.007829 -0.001470 0.000000 -0.002334 0.000000
# 2 -0.007829 0.019836 -0.002921 0.000000 -0.003582 0.000000
# 3 -0.001470 -0.002921 0.008882 0.000000 0.003425 0.000000
# 4 0.000000 0.000000 0.000000 0.054892 0.000000 -0.007522
# 5 -0.002334 -0.003582 0.003425 0.000000 0.028536 0.000000
# 6 0.000000 0.000000 0.000000 -0.007522 0.000000 0.024539
#
#
# Mechanical properties :
#
#
# Convention : Reuss Voigt Hill
#
# Bulk Modulus (GPa) = 64.56157 70.45895 67.51026
# Shear Modulus (GPa) = 28.16908 34.84822 31.50865
#
# Velocity S-wave (km/s) = 3.58848 3.99130 3.79524
# Velocity P-wave (km/s) = 6.83251 7.31096 7.07578
#
# Compressibility (1/GPa) = 0.01548909
#
# Stress axis : x y z
#
# Youngs Moduli (GPa) = 89.18850 50.41351 112.59355
#
# Poissons Ratio (x) = 0.39467 0.16556
# Poissons Ratio (y) = 0.69822 0.32892
# Poissons Ratio (z) = 0.13114 0.14727
#
# Static dielectric constant tensor:
#      x y z
#    x 4.953670 0.000000 0.278260 
#    y 0.000000 3.637170 0.000000 
#    z 0.278260 0.000000 4.240470 
# 
# 
# High freq. dielectric constant tensor:
#      x y z
#    x 1.885980 0.000000 0.005990 
#    y 0.000000 1.818170 0.000000 
#    z 0.005990 0.000000 1.883880 
# 
# From -- ./inp_files/65243.got.cif
#   From: 2010.06.25/outbox.cif.g09.slc.cpg/sg13_33_cif.got.tgz:65243.got - 2010.06.28 04:50:58.
