data_PCOD8120303
_publ_section_title
;
Structure prediction by ZEFSAII (Michael W. Deem and Ramdas Pophale) SiO2 
 PCOD8120303
Probable space group: P 2/C
;
_chemical_formula_sum "Si O2"
_cell_formula_units_Z 28
_cell_length_a 25.027116
_cell_length_b 9.506040
_cell_length_c 8.339633
_cell_angle_alpha 90.000000
_cell_angle_beta 42.977002
_cell_angle_gamma 90.000000
_cell_volume 1352.551159
_symmetry_space_group_name_H-M "P 2/C"
_symmetry_group_IT_number 13
_symmetry_cell_setting 'monoclinic'
loop_
_space_group_symop_operation_xyz
x,y,z
-x,y,1/2-z
-x,-y,-z
x,-y,1/2+z
loop_
_atom_site_type_symbol
_atom_site_label
_atom_site_fract_x
_atom_site_fract_y
_atom_site_fract_z
Si Si1 0.491872 0.657737 0.957445
Si Si2 0.198988 0.720276 0.617631
Si Si3 0.161969 0.503422 0.966208
Si Si4 0.941941 0.609717 0.055377
Si Si5 0.357037 0.845054 0.352087
Si Si6 0.424867 0.111810 0.023140
Si Si7 0.972792 0.852478 0.492222
O O1 0.500000 0.667100 0.750000
O O2 0.556736 0.755199 0.903199
O O3 0.500000 0.500000 0.000000
O O4 0.404962 0.707582 0.194475
O O5 0.205532 0.603476 0.744374
O O6 0.210445 0.631789 0.426778
O O7 0.268742 0.832090 0.481349
O O8 0.119135 0.812205 0.795985
O O9 0.081273 0.433730 0.073692
O O10 0.138893 0.602600 0.165482
O O11 0.000000 0.500000 0.000000
O O12 0.978972 0.761530 0.986400
O O13 0.355429 0.852375 0.549944
O O14 0.399707 0.982067 0.187828
O O15 0.500000 0.070334 0.750000
O O16 0.000000 0.000000 0.500000
O O17 0.000000 0.827947 0.250000
#
# Coordination Sequence:
#
# PCOD8120303 Si02
#       7
#     4   4   4   4   4   4   4
#     4  11  22  40  71 102 131 168 221 267 309 371
#     4  11  25  41  62  94 129 165 212 272 332 382
#     4  10  21  38  65  89 114 158 214 264 318 378
#     4  11  18  37  68  86 108 156 219 264 308 377
#     4  11  23  42  64  95 135 169 217 256 326 385
#     4  10  21  42  69  94 126 179 216 254 305 395
#     4  12  26  40  60  89 125 160 215 266 323 385
#
# _framework density 20.701619999999998
#
# number of rings (size 3 to 8) (size 9 to 14) (size 15 to 20)
#    0.000    1.143    4.286    4.714    2.000    3.429 
#    0.000    2.857    0.000    0.000    0.000    0.000 
#    0.000    0.000    0.000    0.000    0.000    0.000 
#
# Total GULP energy -346994.005760 kJ/mol
# GULP energy per Si atom -12392.643063 kJ/mol
# Density = 2.065450 g / cm^3
# Si number density = 20.701620 Si / 1000 Ang^3
#
#
#
# Elastic Constant Matrix: (Units=GPa)
#
#
# Indices 1 2 3 4 5 6 
#
# 1 124.6257 58.7557 42.0990 0.0000 5.5360 0.0000
# 2 58.7557 156.6537 47.1706 0.0000 -2.8486 0.0000
# 3 42.0990 47.1706 62.8817 0.0000 9.3697 0.0000
# 4 0.0000 0.0000 0.0000 21.3712 0.0000 4.4645
# 5 5.5360 -2.8486 9.3697 0.0000 39.0636 0.0000
# 6 0.0000 0.0000 0.0000 4.4645 0.0000 39.2643
#
#
#
# Elastic Compliance Matrix: (Units=1/GPa)
#
#
# Indices 1 2 3 4 5 6 
#
# 1 0.011075 -0.002518 -0.005460 0.000000 -0.000444 0.000000
# 2 -0.002518 0.008999 -0.005409 0.000000 0.002310 0.000000
# 3 -0.005460 -0.005409 0.024432 0.000000 -0.005481 0.000000
# 4 0.000000 0.000000 0.000000 0.047931 0.000000 -0.005450
# 5 -0.000444 0.002310 -0.005481 0.000000 0.027145 0.000000
# 6 0.000000 0.000000 0.000000 -0.005450 0.000000 0.026088
#
#
# Mechanical properties :
#
#
# Convention : Reuss Voigt Hill
#
# Bulk Modulus (GPa) = 56.39236 71.13463 63.76349
# Shear Modulus (GPa) = 28.03412 33.01553 30.52482
#
# Velocity S-wave (km/s) = 3.68394 3.99786 3.84411
# Velocity P-wave (km/s) = 6.73757 7.46639 7.11132
#
# Compressibility (1/GPa) = 0.01773290
#
# Stress axis : x y z
#
# Youngs Moduli (GPa) = 90.29174 111.12861 40.92947
#
# Poissons Ratio (x) = 0.27982 0.22347
# Poissons Ratio (y) = 0.22735 0.22138
# Poissons Ratio (z) = 0.49298 0.60107
#
# Static dielectric constant tensor:
#      x y z
#    x 4.204230 0.000000 0.350090 
#    y 0.000000 3.768710 0.000000 
#    z 0.350090 0.000000 4.026700 
# 
# 
# High freq. dielectric constant tensor:
#      x y z
#    x 1.824230 0.000000 0.023170 
#    y 0.000000 1.810590 0.000000 
#    z 0.023170 0.000000 1.796250 
# 
# From -- ./inp_files/24410.got.cif
#   From: 2010.06.25/outbox.cif.g09.slc.cpg/sg13_13_cif.got.tgz:24410.got - 2010.06.28 04:50:58.
