data_PCOD8120244
_publ_section_title
;
Structure prediction by ZEFSAII (Michael W. Deem and Ramdas Pophale) SiO2 
 PCOD8120244
Probable space group: P 2/C
;
_chemical_formula_sum "Si O2"
_cell_formula_units_Z 18
_cell_length_a 10.185235
_cell_length_b 9.598468
_cell_length_c 8.415409
_cell_angle_alpha 90.000000
_cell_angle_beta 60.693110
_cell_angle_gamma 90.000000
_cell_volume 717.414047
_symmetry_space_group_name_H-M "P 2/C"
_symmetry_group_IT_number 13
_symmetry_cell_setting 'monoclinic'
loop_
_space_group_symop_operation_xyz
x,y,z
-x,y,1/2-z
-x,-y,-z
x,-y,1/2+z
loop_
_atom_site_type_symbol
_atom_site_label
_atom_site_fract_x
_atom_site_fract_y
_atom_site_fract_z
Si Si1 0.836294 0.858875 0.910593
Si Si2 0.775990 0.141356 0.105872
Si Si3 0.055955 0.651953 0.423121
Si Si4 0.500000 0.566942 0.250000
Si Si5 0.329130 0.651076 0.052104
O O1 0.728276 0.845390 0.819667
O O2 0.000000 0.901938 0.750000
O O3 0.832994 0.710607 0.003387
O O4 0.786507 0.978959 0.060668
O O5 0.650423 0.208508 0.063990
O O6 0.928872 0.229355 0.985988
O O7 0.151900 0.635217 0.203851
O O8 0.000000 0.500000 0.500000
O O9 0.428514 0.660859 0.153019
O O10 0.371181 0.474467 0.409520
#
# Coordination Sequence:
#
# PCOD8120244 Si02
#       5
#     4   4   4   2   4
#     4  10  21  38  60  97 140 169 199 245 326 402
#     4  11  22  39  66  97 131 169 204 259 325 389
#     4  11  23  38  65 104 135 161 202 264 328 387
#     4  10  26  44  62  90 126 174 218 272 314 368
#     4  11  23  42  65  90 128 169 218 264 320 378
#
# _framework density 25.090115000000001
#
# number of rings (size 3 to 8) (size 9 to 14) (size 15 to 20)
#    0.000    1.333    0.000    7.333    0.000   16.000 
#    0.000    0.000    0.000   16.000    0.000    0.000 
#    0.000    0.000    0.000    0.000    0.000    0.000 
#
# Total GULP energy -223121.200966 kJ/mol
# GULP energy per Si atom -12395.622276 kJ/mol
# Density = 2.503301 g / cm^3
# Si number density = 25.090115 Si / 1000 Ang^3
#
#
#
# Elastic Constant Matrix: (Units=GPa)
#
#
# Indices 1 2 3 4 5 6 
#
# 1 63.7057 55.9491 38.7746 0.0000 39.7734 0.0000
# 2 55.9491 179.4532 62.2963 0.0000 33.9665 0.0000
# 3 38.7746 62.2963 128.3511 0.0000 40.4063 0.0000
# 4 0.0000 0.0000 0.0000 35.1835 0.0000 18.2153
# 5 39.7734 33.9665 40.4063 0.0000 56.7586 0.0000
# 6 0.0000 0.0000 0.0000 18.2153 0.0000 39.8086
#
#
#
# Elastic Compliance Matrix: (Units=1/GPa)
#
#
# Indices 1 2 3 4 5 6 
#
# 1 0.034181 -0.006656 -0.001043 0.000000 -0.019227 0.000000
# 2 -0.006656 0.008215 -0.002445 0.000000 0.001489 0.000000
# 3 -0.001043 -0.002445 0.011087 0.000000 -0.005699 0.000000
# 4 0.000000 0.000000 0.000000 0.037246 0.000000 -0.017043
# 5 -0.019227 0.001489 -0.005699 0.000000 0.034258 0.000000
# 6 0.000000 0.000000 0.000000 -0.017043 0.000000 0.032918
#
#
# Mechanical properties :
#
#
# Convention : Reuss Voigt Hill
#
# Bulk Modulus (GPa) = 30.12435 76.17222 53.14829
# Shear Modulus (GPa) = 26.41918 40.64949 33.53434
#
# Velocity S-wave (km/s) = 3.24847 4.02946 3.65986
# Velocity P-wave (km/s) = 5.10907 7.21624 6.25207
#
# Compressibility (1/GPa) = 0.03319573
#
# Stress axis : x y z
#
# Youngs Moduli (GPa) = 29.25597 121.73538 90.19654
#
# Poissons Ratio (x) = 0.81022 0.09406
# Poissons Ratio (y) = 0.19472 0.22053
# Poissons Ratio (z) = 0.03051 0.29764
#
# Static dielectric constant tensor:
#      x y z
#    x 4.849230 0.000000 0.627860 
#    y 0.000000 4.325850 0.000000 
#    z 0.627860 0.000000 5.188920 
# 
# 
# High freq. dielectric constant tensor:
#      x y z
#    x 1.989140 0.000000 0.036620 
#    y 0.000000 1.989370 0.000000 
#    z 0.036620 0.000000 2.013440 
# 
# From -- ./inp_files/14516.got.cif
#   From: 2010.06.25/outbox.cif.g09.slc.cpg/sg13_8_cif.got.tgz:14516.got - 2010.06.28 04:50:58.
