data_PCOD8120215
_publ_section_title
;
Structure prediction by ZEFSAII (Michael W. Deem and Ramdas Pophale) SiO2 
 PCOD8120215
Probable space group: P 2/C
;
_chemical_formula_sum "Si O2"
_cell_formula_units_Z 26
_cell_length_a 12.722813
_cell_length_b 19.996762
_cell_length_c 5.067387
_cell_angle_alpha 90.000000
_cell_angle_beta 111.373847
_cell_angle_gamma 90.000000
_cell_volume 1200.549988
_symmetry_space_group_name_H-M "P 2/C"
_symmetry_group_IT_number 13
_symmetry_cell_setting 'monoclinic'
loop_
_space_group_symop_operation_xyz
x,y,z
-x,y,1/2-z
-x,-y,-z
x,-y,1/2+z
loop_
_atom_site_type_symbol
_atom_site_label
_atom_site_fract_x
_atom_site_fract_y
_atom_site_fract_z
Si Si1 0.378995 0.157213 0.750433
Si Si2 0.125412 0.470286 0.652412
Si Si3 0.188218 0.677092 0.316357
Si Si4 0.316695 0.716134 0.939201
Si Si5 0.000000 0.860160 0.750000
Si Si6 0.800759 0.046761 0.902872
Si Si7 0.500000 0.753315 0.750000
Si Si8 0.000000 0.221911 0.750000
O O1 0.500000 0.136304 0.750000
O O2 0.307423 0.203709 0.481958
O O3 0.313453 0.088869 0.734883
O O4 0.399610 0.200542 0.036716
O O5 0.189845 0.487504 0.439791
O O6 0.123314 0.392498 0.720122
O O7 0.000000 0.500000 0.500000
O O8 0.229762 0.684720 0.653614
O O9 0.096886 0.735208 0.192161
O O10 0.291434 0.681052 0.199200
O O11 0.443806 0.707433 0.931243
O O12 0.905179 0.903612 0.519802
O O13 0.050902 0.818924 0.546620
O O14 0.805932 0.002209 0.651248
#
# Coordination Sequence:
#
# PCOD8120215 Si02
#       8
#     4   4   4   4   2   4   2   2
#     4  10  23  42  69  97 135 162 207 280 362 403
#     4  10  21  38  59  86 136 186 215 258 312 368
#     4  12  23  38  64 102 134 173 229 261 316 407
#     4  11  23  40  66  99 133 168 209 273 337 405
#     4  12  26  45  66  85 130 180 222 276 338 388
#     4  12  27  44  65  89 123 175 228 272 318 408
#     4  10  22  44  70  98 138 164 202 278 368 408
#     4  12  24  39  64  95 128 168 212 286 328 374
#
# _framework density 21.656742000000001
#
# number of rings (size 3 to 8) (size 9 to 14) (size 15 to 20)
#    0.000    0.923    1.538    6.000    4.308    3.077 
#    0.000    0.000    0.000    0.000    0.000   10.769 
#    0.000    0.000    0.000    0.000    0.000    0.000 
#
# Total GULP energy -322134.256089 kJ/mol
# GULP energy per Si atom -12389.779080 kJ/mol
# Density = 2.160745 g / cm^3
# Si number density = 21.656742 Si / 1000 Ang^3
#
#
#
# Elastic Constant Matrix: (Units=GPa)
#
#
# Indices 1 2 3 4 5 6 
#
# 1 86.1966 47.6571 39.9662 0.0000 -12.4542 0.0000
# 2 47.6571 126.1194 58.1018 0.0000 -0.3426 0.0000
# 3 39.9662 58.1018 145.7345 0.0000 -23.8683 0.0000
# 4 0.0000 0.0000 0.0000 33.1269 0.0000 0.0827
# 5 -12.4542 -0.3426 -23.8683 0.0000 40.2346 0.0000
# 6 0.0000 0.0000 0.0000 0.0827 0.0000 44.9424
#
#
#
# Elastic Compliance Matrix: (Units=1/GPa)
#
#
# Indices 1 2 3 4 5 6 
#
# 1 0.015795 -0.005213 -0.001617 0.000000 0.003886 0.000000
# 2 -0.005213 0.011657 -0.003839 0.000000 -0.003792 0.000000
# 3 -0.001617 -0.003839 0.009690 0.000000 0.005215 0.000000
# 4 0.000000 0.000000 0.000000 0.030187 0.000000 -0.000056
# 5 0.003886 -0.003792 0.005215 0.000000 0.029118 0.000000
# 6 0.000000 0.000000 0.000000 -0.000056 0.000000 0.022251
#
#
# Mechanical properties :
#
#
# Convention : Reuss Voigt Hill
#
# Bulk Modulus (GPa) = 63.27430 72.16672 67.72051
# Shear Modulus (GPa) = 34.41081 37.81580 36.11330
#
# Velocity S-wave (km/s) = 3.99045 4.18322 4.08797
# Velocity P-wave (km/s) = 7.10717 7.53179 7.32256
#
# Compressibility (1/GPa) = 0.01580420
#
# Stress axis : x y z
#
# Youngs Moduli (GPa) = 63.31265 85.78500 103.20120
#
# Poissons Ratio (x) = 0.44719 0.16686
# Poissons Ratio (y) = 0.33005 0.39618
# Poissons Ratio (z) = 0.10237 0.32932
#
# Static dielectric constant tensor:
#      x y z
#    x 3.820390 0.000000 0.016030 
#    y 0.000000 3.815100 0.000000 
#    z 0.016030 0.000000 3.618830 
# 
# 
# High freq. dielectric constant tensor:
#      x y z
#    x 1.841800 0.000000 -0.023750 
#    y 0.000000 1.831170 0.000000 
#    z -0.023750 0.000000 1.872570 
# 
# From -- ./inp_files/5309.got.cif
#   From: 2010.06.25/outbox.cif.g09.slc.cpg/sg13_3_cif.got.tgz:5309.got - 2010.06.28 04:50:58.
