data_PCOD8120295
_publ_section_title
;
Structure prediction by ZEFSAII (Michael W. Deem and Ramdas Pophale) SiO2 
 PCOD8120295
Probable space group: P 2/C
;
_chemical_formula_sum "Si O2"
_cell_formula_units_Z 22
_cell_length_a 13.301132
_cell_length_b 8.009858
_cell_length_c 9.824984
_cell_angle_alpha 90.000000
_cell_angle_beta 96.742227
_cell_angle_gamma 90.000000
_cell_volume 1039.516600
_symmetry_space_group_name_H-M "P 2/C"
_symmetry_group_IT_number 13
_symmetry_cell_setting 'monoclinic'
loop_
_space_group_symop_operation_xyz
x,y,z
-x,y,1/2-z
-x,-y,-z
x,-y,1/2+z
loop_
_atom_site_type_symbol
_atom_site_label
_atom_site_fract_x
_atom_site_fract_y
_atom_site_fract_z
Si Si1 0.300577 0.211649 0.739971
Si Si2 0.567268 0.479952 0.641111
Si Si3 0.855043 0.308397 0.555414
Si Si4 0.000000 0.875009 0.250000
Si Si5 0.239172 0.646665 0.943823
Si Si6 0.812530 0.101505 0.283742
O O1 0.405907 0.284494 0.818764
O O2 0.213088 0.252354 0.830875
O O3 0.286409 0.301611 0.593850
O O4 0.290755 0.010813 0.718077
O O5 0.500000 0.560285 0.750000
O O6 0.500000 0.500000 0.500000
O O7 0.672507 0.577657 0.640957
O O8 0.847911 0.508644 0.541751
O O9 0.816674 0.229490 0.408870
O O10 0.965889 0.243160 0.617438
O O11 0.911964 0.987680 0.300053
O O12 0.188410 0.802287 0.860024
#
# Coordination Sequence:
#
# PCOD8120295 Si02
#       6
#     4   4   4   2   4   4
#     4  10  21  39  61  92 128 164 204 259 320 366
#     4  11  22  41  67  95 130 169 212 259 307 380
#     4  10  21  38  64  89 123 168 212 255 312 376
#     4  10  22  40  62  96 130 164 208 266 314 380
#     4  11  23  41  65  92 126 169 212 261 322 377
#     4  11  23  42  65  92 129 168 209 266 321 375
#
# _framework density 21.163682999999999
#
# number of rings (size 3 to 8) (size 9 to 14) (size 15 to 20)
#    0.000    1.455    1.818    4.909    2.545    2.182 
#    0.000    7.273    0.000    0.000    0.000    0.000 
#    0.000    0.000    0.000    0.000    0.000    0.000 
#
# Total GULP energy -272666.426965 kJ/mol
# GULP energy per Si atom -12393.928498 kJ/mol
# Density = 2.111551 g / cm^3
# Si number density = 21.163683 Si / 1000 Ang^3
#
#
#
# Elastic Constant Matrix: (Units=GPa)
#
#
# Indices 1 2 3 4 5 6 
#
# 1 75.7284 42.4611 38.4419 0.0000 10.4580 0.0000
# 2 42.4611 121.1928 47.3496 0.0000 18.7566 0.0000
# 3 38.4419 47.3496 141.5602 0.0000 15.6694 0.0000
# 4 0.0000 0.0000 0.0000 33.2635 0.0000 -6.3150
# 5 10.4580 18.7566 15.6694 0.0000 40.4176 0.0000
# 6 0.0000 0.0000 0.0000 -6.3150 0.0000 20.7836
#
#
#
# Elastic Compliance Matrix: (Units=1/GPa)
#
#
# Indices 1 2 3 4 5 6 
#
# 1 0.017601 -0.004799 -0.003048 0.000000 -0.001146 0.000000
# 2 -0.004799 0.011245 -0.002109 0.000000 -0.003160 0.000000
# 3 -0.003048 -0.002109 0.008778 0.000000 -0.001636 0.000000
# 4 0.000000 0.000000 0.000000 0.031903 0.000000 0.009694
# 5 -0.001146 -0.003160 -0.001636 0.000000 0.027139 0.000000
# 6 0.000000 0.000000 0.000000 0.009694 0.000000 0.051060
#
#
# Mechanical properties :
#
#
# Convention : Reuss Voigt Hill
#
# Bulk Modulus (GPa) = 56.45061 66.10962 61.28012
# Shear Modulus (GPa) = 28.81152 32.90818 30.85985
#
# Velocity S-wave (km/s) = 3.69367 3.94755 3.82272
# Velocity P-wave (km/s) = 6.70240 7.21683 6.96437
#
# Compressibility (1/GPa) = 0.01771460
#
# Stress axis : x y z
#
# Youngs Moduli (GPa) = 56.81471 88.92562 113.91889
#
# Poissons Ratio (x) = 0.42672 0.34721
# Poissons Ratio (y) = 0.27263 0.24020
# Poissons Ratio (z) = 0.17316 0.18750
#
# Static dielectric constant tensor:
#      x y z
#    x 3.999770 0.000000 0.166240 
#    y 0.000000 4.281460 0.000000 
#    z 0.166240 0.000000 3.976200 
# 
# 
# High freq. dielectric constant tensor:
#      x y z
#    x 1.812210 0.000000 -0.000180 
#    y 0.000000 1.827130 0.000000 
#    z -0.000180 0.000000 1.850060 
# 
# From -- ./inp_files/18176.got.cif
#   From: 2010.06.25/outbox.cif.g09.slc.cpg/sg13_10_cif.got.tgz:18176.got - 2010.06.28 04:50:58.
