data_PCOD8120719
_publ_section_title
;
Structure prediction by ZEFSAII (Michael W. Deem and Ramdas Pophale) SiO2 
 PCOD8120719
Probable space group: P 2/C
;
_chemical_formula_sum "Si O2"
_cell_formula_units_Z 26
_cell_length_a 9.092267
_cell_length_b 14.128822
_cell_length_c 16.004815
_cell_angle_alpha 90.000000
_cell_angle_beta 35.568036
_cell_angle_gamma 90.000000
_cell_volume 1195.927666
_symmetry_space_group_name_H-M "P 2/C"
_symmetry_group_IT_number 13
_symmetry_cell_setting 'monoclinic'
loop_
_space_group_symop_operation_xyz
x,y,z
-x,y,1/2-z
-x,-y,-z
x,-y,1/2+z
loop_
_atom_site_type_symbol
_atom_site_label
_atom_site_fract_x
_atom_site_fract_y
_atom_site_fract_z
Si Si1 0.698084 0.763007 0.761249
Si Si2 0.254127 0.579903 0.685815
Si Si3 0.359958 0.027232 0.979273
Si Si4 0.361592 0.201303 0.729773
Si Si5 0.285844 0.627355 0.146825
Si Si6 0.000000 0.866655 0.750000
Si Si7 0.194858 0.842326 0.960671
O O1 0.776776 0.651800 0.720857
O O2 0.777667 0.802079 0.815421
O O3 0.394651 0.764424 0.898925
O O4 0.823152 0.828869 0.631428
O O5 0.513085 0.611995 0.520138
O O6 0.277880 0.470824 0.703978
O O7 0.000000 0.590422 0.750000
O O8 0.092254 0.069433 0.130482
O O9 0.520622 0.105095 0.857698
O O10 0.500000 0.000000 0.000000
O O11 0.305624 0.943880 0.938159
O O12 0.500000 0.232596 0.750000
O O13 0.395341 0.287713 0.651215
O O14 0.068616 0.179282 0.876217
O O15 0.000000 0.652174 0.250000
#
# Coordination Sequence:
#
# PCOD8120719 Si02
#       7
#     4   4   4   4   4   2   4
#     4  11  23  43  68  97 137 178 227 285 340 410
#     4  10  21  41  76 104 134 180 237 283 341 416
#     4  12  26  43  69  97 127 182 227 285 333 411
#     4  12  28  45  68 100 142 181 221 290 349 406
#     4  10  23  44  72 105 138 181 231 289 344 411
#     4  12  22  40  68  94 126 174 232 274 332 410
#     4  11  27  45  64 100 139 181 229 281 350 407
#
# _framework density 21.740445999999999
#
# number of rings (size 3 to 8) (size 9 to 14) (size 15 to 20)
#    0.000    0.923    2.308    3.692    6.462    1.231 
#    2.769    0.769    0.000    0.000    0.000    0.000 
#    0.000    0.000    0.000    0.000    0.000    0.000 
#
# Total GULP energy -322237.176710 kJ/mol
# GULP energy per Si atom -12393.737566 kJ/mol
# Density = 2.169096 g / cm^3
# Si number density = 21.740446 Si / 1000 Ang^3
#
#
#
# Elastic Constant Matrix: (Units=GPa)
#
#
# Indices 1 2 3 4 5 6 
#
# 1 84.8967 36.5555 10.2793 0.0000 8.9802 0.0000
# 2 36.5555 139.3708 14.8255 0.0000 21.5688 0.0000
# 3 10.2793 14.8255 90.2363 0.0000 -10.9307 0.0000
# 4 0.0000 0.0000 0.0000 27.5805 0.0000 1.6725
# 5 8.9802 21.5688 -10.9307 0.0000 34.2181 0.0000
# 6 0.0000 0.0000 0.0000 1.6725 0.0000 39.4068
#
#
#
# Elastic Compliance Matrix: (Units=1/GPa)
#
#
# Indices 1 2 3 4 5 6 
#
# 1 0.013474 -0.003091 -0.001269 0.000000 -0.001993 0.000000
# 2 -0.003091 0.009019 -0.001789 0.000000 -0.005445 0.000000
# 3 -0.001269 -0.001789 0.012168 0.000000 0.005348 0.000000
# 4 0.000000 0.000000 0.000000 0.036351 0.000000 -0.001543
# 5 -0.001993 -0.005445 0.005348 0.000000 0.034888 0.000000
# 6 0.000000 0.000000 0.000000 -0.001543 0.000000 0.025442
#
#
# Mechanical properties :
#
#
# Convention : Reuss Voigt Hill
#
# Bulk Modulus (GPa) = 44.71434 48.64715 46.68075
# Shear Modulus (GPa) = 33.09191 37.09731 35.09461
#
# Velocity S-wave (km/s) = 3.90569 4.13531 4.02214
# Velocity P-wave (km/s) = 6.39931 6.72502 6.56419
#
# Compressibility (1/GPa) = 0.02236419
#
# Stress axis : x y z
#
# Youngs Moduli (GPa) = 74.21538 110.87935 82.18074
#
# Poissons Ratio (x) = 0.34270 0.10425
# Poissons Ratio (y) = 0.22938 0.14704
# Poissons Ratio (z) = 0.09415 0.19839
#
# Static dielectric constant tensor:
#      x y z
#    x 4.022790 0.000000 -0.141460 
#    y 0.000000 4.575900 0.000000 
#    z -0.141460 0.000000 4.016570 
# 
# 
# High freq. dielectric constant tensor:
#      x y z
#    x 1.855870 0.000000 -0.022240 
#    y 0.000000 1.868200 0.000000 
#    z -0.022240 0.000000 1.854010 
# 
# From -- ./inp_files/47895.got.cif
#   From: 2010.06.25/outbox.cif.g09.slc.cpg/sg13_24_cif.got.tgz:47895.got - 2010.06.28 04:50:58.
