data_PCOD8120605
_publ_section_title
;
Structure prediction by ZEFSAII (Michael W. Deem and Ramdas Pophale) SiO2 
 PCOD8120605
Probable space group: P 2/C
;
_chemical_formula_sum "Si O2"
_cell_formula_units_Z 22
_cell_length_a 10.615506
_cell_length_b 6.134919
_cell_length_c 21.596656
_cell_angle_alpha 90.000000
_cell_angle_beta 41.579524
_cell_angle_gamma 90.000000
_cell_volume 933.428344
_symmetry_space_group_name_H-M "P 2/C"
_symmetry_group_IT_number 13
_symmetry_cell_setting 'monoclinic'
loop_
_space_group_symop_operation_xyz
x,y,z
-x,y,1/2-z
-x,-y,-z
x,-y,1/2+z
loop_
_atom_site_type_symbol
_atom_site_label
_atom_site_fract_x
_atom_site_fract_y
_atom_site_fract_z
Si Si1 0.906755 0.509178 0.428980
Si Si2 0.316546 0.107308 0.517744
Si Si3 0.698450 0.399970 0.261408
Si Si4 0.628112 0.756600 0.102671
Si Si5 0.500000 0.050509 0.250000
Si Si6 0.714803 0.734547 0.889167
O O1 0.850439 0.763646 0.456376
O O2 0.824626 0.373304 0.517646
O O3 0.807638 0.437608 0.401335
O O4 0.132945 0.489536 0.343778
O O5 0.483719 0.276653 0.474460
O O6 0.409241 0.922898 0.439673
O O7 0.230253 0.981384 0.609257
O O8 0.546018 0.588045 0.329183
O O9 0.609026 0.195262 0.259535
O O10 0.788426 0.315130 0.292827
O O11 0.646168 0.892322 0.159661
#
# Coordination Sequence:
#
# PCOD8120605 Si02
#       6
#     4   4   4   4   2   4
#     4  11  24  43  70 106 138 172 221 285 341 408
#     4  10  21  41  72  99 140 179 217 272 350 405
#     4  12  26  46  68 101 140 179 234 280 336 403
#     4  11  24  45  72  96 135 184 223 285 340 398
#     4  12  26  48  70  94 132 188 234 280 340 400
#     4  10  21  40  70 102 138 179 212 273 343 408
#
# _framework density 23.569026999999998
#
# number of rings (size 3 to 8) (size 9 to 14) (size 15 to 20)
#    0.000    1.091    3.636    1.636    5.091    3.636 
#    3.273    6.364    0.000    0.000    0.000    0.000 
#    0.000    0.000    0.000    0.000    0.000    0.000 
#
# Total GULP energy -272729.028859 kJ/mol
# GULP energy per Si atom -12396.774039 kJ/mol
# Density = 2.351538 g / cm^3
# Si number density = 23.569027 Si / 1000 Ang^3
#
#
#
# Elastic Constant Matrix: (Units=GPa)
#
#
# Indices 1 2 3 4 5 6 
#
# 1 23.4370 29.4265 27.0232 0.0000 14.2496 0.0000
# 2 29.4265 122.5516 70.1488 0.0000 6.0195 0.0000
# 3 27.0232 70.1488 156.4663 0.0000 -8.9155 0.0000
# 4 0.0000 0.0000 0.0000 36.1841 0.0000 14.4649
# 5 14.2496 6.0195 -8.9155 0.0000 35.3545 0.0000
# 6 0.0000 0.0000 0.0000 14.4649 0.0000 23.8641
#
#
#
# Elastic Compliance Matrix: (Units=1/GPa)
#
#
# Indices 1 2 3 4 5 6 
#
# 1 0.102393 -0.014824 -0.013439 0.000000 -0.042134 0.000000
# 2 -0.014824 0.013481 -0.003322 0.000000 0.002842 0.000000
# 3 -0.013439 -0.003322 0.010696 0.000000 0.008679 0.000000
# 4 0.000000 0.000000 0.000000 0.036475 0.000000 -0.022109
# 5 -0.042134 0.002842 0.008679 0.000000 0.046972 0.000000
# 6 0.000000 0.000000 0.000000 -0.022109 0.000000 0.055305
#
#
# Mechanical properties :
#
#
# Convention : Reuss Voigt Hill
#
# Bulk Modulus (GPa) = 15.77280 61.73911 38.75596
# Shear Modulus (GPa) = 14.30106 30.80429 22.55268
#
# Velocity S-wave (km/s) = 2.46595 3.61914 3.09670
# Velocity P-wave (km/s) = 3.84897 6.61182 5.40975
#
# Compressibility (1/GPa) = 0.06340028
#
# Stress axis : x y z
#
# Youngs Moduli (GPa) = 9.76632 74.17758 93.49252
#
# Poissons Ratio (x) = 1.09961 1.25644
# Poissons Ratio (y) = 0.14478 0.31057
# Poissons Ratio (z) = 0.13125 0.24641
#
# Static dielectric constant tensor:
#      x y z
#    x 3.873320 0.000000 0.304890 
#    y 0.000000 4.459960 0.000000 
#    z 0.304890 0.000000 4.402280 
# 
# 
# High freq. dielectric constant tensor:
#      x y z
#    x 1.909500 0.000000 0.017230 
#    y 0.000000 1.947500 0.000000 
#    z 0.017230 0.000000 1.930710 
# 
# From -- ./inp_files/85736.got.cif
#   From: 2010.06.25/outbox.cif.g09.slc.cpg/sg13_43_cif.got.tgz:85736.got - 2010.06.28 04:50:58.
