data_PCOD8120974
_publ_section_title
;
Structure prediction by ZEFSAII (Michael W. Deem and Ramdas Pophale) SiO2 
 PCOD8120974
Probable space group: P 2/C
;
_chemical_formula_sum "Si O2"
_cell_formula_units_Z 24
_cell_length_a 7.598498
_cell_length_b 16.721544
_cell_length_c 9.565725
_cell_angle_alpha 90.000000
_cell_angle_beta 99.668583
_cell_angle_gamma 90.000000
_cell_volume 1198.143798
_symmetry_space_group_name_H-M "P 2/C"
_symmetry_group_IT_number 13
_symmetry_cell_setting 'monoclinic'
loop_
_space_group_symop_operation_xyz
x,y,z
-x,y,1/2-z
-x,-y,-z
x,-y,1/2+z
loop_
_atom_site_type_symbol
_atom_site_label
_atom_site_fract_x
_atom_site_fract_y
_atom_site_fract_z
Si Si1 0.336249 0.687547 0.406865
Si Si2 0.714690 0.851143 0.625179
Si Si3 0.703223 0.835501 0.931126
Si Si4 0.970339 0.577988 0.086040
Si Si5 0.261953 0.291536 0.578203
Si Si6 0.127067 0.979757 0.395375
O O1 0.246707 0.751189 0.497339
O O2 0.236186 0.606668 0.440738
O O3 0.548702 0.674629 0.455281
O O4 0.288004 0.721980 0.246825
O O5 0.800076 0.837436 0.791815
O O6 0.506982 0.839236 0.611482
O O7 0.789100 0.790364 0.514257
O O8 0.745180 0.944081 0.600596
O O9 0.756858 0.903669 0.047683
O O10 0.000000 0.555621 0.250000
O O11 0.104350 0.644352 0.039656
O O12 0.000000 0.500000 0.000000
O O13 0.000000 0.958801 0.250000
O O14 0.000000 0.000000 0.500000
#
# Coordination Sequence:
#
# PCOD8120974 Si02
#       6
#     4   4   4   4   4   4
#     4   9  20  38  60  86 114 151 192 234 288 344
#     4  10  22  40  58  82 114 152 195 241 290 346
#     4  10  22  40  59  81 114 153 195 241 291 345
#     4  10  22  38  59  87 118 150 186 232 286 346
#     4   9  20  38  61  85 115 151 191 237 286 344
#     4  12  25  38  54  84 118 153 196 244 293 338
#
# _framework density 20.030985000000001
#
# number of rings (size 3 to 8) (size 9 to 14) (size 15 to 20)
#    0.000    2.000    1.667    0.500    4.667    2.667 
#    0.000    0.000    0.000    0.000    0.000    0.000 
#    0.000    0.000    0.000    0.000    0.000    0.000 
#
# Total GULP energy -297344.459856 kJ/mol
# GULP energy per Si atom -12389.352494 kJ/mol
# Density = 1.998539 g / cm^3
# Si number density = 20.030985 Si / 1000 Ang^3
#
#
#
# Elastic Constant Matrix: (Units=GPa)
#
#
# Indices 1 2 3 4 5 6 
#
# 1 50.4162 36.1056 27.8592 0.0000 -5.3257 0.0000
# 2 36.1056 98.4882 56.0740 0.0000 1.9495 0.0000
# 3 27.8592 56.0740 110.3156 0.0000 -7.5846 0.0000
# 4 0.0000 0.0000 0.0000 61.5585 0.0000 -13.4393
# 5 -5.3257 1.9495 -7.5846 0.0000 26.7722 0.0000
# 6 0.0000 0.0000 0.0000 -13.4393 0.0000 28.0386
#
#
#
# Elastic Compliance Matrix: (Units=1/GPa)
#
#
# Indices 1 2 3 4 5 6 
#
# 1 0.028218 -0.009323 -0.001993 0.000000 0.005728 0.000000
# 2 -0.009323 0.017636 -0.006961 0.000000 -0.005111 0.000000
# 3 -0.001993 -0.006961 0.013375 0.000000 0.003899 0.000000
# 4 0.000000 0.000000 0.000000 0.018143 0.000000 0.008696
# 5 0.005728 -0.005111 0.003899 0.000000 0.039968 0.000000
# 6 0.000000 0.000000 0.000000 0.008696 0.000000 0.039833
#
#
# Mechanical properties :
#
#
# Convention : Reuss Voigt Hill
#
# Bulk Modulus (GPa) = 44.10498 55.47749 49.79123
# Shear Modulus (GPa) = 24.84002 32.55260 28.69631
#
# Velocity S-wave (km/s) = 3.52530 4.03564 3.78907
# Velocity P-wave (km/s) = 6.21582 7.03357 6.63731
#
# Compressibility (1/GPa) = 0.02267318
#
# Stress axis : x y z
#
# Youngs Moduli (GPa) = 35.43800 56.70231 74.76673
#
# Poissons Ratio (x) = 0.52865 0.14905
# Poissons Ratio (y) = 0.33039 0.52048
# Poissons Ratio (z) = 0.07064 0.39473
#
# Static dielectric constant tensor:
#      x y z
#    x 3.732640 0.000000 -0.081930 
#    y 0.000000 3.336130 0.000000 
#    z -0.081930 0.000000 4.047740 
# 
# 
# High freq. dielectric constant tensor:
#      x y z
#    x 1.790820 0.000000 -0.006260 
#    y 0.000000 1.768850 0.000000 
#    z -0.006260 0.000000 1.791120 
# 
# From -- ./inp_files/12480.got.cif
#   From: 2010.06.25/outbox.cif.g09.slc.cpg/sg13_7_cif.got.tgz:12480.got - 2010.06.28 04:50:58.
