data_PCOD8120159
_publ_section_title
;
Structure prediction by ZEFSAII (Michael W. Deem and Ramdas Pophale) SiO2 
 PCOD8120159
Probable space group: P 2/C
;
_chemical_formula_sum "Si O2"
_cell_formula_units_Z 24
_cell_length_a 15.577666
_cell_length_b 11.353659
_cell_length_c 14.062984
_cell_angle_alpha 90.000000
_cell_angle_beta 152.868715
_cell_angle_gamma 90.000000
_cell_volume 1134.253180
_symmetry_space_group_name_H-M "P 2/C"
_symmetry_group_IT_number 13
_symmetry_cell_setting 'monoclinic'
loop_
_space_group_symop_operation_xyz
x,y,z
-x,y,1/2-z
-x,-y,-z
x,-y,1/2+z
loop_
_atom_site_type_symbol
_atom_site_label
_atom_site_fract_x
_atom_site_fract_y
_atom_site_fract_z
Si Si1 0.000000 0.335861 0.750000
Si Si2 0.917164 0.437780 0.072179
Si Si3 0.105512 0.193032 0.687423
Si Si4 0.611685 0.721080 0.194014
Si Si5 0.500000 0.889324 0.250000
Si Si6 0.816666 0.282110 0.270202
Si Si7 0.857984 0.049479 0.194431
O O1 0.894777 0.421946 0.569544
O O2 0.860462 0.253003 0.674985
O O3 0.000000 0.376634 0.250000
O O4 0.073615 0.403504 0.146916
O O5 0.711007 0.394111 0.836666
O O6 0.265125 0.229098 0.770415
O O7 0.106310 0.051658 0.692811
O O8 0.896157 0.235101 0.448973
O O9 0.604732 0.811976 0.273612
O O10 0.405543 0.691424 0.949006
O O11 0.649355 0.972747 0.448308
O O12 0.874110 0.180001 0.252542
O O13 0.000000 0.033072 0.250000
#
# Coordination Sequence:
#
# PCOD8120159 Si02
#       7
#     2   4   4   4   2   4   4
#     4  10  24  44  60  86 126 172 208 256 304 362
#     4   9  19  39  65  81 121 155 208 259 302 346
#     4  11  23  42  58  91 131 166 198 248 311 376
#     4  10  21  39  65  94 121 153 207 258 308 358
#     4  10  22  36  64  98 124 152 208 258 302 368
#     4  10  21  37  65  95 116 158 210 257 306 365
#     4  11  21  37  64  92 127 166 199 246 314 373
#
# _framework density 21.159298
#
# number of rings (size 3 to 8) (size 9 to 14) (size 15 to 20)
#    0.500    1.333    0.833    5.000    0.000    6.667 
#    0.000    5.000    0.000    0.000    0.000    0.000 
#    0.000    0.000    0.000    0.000    0.000    0.000 
#
# Total GULP energy -297389.903205 kJ/mol
# GULP energy per Si atom -12391.245967 kJ/mol
# Density = 2.111114 g / cm^3
# Si number density = 21.159298 Si / 1000 Ang^3
#
#
#
# Elastic Constant Matrix: (Units=GPa)
#
#
# Indices 1 2 3 4 5 6 
#
# 1 111.9991 36.3569 20.8965 0.0000 11.4369 0.0000
# 2 36.3569 78.8491 27.6207 0.0000 2.5744 0.0000
# 3 20.8965 27.6207 122.4979 0.0000 11.9818 0.0000
# 4 0.0000 0.0000 0.0000 20.1800 0.0000 1.5345
# 5 11.4369 2.5744 11.9818 0.0000 23.2095 0.0000
# 6 0.0000 0.0000 0.0000 1.5345 0.0000 -6.0194
#
#
#
# Elastic Compliance Matrix: (Units=1/GPa)
#
#
# Indices 1 2 3 4 5 6 
#
# 1 0.011038 -0.004818 -0.000334 0.000000 -0.004733 0.000000
# 2 -0.004818 0.015873 -0.002967 0.000000 0.002145 0.000000
# 3 -0.000334 -0.002967 0.009311 0.000000 -0.004313 0.000000
# 4 0.000000 0.000000 0.000000 0.048612 0.000000 0.012392
# 5 -0.004733 0.002145 -0.004313 0.000000 0.047407 0.000000
# 6 0.000000 0.000000 0.000000 0.012392 0.000000 -0.162971
#
#
# Mechanical properties :
#
#
# Convention : Reuss Voigt Hill
#
# Bulk Modulus (GPa) = 50.03756 53.67713 51.85734
# Shear Modulus (GPa) = -638.54055 22.70551 -307.91752
#
# Velocity S-wave (km/s) = -17.39060 3.27934 -12.07640
# Velocity P-wave (km/s) = 19.48190 6.30570 13.03424
#
# Compressibility (1/GPa) = 0.01998499
#
# Stress axis : x y z
#
# Youngs Moduli (GPa) = 90.59387 62.99836 107.39729
#
# Poissons Ratio (x) = 0.30354 0.03583
# Poissons Ratio (y) = 0.43651 0.31865
# Poissons Ratio (z) = 0.03023 0.18692
#
# Static dielectric constant tensor:
#      x y z
#    x 3.691920 0.000000 -0.291690 
#    y 0.000000 3.708140 0.000000 
#    z -0.291690 0.000000 3.934940 
# 
# 
# High freq. dielectric constant tensor:
#      x y z
#    x 1.833780 0.000000 -0.013090 
#    y 0.000000 1.821760 0.000000 
#    z -0.013090 0.000000 1.822000 
# 
# From -- ./inp_files/53793.got.cif
#   From: 2010.06.25/outbox.cif.g09.slc.cpg/sg13_27_cif.got.tgz:53793.got - 2010.06.28 04:50:58.
