data_PCOD8120911
_publ_section_title
;
Structure prediction by ZEFSAII (Michael W. Deem and Ramdas Pophale) SiO2 
 PCOD8120911
Probable space group: P 2/C
;
_chemical_formula_sum "Si O2"
_cell_formula_units_Z 30
_cell_length_a 9.913474
_cell_length_b 11.076219
_cell_length_c 15.560159
_cell_angle_alpha 90.000000
_cell_angle_beta 113.816522
_cell_angle_gamma 90.000000
_cell_volume 1563.068929
_symmetry_space_group_name_H-M "P 2/C"
_symmetry_group_IT_number 13
_symmetry_cell_setting 'monoclinic'
loop_
_space_group_symop_operation_xyz
x,y,z
-x,y,1/2-z
-x,-y,-z
x,-y,1/2+z
loop_
_atom_site_type_symbol
_atom_site_label
_atom_site_fract_x
_atom_site_fract_y
_atom_site_fract_z
Si Si1 0.924629 0.274869 0.913885
Si Si2 0.746661 0.283104 0.548621
Si Si3 0.000000 0.071081 0.250000
Si Si4 0.839688 0.471133 0.345401
Si Si5 0.720313 0.531952 0.633931
Si Si6 0.159792 0.840013 0.269440
Si Si7 0.437238 0.640073 0.644105
Si Si8 0.083069 0.727100 0.900812
O O1 0.924852 0.419728 0.911341
O O2 0.808888 0.211979 0.817895
O O3 0.094945 0.238573 0.944549
O O4 0.866581 0.232041 0.991651
O O5 0.730875 0.425245 0.567220
O O6 0.718499 0.204150 0.628676
O O7 0.628994 0.260499 0.440549
O O8 0.044889 0.151148 0.341749
O O9 0.141563 0.985818 0.263669
O O10 0.814026 0.509165 0.240283
O O11 0.690629 0.451202 0.360142
O O12 0.934993 0.350477 0.371959
O O13 0.555607 0.560710 0.622779
O O14 0.787235 0.654744 0.612603
O O15 0.000000 0.779419 0.250000
O O16 0.500000 0.699476 0.750000
#
# Coordination Sequence:
#
# PCOD8120911 Si02
#       8
#     4   4   2   4   4   4   4   4
#     4  11  20  33  58  87 113 148 187 231 288 346
#     4  11  18  36  58  78 116 154 185 223 287 346
#     4  10  22  36  54  88 116 140 198 246 294 320
#     4  11  19  35  54  87 119 149 185 225 285 351
#     4  11  21  33  56  84 119 157 183 225 288 347
#     4   8  20  36  54  80 111 147 189 238 284 332
#     4  10  23  35  51  87 123 152 184 223 282 356
#     4  12  21  32  58  86 118 145 187 244 283 331
#
# _framework density 19.193010999999998
#
# number of rings (size 3 to 8) (size 9 to 14) (size 15 to 20)
#    0.400    1.067    5.333    1.600    0.000    0.533 
#    0.000    0.000    0.000    0.800    0.000    3.733 
#    0.000    0.000    0.000    0.000    0.000    0.000 
#
# Total GULP energy -371768.711112 kJ/mol
# GULP energy per Si atom -12392.290370 kJ/mol
# Density = 1.914933 g / cm^3
# Si number density = 19.193011 Si / 1000 Ang^3
#
#
#
# Elastic Constant Matrix: (Units=GPa)
#
#
# Indices 1 2 3 4 5 6 
#
# 1 72.0778 15.4141 18.8190 0.0000 -11.3603 0.0000
# 2 15.4141 103.0489 50.4451 0.0000 -4.9004 0.0000
# 3 18.8190 50.4451 156.1106 0.0000 -10.9245 0.0000
# 4 0.0000 0.0000 0.0000 20.6295 0.0000 -0.8420
# 5 -11.3603 -4.9004 -10.9245 0.0000 25.4860 0.0000
# 6 0.0000 0.0000 0.0000 -0.8420 0.0000 5.6120
#
#
#
# Elastic Compliance Matrix: (Units=1/GPa)
#
#
# Indices 1 2 3 4 5 6 
#
# 1 0.015423 -0.001562 -0.000922 0.000000 0.006179 0.000000
# 2 -0.001562 0.011696 -0.003590 0.000000 0.000014 0.000000
# 3 -0.000922 -0.003590 0.007835 0.000000 0.002257 0.000000
# 4 0.000000 0.000000 0.000000 0.048773 0.000000 0.007317
# 5 0.006179 0.000014 0.002257 0.000000 0.042962 0.000000
# 6 0.000000 0.000000 0.000000 0.007317 0.000000 0.179288
#
#
# Mechanical properties :
#
#
# Convention : Reuss Voigt Hill
#
# Bulk Modulus (GPa) = 43.84924 55.62153 49.73539
# Shear Modulus (GPa) = 15.35037 26.78278 21.06658
#
# Velocity S-wave (km/s) = 2.83112 3.73962 3.31662
# Velocity P-wave (km/s) = 5.79509 6.90575 6.37465
#
# Compressibility (1/GPa) = 0.02280541
#
# Stress axis : x y z
#
# Youngs Moduli (GPa) = 64.84030 85.50039 127.63356
#
# Poissons Ratio (x) = 0.13352 0.11770
# Poissons Ratio (y) = 0.10126 0.45822
# Poissons Ratio (z) = 0.05979 0.30696
#
# Static dielectric constant tensor:
#      x y z
#    x 3.284020 0.000000 -0.145520 
#    y 0.000000 3.070900 0.000000 
#    z -0.145520 0.000000 4.121440 
# 
# 
# High freq. dielectric constant tensor:
#      x y z
#    x 1.714670 0.000000 -0.016700 
#    y 0.000000 1.701760 0.000000 
#    z -0.016700 0.000000 1.777410 
# 
# From -- ./inp_files/47284.got.cif
#   From: 2010.06.25/outbox.cif.g09.slc.cpg/sg13_24_cif.got.tgz:47284.got - 2010.06.28 04:50:58.
