data_PCOD8120133
_publ_section_title
;
Structure prediction by ZEFSAII (Michael W. Deem and Ramdas Pophale) SiO2 
 PCOD8120133
Probable space group: P 2/C
;
_chemical_formula_sum "Si O2"
_cell_formula_units_Z 28
_cell_length_a 13.002841
_cell_length_b 10.955123
_cell_length_c 19.790964
_cell_angle_alpha 90.000000
_cell_angle_beta 152.020881
_cell_angle_gamma 90.000000
_cell_volume 1322.616531
_symmetry_space_group_name_H-M "P 2/C"
_symmetry_group_IT_number 13
_symmetry_cell_setting 'monoclinic'
loop_
_space_group_symop_operation_xyz
x,y,z
-x,y,1/2-z
-x,-y,-z
x,-y,1/2+z
loop_
_atom_site_type_symbol
_atom_site_label
_atom_site_fract_x
_atom_site_fract_y
_atom_site_fract_z
Si Si1 0.500000 0.450683 0.250000
Si Si2 0.406293 0.337188 0.961363
Si Si3 0.225599 0.582587 0.909390
Si Si4 0.227377 0.075736 0.852635
Si Si5 0.170483 0.642902 0.030173
Si Si6 0.500000 0.852508 0.250000
Si Si7 0.674963 0.290811 0.242474
Si Si8 0.410059 0.984715 0.829502
O O1 0.286830 0.536090 0.140994
O O2 0.492687 0.359472 0.182011
O O3 0.542452 0.349570 0.970634
O O4 0.614882 0.325211 0.131849
O O5 0.248121 0.448235 0.889215
O O6 0.252320 0.220966 0.868770
O O7 0.000000 0.642217 0.750000
O O8 0.203843 0.585886 0.976162
O O9 0.000000 0.033798 0.750000
O O10 0.220304 0.033308 0.769688
O O11 0.394327 0.013316 0.001947
O O12 0.288086 0.771854 0.110148
O O13 0.917830 0.663300 0.902507
O O14 0.547333 0.931068 0.210425
O O15 0.651863 0.145648 0.237990
#
# Coordination Sequence:
#
# PCOD8120133 Si02
#       8
#     2   4   4   4   4   2   4   4
#     4  11  23  44  60  88 135 161 208 264 310 389
#     4  10  21  37  61  96 127 159 213 259 319 386
#     4  11  20  37  65  93 128 164 206 262 321 383
#     4  10  22  44  66  96 128 167 215 272 324 376
#     4  11  24  40  65  94 126 171 208 263 323 380
#     4  11  25  46  62  96 133 167 224 268 322 383
#     4  11  22  42  63  92 124 169 212 253 325 376
#     4  10  24  44  68  96 127 171 219 271 318 388
#
# _framework density 21.170158000000001
#
# number of rings (size 3 to 8) (size 9 to 14) (size 15 to 20)
#    0.000    1.429    2.857    2.143    2.000    0.571 
#    5.143    0.000    0.000    0.000    0.000    0.000 
#    0.000    0.000    0.000    0.000    0.000    0.000 
#
# Total GULP energy -346939.014573 kJ/mol
# GULP energy per Si atom -12390.679092 kJ/mol
# Density = 2.112197 g / cm^3
# Si number density = 21.170158 Si / 1000 Ang^3
#
#
#
# Elastic Constant Matrix: (Units=GPa)
#
#
# Indices 1 2 3 4 5 6 
#
# 1 116.7770 57.4913 16.7741 0.0000 4.7336 0.0000
# 2 57.4913 94.4333 25.2565 0.0000 2.8515 0.0000
# 3 16.7741 25.2565 64.9632 0.0000 11.0469 0.0000
# 4 0.0000 0.0000 0.0000 16.4824 0.0000 -2.4045
# 5 4.7336 2.8515 11.0469 0.0000 27.6496 0.0000
# 6 0.0000 0.0000 0.0000 -2.4045 0.0000 29.7231
#
#
#
# Elastic Compliance Matrix: (Units=1/GPa)
#
#
# Indices 1 2 3 4 5 6 
#
# 1 0.012278 -0.007418 -0.000063 0.000000 -0.001312 0.000000
# 2 -0.007418 0.016312 -0.004674 0.000000 0.001455 0.000000
# 3 -0.000063 -0.004674 0.018392 0.000000 -0.006856 0.000000
# 4 0.000000 0.000000 0.000000 0.061396 0.000000 0.004967
# 5 -0.001312 0.001455 -0.006856 0.000000 0.038980 0.000000
# 6 0.000000 0.000000 0.000000 0.004967 0.000000 0.034046
#
#
# Mechanical properties :
#
#
# Convention : Reuss Voigt Hill
#
# Bulk Modulus (GPa) = 44.10746 52.80190 48.45468
# Shear Modulus (GPa) = 23.44438 26.54779 24.99608
#
# Velocity S-wave (km/s) = 3.33141 3.54506 3.43989
# Velocity P-wave (km/s) = 5.97308 6.46161 6.22214
#
# Compressibility (1/GPa) = 0.02267190
#
# Stress axis : x y z
#
# Youngs Moduli (GPa) = 81.44864 61.30538 54.37013
#
# Poissons Ratio (x) = 0.45478 0.00343
# Poissons Ratio (y) = 0.60420 0.25411
# Poissons Ratio (z) = 0.00514 0.28652
#
# Static dielectric constant tensor:
#      x y z
#    x 3.819920 0.000000 0.012930 
#    y 0.000000 3.863930 0.000000 
#    z 0.012930 0.000000 3.822870 
# 
# 
# High freq. dielectric constant tensor:
#      x y z
#    x 1.837560 0.000000 0.003680 
#    y 0.000000 1.836450 0.000000 
#    z 0.003680 0.000000 1.821180 
# 
# From -- ./inp_files/78618.got.cif
#   From: 2010.06.25/outbox.cif.g09.slc.cpg/sg13_40_cif.got.tgz:78618.got - 2010.06.28 04:50:58.
