data_PCOD8120633
_publ_section_title
;
Structure prediction by ZEFSAII (Michael W. Deem and Ramdas Pophale) SiO2 
 PCOD8120633
Probable space group: P 2/C
;
_chemical_formula_sum "Si O2"
_cell_formula_units_Z 24
_cell_length_a 15.958665
_cell_length_b 5.222103
_cell_length_c 30.332009
_cell_angle_alpha 90.000000
_cell_angle_beta 154.684406
_cell_angle_gamma 90.000000
_cell_volume 1080.898301
_symmetry_space_group_name_H-M "P 2/C"
_symmetry_group_IT_number 13
_symmetry_cell_setting 'monoclinic'
loop_
_space_group_symop_operation_xyz
x,y,z
-x,y,1/2-z
-x,-y,-z
x,-y,1/2+z
loop_
_atom_site_type_symbol
_atom_site_label
_atom_site_fract_x
_atom_site_fract_y
_atom_site_fract_z
Si Si1 0.064941 0.206323 0.564409
Si Si2 0.660498 0.519439 0.856562
Si Si3 0.141633 0.008271 0.278810
Si Si4 0.332543 0.415827 0.544463
Si Si5 0.919916 0.917238 0.084148
Si Si6 0.617624 0.511003 0.100940
O O1 0.279786 0.299863 0.650674
O O2 0.876653 0.391108 0.473541
O O3 0.083372 0.104438 0.623215
O O4 0.000000 0.000000 0.500000
O O5 0.500000 0.679005 0.750000
O O6 0.565279 0.452596 0.858690
O O7 0.218582 0.727278 0.327994
O O8 0.000000 0.104047 0.250000
O O9 0.025741 0.994699 0.178650
O O10 0.305712 0.226741 0.352067
O O11 0.191390 0.648225 0.463060
O O12 0.495362 0.392213 0.584539
O O13 0.226556 0.143900 0.497980
O O14 0.500000 0.500000 0.000000
#
# Coordination Sequence:
#
# PCOD8120633 Si02
#       6
#     4   4   4   4   4   4
#     4  10  21  41  62  91 130 176 216 276 331 382
#     4  10  23  39  63  92 132 172 222 273 329 402
#     4  12  25  43  68  97 126 175 218 266 334 398
#     4  11  23  43  63  95 129 170 212 274 332 377
#     4  11  23  42  67  91 131 170 217 268 326 396
#     4  12  25  43  67  97 133 167 217 275 327 396
#
# _framework density 22.203754
#
# number of rings (size 3 to 8) (size 9 to 14) (size 15 to 20)
#    0.000    1.000    1.667    5.000    2.333    2.000 
#    0.000    0.000    0.000    0.000    0.000    0.000 
#    0.000    0.000    0.000    0.000    0.000    0.000 
#
# Total GULP energy -297317.276125 kJ/mol
# GULP energy per Si atom -12388.219839 kJ/mol
# Density = 2.215322 g / cm^3
# Si number density = 22.203754 Si / 1000 Ang^3
#
#
#
# Elastic Constant Matrix: (Units=GPa)
#
#
# Indices 1 2 3 4 5 6 
#
# 1 168.1333 13.5500 44.1844 0.0000 -29.8598 0.0000
# 2 13.5500 73.2695 -9.6231 0.0000 5.2415 0.0000
# 3 44.1844 -9.6231 90.9329 0.0000 -31.4852 0.0000
# 4 0.0000 0.0000 0.0000 21.3142 0.0000 2.4578
# 5 -29.8598 5.2415 -31.4852 0.0000 34.4165 0.0000
# 6 0.0000 0.0000 0.0000 2.4578 0.0000 33.3222
#
#
#
# Elastic Compliance Matrix: (Units=1/GPa)
#
#
# Indices 1 2 3 4 5 6 
#
# 1 0.007552 -0.002033 -0.002208 0.000000 0.004841 0.000000
# 2 -0.002033 0.014418 0.001672 0.000000 -0.002430 0.000000
# 3 -0.002208 0.001672 0.016825 0.000000 0.013221 0.000000
# 4 0.000000 0.000000 0.000000 0.047320 0.000000 -0.003490
# 5 0.004841 -0.002430 0.013221 0.000000 0.045721 0.000000
# 6 0.000000 0.000000 0.000000 -0.003490 0.000000 0.030267
#
#
# Mechanical properties :
#
#
# Convention : Reuss Voigt Hill
#
# Bulk Modulus (GPa) = 29.71189 47.61760 38.66475
# Shear Modulus (GPa) = 28.01763 36.75887 32.38825
#
# Velocity S-wave (km/s) = 3.55610 4.07323 3.82341
# Velocity P-wave (km/s) = 5.50196 6.60408 6.07805
#
# Compressibility (1/GPa) = 0.03365656
#
# Stress axis : x y z
#
# Youngs Moduli (GPa) = 132.42264 69.35951 59.43565
#
# Poissons Ratio (x) = 0.14100 0.13125
# Poissons Ratio (y) = 0.26920 -0.09939
# Poissons Ratio (z) = 0.29241 -0.11599
#
# Static dielectric constant tensor:
#      x y z
#    x 4.718520 0.000000 0.784520 
#    y 0.000000 4.582780 0.000000 
#    z 0.784520 0.000000 7.097350 
# 
# 
# High freq. dielectric constant tensor:
#      x y z
#    x 1.903140 0.000000 -0.014910 
#    y 0.000000 1.872420 0.000000 
#    z -0.014910 0.000000 1.870510 
# 
# From -- ./inp_files/92683.got.cif
#   From: 2010.06.25/outbox.cif.g09.slc.cpg/sg13_47_cif.got.tgz:92683.got - 2010.06.28 04:50:58.
