data_PCOD8120040
_publ_section_title
;
Structure prediction by ZEFSAII (Michael W. Deem and Ramdas Pophale) SiO2 
 PCOD8120040
Probable space group: P 2/C
;
_chemical_formula_sum "Si O2"
_cell_formula_units_Z 22
_cell_length_a 5.382667
_cell_length_b 21.876682
_cell_length_c 8.594123
_cell_angle_alpha 90.000000
_cell_angle_beta 98.182128
_cell_angle_gamma 90.000000
_cell_volume 1001.698565
_symmetry_space_group_name_H-M "P 2/C"
_symmetry_group_IT_number 13
_symmetry_cell_setting 'monoclinic'
loop_
_space_group_symop_operation_xyz
x,y,z
-x,y,1/2-z
-x,-y,-z
x,-y,1/2+z
loop_
_atom_site_type_symbol
_atom_site_label
_atom_site_fract_x
_atom_site_fract_y
_atom_site_fract_z
Si Si1 0.000000 0.392865 0.750000
Si Si2 0.500000 0.764686 0.750000
Si Si3 0.500000 0.983302 0.250000
Si Si4 0.000000 0.842901 0.750000
Si Si5 0.000000 0.593028 0.750000
Si Si6 0.326630 0.342579 0.044629
Si Si7 0.321834 0.555114 0.031795
Si Si8 0.177245 0.051858 0.453933
O O1 0.222501 0.437966 0.701725
O O2 0.895806 0.348435 0.604423
O O3 0.253171 0.803938 0.762029
O O4 0.571192 0.725302 0.911265
O O5 0.608766 0.939138 0.394876
O O6 0.291429 0.028856 0.300991
O O7 0.032549 0.884821 0.907698
O O8 0.227526 0.634189 0.704299
O O9 0.920288 0.548565 0.601493
O O10 0.556124 0.380832 0.999883
O O11 0.500000 0.500000 0.000000
O O12 0.000000 0.000000 0.500000
#
# Coordination Sequence:
#
# PCOD8120040 Si02
#       8
#     2   2   2   2   2   4   4   4
#     4  10  26  43  71 101 138 180 239 292 384 426
#     4  12  27  48  74 104 146 203 256 296 352 452
#     4  10  21  36  72  98 158 189 236 282 390 416
#     4  12  27  44  75 113 144 195 256 294 356 446
#     4  10  21  41  70  96 134 183 237 284 382 436
#     4  11  23  45  71  97 137 189 235 298 369 422
#     4  11  24  42  69 105 139 175 237 301 376 443
#     4  11  21  41  68 109 146 196 233 307 365 432
#
# _framework density 21.962692000000001
#
# number of rings (size 3 to 8) (size 9 to 14) (size 15 to 20)
#    0.000    1.091    3.636    1.636    5.091    7.273 
#    0.000    4.545    0.000    0.000    0.000    0.000 
#    0.000    0.000    0.000    0.000    0.000    0.000 
#
# Total GULP energy -272686.734100 kJ/mol
# GULP energy per Si atom -12394.851550 kJ/mol
# Density = 2.191270 g / cm^3
# Si number density = 21.962692 Si / 1000 Ang^3
#
#
#
# Elastic Constant Matrix: (Units=GPa)
#
#
# Indices 1 2 3 4 5 6 
#
# 1 139.9616 70.2137 39.6237 0.0000 -25.0207 0.0000
# 2 70.2137 135.8128 56.0934 0.0000 1.6028 0.0000
# 3 39.6237 56.0934 126.0023 0.0000 -4.2481 0.0000
# 4 0.0000 0.0000 0.0000 36.3840 0.0000 6.2176
# 5 -25.0207 1.6028 -4.2481 0.0000 47.3639 0.0000
# 6 0.0000 0.0000 0.0000 6.2176 0.0000 46.0319
#
#
#
# Elastic Compliance Matrix: (Units=1/GPa)
#
#
# Indices 1 2 3 4 5 6 
#
# 1 0.011245 -0.005524 -0.000873 0.000000 0.006049 0.000000
# 2 -0.005524 0.011757 -0.003619 0.000000 -0.003641 0.000000
# 3 -0.000873 -0.003619 0.009841 0.000000 0.000544 0.000000
# 4 0.000000 0.000000 0.000000 0.028134 0.000000 -0.003800
# 5 0.006049 -0.003641 0.000544 0.000000 0.024480 0.000000
# 6 0.000000 0.000000 0.000000 -0.003800 0.000000 0.022237
#
#
# Mechanical properties :
#
#
# Convention : Reuss Voigt Hill
#
# Bulk Modulus (GPa) = 78.07083 81.51536 79.79310
# Shear Modulus (GPa) = 37.87983 41.67902 39.77942
#
# Velocity S-wave (km/s) = 4.15750 4.36101 4.26047
# Velocity P-wave (km/s) = 7.65967 7.90910 7.78538
#
# Compressibility (1/GPa) = 0.01280888
#
# Stress axis : x y z
#
# Youngs Moduli (GPa) = 88.93220 85.05651 101.62075
#
# Poissons Ratio (x) = 0.46987 0.08870
# Poissons Ratio (y) = 0.49128 0.36781
# Poissons Ratio (z) = 0.07763 0.30786
#
# Static dielectric constant tensor:
#      x y z
#    x 4.660210 0.000000 0.006730 
#    y 0.000000 3.694260 0.000000 
#    z 0.006730 0.000000 4.698990 
# 
# 
# High freq. dielectric constant tensor:
#      x y z
#    x 1.892130 0.000000 0.014540 
#    y 0.000000 1.821880 0.000000 
#    z 0.014540 0.000000 1.879690 
# 
# From -- ./inp_files/10039.got.cif
#   From: 2010.06.25/outbox.cif.g09.slc.cpg/sg13_6_cif.got.tgz:10039.got - 2010.06.28 04:50:58.
