data_PCOD8120053
_publ_section_title
;
Structure prediction by ZEFSAII (Michael W. Deem and Ramdas Pophale) SiO2 
 PCOD8120053
Probable space group: P 2/C
;
_chemical_formula_sum "Si O2"
_cell_formula_units_Z 28
_cell_length_a 9.441859
_cell_length_b 15.690067
_cell_length_c 14.120462
_cell_angle_alpha 90.000000
_cell_angle_beta 44.204654
_cell_angle_gamma 90.000000
_cell_volume 1458.488899
_symmetry_space_group_name_H-M "P 2/C"
_symmetry_group_IT_number 13
_symmetry_cell_setting 'monoclinic'
loop_
_space_group_symop_operation_xyz
x,y,z
-x,y,1/2-z
-x,-y,-z
x,-y,1/2+z
loop_
_atom_site_type_symbol
_atom_site_label
_atom_site_fract_x
_atom_site_fract_y
_atom_site_fract_z
Si Si1 0.003410 0.436141 0.410048
Si Si2 0.327566 0.752825 0.599878
Si Si3 0.046182 0.908447 0.022952
Si Si4 0.189050 0.007186 0.710913
Si Si5 0.970105 0.242453 0.419621
Si Si6 0.446189 0.902309 0.932812
Si Si7 0.683069 0.438131 0.399317
O O1 0.976924 0.338506 0.459519
O O2 0.211765 0.451617 0.253045
O O3 0.000000 0.500000 0.500000
O O4 0.828446 0.455118 0.418339
O O5 0.162356 0.766039 0.760306
O O6 0.518867 0.811573 0.533657
O O7 0.406561 0.656823 0.557189
O O8 0.233625 0.775414 0.542681
O O9 0.910611 0.913627 0.183849
O O10 0.966463 0.828449 0.002588
O O11 0.288862 0.893881 0.921189
O O12 0.000000 0.000000 0.000000
O O13 0.337362 0.037862 0.559228
O O14 0.000000 0.957059 0.750000
O O15 0.331603 0.942379 0.704319
O O16 0.500000 0.500000 0.500000
#
# Coordination Sequence:
#
# PCOD8120053 Si02
#       7
#     4   4   4   4   4   4   4
#     4   9  19  38  60  85 116 154 184 230 299 347
#     4   9  19  36  59  79 106 149 189 225 278 338
#     4  11  23  36  53  83 114 141 185 241 276 321
#     4   9  21  37  54  76 108 144 186 227 277 327
#     4   9  20  36  57  82 112 143 187 233 276 334
#     4  10  21  37  57  77 104 151 190 220 282 335
#     4   9  19  37  59  88 114 144 194 238 278 348
#
# _framework density 19.197952999999998
#
# number of rings (size 3 to 8) (size 9 to 14) (size 15 to 20)
#    0.000    2.571    0.000    2.571    8.000    4.000 
#    2.571    2.857    0.000    0.000    0.000    0.000 
#    0.000    0.000    0.000    0.000    0.000    0.000 
#
# Total GULP energy -346914.234584 kJ/mol
# GULP energy per Si atom -12389.794092 kJ/mol
# Density = 1.915426 g / cm^3
# Si number density = 19.197953 Si / 1000 Ang^3
#
#
#
# Elastic Constant Matrix: (Units=GPa)
#
#
# Indices 1 2 3 4 5 6 
#
# 1 126.9216 80.4673 50.0082 0.0000 -9.4984 0.0000
# 2 80.4673 129.8313 42.8848 0.0000 -6.7954 0.0000
# 3 50.0082 42.8848 49.8901 0.0000 -8.3598 0.0000
# 4 0.0000 0.0000 0.0000 22.3060 0.0000 4.9468
# 5 -9.4984 -6.7954 -8.3598 0.0000 33.8044 0.0000
# 6 0.0000 0.0000 0.0000 4.9468 0.0000 42.9861
#
#
#
# Elastic Compliance Matrix: (Units=1/GPa)
#
#
# Indices 1 2 3 4 5 6 
#
# 1 0.016225 -0.006544 -0.010531 0.000000 0.000639 0.000000
# 2 -0.006544 0.013396 -0.005021 0.000000 -0.000387 0.000000
# 3 -0.010531 -0.005021 0.035732 0.000000 0.004868 0.000000
# 4 0.000000 0.000000 0.000000 0.046005 0.000000 -0.005294
# 5 0.000639 -0.000387 0.004868 0.000000 0.030887 0.000000
# 6 0.000000 0.000000 0.000000 -0.005294 0.000000 0.023873
#
#
# Mechanical properties :
#
#
# Convention : Reuss Voigt Hill
#
# Bulk Modulus (GPa) = 47.25647 72.59597 59.92622
# Shear Modulus (GPa) = 23.00300 28.70482 25.85391
#
# Velocity S-wave (km/s) = 3.46526 3.87098 3.67372
# Velocity P-wave (km/s) = 6.37805 7.60762 7.01981
#
# Compressibility (1/GPa) = 0.02116113
#
# Stress axis : x y z
#
# Youngs Moduli (GPa) = 61.63398 74.64795 27.98644
#
# Poissons Ratio (x) = 0.48849 0.29473
# Poissons Ratio (y) = 0.40332 0.14051
# Poissons Ratio (z) = 0.64908 0.37479
#
# Static dielectric constant tensor:
#      x y z
#    x 3.912010 0.000000 -0.278810 
#    y 0.000000 3.405030 0.000000 
#    z -0.278810 0.000000 3.767490 
# 
# 
# High freq. dielectric constant tensor:
#      x y z
#    x 1.752490 0.000000 -0.001840 
#    y 0.000000 1.744130 0.000000 
#    z -0.001840 0.000000 1.734060 
# 
# From -- ./inp_files/47632.got.cif
#   From: 2010.06.25/outbox.cif.g09.slc.cpg/sg13_24_cif.got.tgz:47632.got - 2010.06.28 04:50:58.
