data_PCOD8120499
_publ_section_title
;
Structure prediction by ZEFSAII (Michael W. Deem and Ramdas Pophale) SiO2 
 PCOD8120499
Probable space group: P 2/C
;
_chemical_formula_sum "Si O2"
_cell_formula_units_Z 30
_cell_length_a 19.148015
_cell_length_b 6.394141
_cell_length_c 12.654606
_cell_angle_alpha 90.000000
_cell_angle_beta 64.196434
_cell_angle_gamma 90.000000
_cell_volume 1394.883167
_symmetry_space_group_name_H-M "P 2/C"
_symmetry_group_IT_number 13
_symmetry_cell_setting 'monoclinic'
loop_
_space_group_symop_operation_xyz
x,y,z
-x,y,1/2-z
-x,-y,-z
x,-y,1/2+z
loop_
_atom_site_type_symbol
_atom_site_label
_atom_site_fract_x
_atom_site_fract_y
_atom_site_fract_z
Si Si1 0.694030 0.040686 0.176538
Si Si2 0.240901 0.339191 0.978321
Si Si3 0.500000 0.613747 0.250000
Si Si4 0.368653 0.645077 0.948800
Si Si5 0.969984 0.136282 0.113963
Si Si6 0.114233 0.053544 0.133242
Si Si7 0.155592 0.288642 0.439480
Si Si8 0.432567 0.124757 0.602528
O O1 0.710554 0.799112 0.136653
O O2 0.633786 0.037461 0.314260
O O3 0.657378 0.149874 0.097657
O O4 0.772244 0.160984 0.159497
O O5 0.296992 0.485449 0.010491
O O6 0.180794 0.479078 0.951704
O O7 0.193597 0.185142 0.086617
O O8 0.564780 0.464169 0.161117
O O9 0.533249 0.759958 0.319009
O O10 0.396405 0.706066 0.046896
O O11 0.915388 0.000222 0.229541
O O12 0.914258 0.314558 0.100171
O O13 0.048262 0.206344 0.123172
O O14 0.000000 0.000000 0.000000
O O15 0.126243 0.837612 0.062429
O O16 0.500000 0.000000 0.500000
#
# Coordination Sequence:
#
# PCOD8120499 Si02
#       8
#     4   4   2   4   4   4   4   4
#     4  10  22  43  60  92 134 161 212 273 316 387
#     4  10  21  40  61  90 129 162 211 267 319 379
#     4  12  24  48  64  94 134 160 220 274 312 412
#     4  11  24  42  67  92 127 172 211 268 331 380
#     4   9  18  37  60  89 124 168 205 258 317 375
#     4   9  19  37  60  87 127 161 212 262 311 382
#     4   9  20  36  62  88 121 171 207 261 321 375
#     4  12  25  42  70  96 125 176 213 266 340 386
#
# _framework density 21.507179000000001
#
# number of rings (size 3 to 8) (size 9 to 14) (size 15 to 20)
#    0.000    1.867    1.333    2.000    0.000    4.800 
#    0.000    8.000    0.000    0.000    0.000    0.000 
#    0.000    0.000    0.000    0.000    0.000    0.000 
#
# Total GULP energy -371857.052867 kJ/mol
# GULP energy per Si atom -12395.235096 kJ/mol
# Density = 2.145823 g / cm^3
# Si number density = 21.507179 Si / 1000 Ang^3
#
#
#
# Elastic Constant Matrix: (Units=GPa)
#
#
# Indices 1 2 3 4 5 6 
#
# 1 86.2542 10.5159 41.3672 0.0000 -7.9613 0.0000
# 2 10.5159 62.5188 27.7063 0.0000 -8.5617 0.0000
# 3 41.3672 27.7063 135.8422 0.0000 -19.6619 0.0000
# 4 0.0000 0.0000 0.0000 24.1983 0.0000 -7.9997
# 5 -7.9613 -8.5617 -19.6619 0.0000 37.4053 0.0000
# 6 0.0000 0.0000 0.0000 -7.9997 0.0000 24.2739
#
#
#
# Elastic Compliance Matrix: (Units=1/GPa)
#
#
# Indices 1 2 3 4 5 6 
#
# 1 0.013608 -0.000440 -0.003950 0.000000 0.000719 0.000000
# 2 -0.000440 0.017786 -0.003158 0.000000 0.002317 0.000000
# 3 -0.003950 -0.003158 0.009722 0.000000 0.003547 0.000000
# 4 0.000000 0.000000 0.000000 0.046378 0.000000 0.015284
# 5 0.000719 0.002317 0.003547 0.000000 0.029282 0.000000
# 6 0.000000 0.000000 0.000000 0.015284 0.000000 0.046234
#
#
# Mechanical properties :
#
#
# Convention : Reuss Voigt Hill
#
# Bulk Modulus (GPa) = 38.43261 49.31044 43.87152
# Shear Modulus (GPa) = 26.76951 30.84389 28.80670
#
# Velocity S-wave (km/s) = 3.53183 3.79109 3.66375
# Velocity P-wave (km/s) = 5.87709 6.49156 6.19195
#
# Compressibility (1/GPa) = 0.02601957
#
# Stress axis : x y z
#
# Youngs Moduli (GPa) = 73.48540 56.22344 102.86042
#
# Poissons Ratio (x) = 0.02473 0.40632
# Poissons Ratio (y) = 0.03232 0.32487
# Poissons Ratio (z) = 0.29028 0.17757
#
# Static dielectric constant tensor:
#      x y z
#    x 4.645110 0.000000 -0.111550 
#    y 0.000000 3.665470 0.000000 
#    z -0.111550 0.000000 2.995110 
# 
# 
# High freq. dielectric constant tensor:
#      x y z
#    x 1.867610 0.000000 -0.016890 
#    y 0.000000 1.820090 0.000000 
#    z -0.016890 0.000000 1.844720 
# 
# From -- ./inp_files/40125.got.cif
#   From: 2010.06.25/outbox.cif.g09.slc.cpg/sg13_21_cif.got.tgz:40125.got - 2010.06.28 04:50:58.
