data_PCOD8120788
_publ_section_title
;
Structure prediction by ZEFSAII (Michael W. Deem and Ramdas Pophale) SiO2 
 PCOD8120788
Probable space group: P 2/C
;
_chemical_formula_sum "Si O2"
_cell_formula_units_Z 28
_cell_length_a 15.959831
_cell_length_b 9.170106
_cell_length_c 20.036479
_cell_angle_alpha 90.000000
_cell_angle_beta 152.133541
_cell_angle_gamma 90.000000
_cell_volume 1370.642701
_symmetry_space_group_name_H-M "P 2/C"
_symmetry_group_IT_number 13
_symmetry_cell_setting 'monoclinic'
loop_
_space_group_symop_operation_xyz
x,y,z
-x,y,1/2-z
-x,-y,-z
x,-y,1/2+z
loop_
_atom_site_type_symbol
_atom_site_label
_atom_site_fract_x
_atom_site_fract_y
_atom_site_fract_z
Si Si1 0.834836 0.542975 0.976750
Si Si2 0.645692 0.111133 0.172296
Si Si3 0.324846 0.839536 0.662023
Si Si4 0.173276 0.661581 0.144718
Si Si5 0.512182 0.799965 0.442959
Si Si6 0.838390 0.697603 0.585109
Si Si7 0.056076 0.101975 0.459720
O O1 0.830242 0.459588 0.043859
O O2 0.038210 0.575398 0.097673
O O3 0.726765 0.691569 0.912339
O O4 0.746552 0.444570 0.856072
O O5 0.633478 0.201970 0.231954
O O6 0.849535 0.061672 0.301041
O O7 0.517546 0.971317 0.091121
O O8 0.577196 0.217395 0.065201
O O9 0.500000 0.907138 0.750000
O O10 0.164090 0.954497 0.547889
O O11 0.329413 0.713409 0.303400
O O12 0.074240 0.796695 0.038203
O O13 0.655195 0.733048 0.493363
O O14 0.864951 0.822294 0.549481
O O15 0.000000 0.697547 0.750000
#
# Coordination Sequence:
#
# PCOD8120788 Si02
#       7
#     4   4   4   4   4   4   4
#     4  10  24  41  66  92 134 176 220 266 331 396
#     4  11  22  41  66 103 130 166 223 279 336 386
#     4  12  24  40  64 101 134 169 224 286 327 389
#     4  10  21  42  69  96 125 179 227 259 321 406
#     4  11  23  39  70 100 132 172 222 277 330 397
#     4  11  24  45  65  97 135 178 218 272 338 399
#     4  11  21  41  73  92 135 175 220 276 334 391
#
# _framework density 20.428372
#
# number of rings (size 3 to 8) (size 9 to 14) (size 15 to 20)
#    0.000    1.143    4.286    2.143    2.000    1.143 
#    2.571    2.143    0.000    0.000    0.000    0.000 
#    0.000    0.000    0.000    0.000    0.000    0.000 
#
# Total GULP energy -347278.444101 kJ/mol
# GULP energy per Si atom -12402.801575 kJ/mol
# Density = 2.038188 g / cm^3
# Si number density = 20.428372 Si / 1000 Ang^3
#
#
#
# Elastic Constant Matrix: (Units=GPa)
#
#
# Indices 1 2 3 4 5 6 
#
# 1 116.9363 38.7069 58.2856 0.0000 -13.6166 0.0000
# 2 38.7069 103.1721 35.5205 0.0000 -11.6860 0.0000
# 3 58.2856 35.5205 122.1750 0.0000 -15.7752 0.0000
# 4 0.0000 0.0000 0.0000 34.5304 0.0000 3.8540
# 5 -13.6166 -11.6860 -15.7752 0.0000 31.8620 0.0000
# 6 0.0000 0.0000 0.0000 3.8540 0.0000 60.6390
#
#
#
# Elastic Compliance Matrix: (Units=1/GPa)
#
#
# Indices 1 2 3 4 5 6 
#
# 1 0.011996 -0.002673 -0.004712 0.000000 0.001814 0.000000
# 2 -0.002673 0.011566 -0.001802 0.000000 0.002207 0.000000
# 3 -0.004712 -0.001802 0.011336 0.000000 0.002938 0.000000
# 4 0.000000 0.000000 0.000000 0.029167 0.000000 -0.001854
# 5 0.001814 0.002207 0.002938 0.000000 0.034425 0.000000
# 6 0.000000 0.000000 0.000000 -0.001854 0.000000 0.016609
#
#
# Mechanical properties :
#
#
# Convention : Reuss Voigt Hill
#
# Bulk Modulus (GPa) = 60.51790 67.47883 63.99836
# Shear Modulus (GPa) = 35.97624 39.39096 37.68360
#
# Velocity S-wave (km/s) = 4.20109 4.39595 4.29962
# Velocity P-wave (km/s) = 7.29527 7.67264 7.48633
#
# Compressibility (1/GPa) = 0.01652404
#
# Stress axis : x y z
#
# Youngs Moduli (GPa) = 83.36055 86.46086 88.21366
#
# Poissons Ratio (x) = 0.23111 0.41563
# Poissons Ratio (y) = 0.22282 0.15900
# Poissons Ratio (z) = 0.39276 0.15584
#
# Static dielectric constant tensor:
#      x y z
#    x 3.818650 0.000000 -0.053380 
#    y 0.000000 3.670130 0.000000 
#    z -0.053380 0.000000 3.805450 
# 
# 
# High freq. dielectric constant tensor:
#      x y z
#    x 1.802850 0.000000 0.001580 
#    y 0.000000 1.795130 0.000000 
#    z 0.001580 0.000000 1.802750 
# 
# From -- ./inp_files/79988.got.cif
#   From: 2010.06.25/outbox.cif.g09.slc.cpg/sg13_40_cif.got.tgz:79988.got - 2010.06.28 04:50:58.
