data_PCOD8120626
_publ_section_title
;
Structure prediction by ZEFSAII (Michael W. Deem and Ramdas Pophale) SiO2 
 PCOD8120626
Probable space group: P 2/C
;
_chemical_formula_sum "Si O2"
_cell_formula_units_Z 26
_cell_length_a 8.394758
_cell_length_b 15.631123
_cell_length_c 12.852284
_cell_angle_alpha 90.000000
_cell_angle_beta 133.503676
_cell_angle_gamma 90.000000
_cell_volume 1223.247788
_symmetry_space_group_name_H-M "P 2/C"
_symmetry_group_IT_number 13
_symmetry_cell_setting 'monoclinic'
loop_
_space_group_symop_operation_xyz
x,y,z
-x,y,1/2-z
-x,-y,-z
x,-y,1/2+z
loop_
_atom_site_type_symbol
_atom_site_label
_atom_site_fract_x
_atom_site_fract_y
_atom_site_fract_z
Si Si1 0.599015 0.700543 0.191028
Si Si2 0.112769 0.584993 0.691299
Si Si3 0.757257 0.877931 0.254169
Si Si4 0.007335 0.398316 0.588969
Si Si5 0.442773 0.667010 0.553632
Si Si6 0.245701 0.853715 0.486085
Si Si7 0.500000 0.021486 0.250000
O O1 0.500000 0.655610 0.250000
O O2 0.580625 0.802581 0.194645
O O3 0.858565 0.678768 0.298120
O O4 0.483063 0.666932 0.034205
O O5 0.132606 0.483015 0.686112
O O6 0.000000 0.610053 0.750000
O O7 0.975541 0.615137 0.528484
O O8 0.348707 0.632338 0.788851
O O9 0.761275 0.891084 0.132714
O O10 0.992358 0.850468 0.408947
O O11 0.680553 0.964696 0.273140
O O12 0.756919 0.398865 0.516167
O O13 0.363567 0.761527 0.551479
O O14 0.378957 0.920354 0.613066
#
# Coordination Sequence:
#
# PCOD8120626 Si02
#       7
#     4   4   4   4   4   4   2
#     4  11  21  38  65  92 123 167 213 261 312 372
#     4  11  25  42  62  96 130 159 209 272 305 361
#     4  10  21  41  61  93 126 163 210 255 314 383
#     4  11  24  41  67  90 125 171 210 254 319 371
#     4  11  23  42  65  90 128 170 216 253 315 383
#     4  10  23  39  66  91 127 170 205 256 316 381
#     4  12  22  38  66  96 122 162 208 270 308 372
#
# _framework density 21.254892000000002
#
# number of rings (size 3 to 8) (size 9 to 14) (size 15 to 20)
#    0.000    1.231    2.308    3.692    2.154    4.923 
#    0.000    0.000    3.385    0.000    0.000    0.000 
#    0.000    0.000    0.000    0.000    0.000    0.000 
#
# Total GULP energy -322312.452536 kJ/mol
# GULP energy per Si atom -12396.632790 kJ/mol
# Density = 2.120651 g / cm^3
# Si number density = 21.254892 Si / 1000 Ang^3
#
#
#
# Elastic Constant Matrix: (Units=GPa)
#
#
# Indices 1 2 3 4 5 6 
#
# 1 77.6996 26.9452 27.5771 0.0000 -4.3153 0.0000
# 2 26.9452 111.8108 56.9297 0.0000 2.0526 0.0000
# 3 27.5771 56.9297 107.0314 0.0000 6.7867 0.0000
# 4 0.0000 0.0000 0.0000 41.8158 0.0000 3.0384
# 5 -4.3153 2.0526 6.7867 0.0000 28.1474 0.0000
# 6 0.0000 0.0000 0.0000 3.0384 0.0000 27.9416
#
#
#
# Elastic Compliance Matrix: (Units=1/GPa)
#
#
# Indices 1 2 3 4 5 6 
#
# 1 0.014811 -0.002171 -0.002859 0.000000 0.003118 0.000000
# 2 -0.002171 0.012597 -0.006156 0.000000 0.000233 0.000000
# 3 -0.002859 -0.006156 0.013561 0.000000 -0.003259 0.000000
# 4 0.000000 0.000000 0.000000 0.024105 0.000000 -0.002621
# 5 0.003118 0.000233 -0.003259 0.000000 0.036774 0.000000
# 6 0.000000 0.000000 0.000000 -0.002621 0.000000 0.036074
#
#
# Mechanical properties :
#
#
# Convention : Reuss Voigt Hill
#
# Bulk Modulus (GPa) = 53.77206 57.71620 55.74413
# Shear Modulus (GPa) = 30.03161 31.92028 30.97594
#
# Velocity S-wave (km/s) = 3.76297 3.87949 3.82167
# Velocity P-wave (km/s) = 6.65083 6.87608 6.76439
#
# Compressibility (1/GPa) = 0.01859702
#
# Stress axis : x y z
#
# Youngs Moduli (GPa) = 67.51811 79.38568 73.74330
#
# Poissons Ratio (x) = 0.17232 0.21085
# Poissons Ratio (y) = 0.14656 0.45394
# Poissons Ratio (z) = 0.19305 0.48867
#
# Static dielectric constant tensor:
#      x y z
#    x 3.815260 0.000000 -0.145570 
#    y 0.000000 3.685570 0.000000 
#    z -0.145570 0.000000 3.838760 
# 
# 
# High freq. dielectric constant tensor:
#      x y z
#    x 1.838060 0.000000 -0.010740 
#    y 0.000000 1.826250 0.000000 
#    z -0.010740 0.000000 1.838140 
# 
# From -- ./inp_files/47960.got.cif
#   From: 2010.06.25/outbox.cif.g09.slc.cpg/sg13_24_cif.got.tgz:47960.got - 2010.06.28 04:50:58.
