data_PCOD8120662
_publ_section_title
;
Structure prediction by ZEFSAII (Michael W. Deem and Ramdas Pophale) SiO2 
 PCOD8120662
Probable space group: P 2/C
;
_chemical_formula_sum "Si O2"
_cell_formula_units_Z 24
_cell_length_a 17.776503
_cell_length_b 7.433599
_cell_length_c 17.941520
_cell_angle_alpha 90.000000
_cell_angle_beta 28.707357
_cell_angle_gamma 90.000000
_cell_volume 1138.806511
_symmetry_space_group_name_H-M "P 2/C"
_symmetry_group_IT_number 13
_symmetry_cell_setting 'monoclinic'
loop_
_space_group_symop_operation_xyz
x,y,z
-x,y,1/2-z
-x,-y,-z
x,-y,1/2+z
loop_
_atom_site_type_symbol
_atom_site_label
_atom_site_fract_x
_atom_site_fract_y
_atom_site_fract_z
Si Si1 0.053840 0.353504 0.564285
Si Si2 0.395410 0.653617 0.127409
Si Si3 0.844752 0.630874 0.677048
Si Si4 0.329067 0.464044 0.432597
Si Si5 0.674379 0.783620 0.962648
Si Si6 0.253285 0.179217 0.615487
O O1 0.096237 0.259364 0.447229
O O2 0.207792 0.383772 0.479182
O O3 0.981576 0.549874 0.610007
O O4 0.931443 0.226589 0.715309
O O5 0.241637 0.543383 0.285530
O O6 0.342613 0.811025 0.116688
O O7 0.500000 0.500000 0.000000
O O8 0.486336 0.749217 0.117151
O O9 0.742282 0.753322 0.820340
O O10 0.500000 0.493650 0.250000
O O11 0.265080 0.650638 0.524935
O O12 0.343240 0.322406 0.486691
O O13 0.721979 0.984779 0.943840
#
# Coordination Sequence:
#
# PCOD8120662 Si02
#       6
#     4   4   4   4   4   4
#     4  10  21  41  64  93 127 165 211 264 317 384
#     4   9  16  36  64  92 122 164 202 259 312 374
#     4   9  19  38  69  92 120 166 213 256 322 378
#     4  12  25  43  65  89 132 174 215 268 324 377
#     4  11  22  39  68  96 127 165 217 263 327 376
#     4  11  23  40  64  97 129 168 213 267 323 385
#
# _framework density 21.074694999999998
#
# number of rings (size 3 to 8) (size 9 to 14) (size 15 to 20)
#    0.000    1.667    5.000    2.000    2.333    1.333 
#    6.000    0.000    0.000    0.000    0.000    0.000 
#    0.000    0.000    0.000    0.000    0.000    0.000 
#
# Total GULP energy -297392.667707 kJ/mol
# GULP energy per Si atom -12391.361154 kJ/mol
# Density = 2.102673 g / cm^3
# Si number density = 21.074695 Si / 1000 Ang^3
#
#
#
# Elastic Constant Matrix: (Units=GPa)
#
#
# Indices 1 2 3 4 5 6 
#
# 1 64.6148 8.6042 21.5645 0.0000 -15.5768 0.0000
# 2 8.6042 113.9583 37.0706 0.0000 5.1978 0.0000
# 3 21.5645 37.0706 93.9369 0.0000 7.9273 0.0000
# 4 0.0000 0.0000 0.0000 16.6798 0.0000 -3.5128
# 5 -15.5768 5.1978 7.9273 0.0000 36.5751 0.0000
# 6 0.0000 0.0000 0.0000 -3.5128 0.0000 9.0881
#
#
#
# Elastic Compliance Matrix: (Units=1/GPa)
#
#
# Indices 1 2 3 4 5 6 
#
# 1 0.019522 -0.000216 -0.005196 0.000000 0.009471 0.000000
# 2 -0.000216 0.010082 -0.003871 0.000000 -0.000686 0.000000
# 3 -0.005196 -0.003871 0.013758 0.000000 -0.004644 0.000000
# 4 0.000000 0.000000 0.000000 0.065266 0.000000 0.025227
# 5 0.009471 -0.000686 -0.004644 0.000000 0.032479 0.000000
# 6 0.000000 0.000000 0.000000 0.025227 0.000000 0.119785
#
#
# Mechanical properties :
#
#
# Convention : Reuss Voigt Hill
#
# Bulk Modulus (GPa) = 40.32818 45.22097 42.77457
# Shear Modulus (GPa) = 17.37782 26.15329 21.76555
#
# Velocity S-wave (km/s) = 2.87467 3.52658 3.21718
# Velocity P-wave (km/s) = 5.49506 6.17142 5.84303
#
# Compressibility (1/GPa) = 0.02479656
#
# Stress axis : x y z
#
# Youngs Moduli (GPa) = 51.22350 99.18621 72.68561
#
# Poissons Ratio (x) = 0.02141 0.37765
# Poissons Ratio (y) = 0.01106 0.28139
# Poissons Ratio (z) = 0.26614 0.38398
#
# Static dielectric constant tensor:
#      x y z
#    x 3.949530 0.000000 -0.187520 
#    y 0.000000 3.510120 0.000000 
#    z -0.187520 0.000000 4.164490 
# 
# 
# High freq. dielectric constant tensor:
#      x y z
#    x 1.824140 0.000000 -0.006950 
#    y 0.000000 1.789030 0.000000 
#    z -0.006950 0.000000 1.832230 
# 
# From -- ./inp_files/69421.got.cif
#   From: 2010.06.25/outbox.cif.g09.slc.cpg/sg13_35_cif.got.tgz:69421.got - 2010.06.28 04:50:58.
