data_PCOD8120670
_publ_section_title
;
Structure prediction by ZEFSAII (Michael W. Deem and Ramdas Pophale) SiO2 
 PCOD8120670
Probable space group: P 2/C
;
_chemical_formula_sum "Si O2"
_cell_formula_units_Z 22
_cell_length_a 12.924309
_cell_length_b 11.493684
_cell_length_c 15.268456
_cell_angle_alpha 90.000000
_cell_angle_beta 27.827400
_cell_angle_gamma 90.000000
_cell_volume 1058.769682
_symmetry_space_group_name_H-M "P 2/C"
_symmetry_group_IT_number 13
_symmetry_cell_setting 'monoclinic'
loop_
_space_group_symop_operation_xyz
x,y,z
-x,y,1/2-z
-x,-y,-z
x,-y,1/2+z
loop_
_atom_site_type_symbol
_atom_site_label
_atom_site_fract_x
_atom_site_fract_y
_atom_site_fract_z
Si Si1 0.270596 0.174056 0.457672
Si Si2 0.500000 0.048947 0.750000
Si Si3 0.481125 0.244946 0.890847
Si Si4 0.029035 0.503319 0.083512
Si Si5 0.500000 0.453648 0.750000
Si Si6 0.819794 0.733375 0.282970
Si Si7 0.000000 0.311964 0.250000
O O1 0.500000 0.231549 0.250000
O O2 0.231194 0.218395 0.584266
O O3 0.046420 0.209609 0.572389
O O4 0.296172 0.033473 0.434042
O O5 0.583578 0.134331 0.763978
O O6 0.536461 0.369565 0.806350
O O7 0.597651 0.239446 0.896813
O O8 0.215403 0.229968 0.092636
O O9 0.862368 0.595020 0.251899
O O10 0.988626 0.383598 0.166769
O O11 0.000000 0.500000 0.000000
O O12 0.285016 0.536803 0.914430
#
# Coordination Sequence:
#
# PCOD8120670 Si02
#       7
#     4   2   4   4   2   4   2
#     4   9  23  44  59  94 133 163 213 273 326 372
#     4   9  22  45  64  86 130 171 206 281 338 364
#     4  10  21  41  65  92 125 169 221 267 314 385
#     4  11  22  41  65  97 135 176 209 264 322 387
#     4   9  20  41  60  94 136 167 208 257 320 376
#     4  11  22  40  69  98 127 169 224 257 321 399
#     4  10  24  40  62 100 134 172 220 266 318 390
#
# _framework density 20.778834
#
# number of rings (size 3 to 8) (size 9 to 14) (size 15 to 20)
#    0.545    1.455    1.818    1.091    1.273    5.091 
#    3.273    0.000    0.000    0.000    0.000    0.000 
#    0.000    0.000    0.000    0.000    0.000    0.000 
#
# Total GULP energy -272546.773816 kJ/mol
# GULP energy per Si atom -12388.489719 kJ/mol
# Density = 2.073154 g / cm^3
# Si number density = 20.778834 Si / 1000 Ang^3
#
#
#
# Elastic Constant Matrix: (Units=GPa)
#
#
# Indices 1 2 3 4 5 6 
#
# 1 122.9179 43.0872 51.7666 0.0000 -10.0751 0.0000
# 2 43.0872 75.8945 34.0670 0.0000 -4.5891 0.0000
# 3 51.7666 34.0670 127.5968 0.0000 -12.1231 0.0000
# 4 0.0000 0.0000 0.0000 200.0028 0.0000 54.6224
# 5 -10.0751 -4.5891 -12.1231 0.0000 35.8768 0.0000
# 6 0.0000 0.0000 0.0000 54.6224 0.0000 25.0726
#
#
#
# Elastic Compliance Matrix: (Units=1/GPa)
#
#
# Indices 1 2 3 4 5 6 
#
# 1 0.011300 -0.004921 -0.003130 0.000000 0.001486 0.000000
# 2 -0.004921 0.017125 -0.002582 0.000000 -0.000064 0.000000
# 3 -0.003130 -0.002582 0.010002 0.000000 0.002171 0.000000
# 4 0.000000 0.000000 0.000000 0.012345 0.000000 -0.026895
# 5 0.001486 -0.000064 0.002171 0.000000 0.029016 0.000000
# 6 0.000000 0.000000 0.000000 -0.026895 0.000000 0.098476
#
#
# Mechanical properties :
#
#
# Convention : Reuss Voigt Hill
#
# Bulk Modulus (GPa) = 58.26404 64.91677 61.59041
# Shear Modulus (GPa) = 24.36055 65.35632 44.85843
#
# Velocity S-wave (km/s) = 3.42771 5.61441 4.65139
# Velocity P-wave (km/s) = 6.61563 8.56378 7.65196
#
# Compressibility (1/GPa) = 0.01716324
#
# Stress axis : x y z
#
# Youngs Moduli (GPa) = 88.49346 58.39450 99.97561
#
# Poissons Ratio (x) = 0.28735 0.31288
# Poissons Ratio (y) = 0.43546 0.25812
# Poissons Ratio (z) = 0.27694 0.15077
#
# Static dielectric constant tensor:
#      x y z
#    x 3.787900 0.000000 -0.240600 
#    y 0.000000 3.575140 0.000000 
#    z -0.240600 0.000000 4.163470 
# 
# 
# High freq. dielectric constant tensor:
#      x y z
#    x 1.807120 0.000000 -0.006380 
#    y 0.000000 1.797580 0.000000 
#    z -0.006380 0.000000 1.820750 
# 
# From -- ./inp_files/51141.got.cif
#   From: 2010.06.25/outbox.cif.g09.slc.cpg/sg13_26_cif.got.tgz:51141.got - 2010.06.28 04:50:58.
