data_PCOD8120474
_publ_section_title
;
Structure prediction by ZEFSAII (Michael W. Deem and Ramdas Pophale) SiO2 
 PCOD8120474
Probable space group: P 2/C
;
_chemical_formula_sum "Si O2"
_cell_formula_units_Z 20
_cell_length_a 8.346184
_cell_length_b 16.824421
_cell_length_c 8.352510
_cell_angle_alpha 90.000000
_cell_angle_beta 127.334662
_cell_angle_gamma 90.000000
_cell_volume 932.546545
_symmetry_space_group_name_H-M "P 2/C"
_symmetry_group_IT_number 13
_symmetry_cell_setting 'monoclinic'
loop_
_space_group_symop_operation_xyz
x,y,z
-x,y,1/2-z
-x,-y,-z
x,-y,1/2+z
loop_
_atom_site_type_symbol
_atom_site_label
_atom_site_fract_x
_atom_site_fract_y
_atom_site_fract_z
Si Si1 0.316346 0.094521 0.401287
Si Si2 0.713582 0.241021 0.318968
Si Si3 0.278321 0.420792 0.183367
Si Si4 0.000000 0.187870 0.750000
Si Si5 0.259808 0.932162 0.238450
Si Si6 0.000000 0.517171 0.250000
O O1 0.225930 0.178718 0.284887
O O2 0.557921 0.088455 0.527171
O O3 0.293913 0.082152 0.574459
O O4 0.201639 0.024788 0.233004
O O5 0.500000 0.210666 0.250000
O O6 0.702892 0.330196 0.243238
O O7 0.854093 0.244163 0.560477
O O8 0.500000 0.449872 0.250000
O O9 0.183582 0.467847 0.277418
O O10 0.112252 0.426827 0.943824
O O11 0.911197 0.129895 0.828103
#
# Coordination Sequence:
#
# PCOD8120474 Si02
#       6
#     4   4   4   2   4   2
#     4  10  21  40  57  83 122 159 202 258 305 355
#     4  11  23  40  61  90 127 158 195 258 311 360
#     4  10  22  40  67  95 129 164 204 253 318 367
#     4  12  23  38  61  88 116 164 212 248 305 366
#     4  10  22  36  61  84 115 164 211 251 301 358
#     4  10  21  42  67  96 124 164 210 252 297 400
#
# _framework density 21.446650000000002
#
# number of rings (size 3 to 8) (size 9 to 14) (size 15 to 20)
#    0.000    1.600    2.000    2.400    2.800    5.600 
#    0.000    0.000    4.400    0.000    0.000    0.000 
#    0.000    0.000    0.000    0.000    0.000    0.000 
#
# Total GULP energy -247812.310058 kJ/mol
# GULP energy per Si atom -12390.615503 kJ/mol
# Density = 2.139784 g / cm^3
# Si number density = 21.446650 Si / 1000 Ang^3
#
#
#
# Elastic Constant Matrix: (Units=GPa)
#
#
# Indices 1 2 3 4 5 6 
#
# 1 79.8854 23.8606 11.0181 0.0000 5.2057 0.0000
# 2 23.8606 95.9732 20.0829 0.0000 -9.9250 0.0000
# 3 11.0181 20.0829 89.9536 0.0000 -7.2636 0.0000
# 4 0.0000 0.0000 0.0000 28.7919 0.0000 -6.5646
# 5 5.2057 -9.9250 -7.2636 0.0000 29.1327 0.0000
# 6 0.0000 0.0000 0.0000 -6.5646 0.0000 -10.6950
#
#
#
# Elastic Compliance Matrix: (Units=1/GPa)
#
#
# Indices 1 2 3 4 5 6 
#
# 1 0.014044 -0.003654 -0.001232 0.000000 -0.004061 0.000000
# 2 -0.003654 0.012177 -0.001922 0.000000 0.004322 0.000000
# 3 -0.001232 -0.001922 0.011901 0.000000 0.002533 0.000000
# 4 0.000000 0.000000 0.000000 0.030468 0.000000 -0.018701
# 5 -0.004061 0.004322 0.002533 0.000000 0.037155 0.000000
# 6 0.000000 0.000000 0.000000 -0.018701 0.000000 -0.082023
#
#
# Mechanical properties :
#
#
# Convention : Reuss Voigt Hill
#
# Bulk Modulus (GPa) = 40.80632 41.74838 41.27735
# Shear Modulus (GPa) = 109.86990 23.50263 66.68626
#
# Velocity S-wave (km/s) = 7.16524 3.31398 5.58225
# Velocity P-wave (km/s) = 9.35534 5.84394 7.79981
#
# Compressibility (1/GPa) = 0.02450601
#
# Stress axis : x y z
#
# Youngs Moduli (GPa) = 71.20538 82.12121 84.02340
#
# Poissons Ratio (x) = 0.30004 0.10355
# Poissons Ratio (y) = 0.26016 0.16150
# Poissons Ratio (z) = 0.08776 0.15785
#
# Static dielectric constant tensor:
#      x y z
#    x 3.737810 0.000000 0.135890 
#    y 0.000000 3.629690 0.000000 
#    z 0.135890 0.000000 3.893880 
# 
# 
# High freq. dielectric constant tensor:
#      x y z
#    x 1.840150 0.000000 0.004700 
#    y 0.000000 1.831400 0.000000 
#    z 0.004700 0.000000 1.852000 
# 
# From -- ./inp_files/13039.got.cif
#   From: 2010.06.25/outbox.cif.g09.slc.cpg/sg13_7_cif.got.tgz:13039.got - 2010.06.28 04:50:58.
