data_PCOD8120434
_publ_section_title
;
Structure prediction by ZEFSAII (Michael W. Deem and Ramdas Pophale) SiO2 
 PCOD8120434
Probable space group: P 2/C
;
_chemical_formula_sum "Si O2"
_cell_formula_units_Z 26
_cell_length_a 11.037815
_cell_length_b 19.492447
_cell_length_c 8.441658
_cell_angle_alpha 90.000000
_cell_angle_beta 137.103542
_cell_angle_gamma 90.000000
_cell_volume 1236.281578
_symmetry_space_group_name_H-M "P 2/C"
_symmetry_group_IT_number 13
_symmetry_cell_setting 'monoclinic'
loop_
_space_group_symop_operation_xyz
x,y,z
-x,y,1/2-z
-x,-y,-z
x,-y,1/2+z
loop_
_atom_site_type_symbol
_atom_site_label
_atom_site_fract_x
_atom_site_fract_y
_atom_site_fract_z
Si Si1 0.084923 0.605557 0.497072
Si Si2 0.837637 0.539310 0.486834
Si Si3 0.174322 0.080608 0.631463
Si Si4 0.500000 0.614100 0.250000
Si Si5 0.512157 0.156209 0.439892
Si Si6 0.785731 0.064902 0.200503
Si Si7 0.427598 0.685101 0.855469
O O1 0.203650 0.535097 0.630685
O O2 0.218073 0.667386 0.669421
O O3 0.911531 0.599569 0.444103
O O4 0.000000 0.624850 0.250000
O O5 0.672613 0.566033 0.429733
O O6 0.000000 0.515728 0.750000
O O7 0.193851 0.070417 0.465475
O O8 0.963517 0.090775 0.464303
O O9 0.251687 0.014077 0.794320
O O10 0.286657 0.145896 0.801734
O O11 0.477841 0.654596 0.395477
O O12 0.500000 0.129568 0.250000
O O13 0.380371 0.111373 0.417106
O O14 0.454874 0.234559 0.396396
O O15 0.500000 0.658981 0.750000
#
# Coordination Sequence:
#
# PCOD8120434 Si02
#       7
#     4   4   4   2   4   4   4
#     4  10  21  42  66  93 134 162 218 285 326 400
#     4  10  21  40  65 100 124 165 218 275 341 389
#     4  10  21  39  66  95 127 160 212 265 308 372
#     4  12  24  42  72  94 132 176 214 276 332 408
#     4  11  24  42  60  88 130 171 208 260 313 379
#     4  10  21  39  65  97 123 165 211 258 317 368
#     4  11  26  44  62  97 133 174 224 263 334 402
#
# _framework density 21.030806999999999
#
# number of rings (size 3 to 8) (size 9 to 14) (size 15 to 20)
#    0.000    1.538    1.538    2.769    3.231    2.462 
#    8.308    0.000    0.000    0.000    0.000    0.000 
#    0.000    0.000    0.000    0.000    0.000    0.000 
#
# Total GULP energy -322219.543022 kJ/mol
# GULP energy per Si atom -12393.059347 kJ/mol
# Density = 2.098294 g / cm^3
# Si number density = 21.030807 Si / 1000 Ang^3
#
#
#
# Elastic Constant Matrix: (Units=GPa)
#
#
# Indices 1 2 3 4 5 6 
#
# 1 75.9884 19.7580 22.7718 0.0000 1.8745 0.0000
# 2 19.7580 79.8168 40.5381 0.0000 11.6239 0.0000
# 3 22.7718 40.5381 105.0011 0.0000 1.2002 0.0000
# 4 0.0000 0.0000 0.0000 35.3726 0.0000 6.5403
# 5 1.8745 11.6239 1.2002 0.0000 39.6364 0.0000
# 6 0.0000 0.0000 0.0000 6.5403 0.0000 35.3434
#
#
#
# Elastic Compliance Matrix: (Units=1/GPa)
#
#
# Indices 1 2 3 4 5 6 
#
# 1 0.014456 -0.002490 -0.002175 0.000000 0.000112 0.000000
# 2 -0.002490 0.016816 -0.005899 0.000000 -0.004635 0.000000
# 3 -0.002175 -0.005899 0.012256 0.000000 0.001462 0.000000
# 4 0.000000 0.000000 0.000000 0.029272 0.000000 -0.005417
# 5 0.000112 -0.004635 0.001462 0.000000 0.026539 0.000000
# 6 0.000000 0.000000 0.000000 -0.005417 0.000000 0.029296
#
#
# Mechanical properties :
#
#
# Convention : Reuss Voigt Hill
#
# Bulk Modulus (GPa) = 44.64319 47.43802 46.04060
# Shear Modulus (GPa) = 31.80010 33.91971 32.85991
#
# Velocity S-wave (km/s) = 3.89276 4.02040 3.95709
# Velocity P-wave (km/s) = 6.44037 6.64506 6.54352
#
# Compressibility (1/GPa) = 0.02239983
#
# Stress axis : x y z
#
# Youngs Moduli (GPa) = 69.17329 59.46590 81.59094
#
# Poissons Ratio (x) = 0.14809 0.17747
# Poissons Ratio (y) = 0.17226 0.48133
# Poissons Ratio (z) = 0.15046 0.35081
#
# Static dielectric constant tensor:
#      x y z
#    x 4.842570 0.000000 -0.359110 
#    y 0.000000 3.551690 0.000000 
#    z -0.359110 0.000000 4.140980 
# 
# 
# High freq. dielectric constant tensor:
#      x y z
#    x 1.833770 0.000000 -0.007910 
#    y 0.000000 1.799580 0.000000 
#    z -0.007910 0.000000 1.837280 
# 
# From -- ./inp_files/17309.got.cif
#   From: 2010.06.25/outbox.cif.g09.slc.cpg/sg13_9_cif.got.tgz:17309.got - 2010.06.28 04:50:58.
