data_PCOD8120381
_publ_section_title
;
Structure prediction by ZEFSAII (Michael W. Deem and Ramdas Pophale) SiO2 
 PCOD8120381
Probable space group: P 2/C
;
_chemical_formula_sum "Si O2"
_cell_formula_units_Z 32
_cell_length_a 34.699654
_cell_length_b 8.570324
_cell_length_c 13.509417
_cell_angle_alpha 90.000000
_cell_angle_beta 21.995985
_cell_angle_gamma 90.000000
_cell_volume 1504.731724
_symmetry_space_group_name_H-M "P 2/C"
_symmetry_group_IT_number 13
_symmetry_cell_setting 'monoclinic'
loop_
_space_group_symop_operation_xyz
x,y,z
-x,y,1/2-z
-x,-y,-z
x,-y,1/2+z
loop_
_atom_site_type_symbol
_atom_site_label
_atom_site_fract_x
_atom_site_fract_y
_atom_site_fract_z
Si Si1 0.830523 0.745985 0.232327
Si Si2 0.112647 0.480013 0.274458
Si Si3 0.778848 0.895680 0.557328
Si Si4 0.697977 0.586935 0.801871
Si Si5 0.420177 0.401094 0.569730
Si Si6 0.366719 0.396229 0.372274
Si Si7 0.233069 0.814968 0.537400
Si Si8 0.887241 0.038244 0.999626
O O1 0.875218 0.572589 0.148877
O O2 0.837732 0.829040 0.321767
O O3 0.715564 0.736826 0.459405
O O4 0.893761 0.849989 0.002881
O O5 0.140021 0.299350 0.227157
O O6 0.000000 0.500000 0.500000
O O7 0.190488 0.545198 0.006767
O O8 0.687845 0.775069 0.809123
O O9 0.859076 0.919527 0.455071
O O10 0.738778 0.064855 0.618518
O O11 0.609078 0.480511 0.964686
O O12 0.691234 0.539167 0.932948
O O13 0.536219 0.329951 0.294401
O O14 0.414569 0.547403 0.656194
O O15 0.339647 0.273750 0.799274
O O16 0.199665 0.896691 0.718943
O O17 0.000000 0.110730 0.750000
#
# Coordination Sequence:
#
# PCOD8120381 Si02
#       8
#     4   4   4   4   4   4   4   4
#     4  10  23  42  61  92 126 164 220 268 321 387
#     4  10  22  39  64  91 124 167 211 272 323 366
#     4  10  22  41  61  84 136 163 206 268 323 382
#     4  10  21  39  62  92 125 167 216 264 319 392
#     4  10  21  40  67  95 121 169 216 274 333 375
#     4  11  20  39  71  90 125 165 222 271 326 387
#     4  10  22  42  63  92 129 165 217 267 327 388
#     4  11  26  39  63  91 129 184 214 257 334 396
#
# _framework density 21.266249999999999
#
# number of rings (size 3 to 8) (size 9 to 14) (size 15 to 20)
#    0.000    1.750    3.750    1.125    8.750    1.000 
#    0.000    3.125    5.500    0.000    0.000    0.000 
#    0.000    0.000    0.000    0.000    0.000    0.000 
#
# Total GULP energy -396480.628697 kJ/mol
# GULP energy per Si atom -12390.019647 kJ/mol
# Density = 2.121785 g / cm^3
# Si number density = 21.266250 Si / 1000 Ang^3
#
#
#
# Elastic Constant Matrix: (Units=GPa)
#
#
# Indices 1 2 3 4 5 6 
#
# 1 121.7741 38.5107 48.8863 0.0000 -18.7647 0.0000
# 2 38.5107 94.8089 26.6508 0.0000 -5.7926 0.0000
# 3 48.8863 26.6508 72.0455 0.0000 -25.9973 0.0000
# 4 0.0000 0.0000 0.0000 26.2336 0.0000 6.4589
# 5 -18.7647 -5.7926 -25.9973 0.0000 41.1746 0.0000
# 6 0.0000 0.0000 0.0000 6.4589 0.0000 34.9080
#
#
#
# Elastic Compliance Matrix: (Units=1/GPa)
#
#
# Indices 1 2 3 4 5 6 
#
# 1 0.011968 -0.002913 -0.006764 0.000000 0.000774 0.000000
# 2 -0.002913 0.012544 -0.003246 0.000000 -0.001612 0.000000
# 3 -0.006764 -0.003246 0.023821 0.000000 0.011501 0.000000
# 4 0.000000 0.000000 0.000000 0.039938 0.000000 -0.007390
# 5 0.000774 -0.001612 0.011501 0.000000 0.031674 0.000000
# 6 0.000000 0.000000 0.000000 -0.007390 0.000000 0.030014
#
#
# Mechanical properties :
#
#
# Convention : Reuss Voigt Hill
#
# Bulk Modulus (GPa) = 44.46834 57.41379 50.94106
# Shear Modulus (GPa) = 27.27770 32.10196 29.68983
#
# Velocity S-wave (km/s) = 3.58533 3.88948 3.74050
# Velocity P-wave (km/s) = 6.17213 6.87218 6.53154
#
# Compressibility (1/GPa) = 0.02248791
#
# Stress axis : x y z
#
# Youngs Moduli (GPa) = 83.55859 79.71630 41.98061
#
# Poissons Ratio (x) = 0.23218 0.28396
# Poissons Ratio (y) = 0.24337 0.13626
# Poissons Ratio (z) = 0.56520 0.25874
#
# Static dielectric constant tensor:
#      x y z
#    x 4.058140 0.000000 -0.091410 
#    y 0.000000 4.225700 0.000000 
#    z -0.091410 0.000000 3.674600 
# 
# 
# High freq. dielectric constant tensor:
#      x y z
#    x 1.845020 0.000000 0.003760 
#    y 0.000000 1.825740 0.000000 
#    z 0.003760 0.000000 1.813710 
# 
# From -- ./inp_files/42752.got.cif
#   From: 2010.06.25/outbox.cif.g09.slc.cpg/sg13_22_cif.got.tgz:42752.got - 2010.06.28 04:50:58.
