data_PCOD8120313
_publ_section_title
;
Structure prediction by ZEFSAII (Michael W. Deem and Ramdas Pophale) SiO2 
 PCOD8120313
Probable space group: P 2/C
;
_chemical_formula_sum "Si O2"
_cell_formula_units_Z 24
_cell_length_a 11.412613
_cell_length_b 13.958606
_cell_length_c 15.168288
_cell_angle_alpha 90.000000
_cell_angle_beta 152.800470
_cell_angle_gamma 90.000000
_cell_volume 1104.500776
_symmetry_space_group_name_H-M "P 2/C"
_symmetry_group_IT_number 13
_symmetry_cell_setting 'monoclinic'
loop_
_space_group_symop_operation_xyz
x,y,z
-x,y,1/2-z
-x,-y,-z
x,-y,1/2+z
loop_
_atom_site_type_symbol
_atom_site_label
_atom_site_fract_x
_atom_site_fract_y
_atom_site_fract_z
Si Si1 0.755376 0.635035 0.463550
Si Si2 0.756848 0.145580 0.334216
Si Si3 0.854992 0.157126 0.064762
Si Si4 0.229342 0.947938 0.473764
Si Si5 0.772393 0.442584 0.539212
Si Si6 0.763192 0.636309 0.841318
O O1 0.500000 0.592981 0.250000
O O2 0.691685 0.745614 0.444978
O O3 0.790733 0.558519 0.566499
O O4 0.000772 0.628123 0.565778
O O5 0.856348 0.087698 0.486541
O O6 0.716131 0.254218 0.337026
O O7 0.958173 0.135981 0.391223
O O8 0.485722 0.106443 0.115711
O O9 0.000000 0.181027 0.250000
O O10 0.690221 0.060577 0.966950
O O11 0.000000 0.931471 0.250000
O O12 0.493774 0.401826 0.379940
O O13 0.825626 0.421921 0.471598
O O14 0.000000 0.394999 0.750000
#
# Coordination Sequence:
#
# PCOD8120313 Si02
#       6
#     4   4   4   4   4   4
#     4  11  23  42  63  88 127 166 204 257 311 367
#     4  10  22  41  62  87 129 160 199 265 304 364
#     4  10  23  42  59  91 126 161 210 257 306 376
#     4  10  21  38  66  91 120 160 212 251 312 369
#     4  11  22  39  68  90 120 160 207 253 316 365
#     4  10  23  43  59  91 128 155 207 259 299 375
#
# _framework density 21.729274
#
# number of rings (size 3 to 8) (size 9 to 14) (size 15 to 20)
#    0.000    1.667    1.667    3.500    2.333    6.000 
#   12.000    0.000    0.000    0.000    0.000    0.000 
#    0.000    0.000    0.000    0.000    0.000    0.000 
#
# Total GULP energy -297384.226714 kJ/mol
# GULP energy per Si atom -12391.009446 kJ/mol
# Density = 2.167982 g / cm^3
# Si number density = 21.729274 Si / 1000 Ang^3
#
#
#
# Elastic Constant Matrix: (Units=GPa)
#
#
# Indices 1 2 3 4 5 6 
#
# 1 31.8500 7.1656 22.8217 0.0000 -1.7804 0.0000
# 2 7.1656 141.1730 37.9698 0.0000 2.5028 0.0000
# 3 22.8217 37.9698 155.5504 0.0000 -5.7139 0.0000
# 4 0.0000 0.0000 0.0000 29.3201 0.0000 17.1435
# 5 -1.7804 2.5028 -5.7139 0.0000 28.3995 0.0000
# 6 0.0000 0.0000 0.0000 17.1435 0.0000 -105.0038
#
#
#
# Elastic Compliance Matrix: (Units=1/GPa)
#
#
# Indices 1 2 3 4 5 6 
#
# 1 0.035152 -0.000462 -0.004999 0.000000 0.001239 0.000000
# 2 -0.000462 0.007618 -0.001831 0.000000 -0.001069 0.000000
# 3 -0.004999 -0.001831 0.007660 0.000000 0.001389 0.000000
# 4 0.000000 0.000000 0.000000 0.031134 0.000000 0.005083
# 5 0.001239 -0.001069 0.001389 0.000000 0.035663 0.000000
# 6 0.000000 0.000000 0.000000 0.005083 0.000000 -0.008694
#
#
# Mechanical properties :
#
#
# Convention : Reuss Voigt Hill
#
# Bulk Modulus (GPa) = 27.89629 51.60971 39.75300
# Shear Modulus (GPa) = 37.01836 7.91756 22.46796
#
# Velocity S-wave (km/s) = 4.13197 1.91093 3.21907
# Velocity P-wave (km/s) = 5.96910 5.35459 5.67018
#
# Compressibility (1/GPa) = 0.03584706
#
# Stress axis : x y z
#
# Youngs Moduli (GPa) = 28.44751 131.26117 130.54362
#
# Poissons Ratio (x) = 0.06059 0.65262
# Poissons Ratio (y) = 0.01313 0.23905
# Poissons Ratio (z) = 0.14222 0.24036
#
# Static dielectric constant tensor:
#      x y z
#    x 3.665250 0.000000 0.020070 
#    y 0.000000 4.511220 0.000000 
#    z 0.020070 0.000000 3.880810 
# 
# 
# High freq. dielectric constant tensor:
#      x y z
#    x 1.836350 0.000000 0.001560 
#    y 0.000000 1.883410 0.000000 
#    z 0.001560 0.000000 1.854060 
# 
# From -- ./inp_files/51511.got.cif
#   From: 2010.06.25/outbox.cif.g09.slc.cpg/sg13_26_cif.got.tgz:51511.got - 2010.06.28 04:50:58.
