data_PCOD8120281
_publ_section_title
;
Structure prediction by ZEFSAII (Michael W. Deem and Ramdas Pophale) SiO2 
 PCOD8120281
Probable space group: P 2/C
;
_chemical_formula_sum "Si O2"
_cell_formula_units_Z 20
_cell_length_a 10.221665
_cell_length_b 6.674700
_cell_length_c 12.963423
_cell_angle_alpha 90.000000
_cell_angle_beta 98.522719
_cell_angle_gamma 90.000000
_cell_volume 874.682772
_symmetry_space_group_name_H-M "P 2/C"
_symmetry_group_IT_number 13
_symmetry_cell_setting 'monoclinic'
loop_
_space_group_symop_operation_xyz
x,y,z
-x,y,1/2-z
-x,-y,-z
x,-y,1/2+z
loop_
_atom_site_type_symbol
_atom_site_label
_atom_site_fract_x
_atom_site_fract_y
_atom_site_fract_z
Si Si1 0.499503 0.796951 0.633181
Si Si2 0.890693 0.258260 0.030513
Si Si3 0.296545 0.082155 0.953049
Si Si4 0.908918 0.503207 0.333816
Si Si5 0.704620 0.510066 0.148734
O O1 0.500000 0.877342 0.750000
O O2 0.604482 0.919205 0.579108
O O3 0.552236 0.566154 0.634143
O O4 0.355005 0.818628 0.564933
O O5 0.844568 0.026574 0.039205
O O6 0.783004 0.408438 0.064708
O O7 0.030987 0.303601 0.103726
O O8 0.901653 0.310450 0.911249
O O9 0.282866 0.252466 0.865212
O O10 0.765835 0.451565 0.268168
O O11 0.000000 0.575909 0.250000
#
# Coordination Sequence:
#
# PCOD8120281 Si02
#       5
#     4   4   4   4   4
#     4  10  23  39  59  94 129 166 212 264 307 377
#     4   9  20  40  61  89 128 161 206 269 307 378
#     4  10  22  40  62  92 129 166 214 258 315 380
#     4   9  19  39  62  90 125 165 209 259 317 368
#     4  10  21  38  63  90 125 168 210 259 318 370
#
# _framework density 22.865431999999998
#
# number of rings (size 3 to 8) (size 9 to 14) (size 15 to 20)
#    0.000    2.400    0.000    0.600    5.600    0.800 
#    0.000   24.000    0.000    0.000    0.000    0.000 
#    0.000    0.000    0.000    0.000    0.000    0.000 
#
# Total GULP energy -247924.754142 kJ/mol
# GULP energy per Si atom -12396.237707 kJ/mol
# Density = 2.281339 g / cm^3
# Si number density = 22.865432 Si / 1000 Ang^3
#
#
#
# Elastic Constant Matrix: (Units=GPa)
#
#
# Indices 1 2 3 4 5 6 
#
# 1 57.4498 47.6318 43.2115 0.0000 31.0923 0.0000
# 2 47.6318 132.0677 43.1129 0.0000 19.2973 0.0000
# 3 43.2115 43.1129 159.2700 0.0000 12.3948 0.0000
# 4 0.0000 0.0000 0.0000 21.7398 0.0000 1.6237
# 5 31.0923 19.2973 12.3948 0.0000 32.9492 0.0000
# 6 0.0000 0.0000 0.0000 1.6237 0.0000 29.4977
#
#
#
# Elastic Compliance Matrix: (Units=1/GPa)
#
#
# Indices 1 2 3 4 5 6 
#
# 1 0.057680 -0.011343 -0.009127 0.000000 -0.044353 0.000000
# 2 -0.011343 0.011123 -0.000267 0.000000 0.004290 0.000000
# 3 -0.009127 -0.000267 0.008390 0.000000 0.005613 0.000000
# 4 0.000000 0.000000 0.000000 0.046189 0.000000 -0.002542
# 5 -0.044353 0.004290 0.005613 0.000000 0.067579 0.000000
# 6 0.000000 0.000000 0.000000 -0.002542 0.000000 0.034041
#
#
# Mechanical properties :
#
#
# Convention : Reuss Voigt Hill
#
# Bulk Modulus (GPa) = 27.99627 68.52222 48.25925
# Shear Modulus (GPa) = 17.96089 31.15943 24.56016
#
# Velocity S-wave (km/s) = 2.80573 3.69552 3.28093
# Velocity P-wave (km/s) = 4.77144 6.94564 5.95854
#
# Compressibility (1/GPa) = 0.03571904
#
# Stress axis : x y z
#
# Youngs Moduli (GPa) = 17.33712 89.90141 119.18287
#
# Poissons Ratio (x) = 1.01973 1.08779
# Poissons Ratio (y) = 0.19665 0.03187
# Poissons Ratio (z) = 0.15824 0.02404
#
# Static dielectric constant tensor:
#      x y z
#    x 4.332390 0.000000 0.231730 
#    y 0.000000 3.967650 0.000000 
#    z 0.231730 0.000000 4.285250 
# 
# 
# High freq. dielectric constant tensor:
#      x y z
#    x 1.899770 0.000000 0.001470 
#    y 0.000000 1.880170 0.000000 
#    z 0.001470 0.000000 1.911340 
# 
# From -- ./inp_files/48701.got.cif
#   From: 2010.06.25/outbox.cif.g09.slc.cpg/sg13_25_cif.got.tgz:48701.got - 2010.06.28 04:50:58.
