data_PCOD8120117
_publ_section_title
;
Structure prediction by ZEFSAII (Michael W. Deem and Ramdas Pophale) SiO2 
 PCOD8120117
Probable space group: P 2/C
;
_chemical_formula_sum "Si O2"
_cell_formula_units_Z 32
_cell_length_a 24.953547
_cell_length_b 10.682014
_cell_length_c 11.527392
_cell_angle_alpha 90.000000
_cell_angle_beta 150.007332
_cell_angle_gamma 90.000000
_cell_volume 1535.996485
_symmetry_space_group_name_H-M "P 2/C"
_symmetry_group_IT_number 13
_symmetry_cell_setting 'monoclinic'
loop_
_space_group_symop_operation_xyz
x,y,z
-x,y,1/2-z
-x,-y,-z
x,-y,1/2+z
loop_
_atom_site_type_symbol
_atom_site_label
_atom_site_fract_x
_atom_site_fract_y
_atom_site_fract_z
Si Si1 0.340992 0.420609 0.294035
Si Si2 0.728180 0.286367 0.125155
Si Si3 0.059060 0.609269 0.475991
Si Si4 0.562204 0.807787 0.633755
Si Si5 0.722928 0.805019 0.141018
Si Si6 0.617279 0.954047 0.519836
Si Si7 0.141918 0.367311 0.752892
Si Si8 0.349808 0.693926 0.272070
O O1 0.317267 0.404448 0.386800
O O2 0.428442 0.317781 0.424044
O O3 0.396012 0.553851 0.373469
O O4 0.231593 0.395832 0.017439
O O5 0.856249 0.278316 0.390354
O O6 0.661562 0.166106 0.037238
O O7 0.721303 0.305551 0.975424
O O8 0.128057 0.490795 0.649228
O O9 0.000000 0.564978 0.250000
O O10 0.972646 0.662128 0.404839
O O11 0.600626 0.925738 0.626921
O O12 0.436440 0.807441 0.431176
O O13 0.622604 0.795767 0.867343
O O14 0.826893 0.758469 0.262973
O O15 0.721658 0.712310 0.247732
O O16 0.712266 0.944843 0.174857
O O17 0.500000 0.992722 0.250000
#
# Coordination Sequence:
#
# PCOD8120117 Si02
#       8
#     4   4   4   4   4   4   4   4
#     4  10  21  37  60  91 132 161 205 270 328 385
#     4  11  23  39  62  98 124 167 223 261 324 391
#     4  11  21  39  71  95 128 169 208 268 338 393
#     4  10  23  41  59  92 128 174 215 258 322 386
#     4  11  26  40  63  93 129 169 222 263 314 380
#     4  11  23  43  68  90 129 176 221 266 308 378
#     4  10  22  40  62  98 127 161 211 271 323 390
#     4  12  22  38  61  92 132 168 213 265 324 390
#
# _framework density 20.833380999999999
#
# number of rings (size 3 to 8) (size 9 to 14) (size 15 to 20)
#    0.000    1.250    3.750    2.250    3.500    1.000 
#    2.250    0.625    0.000    0.750    0.000    0.000 
#    0.000    0.000    0.000    0.000    0.000    0.000 
#
# Total GULP energy -396502.848188 kJ/mol
# GULP energy per Si atom -12390.714006 kJ/mol
# Density = 2.078596 g / cm^3
# Si number density = 20.833381 Si / 1000 Ang^3
#
#
#
# Elastic Constant Matrix: (Units=GPa)
#
#
# Indices 1 2 3 4 5 6 
#
# 1 122.1533 37.4439 27.8925 0.0000 -10.0968 0.0000
# 2 37.4439 87.3013 7.9375 0.0000 9.0093 0.0000
# 3 27.8925 7.9375 58.2997 0.0000 -5.2291 0.0000
# 4 0.0000 0.0000 0.0000 25.5175 0.0000 6.8180
# 5 -10.0968 9.0093 -5.2291 0.0000 46.5157 0.0000
# 6 0.0000 0.0000 0.0000 6.8180 0.0000 35.4555
#
#
#
# Elastic Compliance Matrix: (Units=1/GPa)
#
#
# Indices 1 2 3 4 5 6 
#
# 1 0.010777 -0.004513 -0.004297 0.000000 0.002730 0.000000
# 2 -0.004513 0.013771 -0.000043 0.000000 -0.003652 0.000000
# 3 -0.004297 -0.000043 0.019326 0.000000 0.001248 0.000000
# 4 0.000000 0.000000 0.000000 0.041311 0.000000 -0.007944
# 5 0.002730 -0.003652 0.001248 0.000000 0.022938 0.000000
# 6 0.000000 0.000000 0.000000 -0.007944 0.000000 0.029732
#
#
# Mechanical properties :
#
#
# Convention : Reuss Voigt Hill
#
# Bulk Modulus (GPa) = 38.21460 46.03357 42.12408
# Shear Modulus (GPa) = 30.43504 34.46311 32.44907
#
# Velocity S-wave (km/s) = 3.82629 4.07163 3.95086
# Velocity P-wave (km/s) = 6.15658 6.65194 6.40904
#
# Compressibility (1/GPa) = 0.02616801
#
# Stress axis : x y z
#
# Youngs Moduli (GPa) = 92.79317 72.61573 51.74327
#
# Poissons Ratio (x) = 0.32773 0.22232
# Poissons Ratio (y) = 0.41880 0.00223
# Poissons Ratio (z) = 0.39869 0.00313
#
# Static dielectric constant tensor:
#      x y z
#    x 4.180320 0.000000 -0.021250 
#    y 0.000000 3.763830 0.000000 
#    z -0.021250 0.000000 3.587970 
# 
# 
# High freq. dielectric constant tensor:
#      x y z
#    x 1.843330 0.000000 -0.008940 
#    y 0.000000 1.801240 0.000000 
#    z -0.008940 0.000000 1.792230 
# 
# From -- ./inp_files/41877.got.cif
#   From: 2010.06.25/outbox.cif.g09.slc.cpg/sg13_21_cif.got.tgz:41877.got - 2010.06.28 04:50:58.
