data_PCOD8120502
_publ_section_title
;
Structure prediction by ZEFSAII (Michael W. Deem and Ramdas Pophale) SiO2 
 PCOD8120502
Probable space group: P 2/C
;
_chemical_formula_sum "Si O2"
_cell_formula_units_Z 24
_cell_length_a 12.726841
_cell_length_b 14.408751
_cell_length_c 8.317672
_cell_angle_alpha 90.000000
_cell_angle_beta 46.216046
_cell_angle_gamma 90.000000
_cell_volume 1101.179949
_symmetry_space_group_name_H-M "P 2/C"
_symmetry_group_IT_number 13
_symmetry_cell_setting 'monoclinic'
loop_
_space_group_symop_operation_xyz
x,y,z
-x,y,1/2-z
-x,-y,-z
x,-y,1/2+z
loop_
_atom_site_type_symbol
_atom_site_label
_atom_site_fract_x
_atom_site_fract_y
_atom_site_fract_z
Si Si1 0.883572 0.131863 0.617796
Si Si2 0.661192 0.380754 0.567358
Si Si3 0.338323 0.761849 0.952693
Si Si4 0.000000 0.993970 0.750000
Si Si5 0.725392 0.436904 0.855158
Si Si6 0.852659 0.268258 0.131009
Si Si7 0.000000 0.413652 0.750000
O O1 0.876855 0.071936 0.462350
O O2 0.016435 0.202877 0.455571
O O3 0.908989 0.057710 0.729352
O O4 0.735290 0.187496 0.815064
O O5 0.500000 0.335659 0.750000
O O6 0.734084 0.413283 0.657528
O O7 0.631863 0.470071 0.482506
O O8 0.765106 0.302904 0.380000
O O9 0.500000 0.798631 0.750000
O O10 0.250424 0.787080 0.884102
O O11 0.340630 0.651366 0.981999
O O12 0.882442 0.468531 0.765584
O O13 0.913750 0.354929 0.971206
#
# Coordination Sequence:
#
# PCOD8120502 Si02
#       7
#     4   4   4   2   4   4   2
#     4  11  21  43  68  96 123 166 208 260 323 388
#     4  12  26  41  62  94 131 177 220 264 320 375
#     4  11  21  40  66  94 131 171 210 261 319 377
#     4  10  23  40  73  92 122 160 214 257 320 401
#     4  11  23  41  63  91 131 173 221 263 315 373
#     4  11  21  41  65  89 133 165 216 265 310 382
#     4  10  21  40  61  94 120 172 220 269 312 355
#
# _framework density 21.794803999999999
#
# number of rings (size 3 to 8) (size 9 to 14) (size 15 to 20)
#    0.000    1.000    5.000    4.000    2.333    3.333 
#    0.000    0.833    0.000    0.000    0.000    0.000 
#    0.000    0.000    0.000    0.000    0.000    0.000 
#
# Total GULP energy -297490.784764 kJ/mol
# GULP energy per Si atom -12395.449365 kJ/mol
# Density = 2.174520 g / cm^3
# Si number density = 21.794804 Si / 1000 Ang^3
#
#
#
# Elastic Constant Matrix: (Units=GPa)
#
#
# Indices 1 2 3 4 5 6 
#
# 1 53.8620 9.1966 45.3035 0.0000 1.7364 0.0000
# 2 9.1966 83.0717 57.0565 0.0000 -8.8498 0.0000
# 3 45.3035 57.0565 157.0716 0.0000 -13.8839 0.0000
# 4 0.0000 0.0000 0.0000 38.5892 0.0000 14.1062
# 5 1.7364 -8.8498 -13.8839 0.0000 41.2265 0.0000
# 6 0.0000 0.0000 0.0000 14.1062 0.0000 -2.7071
#
#
#
# Elastic Compliance Matrix: (Units=1/GPa)
#
#
# Indices 1 2 3 4 5 6 
#
# 1 0.025481 0.002760 -0.008652 0.000000 -0.003395 0.000000
# 2 0.002760 0.016432 -0.006662 0.000000 0.001168 0.000000
# 3 -0.008652 -0.006662 0.011531 0.000000 0.002818 0.000000
# 4 0.000000 0.000000 0.000000 0.008921 0.000000 0.046486
# 5 -0.003395 0.001168 0.002818 0.000000 0.025599 0.000000
# 6 0.000000 0.000000 0.000000 0.046486 0.000000 -0.127168
#
#
# Mechanical properties :
#
#
# Convention : Reuss Voigt Hill
#
# Bulk Modulus (GPa) = 35.28997 57.45760 46.37378
# Shear Modulus (GPa) = -1075.23556 27.58497 -523.82530
#
# Velocity S-wave (km/s) = -22.23547 3.56148 -15.51985
# Velocity P-wave (km/s) = 25.35733 6.58274 17.31563
#
# Compressibility (1/GPa) = 0.02833667
#
# Stress axis : x y z
#
# Youngs Moduli (GPa) = 39.24421 60.85600 86.72259
#
# Poissons Ratio (x) = -0.16796 0.75034
# Poissons Ratio (y) = -0.10831 0.57773
# Poissons Ratio (z) = 0.33955 0.40541
#
# Static dielectric constant tensor:
#      x y z
#    x 4.112060 0.000000 0.134140 
#    y 0.000000 3.932470 0.000000 
#    z 0.134140 0.000000 4.144200 
# 
# 
# High freq. dielectric constant tensor:
#      x y z
#    x 1.843570 0.000000 0.012390 
#    y 0.000000 1.837430 0.000000 
#    z 0.012390 0.000000 1.869150 
# 
# From -- ./inp_files/19540.got.cif
#   From: 2010.06.25/outbox.cif.g09.slc.cpg/sg13_10_cif.got.tgz:19540.got - 2010.06.28 04:50:58.
