data_PCOD8120432
_publ_section_title
;
Structure prediction by ZEFSAII (Michael W. Deem and Ramdas Pophale) SiO2 
 PCOD8120432
Probable space group: P 2/C
;
_chemical_formula_sum "Si O2"
_cell_formula_units_Z 32
_cell_length_a 8.545390
_cell_length_b 11.405269
_cell_length_c 22.492783
_cell_angle_alpha 90.000000
_cell_angle_beta 43.716628
_cell_angle_gamma 90.000000
_cell_volume 1515.013852
_symmetry_space_group_name_H-M "P 2/C"
_symmetry_group_IT_number 13
_symmetry_cell_setting 'monoclinic'
loop_
_space_group_symop_operation_xyz
x,y,z
-x,y,1/2-z
-x,-y,-z
x,-y,1/2+z
loop_
_atom_site_type_symbol
_atom_site_label
_atom_site_fract_x
_atom_site_fract_y
_atom_site_fract_z
Si Si1 0.019985 0.215176 0.645979
Si Si2 0.194020 0.573298 0.241847
Si Si3 0.398751 0.858418 0.639984
Si Si4 0.865486 0.186374 0.403961
Si Si5 0.608848 0.073654 0.785868
Si Si6 0.121907 0.042974 0.524862
Si Si7 0.532613 0.760019 0.404106
Si Si8 0.683501 0.325177 0.248440
O O1 0.930712 0.348741 0.673066
O O2 0.838961 0.143992 0.734070
O O3 0.008238 0.161467 0.582761
O O4 0.264684 0.197970 0.608371
O O5 0.394007 0.642539 0.151675
O O6 0.298703 0.463593 0.246583
O O7 0.000000 0.530266 0.250000
O O8 0.216916 0.849061 0.638509
O O9 0.622657 0.918280 0.553911
O O10 0.415442 0.728944 0.663177
O O11 0.328398 0.940070 0.715421
O O12 0.682107 0.259577 0.493439
O O13 0.080795 0.269941 0.338065
O O14 0.918924 0.060964 0.417691
O O15 0.500000 0.083099 0.750000
O O16 0.453058 0.136726 0.879607
O O17 0.000000 0.000000 0.500000
O O18 0.500000 0.297865 0.250000
#
# Coordination Sequence:
#
# PCOD8120432 Si02
#       8
#     4   4   4   4   4   4   4   4
#     4  10  21  39  65  95 132 178 222 272 319 395
#     4   9  21  44  69  93 127 173 233 273 326 401
#     4  12  23  41  66  96 137 177 226 267 333 404
#     4  12  24  44  70  97 137 176 224 280 332 409
#     4  11  21  36  62  99 137 178 217 266 337 393
#     4  12  23  39  63 104 144 171 215 276 333 398
#     4  10  21  42  67 101 130 174 229 276 324 397
#     4  12  27  48  66  96 131 176 222 285 349 404
#
# _framework density 21.121918000000001
#
# number of rings (size 3 to 8) (size 9 to 14) (size 15 to 20)
#    0.000    1.000    2.500    6.000    0.000    3.000 
#    2.250    2.500    0.000    0.000    0.000    0.000 
#    0.000    0.000    0.000    0.000    0.000    0.000 
#
# Total GULP energy -396597.400464 kJ/mol
# GULP energy per Si atom -12393.668764 kJ/mol
# Density = 2.107384 g / cm^3
# Si number density = 21.121918 Si / 1000 Ang^3
#
#
#
# Elastic Constant Matrix: (Units=GPa)
#
#
# Indices 1 2 3 4 5 6 
#
# 1 126.1703 52.2601 42.5827 0.0000 18.1697 0.0000
# 2 52.2601 121.3311 46.7600 0.0000 10.7458 0.0000
# 3 42.5827 46.7600 80.4896 0.0000 10.3409 0.0000
# 4 0.0000 0.0000 0.0000 35.2542 0.0000 6.4716
# 5 18.1697 10.7458 10.3409 0.0000 39.4052 0.0000
# 6 0.0000 0.0000 0.0000 6.4716 0.0000 29.7409
#
#
#
# Elastic Compliance Matrix: (Units=1/GPa)
#
#
# Indices 1 2 3 4 5 6 
#
# 1 0.010844 -0.003006 -0.003574 0.000000 -0.003243 0.000000
# 2 -0.003006 0.011520 -0.005047 0.000000 -0.000431 0.000000
# 3 -0.003574 -0.005047 0.017446 0.000000 -0.001554 0.000000
# 4 0.000000 0.000000 0.000000 0.029546 0.000000 -0.006429
# 5 -0.003243 -0.000431 -0.001554 0.000000 0.027398 0.000000
# 6 0.000000 0.000000 0.000000 -0.006429 0.000000 0.035023
#
#
# Mechanical properties :
#
#
# Convention : Reuss Voigt Hill
#
# Bulk Modulus (GPa) = 60.39906 67.91072 64.15489
# Shear Modulus (GPa) = 31.14315 33.30596 32.22456
#
# Velocity S-wave (km/s) = 3.84402 3.97526 3.91019
# Velocity P-wave (km/s) = 6.95410 7.30012 7.12921
#
# Compressibility (1/GPa) = 0.01655655
#
# Stress axis : x y z
#
# Youngs Moduli (GPa) = 92.21531 86.80665 57.31905
#
# Poissons Ratio (x) = 0.26096 0.20486
# Poissons Ratio (y) = 0.27722 0.28926
# Poissons Ratio (z) = 0.32958 0.43808
#
# Static dielectric constant tensor:
#      x y z
#    x 3.766930 0.000000 0.113760 
#    y 0.000000 3.691290 0.000000 
#    z 0.113760 0.000000 4.432960 
# 
# 
# High freq. dielectric constant tensor:
#      x y z
#    x 1.830050 0.000000 0.000980 
#    y 0.000000 1.819850 0.000000 
#    z 0.000980 0.000000 1.839930 
# 
# From -- ./inp_files/76411.got.cif
#   From: 2010.06.25/outbox.cif.g09.slc.cpg/sg13_39_cif.got.tgz:76411.got - 2010.06.28 04:50:58.
