data_PCOD8120495
_publ_section_title
;
Structure prediction by ZEFSAII (Michael W. Deem and Ramdas Pophale) SiO2 
 PCOD8120495
Probable space group: P 2/C
;
_chemical_formula_sum "Si O2"
_cell_formula_units_Z 24
_cell_length_a 22.831084
_cell_length_b 6.523034
_cell_length_c 22.723639
_cell_angle_alpha 90.000000
_cell_angle_beta 160.970420
_cell_angle_gamma 90.000000
_cell_volume 1103.434575
_symmetry_space_group_name_H-M "P 2/C"
_symmetry_group_IT_number 13
_symmetry_cell_setting 'monoclinic'
loop_
_space_group_symop_operation_xyz
x,y,z
-x,y,1/2-z
-x,-y,-z
x,-y,1/2+z
loop_
_atom_site_type_symbol
_atom_site_label
_atom_site_fract_x
_atom_site_fract_y
_atom_site_fract_z
Si Si1 0.100111 0.745400 0.072141
Si Si2 0.946361 0.906131 0.134184
Si Si3 0.177160 0.981825 0.249369
Si Si4 0.757632 0.409621 0.369750
Si Si5 0.374086 0.205907 0.684410
Si Si6 0.432715 0.026704 0.347573
O O1 0.127202 0.513456 0.074697
O O2 0.103448 0.774051 0.146348
O O3 0.259951 0.897326 0.202988
O O4 0.912158 0.822697 0.867039
O O5 0.000000 0.829182 0.250000
O O6 0.868185 0.717991 0.022687
O O7 0.123826 0.977013 0.267285
O O8 0.812411 0.099242 0.012493
O O9 0.391892 0.004044 0.445178
O O10 0.658989 0.585275 0.312175
O O11 0.613771 0.267482 0.199688
O O12 0.500000 0.261610 0.750000
O O13 0.481936 0.048697 0.828521
#
# Coordination Sequence:
#
# PCOD8120495 Si02
#       6
#     4   4   4   4   4   4
#     4  10  22  43  62  92 129 164 210 255 309 379
#     4  11  23  41  61  92 125 161 207 260 311 374
#     4  11  21  41  67  90 126 169 203 258 319 363
#     4  10  21  42  60  90 133 158 211 261 309 377
#     4  10  21  40  61  84 125 168 203 260 312 373
#     4  10  21  41  61  91 126 162 206 262 312 369
#
# _framework density 21.750268999999999
#
# number of rings (size 3 to 8) (size 9 to 14) (size 15 to 20)
#    0.000    1.667    5.000    1.500    0.000    6.000 
#    9.000    0.000    0.000    0.000    0.000    0.000 
#    0.000    0.000    0.000    0.000    0.000    0.000 
#
# Total GULP energy -297491.899274 kJ/mol
# GULP energy per Si atom -12395.495803 kJ/mol
# Density = 2.170076 g / cm^3
# Si number density = 21.750269 Si / 1000 Ang^3
#
#
#
# Elastic Constant Matrix: (Units=GPa)
#
#
# Indices 1 2 3 4 5 6 
#
# 1 59.0767 -14.7613 9.2069 0.0000 -7.9036 0.0000
# 2 -14.7613 97.1726 40.6459 0.0000 1.0778 0.0000
# 3 9.2069 40.6459 140.8390 0.0000 -11.2631 0.0000
# 4 0.0000 0.0000 0.0000 10.6321 0.0000 -16.2574
# 5 -7.9036 1.0778 -11.2631 0.0000 28.7015 0.0000
# 6 0.0000 0.0000 0.0000 -16.2574 0.0000 0.4405
#
#
#
# Elastic Compliance Matrix: (Units=1/GPa)
#
#
# Indices 1 2 3 4 5 6 
#
# 1 0.018694 0.003595 -0.001919 0.000000 0.004260 0.000000
# 2 0.003595 0.012488 -0.003920 0.000000 -0.001017 0.000000
# 3 -0.001919 -0.003920 0.008596 0.000000 0.002992 0.000000
# 4 0.000000 0.000000 0.000000 -0.001697 0.000000 -0.062620
# 5 0.004260 -0.001017 0.002992 0.000000 0.037227 0.000000
# 6 0.000000 0.000000 0.000000 -0.062620 0.000000 -0.040952
#
#
# Mechanical properties :
#
#
# Convention : Reuss Voigt Hill
#
# Bulk Modulus (GPa) = 28.33598 40.80791 34.57195
# Shear Modulus (GPa) = 98.79642 25.42126 62.10884
#
# Velocity S-wave (km/s) = 6.74698 3.42245 5.34953
# Velocity P-wave (km/s) = 8.58788 5.86688 7.35432
#
# Compressibility (1/GPa) = 0.03529082
#
# Stress axis : x y z
#
# Youngs Moduli (GPa) = 53.49177 80.07502 116.32642
#
# Poissons Ratio (x) = -0.28789 0.22323
# Poissons Ratio (y) = -0.19232 0.45606
# Poissons Ratio (z) = 0.10265 0.31393
#
# Static dielectric constant tensor:
#      x y z
#    x 4.395010 0.000000 -0.062990 
#    y 0.000000 3.865860 0.000000 
#    z -0.062990 0.000000 3.761260 
# 
# 
# High freq. dielectric constant tensor:
#      x y z
#    x 1.877990 0.000000 0.004710 
#    y 0.000000 1.848400 0.000000 
#    z 0.004710 0.000000 1.844840 
# 
# From -- ./inp_files/84351.got.cif
#   From: 2010.06.25/outbox.cif.g09.slc.cpg/sg13_43_cif.got.tgz:84351.got - 2010.06.28 04:50:58.
