data_PCOD8120660
_publ_section_title
;
Structure prediction by ZEFSAII (Michael W. Deem and Ramdas Pophale) SiO2 
 PCOD8120660
Probable space group: P 2/C
;
_chemical_formula_sum "Si O2"
_cell_formula_units_Z 22
_cell_length_a 30.130568
_cell_length_b 6.967383
_cell_length_c 17.037111
_cell_angle_alpha 90.000000
_cell_angle_beta 162.417718
_cell_angle_gamma 90.000000
_cell_volume 1080.408281
_symmetry_space_group_name_H-M "P 2/C"
_symmetry_group_IT_number 13
_symmetry_cell_setting 'monoclinic'
loop_
_space_group_symop_operation_xyz
x,y,z
-x,y,1/2-z
-x,-y,-z
x,-y,1/2+z
loop_
_atom_site_type_symbol
_atom_site_label
_atom_site_fract_x
_atom_site_fract_y
_atom_site_fract_z
Si Si1 0.320478 0.336780 0.191682
Si Si2 0.779094 0.492923 0.639606
Si Si3 0.986601 0.198951 0.435040
Si Si4 0.500000 0.418844 0.250000
Si Si5 0.389253 0.303666 0.901535
Si Si6 0.861439 0.968707 0.570011
O O1 0.482135 0.251347 0.444287
O O2 0.330153 0.481002 0.282454
O O3 0.264427 0.458519 0.023499
O O4 0.205453 0.168816 0.013836
O O5 0.886167 0.673675 0.823289
O O6 0.637759 0.547634 0.454199
O O7 0.856220 0.304846 0.807858
O O8 0.913401 0.169033 0.227547
O O9 0.000000 0.000000 0.500000
O O10 0.546386 0.288559 0.402144
O O11 0.261430 0.147251 0.684297
O O12 0.000000 0.019143 0.750000
#
# Coordination Sequence:
#
# PCOD8120660 Si02
#       6
#     4   4   4   2   4   4
#     4  10  21  41  65  86 120 165 202 243 304 363
#     4  10  21  41  64  90 122 163 198 246 303 359
#     4  11  22  39  65  90 126 163 199 242 308 364
#     4  10  22  42  66  90 118 156 206 256 296 356
#     4  10  22  42  63  88 121 159 202 251 307 352
#     4  12  24  38  62  96 122 158 205 251 297 359
#
# _framework density 20.362673999999998
#
# number of rings (size 3 to 8) (size 9 to 14) (size 15 to 20)
#    0.000    1.455    3.636    1.636    0.000    2.182 
#    0.000    1.818    0.000    0.000    0.000    0.000 
#    0.000    0.000    0.000    0.000    0.000    0.000 
#
# Total GULP energy -272822.119882 kJ/mol
# GULP energy per Si atom -12401.005449 kJ/mol
# Density = 2.031633 g / cm^3
# Si number density = 20.362674 Si / 1000 Ang^3
#
#
#
# Elastic Constant Matrix: (Units=GPa)
#
#
# Indices 1 2 3 4 5 6 
#
# 1 94.3903 39.8022 43.3872 0.0000 10.2656 0.0000
# 2 39.8022 94.8396 42.9464 0.0000 14.2942 0.0000
# 3 43.3872 42.9464 114.2396 0.0000 16.1383 0.0000
# 4 0.0000 0.0000 0.0000 30.4562 0.0000 -0.2319
# 5 10.2656 14.2942 16.1383 0.0000 48.3743 0.0000
# 6 0.0000 0.0000 0.0000 -0.2319 0.0000 15.7382
#
#
#
# Elastic Compliance Matrix: (Units=1/GPa)
#
#
# Indices 1 2 3 4 5 6 
#
# 1 0.014117 -0.004159 -0.003724 0.000000 -0.000524 0.000000
# 2 -0.004159 0.014174 -0.003444 0.000000 -0.002157 0.000000
# 3 -0.003724 -0.003444 0.011761 0.000000 -0.002116 0.000000
# 4 0.000000 0.000000 0.000000 0.032838 0.000000 0.000484
# 5 -0.000524 -0.002157 -0.002116 0.000000 0.022127 0.000000
# 6 0.000000 0.000000 0.000000 0.000484 0.000000 0.063547
#
#
# Mechanical properties :
#
#
# Convention : Reuss Voigt Hill
#
# Bulk Modulus (GPa) = 57.47748 61.74900 59.61324
# Shear Modulus (GPa) = 26.73541 30.73600 28.73570
#
# Velocity S-wave (km/s) = 3.62741 3.88935 3.76066
# Velocity P-wave (km/s) = 6.76996 7.11054 6.94234
#
# Compressibility (1/GPa) = 0.01739812
#
# Stress axis : x y z
#
# Youngs Moduli (GPa) = 70.83727 70.54964 85.02318
#
# Poissons Ratio (x) = 0.29343 0.31661
# Poissons Ratio (y) = 0.29463 0.29285
# Poissons Ratio (z) = 0.26378 0.24299
#
# Static dielectric constant tensor:
#      x y z
#    x 3.777630 0.000000 -0.146160 
#    y 0.000000 3.429150 0.000000 
#    z -0.146160 0.000000 4.235790 
# 
# 
# High freq. dielectric constant tensor:
#      x y z
#    x 1.789400 0.000000 -0.003430 
#    y 0.000000 1.775770 0.000000 
#    z -0.003430 0.000000 1.821990 
# 
# From -- ./inp_files/72170.got.cif
#   From: 2010.06.25/outbox.cif.g09.slc.cpg/sg13_37_cif.got.tgz:72170.got - 2010.06.28 04:50:58.
