data_PCOD8120691
_publ_section_title
;
Structure prediction by ZEFSAII (Michael W. Deem and Ramdas Pophale) SiO2 
 PCOD8120691
Probable space group: P 2/C
;
_chemical_formula_sum "Si O2"
_cell_formula_units_Z 22
_cell_length_a 13.929628
_cell_length_b 11.686508
_cell_length_c 8.618842
_cell_angle_alpha 90.000000
_cell_angle_beta 47.880676
_cell_angle_gamma 90.000000
_cell_volume 1040.712017
_symmetry_space_group_name_H-M "P 2/C"
_symmetry_group_IT_number 13
_symmetry_cell_setting 'monoclinic'
loop_
_space_group_symop_operation_xyz
x,y,z
-x,y,1/2-z
-x,-y,-z
x,-y,1/2+z
loop_
_atom_site_type_symbol
_atom_site_label
_atom_site_fract_x
_atom_site_fract_y
_atom_site_fract_z
Si Si1 0.648588 0.628014 0.371406
Si Si2 0.639254 0.881022 0.523161
Si Si3 0.999406 0.838330 0.578419
Si Si4 0.934810 0.602603 0.986386
Si Si5 0.785749 0.965085 0.656976
Si Si6 0.500000 0.534486 0.250000
O O1 0.655142 0.758243 0.425834
O O2 0.781042 0.584509 0.152316
O O3 0.547934 0.616619 0.337519
O O4 0.610353 0.548167 0.558518
O O5 0.500000 0.893734 0.750000
O O6 0.750513 0.907686 0.530788
O O7 0.657758 0.980305 0.373424
O O8 0.042311 0.722633 0.442612
O O9 0.000000 0.792088 0.750000
O O10 0.852936 0.867113 0.686562
O O11 0.102497 0.939910 0.466791
O O12 0.000000 0.601495 0.750000
O O13 0.000000 0.500000 0.000000
#
# Coordination Sequence:
#
# PCOD8120691 Si02
#       6
#     4   4   4   4   4   2
#     4  11  23  47  70 103 138 182 243 281 351 419
#     4  12  25  46  66 102 136 179 235 287 346 413
#     4  10  21  41  67  96 129 177 217 275 349 394
#     4  11  24  42  66 101 137 172 224 284 341 411
#     4  11  23  43  69  94 137 173 224 284 338 419
#     4  10  24  46  74  94 142 194 228 292 344 414
#
# _framework density 21.139372999999999
#
# number of rings (size 3 to 8) (size 9 to 14) (size 15 to 20)
#    0.000    1.091    4.545    1.636    0.000    2.909 
#   11.455    0.000    0.000    0.000    0.000    0.000 
#    0.000    0.000    0.000    0.000    0.000    0.000 
#
# Total GULP energy -272538.413267 kJ/mol
# GULP energy per Si atom -12388.109694 kJ/mol
# Density = 2.109126 g / cm^3
# Si number density = 21.139373 Si / 1000 Ang^3
#
#
#
# Elastic Constant Matrix: (Units=GPa)
#
#
# Indices 1 2 3 4 5 6 
#
# 1 100.0454 74.1409 36.5824 0.0000 8.2192 0.0000
# 2 74.1409 134.5956 36.1254 0.0000 8.8072 0.0000
# 3 36.5824 36.1254 130.0777 0.0000 -12.6908 0.0000
# 4 0.0000 0.0000 0.0000 21.8680 0.0000 12.9200
# 5 8.2192 8.8072 -12.6908 0.0000 41.8848 0.0000
# 6 0.0000 0.0000 0.0000 12.9200 0.0000 11.7116
#
#
#
# Elastic Compliance Matrix: (Units=1/GPa)
#
#
# Indices 1 2 3 4 5 6 
#
# 1 0.017813 -0.008906 -0.002777 0.000000 -0.002464 0.000000
# 2 -0.008906 0.012729 -0.001155 0.000000 -0.001279 0.000000
# 3 -0.002777 -0.001155 0.009136 0.000000 0.003556 0.000000
# 4 0.000000 0.000000 0.000000 0.131323 0.000000 -0.144874
# 5 -0.002464 -0.001279 0.003556 0.000000 0.025705 0.000000
# 6 0.000000 0.000000 0.000000 -0.144874 0.000000 0.245208
#
#
# Mechanical properties :
#
#
# Convention : Reuss Voigt Hill
#
# Bulk Modulus (GPa) = 71.41325 73.15734 72.28529
# Shear Modulus (GPa) = 10.58745 29.61755 20.10250
#
# Velocity S-wave (km/s) = 2.24037 3.74714 3.08709
# Velocity P-wave (km/s) = 6.36772 7.30778 6.85388
#
# Compressibility (1/GPa) = 0.01400300
#
# Stress axis : x y z
#
# Youngs Moduli (GPa) = 56.13900 78.56063 109.45178
#
# Poissons Ratio (x) = 0.69963 0.30392
# Poissons Ratio (y) = 0.49995 0.12645
# Poissons Ratio (z) = 0.15588 0.09076
#
# Static dielectric constant tensor:
#      x y z
#    x 3.204820 0.000000 0.234500 
#    y 0.000000 14.834540 0.000000 
#    z 0.234500 0.000000 3.870860 
# 
# 
# High freq. dielectric constant tensor:
#      x y z
#    x 1.820870 0.000000 -0.002950 
#    y 0.000000 1.842610 0.000000 
#    z -0.002950 0.000000 1.839350 
# 
# From -- ./inp_files/18452.got.cif
#   From: 2010.06.25/outbox.cif.g09.slc.cpg/sg13_10_cif.got.tgz:18452.got - 2010.06.28 04:50:58.
