data_PCOD8120745
_publ_section_title
;
Structure prediction by ZEFSAII (Michael W. Deem and Ramdas Pophale) SiO2 
 PCOD8120745
Probable space group: P 2/C
;
_chemical_formula_sum "Si O2"
_cell_formula_units_Z 22
_cell_length_a 11.737274
_cell_length_b 11.701149
_cell_length_c 11.220885
_cell_angle_alpha 90.000000
_cell_angle_beta 43.088286
_cell_angle_gamma 90.000000
_cell_volume 1052.743848
_symmetry_space_group_name_H-M "P 2/C"
_symmetry_group_IT_number 13
_symmetry_cell_setting 'monoclinic'
loop_
_space_group_symop_operation_xyz
x,y,z
-x,y,1/2-z
-x,-y,-z
x,-y,1/2+z
loop_
_atom_site_type_symbol
_atom_site_label
_atom_site_fract_x
_atom_site_fract_y
_atom_site_fract_z
Si Si1 0.000000 0.185274 0.750000
Si Si2 0.641918 0.848719 0.868780
Si Si3 0.306685 0.217973 0.919617
Si Si4 0.726658 0.900876 0.288728
Si Si5 0.145965 0.668415 0.928185
Si Si6 0.887580 0.431618 0.446659
O O1 0.868403 0.105807 0.780940
O O2 0.092561 0.264907 0.585862
O O3 0.702983 0.739195 0.746799
O O4 0.696351 0.968781 0.769241
O O5 0.730499 0.850543 0.930761
O O6 0.441189 0.842896 0.030356
O O7 0.500000 0.210249 0.750000
O O8 0.211988 0.163830 0.878010
O O9 0.260045 0.349088 0.981952
O O10 0.993656 0.647881 0.954854
O O11 0.201200 0.540480 0.924545
O O12 0.000000 0.472889 0.250000
#
# Coordination Sequence:
#
# PCOD8120745 Si02
#       6
#     2   4   4   4   4   4
#     4  12  24  40  60  98 132 160 208 262 310 378
#     4  10  23  44  66  92 127 172 208 262 320 376
#     4  10  21  42  65  90 124 167 217 260 309 379
#     4  10  24  42  65  95 131 164 211 260 318 380
#     4  11  24  39  64  93 127 166 209 262 322 371
#     4  11  21  42  64  89 126 170 212 266 313 374
#
# _framework density 20.897770999999999
#
# number of rings (size 3 to 8) (size 9 to 14) (size 15 to 20)
#    0.000    1.455    4.545    0.000    2.545    2.909 
#    3.273    1.818    0.000    0.000    0.000    0.000 
#    0.000    0.000    0.000    0.000    0.000    0.000 
#
# Total GULP energy -272721.853493 kJ/mol
# GULP energy per Si atom -12396.447886 kJ/mol
# Density = 2.085021 g / cm^3
# Si number density = 20.897771 Si / 1000 Ang^3
#
#
#
# Elastic Constant Matrix: (Units=GPa)
#
#
# Indices 1 2 3 4 5 6 
#
# 1 98.7742 24.5020 28.9859 0.0000 12.0886 0.0000
# 2 24.5020 126.7153 56.7356 0.0000 -2.1221 0.0000
# 3 28.9859 56.7356 86.8191 0.0000 21.6053 0.0000
# 4 0.0000 0.0000 0.0000 43.3704 0.0000 3.5882
# 5 12.0886 -2.1221 21.6053 0.0000 16.1727 0.0000
# 6 0.0000 0.0000 0.0000 3.5882 0.0000 29.8501
#
#
#
# Elastic Compliance Matrix: (Units=1/GPa)
#
#
# Indices 1 2 3 4 5 6 
#
# 1 0.011856 -0.002344 -0.000216 0.000000 -0.008881 0.000000
# 2 -0.002344 0.015799 -0.015720 0.000000 0.024826 0.000000
# 3 -0.000216 -0.015720 0.033460 0.000000 -0.046601 0.000000
# 4 0.000000 0.000000 0.000000 0.023289 0.000000 -0.002799
# 5 -0.008881 0.024826 -0.046601 0.000000 0.133983 0.000000
# 6 0.000000 0.000000 0.000000 -0.002799 0.000000 0.033837
#
#
# Mechanical properties :
#
#
# Convention : Reuss Voigt Hill
#
# Bulk Modulus (GPa) = 40.72657 59.19505 49.96081
# Shear Modulus (GPa) = 16.83664 31.35098 24.09381
#
# Velocity S-wave (km/s) = 2.84151 3.87745 3.39918
# Velocity P-wave (km/s) = 5.50421 6.95943 6.27415
#
# Compressibility (1/GPa) = 0.02455399
#
# Stress axis : x y z
#
# Youngs Moduli (GPa) = 84.34553 63.29378 29.88618
#
# Poissons Ratio (x) = 0.14839 0.00646
# Poissons Ratio (y) = 0.19774 0.46982
# Poissons Ratio (z) = 0.01824 0.99499
#
# Static dielectric constant tensor:
#      x y z
#    x 3.914160 0.000000 0.305150 
#    y 0.000000 3.740010 0.000000 
#    z 0.305150 0.000000 3.806090 
# 
# 
# High freq. dielectric constant tensor:
#      x y z
#    x 1.815200 0.000000 0.017680 
#    y 0.000000 1.825040 0.000000 
#    z 0.017680 0.000000 1.811680 
# 
# From -- ./inp_files/29335.got.cif
#   From: 2010.06.25/outbox.cif.g09.slc.cpg/sg13_15_cif.got.tgz:29335.got - 2010.06.28 04:50:58.
