data_PCOD8120138
_publ_section_title
;
Structure prediction by ZEFSAII (Michael W. Deem and Ramdas Pophale) SiO2 
 PCOD8120138
Probable space group: P 2/C
;
_chemical_formula_sum "Si O2"
_cell_formula_units_Z 20
_cell_length_a 9.060353
_cell_length_b 12.046900
_cell_length_c 8.778896
_cell_angle_alpha 90.000000
_cell_angle_beta 98.421153
_cell_angle_gamma 90.000000
_cell_volume 947.878090
_symmetry_space_group_name_H-M "P 2/C"
_symmetry_group_IT_number 13
_symmetry_cell_setting 'monoclinic'
loop_
_space_group_symop_operation_xyz
x,y,z
-x,y,1/2-z
-x,-y,-z
x,-y,1/2+z
loop_
_atom_site_type_symbol
_atom_site_label
_atom_site_fract_x
_atom_site_fract_y
_atom_site_fract_z
Si Si1 0.673126 0.553609 0.308645
Si Si2 0.878424 0.868035 0.947436
Si Si3 0.434852 0.241183 0.573494
Si Si4 0.274170 0.653198 0.493568
Si Si5 0.200311 0.921420 0.907240
O O1 0.500000 0.532536 0.250000
O O2 0.681409 0.655465 0.430838
O O3 0.740414 0.439515 0.378506
O O4 0.759132 0.590857 0.169761
O O5 0.853099 0.741254 0.988727
O O6 0.812797 0.898802 0.772936
O O7 0.056826 0.879047 0.979497
O O8 0.795119 0.946246 0.059320
O O9 0.500000 0.209935 0.750000
O O10 0.567945 0.281419 0.482646
O O11 0.350992 0.135744 0.490620
#
# Coordination Sequence:
#
# PCOD8120138 Si02
#       5
#     4   4   4   4   4
#     4   9  19  35  58  88 125 157 197 243 303 359
#     4  10  24  41  66  87 119 169 201 245 312 359
#     4   9  20  38  62  92 122 159 200 252 297 357
#     4  10  21  37  62  93 117 163 204 244 303 357
#     4  10  23  44  62  87 126 157 206 251 304 367
#
# _framework density 21.09976
#
# number of rings (size 3 to 8) (size 9 to 14) (size 15 to 20)
#    0.000    2.800    0.000    2.400   11.200    0.800 
#    0.000    1.000    0.000    0.000    0.000    0.000 
#    0.000    0.000    0.000    0.000    0.000    0.000 
#
# Total GULP energy -247942.079403 kJ/mol
# GULP energy per Si atom -12397.103970 kJ/mol
# Density = 2.105174 g / cm^3
# Si number density = 21.099760 Si / 1000 Ang^3
#
#
#
# Elastic Constant Matrix: (Units=GPa)
#
#
# Indices 1 2 3 4 5 6 
#
# 1 36.9281 20.0171 16.0586 0.0000 1.0082 0.0000
# 2 20.0171 100.5942 25.2598 0.0000 -8.2311 0.0000
# 3 16.0586 25.2598 67.8315 0.0000 -11.3266 0.0000
# 4 0.0000 0.0000 0.0000 35.6226 0.0000 2.1256
# 5 1.0082 -8.2311 -11.3266 0.0000 23.8185 0.0000
# 6 0.0000 0.0000 0.0000 2.1256 0.0000 31.7159
#
#
#
# Elastic Compliance Matrix: (Units=1/GPa)
#
#
# Indices 1 2 3 4 5 6 
#
# 1 0.033209 -0.005401 -0.006949 0.000000 -0.006577 0.000000
# 2 -0.005401 0.011934 -0.002649 0.000000 0.003093 0.000000
# 3 -0.006949 -0.002649 0.018760 0.000000 0.008300 0.000000
# 4 0.000000 0.000000 0.000000 0.028185 0.000000 -0.001889
# 5 -0.006577 0.003093 0.008300 0.000000 0.047278 0.000000
# 6 0.000000 0.000000 0.000000 -0.001889 0.000000 0.031657
#
#
# Mechanical properties :
#
#
# Convention : Reuss Voigt Hill
#
# Bulk Modulus (GPa) = 29.49452 36.44720 32.97086
# Shear Modulus (GPa) = 23.54916 27.83261 25.69088
#
# Velocity S-wave (km/s) = 3.34441 3.63588 3.49319
# Velocity P-wave (km/s) = 5.37796 5.91078 5.65065
#
# Compressibility (1/GPa) = 0.03390461
#
# Stress axis : x y z
#
# Youngs Moduli (GPa) = 30.11247 83.79420 53.30551
#
# Poissons Ratio (x) = 0.45261 0.37040
# Poissons Ratio (y) = 0.16265 0.14120
# Poissons Ratio (z) = 0.20924 0.22196
#
# Static dielectric constant tensor:
#      x y z
#    x 3.464470 0.000000 -0.115300 
#    y 0.000000 3.971820 0.000000 
#    z -0.115300 0.000000 3.739550 
# 
# 
# High freq. dielectric constant tensor:
#      x y z
#    x 1.791980 0.000000 -0.010850 
#    y 0.000000 1.837690 0.000000 
#    z -0.010850 0.000000 1.822230 
# 
# From -- ./inp_files/11746.got.cif
#   From: 2010.06.25/outbox.cif.g09.slc.cpg/sg13_6_cif.got.tgz:11746.got - 2010.06.28 04:50:58.
