data_PCOD8120764
_publ_section_title
;
Structure prediction by ZEFSAII (Michael W. Deem and Ramdas Pophale) SiO2 
 PCOD8120764
Probable space group: P 2/C
;
_chemical_formula_sum "Si O2"
_cell_formula_units_Z 32
_cell_length_a 22.470088
_cell_length_b 9.209233
_cell_length_c 14.709261
_cell_angle_alpha 90.000000
_cell_angle_beta 30.143644
_cell_angle_gamma 90.000000
_cell_volume 1528.514316
_symmetry_space_group_name_H-M "P 2/C"
_symmetry_group_IT_number 13
_symmetry_cell_setting 'monoclinic'
loop_
_space_group_symop_operation_xyz
x,y,z
-x,y,1/2-z
-x,-y,-z
x,-y,1/2+z
loop_
_atom_site_type_symbol
_atom_site_label
_atom_site_fract_x
_atom_site_fract_y
_atom_site_fract_z
Si Si1 0.585741 0.677012 0.050955
Si Si2 0.291917 0.559956 0.215248
Si Si3 0.864367 0.589555 0.907834
Si Si4 0.882995 0.919991 0.181199
Si Si5 0.455530 0.948242 0.172567
Si Si6 0.343032 0.877881 0.142803
Si Si7 0.750064 0.159278 0.452055
Si Si8 0.896310 0.589159 0.186958
O O1 0.500000 0.629090 0.250000
O O2 0.528832 0.800201 0.064123
O O3 0.606505 0.553709 0.946994
O O4 0.715897 0.731856 0.914565
O O5 0.205614 0.518060 0.414143
O O6 0.354892 0.710853 0.154963
O O7 0.219677 0.578811 0.218910
O O8 0.801485 0.741995 0.965554
O O9 0.864647 0.473104 0.827145
O O10 0.000000 0.628452 0.750000
O O11 0.786292 0.913352 0.227539
O O12 0.922988 0.760909 0.163287
O O13 0.838196 0.027114 0.318746
O O14 0.000000 0.000000 0.000000
O O15 0.371130 0.974100 0.195777
O O16 0.372477 0.925777 0.368509
O O17 0.548191 0.079887 0.068512
O O18 0.000000 0.500000 0.000000
#
# Coordination Sequence:
#
# PCOD8120764 Si02
#       8
#     4   4   4   4   4   4   4   4
#     4  10  22  42  67  95 130 181 220 283 345 400
#     4  11  23  42  68  97 137 174 229 278 343 408
#     4  12  24  42  71 100 134 184 228 279 346 411
#     4  11  25  41  68  97 132 178 226 273 339 411
#     4  10  21  42  67  90 132 172 223 282 334 401
#     4  10  22  42  62  98 125 171 224 273 343 394
#     4  11  22  43  66  96 132 179 227 273 344 413
#     4  11  23  44  67  96 136 177 218 281 334 399
#
# _framework density 20.935361
#
# number of rings (size 3 to 8) (size 9 to 14) (size 15 to 20)
#    0.000    1.250    5.000    0.750    1.750    0.500 
#    9.000    0.625    0.000    0.000    0.000    0.000 
#    0.000    0.000    0.000    0.000    0.000    0.000 
#
# Total GULP energy -396464.091512 kJ/mol
# GULP energy per Si atom -12389.502860 kJ/mol
# Density = 2.088771 g / cm^3
# Si number density = 20.935361 Si / 1000 Ang^3
#
#
#
# Elastic Constant Matrix: (Units=GPa)
#
#
# Indices 1 2 3 4 5 6 
#
# 1 82.0850 24.5496 26.3001 0.0000 -0.1064 0.0000
# 2 24.5496 122.6025 78.6962 0.0000 4.8606 0.0000
# 3 26.3001 78.6962 133.2150 0.0000 2.3650 0.0000
# 4 0.0000 0.0000 0.0000 42.4826 0.0000 0.0207
# 5 -0.1064 4.8606 2.3650 0.0000 32.6098 0.0000
# 6 0.0000 0.0000 0.0000 0.0207 0.0000 29.0256
#
#
#
# Elastic Compliance Matrix: (Units=1/GPa)
#
#
# Indices 1 2 3 4 5 6 
#
# 1 0.013193 -0.001580 -0.001678 0.000000 0.000400 0.000000
# 2 -0.001580 0.013392 -0.007573 0.000000 -0.001452 0.000000
# 3 -0.001678 -0.007573 0.012308 0.000000 0.000231 0.000000
# 4 0.000000 0.000000 0.000000 0.023539 0.000000 -0.000017
# 5 0.000400 -0.001452 0.000231 0.000000 0.030867 0.000000
# 6 0.000000 0.000000 0.000000 -0.000017 0.000000 0.034452
#
#
# Mechanical properties :
#
#
# Convention : Reuss Voigt Hill
#
# Bulk Modulus (GPa) = 58.04184 66.33270 62.18727
# Shear Modulus (GPa) = 32.22535 34.71405 33.46970
#
# Velocity S-wave (km/s) = 3.92762 4.07646 4.00273
# Velocity P-wave (km/s) = 6.95361 7.34234 7.15062
#
# Compressibility (1/GPa) = 0.01722895
#
# Stress axis : x y z
#
# Youngs Moduli (GPa) = 75.79557 74.67383 81.24980
#
# Poissons Ratio (x) = 0.11802 0.13635
# Poissons Ratio (y) = 0.11979 0.61532
# Poissons Ratio (z) = 0.12720 0.56552
#
# Static dielectric constant tensor:
#      x y z
#    x 3.783240 0.000000 0.033430 
#    y 0.000000 4.122400 0.000000 
#    z 0.033430 0.000000 3.621490 
# 
# 
# High freq. dielectric constant tensor:
#      x y z
#    x 1.825090 0.000000 -0.009830 
#    y 0.000000 1.814810 0.000000 
#    z -0.009830 0.000000 1.820130 
# 
# From -- ./inp_files/58805.got.cif
#   From: 2010.06.25/outbox.cif.g09.slc.cpg/sg13_30_cif.got.tgz:58805.got - 2010.06.28 04:50:58.
