data_PCOD8120425
_publ_section_title
;
Structure prediction by ZEFSAII (Michael W. Deem and Ramdas Pophale) SiO2 
 PCOD8120425
Probable space group: P 2/C
;
_chemical_formula_sum "Si O2"
_cell_formula_units_Z 16
_cell_length_a 7.885973
_cell_length_b 9.405694
_cell_length_c 16.367605
_cell_angle_alpha 90.000000
_cell_angle_beta 144.800143
_cell_angle_gamma 90.000000
_cell_volume 699.806627
_symmetry_space_group_name_H-M "P 2/C"
_symmetry_group_IT_number 13
_symmetry_cell_setting 'monoclinic'
loop_
_space_group_symop_operation_xyz
x,y,z
-x,y,1/2-z
-x,-y,-z
x,-y,1/2+z
loop_
_atom_site_type_symbol
_atom_site_label
_atom_site_fract_x
_atom_site_fract_y
_atom_site_fract_z
Si Si1 0.387282 0.675506 0.563893
Si Si2 0.341195 0.817951 0.374588
Si Si3 0.156036 0.554927 0.225234
Si Si4 0.328082 0.975355 0.605635
O O1 0.463945 0.741914 0.504807
O O2 0.642753 0.582918 0.707479
O O3 0.094030 0.576114 0.442776
O O4 0.354868 0.806626 0.611065
O O5 0.350735 0.699188 0.306510
O O6 0.556771 0.946999 0.432272
O O7 0.000000 0.871733 0.250000
O O8 0.000000 0.536770 0.250000
O O9 0.500000 0.037287 0.750000
O O10 0.000000 0.000000 0.500000
#
# Coordination Sequence:
#
# PCOD8120425 Si02
#       4
#     4   4   4   4
#     4  10  21  39  65  92 122 163 208 257 309 369
#     4   9  19  40  67  93 121 161 212 265 312 368
#     4   9  18  36  62  94 120 150 207 270 307 356
#     4  12  26  43  61  93 133 170 207 256 313 373
#
# _framework density 22.863458999999999
#
# number of rings (size 3 to 8) (size 9 to 14) (size 15 to 20)
#    0.000    2.500    0.000    6.750    0.000    5.000 
#    0.000    6.250    0.000    0.000    0.000    0.000 
#    0.000    0.000    0.000    0.000    0.000    0.000 
#
# Total GULP energy -198230.509218 kJ/mol
# GULP energy per Si atom -12389.406826 kJ/mol
# Density = 2.281142 g / cm^3
# Si number density = 22.863459 Si / 1000 Ang^3
#
#
#
# Elastic Constant Matrix: (Units=GPa)
#
#
# Indices 1 2 3 4 5 6 
#
# 1 71.0964 44.6659 40.8123 0.0000 18.3511 0.0000
# 2 44.6659 153.1982 63.0677 0.0000 32.4855 0.0000
# 3 40.8123 63.0677 104.9165 0.0000 17.2021 0.0000
# 4 0.0000 0.0000 0.0000 37.9642 0.0000 6.2894
# 5 18.3511 32.4855 17.2021 0.0000 31.9323 0.0000
# 6 0.0000 0.0000 0.0000 6.2894 0.0000 33.5740
#
#
#
# Elastic Compliance Matrix: (Units=1/GPa)
#
#
# Indices 1 2 3 4 5 6 
#
# 1 0.020300 -0.002323 -0.005457 0.000000 -0.006363 0.000000
# 2 -0.002323 0.010424 -0.004215 0.000000 -0.006999 0.000000
# 3 -0.005457 -0.004215 0.014227 0.000000 -0.000240 0.000000
# 4 0.000000 0.000000 0.000000 0.027184 0.000000 -0.005092
# 5 -0.006363 -0.006999 -0.000240 0.000000 0.042223 0.000000
# 6 0.000000 0.000000 0.000000 -0.005092 0.000000 0.030739
#
#
# Mechanical properties :
#
#
# Convention : Reuss Voigt Hill
#
# Bulk Modulus (GPa) = 47.70621 69.58922 58.64771
# Shear Modulus (GPa) = 28.39718 32.73843 30.56781
#
# Velocity S-wave (km/s) = 3.52807 3.78816 3.66043
# Velocity P-wave (km/s) = 6.12433 7.04532 6.60091
#
# Compressibility (1/GPa) = 0.02096163
#
# Stress axis : x y z
#
# Youngs Moduli (GPa) = 49.26203 95.93182 70.28747
#
# Poissons Ratio (x) = 0.22282 0.38356
# Poissons Ratio (y) = 0.11442 0.29627
# Poissons Ratio (z) = 0.26882 0.40436
#
# Static dielectric constant tensor:
#      x y z
#    x 3.701000 0.000000 -0.031760 
#    y 0.000000 4.588550 0.000000 
#    z -0.031760 0.000000 4.195210 
# 
# 
# High freq. dielectric constant tensor:
#      x y z
#    x 1.870280 0.000000 -0.004790 
#    y 0.000000 1.911650 0.000000 
#    z -0.004790 0.000000 1.900450 
# 
# From -- ./inp_files/75478.got.cif
#   From: 2010.06.25/outbox.cif.g09.slc.cpg/sg13_38_cif.got.tgz:75478.got - 2010.06.28 04:50:58.
