data_PCOD8120181
_publ_section_title
;
Structure prediction by ZEFSAII (Michael W. Deem and Ramdas Pophale) SiO2 
 PCOD8120181
Probable space group: P 2/C
;
_chemical_formula_sum "Si O2"
_cell_formula_units_Z 20
_cell_length_a 6.928859
_cell_length_b 9.509855
_cell_length_c 26.994552
_cell_angle_alpha 90.000000
_cell_angle_beta 144.549246
_cell_angle_gamma 90.000000
_cell_volume 1031.672815
_symmetry_space_group_name_H-M "P 2/C"
_symmetry_group_IT_number 13
_symmetry_cell_setting 'monoclinic'
loop_
_space_group_symop_operation_xyz
x,y,z
-x,y,1/2-z
-x,-y,-z
x,-y,1/2+z
loop_
_atom_site_type_symbol
_atom_site_label
_atom_site_fract_x
_atom_site_fract_y
_atom_site_fract_z
Si Si1 0.997195 0.250000 0.863704
Si Si2 0.299106 0.750000 0.097772
Si Si3 0.779428 0.981803 0.158433
Si Si4 0.565197 0.250000 0.456064
Si Si5 0.220573 0.481803 0.841567
O O1 0.982936 0.111145 0.827008
O O2 0.692811 0.250000 0.839775
O O3 0.982936 0.388855 0.827007
O O4 0.350558 0.250000 0.967666
O O5 0.473786 0.889089 0.114217
O O6 0.473785 0.610911 0.114217
O O7 0.915110 0.750000 0.998810
O O8 0.000000 0.037399 0.250000
O O9 0.647413 0.113265 0.100491
O O10 0.352588 0.386735 0.399509
O O11 0.000000 0.537399 0.750000
#
# Coordination Sequence:
#
# PCOD8120181 Si02
#       5
#     4   4   4   4   4
#     4   9  21  36  61  75 109 147 187 207 268 333
#     4   9  21  36  61  75 109 147 187 207 268 333
#     4  11  21  37  57  83 110 140 180 229 269 311
#     4  10  21  38  57  80 112 142 180 224 269 318
#     4  11  21  37  57  83 110 140 180 229 269 311
#
# _framework density 19.38599
#
# number of rings (size 3 to 8) (size 9 to 14) (size 15 to 20)
#    1.200    0.800    0.000    5.400    0.000    3.200 
#    0.000    0.000    0.000    4.800    0.000    0.000 
#    0.000    0.000    0.000    0.000    0.000    0.000 
#
# Total GULP energy -247953.065174 kJ/mol
# GULP energy per Si atom -12397.653259 kJ/mol
# Density = 1.934187 g / cm^3
# Si number density = 19.385990 Si / 1000 Ang^3
#
#
#
# Elastic Constant Matrix: (Units=GPa)
#
#
# Indices 1 2 3 4 5 6 
#
# 1 79.4272 19.5711 -17.7678 0.0000 -9.4663 0.0000
# 2 19.5711 70.6250 -8.8506 0.0000 -0.5688 0.0000
# 3 -17.7678 -8.8506 53.0037 0.0000 -12.3539 0.0000
# 4 0.0000 0.0000 0.0000 12.1275 0.0000 -10.1918
# 5 -9.4663 -0.5688 -12.3539 0.0000 33.4936 0.0000
# 6 0.0000 0.0000 0.0000 -10.1918 0.0000 3.8892
#
#
#
# Elastic Compliance Matrix: (Units=1/GPa)
#
#
# Indices 1 2 3 4 5 6 
#
# 1 0.015633 -0.003501 0.006205 0.000000 0.006648 0.000000
# 2 -0.003501 0.015293 0.001324 0.000000 -0.000241 0.000000
# 3 0.006205 0.001324 0.023612 0.000000 0.010485 0.000000
# 4 0.000000 0.000000 0.000000 -0.068583 0.000000 -0.179727
# 5 0.006648 -0.000241 0.010485 0.000000 0.035599 0.000000
# 6 0.000000 0.000000 0.000000 -0.179727 0.000000 -0.213861
#
#
# Mechanical properties :
#
#
# Convention : Reuss Voigt Hill
#
# Bulk Modulus (GPa) = 15.97577 20.99570 18.48574
# Shear Modulus (GPa) = -27.85526 23.90894 -1.97316
#
# Velocity S-wave (km/s) = -3.79473 3.51566 -1.00997
# Velocity P-wave (km/s) = 3.30774 5.22816 2.86291
#
# Compressibility (1/GPa) = 0.06259479
#
# Stress axis : x y z
#
# Youngs Moduli (GPa) = 63.96631 65.38757 42.35189
#
# Poissons Ratio (x) = 0.22892 -0.26281
# Poissons Ratio (y) = 0.22395 -0.05607
# Poissons Ratio (z) = -0.39693 -0.08656
#
# Static dielectric constant tensor:
#      x y z
#    x 3.426290 0.000000 -0.124670 
#    y 0.000000 3.348870 0.000000 
#    z -0.124670 0.000000 3.524980 
# 
# 
# High freq. dielectric constant tensor:
#      x y z
#    x 1.747840 0.000000 -0.007600 
#    y 0.000000 1.746760 0.000000 
#    z -0.007600 0.000000 1.762030 
# 
# From -- ./inp_files/95877.got.cif
#   From: 2010.06.25/outbox.cif.g09.slc.cpg/sg13_48_cif.got.tgz:95877.got - 2010.06.28 04:50:58.
