data_PCOD8120389
_publ_section_title
;
Structure prediction by ZEFSAII (Michael W. Deem and Ramdas Pophale) SiO2 
 PCOD8120389
Probable space group: P 2/C
;
_chemical_formula_sum "Si O2"
_cell_formula_units_Z 32
_cell_length_a 16.051817
_cell_length_b 14.754681
_cell_length_c 11.566550
_cell_angle_alpha 90.000000
_cell_angle_beta 146.327732
_cell_angle_gamma 90.000000
_cell_volume 1518.845987
_symmetry_space_group_name_H-M "P 2/C"
_symmetry_group_IT_number 13
_symmetry_cell_setting 'monoclinic'
loop_
_space_group_symop_operation_xyz
x,y,z
-x,y,1/2-z
-x,-y,-z
x,-y,1/2+z
loop_
_atom_site_type_symbol
_atom_site_label
_atom_site_fract_x
_atom_site_fract_y
_atom_site_fract_z
Si Si1 0.704376 0.261233 0.364950
Si Si2 0.806469 0.367748 0.133390
Si Si3 0.824771 0.754224 0.252629
Si Si4 0.862809 0.191286 0.322004
Si Si5 0.642792 0.434372 0.156264
Si Si6 0.135281 0.585697 0.045388
Si Si7 0.452490 0.129931 0.035509
Si Si8 0.400807 0.932795 0.030524
O O1 0.810973 0.264900 0.599574
O O2 0.799606 0.231496 0.366440
O O3 0.628534 0.357419 0.239882
O O4 0.579516 0.185552 0.252250
O O5 0.848090 0.263286 0.202248
O O6 0.664294 0.394511 0.050689
O O7 0.956870 0.428313 0.324760
O O8 0.770178 0.376844 0.956162
O O9 0.838296 0.654411 0.319584
O O10 0.961534 0.822188 0.445674
O O11 0.682569 0.802372 0.144154
O O12 0.772525 0.102255 0.174253
O O13 0.798020 0.487410 0.352594
O O14 0.500000 0.500000 0.000000
O O15 0.396085 0.041495 0.039597
O O16 0.515804 0.099063 0.986707
O O17 0.500000 0.891923 0.250000
#
# Coordination Sequence:
#
# PCOD8120389 Si02
#       8
#     4   4   4   4   4   4   4   4
#     4  10  21  40  60  86 126 164 199 248 315 363
#     4   9  21  42  56  81 121 154 199 253 302 371
#     4  11  21  37  63  89 122 157 205 253 307 363
#     4   9  21  39  61  91 117 158 203 248 306 364
#     4  11  23  38  58  89 117 156 211 259 301 355
#     4  10  22  38  60  83 116 164 198 247 309 364
#     4  10  22  39  60  91 119 160 201 243 307 372
#     4  10  21  39  63  87 122 160 198 243 307 379
#
# _framework density 21.068628
#
# number of rings (size 3 to 8) (size 9 to 14) (size 15 to 20)
#    0.000    2.000    0.000    2.625    3.500    1.000 
#    4.500    0.000    0.000    0.000    0.000    0.000 
#    0.000    0.000    0.000    0.000    0.000    0.000 
#
# Total GULP energy -396627.390411 kJ/mol
# GULP energy per Si atom -12394.605950 kJ/mol
# Density = 2.102068 g / cm^3
# Si number density = 21.068628 Si / 1000 Ang^3
#
#
#
# Elastic Constant Matrix: (Units=GPa)
#
#
# Indices 1 2 3 4 5 6 
#
# 1 55.9510 14.8528 25.3891 0.0000 -2.6473 0.0000
# 2 14.8528 91.3042 37.1797 0.0000 -1.6125 0.0000
# 3 25.3891 37.1797 102.0438 0.0000 -8.8955 0.0000
# 4 0.0000 0.0000 0.0000 28.4325 0.0000 10.9101
# 5 -2.6473 -1.6125 -8.8955 0.0000 36.1754 0.0000
# 6 0.0000 0.0000 0.0000 10.9101 0.0000 26.2890
#
#
#
# Elastic Compliance Matrix: (Units=1/GPa)
#
#
# Indices 1 2 3 4 5 6 
#
# 1 0.020316 -0.001470 -0.004491 0.000000 0.000317 0.000000
# 2 -0.001470 0.012979 -0.004417 0.000000 -0.000615 0.000000
# 3 -0.004491 -0.004417 0.012754 0.000000 0.002611 0.000000
# 4 0.000000 0.000000 0.000000 0.041833 0.000000 -0.017361
# 5 0.000317 -0.000615 0.002611 0.000000 0.028281 0.000000
# 6 0.000000 0.000000 0.000000 -0.017361 0.000000 0.045244
#
#
# Mechanical properties :
#
#
# Convention : Reuss Voigt Hill
#
# Bulk Modulus (GPa) = 39.53772 44.90468 42.22120
# Shear Modulus (GPa) = 26.23369 29.63787 27.93578
#
# Velocity S-wave (km/s) = 3.53250 3.75471 3.64530
# Velocity P-wave (km/s) = 5.95357 6.33695 6.14825
#
# Compressibility (1/GPa) = 0.02529231
#
# Stress axis : x y z
#
# Youngs Moduli (GPa) = 49.22181 77.04596 78.40658
#
# Poissons Ratio (x) = 0.11329 0.35216
# Poissons Ratio (y) = 0.07237 0.34630
# Poissons Ratio (z) = 0.22108 0.34029
#
# Static dielectric constant tensor:
#      x y z
#    x 3.876520 0.000000 0.008540 
#    y 0.000000 3.915730 0.000000 
#    z 0.008540 0.000000 3.825040 
# 
# 
# High freq. dielectric constant tensor:
#      x y z
#    x 1.834460 0.000000 -0.005330 
#    y 0.000000 1.816650 0.000000 
#    z -0.005330 0.000000 1.823370 
# 
# From -- ./inp_files/39482.got.cif
#   From: 2010.06.25/outbox.cif.g09.slc.cpg/sg13_20_cif.got.tgz:39482.got - 2010.06.28 04:50:58.
