data_PCOD8120545
_publ_section_title
;
Structure prediction by ZEFSAII (Michael W. Deem and Ramdas Pophale) SiO2 
 PCOD8120545
Probable space group: P 2/C
;
_chemical_formula_sum "Si O2"
_cell_formula_units_Z 32
_cell_length_a 7.614325
_cell_length_b 11.958610
_cell_length_c 15.905322
_cell_angle_alpha 90.000000
_cell_angle_beta 96.357301
_cell_angle_gamma 90.000000
_cell_volume 1439.380889
_symmetry_space_group_name_H-M "P 2/C"
_symmetry_group_IT_number 13
_symmetry_cell_setting 'monoclinic'
loop_
_space_group_symop_operation_xyz
x,y,z
-x,y,1/2-z
-x,-y,-z
x,-y,1/2+z
loop_
_atom_site_type_symbol
_atom_site_label
_atom_site_fract_x
_atom_site_fract_y
_atom_site_fract_z
Si Si1 0.799711 0.101919 0.238945
Si Si2 0.781316 0.721899 0.077234
Si Si3 0.791231 0.024913 0.580517
Si Si4 0.544023 0.371970 0.016730
Si Si5 0.324947 0.340241 0.290746
Si Si6 0.178466 0.281995 0.601039
Si Si7 0.705083 0.412568 0.738864
Si Si8 0.797831 0.974643 0.398230
O O1 0.802009 0.236352 0.236126
O O2 0.000000 0.057887 0.250000
O O3 0.706062 0.052775 0.149329
O O4 0.710555 0.050540 0.319161
O O5 0.756654 0.848318 0.107560
O O6 0.740634 0.636267 0.149388
O O7 0.980687 0.708190 0.051901
O O8 0.640198 0.696628 0.996362
O O9 0.996910 0.994238 0.584002
O O10 0.705784 0.001359 0.483767
O O11 0.635935 0.349666 0.109180
O O12 0.500000 0.500000 0.000000
O O13 0.680454 0.334972 0.953044
O O14 0.500000 0.312320 0.250000
O O15 0.239648 0.456751 0.255219
O O16 0.173779 0.348805 0.688158
O O17 0.231859 0.155171 0.624415
O O18 0.500000 0.398279 0.750000
#
# Coordination Sequence:
#
# PCOD8120545 Si02
#       8
#     4   4   4   4   4   4   4   4
#     4  10  21  40  64  92 131 173 217 278 335 393
#     4  11  23  41  73 100 126 177 222 269 332 398
#     4   9  19  38  62  94 129 165 216 271 334 393
#     4  12  24  47  65  96 141 172 218 284 336 384
#     4  11  25  44  61  91 137 176 215 271 341 398
#     4  11  23  42  74  99 127 174 228 270 325 406
#     4  11  21  44  66  92 137 175 212 279 332 382
#     4   9  19  38  63  93 129 168 212 276 333 386
#
# _framework density 22.231781999999999
#
# number of rings (size 3 to 8) (size 9 to 14) (size 15 to 20)
#    0.000    1.500    2.500    2.625    1.750    4.500 
#    2.250    1.250    0.000    0.000    0.000    0.000 
#    0.000    0.000    0.000    0.000    0.000    0.000 
#
# Total GULP energy -396783.462871 kJ/mol
# GULP energy per Si atom -12399.483215 kJ/mol
# Density = 2.218118 g / cm^3
# Si number density = 22.231782 Si / 1000 Ang^3
#
#
#
# Elastic Constant Matrix: (Units=GPa)
#
#
# Indices 1 2 3 4 5 6 
#
# 1 59.1150 31.8885 11.1934 0.0000 -0.3068 0.0000
# 2 31.8885 159.9480 56.0086 0.0000 -0.9939 0.0000
# 3 11.1934 56.0086 141.2377 0.0000 0.3920 0.0000
# 4 0.0000 0.0000 0.0000 44.0996 0.0000 -0.2295
# 5 -0.3068 -0.9939 0.3920 0.0000 18.3958 0.0000
# 6 0.0000 0.0000 0.0000 -0.2295 0.0000 9.3572
#
#
#
# Elastic Compliance Matrix: (Units=1/GPa)
#
#
# Indices 1 2 3 4 5 6 
#
# 1 0.018955 -0.003777 -0.000005 0.000000 0.000112 0.000000
# 2 -0.003777 0.008016 -0.002881 0.000000 0.000432 0.000000
# 3 -0.000005 -0.002881 0.008224 0.000000 -0.000331 0.000000
# 4 0.000000 0.000000 0.000000 0.022679 0.000000 0.000556
# 5 0.000112 0.000432 -0.000331 0.000000 0.054392 0.000000
# 6 0.000000 0.000000 0.000000 0.000556 0.000000 0.106883
#
#
# Mechanical properties :
#
#
# Convention : Reuss Voigt Hill
#
# Bulk Modulus (GPa) = 45.72345 62.05355 53.88850
# Shear Modulus (GPa) = 20.85378 31.78453 26.31916
#
# Velocity S-wave (km/s) = 3.06603 3.78522 3.44445
# Velocity P-wave (km/s) = 5.75720 6.86124 6.33332
#
# Compressibility (1/GPa) = 0.02187062
#
# Stress axis : x y z
#
# Youngs Moduli (GPa) = 52.75682 124.74380 121.59551
#
# Poissons Ratio (x) = 0.47111 0.00060
# Poissons Ratio (y) = 0.19924 0.35030
# Poissons Ratio (z) = 0.00026 0.35937
#
# Static dielectric constant tensor:
#      x y z
#    x 3.864710 0.000000 0.140350 
#    y 0.000000 4.164290 0.000000 
#    z 0.140350 0.000000 4.565060 
# 
# 
# High freq. dielectric constant tensor:
#      x y z
#    x 1.853810 0.000000 -0.003900 
#    y 0.000000 1.887700 0.000000 
#    z -0.003900 0.000000 1.882390 
# 
# From -- ./inp_files/47250.got.cif
#   From: 2010.06.25/outbox.cif.g09.slc.cpg/sg13_24_cif.got.tgz:47250.got - 2010.06.28 04:50:58.
