data_PCOD8120994
_publ_section_title
;
Structure prediction by ZEFSAII (Michael W. Deem and Ramdas Pophale) SiO2 
 PCOD8120994
Probable space group: P 2/C
;
_chemical_formula_sum "Si O2"
_cell_formula_units_Z 26
_cell_length_a 6.536738
_cell_length_b 11.297620
_cell_length_c 21.078102
_cell_angle_alpha 90.000000
_cell_angle_beta 124.550798
_cell_angle_gamma 90.000000
_cell_volume 1282.060071
_symmetry_space_group_name_H-M "P 2/C"
_symmetry_group_IT_number 13
_symmetry_cell_setting 'monoclinic'
loop_
_space_group_symop_operation_xyz
x,y,z
-x,y,1/2-z
-x,-y,-z
x,-y,1/2+z
loop_
_atom_site_type_symbol
_atom_site_label
_atom_site_fract_x
_atom_site_fract_y
_atom_site_fract_z
Si Si1 0.554007 0.446726 0.327980
Si Si2 0.417117 0.620844 0.418287
Si Si3 0.095656 0.538457 0.948676
Si Si4 0.000000 0.981373 0.750000
Si Si5 0.543968 0.814270 0.685886
Si Si6 0.288257 0.118640 0.897934
Si Si7 0.261653 0.057600 0.035144
O O1 0.500000 0.504535 0.250000
O O2 0.471251 0.537794 0.367334
O O3 0.400836 0.325459 0.311896
O O4 0.846137 0.409289 0.374003
O O5 0.675645 0.631169 0.504010
O O6 0.198752 0.570160 0.424481
O O7 0.334577 0.749207 0.379871
O O8 0.000000 0.500000 0.000000
O O9 0.956059 0.065566 0.680652
O O10 0.772486 0.893565 0.707066
O O11 0.500000 0.849343 0.750000
O O12 0.312916 0.847108 0.599555
O O13 0.532238 0.043679 0.926070
O O14 0.248380 0.125752 0.966072
O O15 0.000000 0.000000 0.000000
#
# Coordination Sequence:
#
# PCOD8120994 Si02
#       7
#     4   4   4   2   4   4   4
#     4  10  23  39  59  96 124 163 214 250 317 382
#     4  10  22  40  64  89 127 167 199 265 315 365
#     4   9  21  38  58  89 125 159 207 246 311 372
#     4  10  22  44  58  86 128 156 208 258 316 372
#     4  10  22  39  62  86 121 165 202 258 313 366
#     4  10  23  39  62  93 119 165 211 253 317 378
#     4  10  22  38  61  90 120 159 216 256 306 369
#
# _framework density 20.279862999999999
#
# number of rings (size 3 to 8) (size 9 to 14) (size 15 to 20)
#    0.000    2.154    0.000    0.923    8.615    5.538 
#    2.769    3.077    0.000    0.000    0.000    0.000 
#    0.000    0.000    0.000    0.000    0.000    0.000 
#
# Total GULP energy -322199.604752 kJ/mol
# GULP energy per Si atom -12392.292490 kJ/mol
# Density = 2.023370 g / cm^3
# Si number density = 20.279863 Si / 1000 Ang^3
#
#
#
# Elastic Constant Matrix: (Units=GPa)
#
#
# Indices 1 2 3 4 5 6 
#
# 1 89.4628 35.3900 44.3809 0.0000 -5.9150 0.0000
# 2 35.3900 111.6879 45.2908 0.0000 -4.7646 0.0000
# 3 44.3809 45.2908 140.8030 0.0000 -8.9831 0.0000
# 4 0.0000 0.0000 0.0000 30.1496 0.0000 -3.5830
# 5 -5.9150 -4.7646 -8.9831 0.0000 35.7313 0.0000
# 6 0.0000 0.0000 0.0000 -3.5830 0.0000 20.7623
#
#
#
# Elastic Compliance Matrix: (Units=1/GPa)
#
#
# Indices 1 2 3 4 5 6 
#
# 1 0.014148 -0.003055 -0.003408 0.000000 0.001078 0.000000
# 2 -0.003055 0.010967 -0.002544 0.000000 0.000317 0.000000
# 3 -0.003408 -0.002544 0.009083 0.000000 0.001380 0.000000
# 4 0.000000 0.000000 0.000000 0.033862 0.000000 0.005844
# 5 0.001078 0.000317 0.001380 0.000000 0.028554 0.000000
# 6 0.000000 0.000000 0.000000 0.005844 0.000000 0.049173
#
#
# Mechanical properties :
#
#
# Convention : Reuss Voigt Hill
#
# Bulk Modulus (GPa) = 61.79381 65.78634 63.79007
# Shear Modulus (GPa) = 29.55134 31.78809 30.66971
#
# Velocity S-wave (km/s) = 3.82144 3.96342 3.89308
# Velocity P-wave (km/s) = 7.07162 7.31127 7.19244
#
# Compressibility (1/GPa) = 0.01618285
#
# Stress axis : x y z
#
# Youngs Moduli (GPa) = 70.67970 91.18346 110.09791
#
# Poissons Ratio (x) = 0.27858 0.37522
# Poissons Ratio (y) = 0.21593 0.28014
# Poissons Ratio (z) = 0.24088 0.23201
#
# Static dielectric constant tensor:
#      x y z
#    x 3.977890 0.000000 0.079620 
#    y 0.000000 3.495050 0.000000 
#    z 0.079620 0.000000 4.261120 
# 
# 
# High freq. dielectric constant tensor:
#      x y z
#    x 1.787950 0.000000 -0.000210 
#    y 0.000000 1.781540 0.000000 
#    z -0.000210 0.000000 1.810040 
# 
# From -- ./inp_files/73738.got.cif
#   From: 2010.06.25/outbox.cif.g09.slc.cpg/sg13_37_cif.got.tgz:73738.got - 2010.06.28 04:50:58.
