data_PCOD8120530
_publ_section_title
;
Structure prediction by ZEFSAII (Michael W. Deem and Ramdas Pophale) SiO2 
 PCOD8120530
Probable space group: P 2/C
;
_chemical_formula_sum "Si O2"
_cell_formula_units_Z 24
_cell_length_a 10.530773
_cell_length_b 9.500128
_cell_length_c 21.748318
_cell_angle_alpha 90.000000
_cell_angle_beta 32.002182
_cell_angle_gamma 90.000000
_cell_volume 1153.059074
_symmetry_space_group_name_H-M "P 2/C"
_symmetry_group_IT_number 13
_symmetry_cell_setting 'monoclinic'
loop_
_space_group_symop_operation_xyz
x,y,z
-x,y,1/2-z
-x,-y,-z
x,-y,1/2+z
loop_
_atom_site_type_symbol
_atom_site_label
_atom_site_fract_x
_atom_site_fract_y
_atom_site_fract_z
Si Si1 0.459077 0.651952 0.436847
Si Si2 0.680490 0.163546 0.277971
Si Si3 0.134081 0.871700 0.256072
Si Si4 0.855639 0.132382 0.987903
Si Si5 0.926546 0.812744 0.976967
Si Si6 0.258882 0.387800 0.150850
O O1 0.688493 0.748251 0.334262
O O2 0.257249 0.690024 0.468761
O O3 0.549195 0.490639 0.394822
O O4 0.354165 0.673247 0.547612
O O5 0.399611 0.198517 0.390003
O O6 0.794924 0.252988 0.285533
O O7 0.811501 0.208500 0.161071
O O8 0.718277 0.999040 0.275084
O O9 0.000000 0.923116 0.250000
O O10 0.944362 0.814562 0.384801
O O11 0.046105 0.186998 0.960508
O O12 0.825415 0.963790 0.997758
O O13 0.000000 0.465252 0.250000
#
# Coordination Sequence:
#
# PCOD8120530 Si02
#       6
#     4   4   4   4   4   4
#     4  11  23  41  62  92 126 166 210 256 314 382
#     4  11  21  38  64  92 125 162 214 264 311 369
#     4  11  23  37  63  95 127 160 209 267 318 376
#     4  10  22  38  64  95 126 164 208 263 318 373
#     4  10  21  40  63  92 126 167 212 257 317 377
#     4  11  23  39  64  92 129 168 207 258 317 369
#
# _framework density 20.814198000000001
#
# number of rings (size 3 to 8) (size 9 to 14) (size 15 to 20)
#    0.000    1.333    3.333    2.500    2.333    3.333 
#    0.000    0.833    3.667    0.000    0.000    0.000 
#    0.000    0.000    0.000    0.000    0.000    0.000 
#
# Total GULP energy -297613.073277 kJ/mol
# GULP energy per Si atom -12400.544720 kJ/mol
# Density = 2.076682 g / cm^3
# Si number density = 20.814198 Si / 1000 Ang^3
#
#
#
# Elastic Constant Matrix: (Units=GPa)
#
#
# Indices 1 2 3 4 5 6 
#
# 1 101.9646 20.0978 49.1429 0.0000 4.5740 0.0000
# 2 20.0978 47.1447 24.8275 0.0000 -1.9830 0.0000
# 3 49.1429 24.8275 133.5084 0.0000 0.2366 0.0000
# 4 0.0000 0.0000 0.0000 25.6168 0.0000 -4.7212
# 5 4.5740 -1.9830 0.2366 0.0000 37.3296 0.0000
# 6 0.0000 0.0000 0.0000 -4.7212 0.0000 32.2005
#
#
#
# Elastic Compliance Matrix: (Units=1/GPa)
#
#
# Indices 1 2 3 4 5 6 
#
# 1 0.012441 -0.003286 -0.003965 0.000000 -0.001674 0.000000
# 2 -0.003286 0.024443 -0.003339 0.000000 0.001722 0.000000
# 3 -0.003965 -0.003339 0.009570 0.000000 0.000248 0.000000
# 4 0.000000 0.000000 0.000000 0.040121 0.000000 0.005882
# 5 -0.001674 0.001722 0.000248 0.000000 0.027083 0.000000
# 6 0.000000 0.000000 0.000000 0.005882 0.000000 0.031918
#
#
# Mechanical properties :
#
#
# Convention : Reuss Voigt Hill
#
# Bulk Modulus (GPa) = 39.56662 52.30599 45.93631
# Shear Modulus (GPa) = 28.54176 31.59937 30.07057
#
# Velocity S-wave (km/s) = 3.70708 3.90059 3.80506
# Velocity P-wave (km/s) = 6.11342 6.74319 6.43601
#
# Compressibility (1/GPa) = 0.02527383
#
# Stress axis : x y z
#
# Youngs Moduli (GPa) = 80.37766 40.91170 104.48983
#
# Poissons Ratio (x) = 0.13443 0.41435
# Poissons Ratio (y) = 0.26410 0.34889
# Poissons Ratio (z) = 0.31874 0.13661
#
# Static dielectric constant tensor:
#      x y z
#    x 3.649520 0.000000 0.050980 
#    y 0.000000 3.468370 0.000000 
#    z 0.050980 0.000000 3.988590 
# 
# 
# High freq. dielectric constant tensor:
#      x y z
#    x 1.807590 0.000000 -0.002190 
#    y 0.000000 1.789480 0.000000 
#    z -0.002190 0.000000 1.834440 
# 
# From -- ./inp_files/39233.got.cif
#   From: 2010.06.25/outbox.cif.g09.slc.cpg/sg13_20_cif.got.tgz:39233.got - 2010.06.28 04:50:58.
