data_PCOD8120790
_publ_section_title
;
Structure prediction by ZEFSAII (Michael W. Deem and Ramdas Pophale) SiO2 
 PCOD8120790
Probable space group: P 2/C
;
_chemical_formula_sum "Si O2"
_cell_formula_units_Z 22
_cell_length_a 21.349084
_cell_length_b 8.902101
_cell_length_c 13.334779
_cell_angle_alpha 90.000000
_cell_angle_beta 156.177256
_cell_angle_gamma 90.000000
_cell_volume 1023.624190
_symmetry_space_group_name_H-M "P 2/C"
_symmetry_group_IT_number 13
_symmetry_cell_setting 'monoclinic'
loop_
_space_group_symop_operation_xyz
x,y,z
-x,y,1/2-z
-x,-y,-z
x,-y,1/2+z
loop_
_atom_site_type_symbol
_atom_site_label
_atom_site_fract_x
_atom_site_fract_y
_atom_site_fract_z
Si Si1 0.345839 0.678929 0.957166
Si Si2 0.000000 0.251278 0.250000
Si Si3 0.270391 0.649225 0.271606
Si Si4 0.547153 0.827811 0.581265
Si Si5 0.673335 0.155887 0.468251
Si Si6 0.876010 0.889374 0.764828
O O1 0.325222 0.511477 0.887339
O O2 0.372359 0.786295 0.903127
O O3 0.182852 0.733941 0.769490
O O4 0.500000 0.681648 0.250000
O O5 0.925782 0.141405 0.224027
O O6 0.119996 0.361512 0.481041
O O7 0.397307 0.728877 0.387760
O O8 0.223524 0.744300 0.303804
O O9 0.677060 0.794341 0.857434
O O10 0.500000 0.000000 0.500000
O O11 0.500000 0.175682 0.250000
O O12 0.716877 0.982218 0.533777
O O13 0.000000 0.000000 0.000000
#
# Coordination Sequence:
#
# PCOD8120790 Si02
#       6
#     4   2   4   4   4   4
#     4  12  25  45  71 102 138 184 238 291 354 411
#     4  12  26  46  68  96 150 180 238 280 362 418
#     4  11  24  44  68 102 140 183 226 293 347 426
#     4  11  22  40  73 103 132 175 236 289 343 408
#     4  10  21  42  69  98 132 176 234 289 345 411
#     4  12  26  45  68 101 141 186 231 290 354 423
#
# _framework density 21.492263000000001
#
# number of rings (size 3 to 8) (size 9 to 14) (size 15 to 20)
#    0.000    0.727    1.818    8.182    2.545    2.182 
#    3.273    0.000    0.000    0.000    0.000    0.000 
#    0.000    0.000    0.000    0.000    0.000    0.000 
#
# Total GULP energy -272651.198073 kJ/mol
# GULP energy per Si atom -12393.236276 kJ/mol
# Density = 2.144335 g / cm^3
# Si number density = 21.492263 Si / 1000 Ang^3
#
#
#
# Elastic Constant Matrix: (Units=GPa)
#
#
# Indices 1 2 3 4 5 6 
#
# 1 158.7899 61.9192 44.7395 0.0000 -16.0831 0.0000
# 2 61.9192 116.1122 18.3012 0.0000 12.6187 0.0000
# 3 44.7395 18.3012 91.2241 0.0000 -22.7738 0.0000
# 4 0.0000 0.0000 0.0000 29.6277 0.0000 -3.1925
# 5 -16.0831 12.6187 -22.7738 0.0000 33.0498 0.0000
# 6 0.0000 0.0000 0.0000 -3.1925 0.0000 37.7829
#
#
#
# Elastic Compliance Matrix: (Units=1/GPa)
#
#
# Indices 1 2 3 4 5 6 
#
# 1 0.009517 -0.005246 -0.002366 0.000000 0.005004 0.000000
# 2 -0.005246 0.012730 -0.002212 0.000000 -0.008938 0.000000
# 3 -0.002366 -0.002212 0.015084 0.000000 0.010088 0.000000
# 4 0.000000 0.000000 0.000000 0.034062 0.000000 0.002878
# 5 0.005004 -0.008938 0.010088 0.000000 0.043056 0.000000
# 6 0.000000 0.000000 0.000000 0.002878 0.000000 0.026710
#
#
# Mechanical properties :
#
#
# Convention : Reuss Voigt Hill
#
# Bulk Modulus (GPa) = 56.55099 68.44956 62.50028
# Shear Modulus (GPa) = 29.99376 36.16986 33.08181
#
# Velocity S-wave (km/s) = 3.73977 4.10680 3.92757
# Velocity P-wave (km/s) = 6.70949 7.37600 7.05062
#
# Compressibility (1/GPa) = 0.01768316
#
# Stress axis : x y z
#
# Youngs Moduli (GPa) = 105.07997 78.55567 66.29362
#
# Poissons Ratio (x) = 0.41209 0.15683
# Poissons Ratio (y) = 0.55123 0.14666
# Poissons Ratio (z) = 0.24858 0.17379
#
# Static dielectric constant tensor:
#      x y z
#    x 4.366720 0.000000 -0.586470 
#    y 0.000000 3.831870 0.000000 
#    z -0.586470 0.000000 3.712280 
# 
# 
# High freq. dielectric constant tensor:
#      x y z
#    x 1.857810 0.000000 -0.015730 
#    y 0.000000 1.841610 0.000000 
#    z -0.015730 0.000000 1.848460 
# 
# From -- ./inp_files/58755.got.cif
#   From: 2010.06.25/outbox.cif.g09.slc.cpg/sg13_30_cif.got.tgz:58755.got - 2010.06.28 04:50:58.
