data_PCOD8120538
_publ_section_title
;
Structure prediction by ZEFSAII (Michael W. Deem and Ramdas Pophale) SiO2 
 PCOD8120538
Probable space group: P 2/C
;
_chemical_formula_sum "Si O2"
_cell_formula_units_Z 22
_cell_length_a 9.413623
_cell_length_b 15.804412
_cell_length_c 15.390646
_cell_angle_alpha 90.000000
_cell_angle_beta 150.580642
_cell_angle_gamma 90.000000
_cell_volume 1124.730958
_symmetry_space_group_name_H-M "P 2/C"
_symmetry_group_IT_number 13
_symmetry_cell_setting 'monoclinic'
loop_
_space_group_symop_operation_xyz
x,y,z
-x,y,1/2-z
-x,-y,-z
x,-y,1/2+z
loop_
_atom_site_type_symbol
_atom_site_label
_atom_site_fract_x
_atom_site_fract_y
_atom_site_fract_z
Si Si1 0.233565 0.332045 0.201930
Si Si2 0.500000 0.521576 0.750000
Si Si3 0.500000 0.810235 0.750000
Si Si4 0.000000 0.974897 0.750000
Si Si5 0.389376 0.640467 0.100224
Si Si6 0.664457 0.716108 0.079467
Si Si7 0.475888 0.894247 0.557752
O O1 0.246553 0.417712 0.151478
O O2 0.237494 0.251892 0.138499
O O3 0.497640 0.327158 0.410381
O O4 0.934501 0.329823 0.094198
O O5 0.606057 0.462090 0.886484
O O6 0.418898 0.868752 0.626416
O O7 0.813790 0.919051 0.720020
O O8 0.750595 0.029749 0.572122
O O9 0.500000 0.681807 0.250000
O O10 0.584769 0.672116 0.126721
O O11 0.000000 0.698497 0.250000
O O12 0.599001 0.816681 0.046759
#
# Coordination Sequence:
#
# PCOD8120538 Si02
#       7
#     4   2   2   2   4   4   4
#     4  10  21  40  64  88 125 165 203 256 302 354
#     4   9  22  38  64  87 130 150 212 257 306 346
#     4   9  22  36  66  89 120 162 202 245 302 352
#     4  10  22  40  64  88 120 162 188 252 312 356
#     4  10  24  37  63  92 118 163 211 248 306 357
#     4  11  24  40  62  91 124 163 208 248 304 363
#     4  10  22  40  63  89 124 156 201 246 302 368
#
# _framework density 19.560233
#
# number of rings (size 3 to 8) (size 9 to 14) (size 15 to 20)
#    0.545    1.455    0.909    1.091   12.727    1.455 
#    0.000    0.000    8.000    0.000    0.000    0.000 
#    0.000    0.000    0.000    0.000    0.000    0.000 
#
# Total GULP energy -272630.691288 kJ/mol
# GULP energy per Si atom -12392.304149 kJ/mol
# Density = 1.951571 g / cm^3
# Si number density = 19.560233 Si / 1000 Ang^3
#
#
#
# Elastic Constant Matrix: (Units=GPa)
#
#
# Indices 1 2 3 4 5 6 
#
# 1 153.3682 63.8637 66.1057 0.0000 10.2409 0.0000
# 2 63.8637 94.3770 42.0512 0.0000 0.3375 0.0000
# 3 66.1057 42.0512 112.4077 0.0000 21.4497 0.0000
# 4 0.0000 0.0000 0.0000 17.2405 0.0000 -0.3357
# 5 10.2409 0.3375 21.4497 0.0000 41.4706 0.0000
# 6 0.0000 0.0000 0.0000 -0.3357 0.0000 19.4436
#
#
#
# Elastic Compliance Matrix: (Units=1/GPa)
#
#
# Indices 1 2 3 4 5 6 
#
# 1 0.010531 -0.005281 -0.004138 0.000000 -0.000417 0.000000
# 2 -0.005281 0.015624 -0.003289 0.000000 0.002878 0.000000
# 3 -0.004138 -0.003289 0.013713 0.000000 -0.006044 0.000000
# 4 0.000000 0.000000 0.000000 0.058023 0.000000 0.001002
# 5 -0.000417 0.002878 -0.006044 0.000000 0.027319 0.000000
# 6 0.000000 0.000000 0.000000 0.001002 0.000000 0.051448
#
#
# Mechanical properties :
#
#
# Convention : Reuss Voigt Hill
#
# Bulk Modulus (GPa) = 69.18596 78.24379 73.71488
# Shear Modulus (GPa) = 24.16743 28.17308 26.17026
#
# Velocity S-wave (km/s) = 3.51884 3.79928 3.66174
# Velocity P-wave (km/s) = 7.20813 7.70288 7.45961
#
# Compressibility (1/GPa) = 0.01445380
#
# Stress axis : x y z
#
# Youngs Moduli (GPa) = 94.96189 64.00336 72.92267
#
# Poissons Ratio (x) = 0.33798 0.30174
# Poissons Ratio (y) = 0.50147 0.23981
# Poissons Ratio (z) = 0.39293 0.21048
#
# Static dielectric constant tensor:
#      x y z
#    x 3.628300 0.000000 0.099210 
#    y 0.000000 3.684660 0.000000 
#    z 0.099210 0.000000 3.372950 
# 
# 
# High freq. dielectric constant tensor:
#      x y z
#    x 1.767320 0.000000 0.011770 
#    y 0.000000 1.764810 0.000000 
#    z 0.011770 0.000000 1.749320 
# 
# From -- ./inp_files/48144.got.cif
#   From: 2010.06.25/outbox.cif.g09.slc.cpg/sg13_25_cif.got.tgz:48144.got - 2010.06.28 04:50:58.
