data_PCOD8120253
_publ_section_title
;
Structure prediction by ZEFSAII (Michael W. Deem and Ramdas Pophale) SiO2 
 PCOD8120253
Probable space group: P 2/C
;
_chemical_formula_sum "Si O2"
_cell_formula_units_Z 20
_cell_length_a 5.077858
_cell_length_b 22.880947
_cell_length_c 9.817768
_cell_angle_alpha 90.000000
_cell_angle_beta 118.807167
_cell_angle_gamma 90.000000
_cell_volume 999.524778
_symmetry_space_group_name_H-M "P 2/C"
_symmetry_group_IT_number 13
_symmetry_cell_setting 'monoclinic'
loop_
_space_group_symop_operation_xyz
x,y,z
-x,y,1/2-z
-x,-y,-z
x,-y,1/2+z
loop_
_atom_site_type_symbol
_atom_site_label
_atom_site_fract_x
_atom_site_fract_y
_atom_site_fract_z
Si Si1 0.650013 0.673351 0.146490
Si Si2 0.720211 0.166050 0.929782
Si Si3 0.369700 0.225364 0.067466
Si Si4 0.644470 0.541118 0.146839
Si Si5 0.686051 0.970486 0.427770
O O1 0.500000 0.696326 0.250000
O O2 0.543200 0.607522 0.087400
O O3 0.000000 0.673947 0.250000
O O4 0.576232 0.714033 0.999664
O O5 0.500000 0.182394 0.750000
O O6 0.769248 0.097481 0.954389
O O7 0.568574 0.178829 0.036761
O O8 0.026569 0.202664 0.984983
O O9 0.500000 0.234024 0.250000
O O10 0.500000 0.520023 0.250000
O O11 0.000000 0.533849 0.250000
O O12 0.500000 0.500000 0.000000
O O13 0.500000 0.985853 0.250000
O O14 0.500000 0.000000 0.500000
O O15 0.000000 0.000000 0.500000
#
# Coordination Sequence:
#
# PCOD8120253 Si02
#       5
#     4   4   4   4   4
#     4  10  21  39  61  84 118 163 200 235 295 367
#     4  11  24  42  62  85 118 160 196 232 292 365
#     4  12  24  38  60  91 118 149 197 253 297 336
#     4  10  21  38  61  89 120 158 201 245 297 354
#     4  11  24  41  63  89 118 154 195 239 292 350
#
# _framework density 20.009509999999999
#
# number of rings (size 3 to 8) (size 9 to 14) (size 15 to 20)
#    0.000    1.200    0.000    6.600    0.000    8.800 
#    0.000    2.000    0.000    0.000    0.000    0.000 
#    0.000    0.000    0.000    0.000    0.000    0.000 
#
# Total GULP energy -247934.872833 kJ/mol
# GULP energy per Si atom -12396.743642 kJ/mol
# Density = 1.996397 g / cm^3
# Si number density = 20.009510 Si / 1000 Ang^3
#
#
#
# Elastic Constant Matrix: (Units=GPa)
#
#
# Indices 1 2 3 4 5 6 
#
# 1 163.1600 62.7179 73.2042 0.0000 -13.4874 0.0000
# 2 62.7179 123.4976 102.0898 0.0000 1.6813 0.0000
# 3 73.2042 102.0898 173.8931 0.0000 -19.1472 0.0000
# 4 0.0000 0.0000 0.0000 42.1437 0.0000 -1.8960
# 5 -13.4874 1.6813 -19.1472 0.0000 36.5852 0.0000
# 6 0.0000 0.0000 0.0000 -1.8960 0.0000 38.9252
#
#
#
# Elastic Compliance Matrix: (Units=1/GPa)
#
#
# Indices 1 2 3 4 5 6 
#
# 1 0.008103 -0.003005 -0.001383 0.000000 0.002402 0.000000
# 2 -0.003005 0.018145 -0.010188 0.000000 -0.007274 0.000000
# 3 -0.001383 -0.010188 0.013062 0.000000 0.006795 0.000000
# 4 0.000000 0.000000 0.000000 0.023780 0.000000 0.001158
# 5 0.002402 -0.007274 0.006795 0.000000 0.032109 0.000000
# 6 0.000000 0.000000 0.000000 0.001158 0.000000 0.025747
#
#
# Mechanical properties :
#
#
# Convention : Reuss Voigt Hill
#
# Bulk Modulus (GPa) = 98.44221 104.06385 101.25303
# Shear Modulus (GPa) = 32.57681 38.36674 35.47177
#
# Velocity S-wave (km/s) = 4.03931 4.38359 4.21497
# Velocity P-wave (km/s) = 8.42966 8.81710 8.62556
#
# Compressibility (1/GPa) = 0.01015824
#
# Stress axis : x y z
#
# Youngs Moduli (GPa) = 123.41381 55.11298 76.55658
#
# Poissons Ratio (x) = 0.16560 0.10584
# Poissons Ratio (y) = 0.37083 0.77998
# Poissons Ratio (z) = 0.17063 0.56151
#
# Static dielectric constant tensor:
#      x y z
#    x 3.891140 0.000000 -0.093680 
#    y 0.000000 3.956340 0.000000 
#    z -0.093680 0.000000 3.622840 
# 
# 
# High freq. dielectric constant tensor:
#      x y z
#    x 1.805980 0.000000 -0.007040 
#    y 0.000000 1.797280 0.000000 
#    z -0.007040 0.000000 1.778630 
# 
# From -- ./inp_files/10090.got.cif
#   From: 2010.06.25/outbox.cif.g09.slc.cpg/sg13_6_cif.got.tgz:10090.got - 2010.06.28 04:50:58.
