data_PCOD8120602
_publ_section_title
;
Structure prediction by ZEFSAII (Michael W. Deem and Ramdas Pophale) SiO2 
 PCOD8120602
Probable space group: P 2/C
;
_chemical_formula_sum "Si O2"
_cell_formula_units_Z 18
_cell_length_a 20.158749
_cell_length_b 7.739982
_cell_length_c 15.727013
_cell_angle_alpha 90.000000
_cell_angle_beta 19.836310
_cell_angle_gamma 90.000000
_cell_volume 832.678399
_symmetry_space_group_name_H-M "P 2/C"
_symmetry_group_IT_number 13
_symmetry_cell_setting 'monoclinic'
loop_
_space_group_symop_operation_xyz
x,y,z
-x,y,1/2-z
-x,-y,-z
x,-y,1/2+z
loop_
_atom_site_type_symbol
_atom_site_label
_atom_site_fract_x
_atom_site_fract_y
_atom_site_fract_z
Si Si1 0.210946 0.668364 0.028648
Si Si2 0.766712 0.791851 0.802979
Si Si3 0.443974 0.814570 0.604823
Si Si4 0.500000 0.594062 0.250000
Si Si5 0.810638 0.798601 0.254281
O O1 0.194776 0.741138 0.142409
O O2 0.000000 0.601481 0.250000
O O3 0.288277 0.818428 0.871037
O O4 0.373812 0.516877 0.834441
O O5 0.657108 0.716293 0.851772
O O6 0.991790 0.731926 0.528107
O O7 0.772299 0.997788 0.799698
O O8 0.659855 0.715049 0.012895
O O9 0.637207 0.715919 0.406567
O O10 0.500000 0.000000 0.500000
#
# Coordination Sequence:
#
# PCOD8120602 Si02
#       5
#     4   4   4   2   4
#     4  12  24  44  65  96 135 178 214 265 335 395
#     4  10  24  42  66  99 125 170 223 271 325 383
#     4  10  21  40  69  98 122 167 224 272 318 378
#     4  12  28  42  62  98 144 174 208 272 332 404
#     4  10  21  44  70  93 126 168 224 277 317 382
#
# _framework density 21.616990000000001
#
# number of rings (size 3 to 8) (size 9 to 14) (size 15 to 20)
#    0.000    1.333    4.444    0.000    6.222    3.556 
#    0.000    1.111    0.000    0.000    0.000    0.000 
#    0.000    0.000    0.000    0.000    0.000    0.000 
#
# Total GULP energy -223028.010140 kJ/mol
# GULP energy per Si atom -12390.445008 kJ/mol
# Density = 2.156779 g / cm^3
# Si number density = 21.616990 Si / 1000 Ang^3
#
#
#
# Elastic Constant Matrix: (Units=GPa)
#
#
# Indices 1 2 3 4 5 6 
#
# 1 144.7841 29.7645 68.8875 0.0000 -27.9501 0.0000
# 2 29.7645 43.9975 54.0293 0.0000 2.3859 0.0000
# 3 68.8875 54.0293 187.1483 0.0000 -3.8316 0.0000
# 4 0.0000 0.0000 0.0000 20.9970 0.0000 -1.4947
# 5 -27.9501 2.3859 -3.8316 0.0000 53.7264 0.0000
# 6 0.0000 0.0000 0.0000 -1.4947 0.0000 17.4415
#
#
#
# Elastic Compliance Matrix: (Units=1/GPa)
#
#
# Indices 1 2 3 4 5 6 
#
# 1 0.009850 -0.004057 -0.002349 0.000000 0.005137 0.000000
# 2 -0.004057 0.037167 -0.009327 0.000000 -0.004427 0.000000
# 3 -0.002349 -0.009327 0.008897 0.000000 -0.000173 0.000000
# 4 0.000000 0.000000 0.000000 0.047918 0.000000 0.004107
# 5 0.005137 -0.004427 -0.000173 0.000000 0.021470 0.000000
# 6 0.000000 0.000000 0.000000 0.004107 0.000000 0.057686
#
#
# Mechanical properties :
#
#
# Convention : Reuss Voigt Hill
#
# Bulk Modulus (GPa) = 40.90460 75.69917 58.30188
# Shear Modulus (GPa) = 22.46117 33.31623 27.88870
#
# Velocity S-wave (km/s) = 3.22693 3.93008 3.59573
# Velocity P-wave (km/s) = 5.73128 7.46247 6.65342
#
# Compressibility (1/GPa) = 0.02444713
#
# Stress axis : x y z
#
# Youngs Moduli (GPa) = 101.51815 26.90526 112.39336
#
# Poissons Ratio (x) = 0.10917 0.26405
# Poissons Ratio (y) = 0.41191 1.04832
# Poissons Ratio (z) = 0.23850 0.25095
#
# Static dielectric constant tensor:
#      x y z
#    x 4.681160 0.000000 -0.515080 
#    y 0.000000 3.561680 0.000000 
#    z -0.515080 0.000000 4.319880 
# 
# 
# High freq. dielectric constant tensor:
#      x y z
#    x 1.868700 0.000000 -0.012690 
#    y 0.000000 1.812410 0.000000 
#    z -0.012690 0.000000 1.869770 
# 
# From -- ./inp_files/56999.got.cif
#   From: 2010.06.25/outbox.cif.g09.slc.cpg/sg13_29_cif.got.tgz:56999.got - 2010.06.28 04:50:58.
