data_PCOD8120248
_publ_section_title
;
Structure prediction by ZEFSAII (Michael W. Deem and Ramdas Pophale) SiO2 
 PCOD8120248
Probable space group: P 2/C
;
_chemical_formula_sum "Si O2"
_cell_formula_units_Z 28
_cell_length_a 10.729232
_cell_length_b 15.388861
_cell_length_c 9.943449
_cell_angle_alpha 90.000000
_cell_angle_beta 60.792869
_cell_angle_gamma 90.000000
_cell_volume 1433.037080
_symmetry_space_group_name_H-M "P 2/C"
_symmetry_group_IT_number 13
_symmetry_cell_setting 'monoclinic'
loop_
_space_group_symop_operation_xyz
x,y,z
-x,y,1/2-z
-x,-y,-z
x,-y,1/2+z
loop_
_atom_site_type_symbol
_atom_site_label
_atom_site_fract_x
_atom_site_fract_y
_atom_site_fract_z
Si Si1 0.396012 0.253441 0.929947
Si Si2 0.068593 0.242843 0.077196
Si Si3 0.082711 0.040496 0.078987
Si Si4 0.780406 0.498036 0.130481
Si Si5 0.378033 0.565594 0.531618
Si Si6 0.415922 0.943886 0.433916
Si Si7 0.980308 0.631746 0.412249
O O1 0.500000 0.261190 0.750000
O O2 0.413298 0.157011 0.985796
O O3 0.232955 0.269134 0.972319
O O4 0.430175 0.333157 0.014440
O O5 0.050752 0.141119 0.083647
O O6 0.000000 0.281760 0.250000
O O7 0.979035 0.280950 0.000580
O O8 0.000000 0.001070 0.250000
O O9 0.253453 0.021364 0.997862
O O10 0.000000 0.000000 0.000000
O O11 0.739599 0.453560 0.293286
O O12 0.897464 0.569112 0.099526
O O13 0.662997 0.547340 0.102563
O O14 0.832886 0.419773 0.007025
O O15 0.500000 0.500000 0.500000
O O16 0.500000 0.952076 0.250000
O O17 0.500000 0.000000 0.500000
O O18 0.000000 0.661585 0.250000
#
# Coordination Sequence:
#
# PCOD8120248 Si02
#       7
#     4   4   4   4   4   4   4
#     4  10  21  38  61  86 118 163 203 242 303 370
#     4  10  21  38  61  86 118 160 203 247 304 370
#     4  10  21  38  62  92 125 160 201 252 318 368
#     4  11  23  38  56  84 114 150 199 244 294 349
#     4  12  23  39  59  82 118 160 201 247 298 355
#     4  10  21  40  65  92 120 163 208 248 306 378
#     4  11  22  36  58  85 114 148 197 252 291 343
#
# _framework density 19.538921999999999
#
# number of rings (size 3 to 8) (size 9 to 14) (size 15 to 20)
#    0.000    1.429    2.857    3.000    0.000    0.571 
#    0.000    2.857    0.000    0.000    0.000    0.000 
#    0.000    0.000    0.000    0.000    0.000    0.000 
#
# Total GULP energy -347022.668558 kJ/mol
# GULP energy per Si atom -12393.666734 kJ/mol
# Density = 1.949445 g / cm^3
# Si number density = 19.538922 Si / 1000 Ang^3
#
#
#
# Elastic Constant Matrix: (Units=GPa)
#
#
# Indices 1 2 3 4 5 6 
#
# 1 106.6246 47.7602 43.5435 0.0000 -0.9528 0.0000
# 2 47.7602 91.5576 33.3756 0.0000 12.2752 0.0000
# 3 43.5435 33.3756 112.6243 0.0000 4.3385 0.0000
# 4 0.0000 0.0000 0.0000 27.7056 0.0000 11.4522
# 5 -0.9528 12.2752 4.3385 0.0000 39.3412 0.0000
# 6 0.0000 0.0000 0.0000 11.4522 0.0000 15.2550
#
#
#
# Elastic Compliance Matrix: (Units=1/GPa)
#
#
# Indices 1 2 3 4 5 6 
#
# 1 0.013607 -0.006163 -0.003536 0.000000 0.002643 0.000000
# 2 -0.006163 0.015517 -0.002032 0.000000 -0.004767 0.000000
# 3 -0.003536 -0.002032 0.010873 0.000000 -0.000651 0.000000
# 4 0.000000 0.000000 0.000000 0.052334 0.000000 -0.039288
# 5 0.002643 -0.004767 -0.000651 0.000000 0.027042 0.000000
# 6 0.000000 0.000000 0.000000 -0.039288 0.000000 0.095047
#
#
# Mechanical properties :
#
#
# Convention : Reuss Voigt Hill
#
# Bulk Modulus (GPa) = 60.47846 62.24057 61.35951
# Shear Modulus (GPa) = 20.54285 28.86883 24.70584
#
# Velocity S-wave (km/s) = 3.24602 3.84800 3.55976
# Velocity P-wave (km/s) = 6.71333 7.18795 6.95469
#
# Compressibility (1/GPa) = 0.01653481
#
# Stress axis : x y z
#
# Youngs Moduli (GPa) = 73.49079 64.44605 91.96702
#
# Poissons Ratio (x) = 0.39720 0.32522
# Poissons Ratio (y) = 0.45294 0.18686
# Poissons Ratio (z) = 0.25988 0.13094
#
# Static dielectric constant tensor:
#      x y z
#    x 3.210650 0.000000 -1.919360 
#    y 0.000000 3.536340 0.000000 
#    z -1.919360 0.000000 -4.775460 
# 
# 
# High freq. dielectric constant tensor:
#      x y z
#    x 1.751960 0.000000 -0.016150 
#    y 0.000000 1.766980 0.000000 
#    z -0.016150 0.000000 1.770150 
# 
# From -- ./inp_files/16471.got.cif
#   From: 2010.06.25/outbox.cif.g09.slc.cpg/sg13_9_cif.got.tgz:16471.got - 2010.06.28 04:50:58.
