data_PCOD8120198
_publ_section_title
;
Structure prediction by ZEFSAII (Michael W. Deem and Ramdas Pophale) SiO2 
 PCOD8120198
Probable space group: P 2/C
;
_chemical_formula_sum "Si O2"
_cell_formula_units_Z 22
_cell_length_a 8.875762
_cell_length_b 9.735343
_cell_length_c 18.843890
_cell_angle_alpha 90.000000
_cell_angle_beta 138.311785
_cell_angle_gamma 90.000000
_cell_volume 1082.927152
_symmetry_space_group_name_H-M "P 2/C"
_symmetry_group_IT_number 13
_symmetry_cell_setting 'monoclinic'
loop_
_space_group_symop_operation_xyz
x,y,z
-x,y,1/2-z
-x,-y,-z
x,-y,1/2+z
loop_
_atom_site_type_symbol
_atom_site_label
_atom_site_fract_x
_atom_site_fract_y
_atom_site_fract_z
Si Si1 0.366364 0.827791 0.766563
Si Si2 0.458753 0.330437 0.913366
Si Si3 0.033083 0.975285 0.117874
Si Si4 0.000000 0.816725 0.250000
Si Si5 0.658536 0.915376 0.399942
Si Si6 0.272281 0.618160 0.850888
O O1 0.500000 0.750285 0.750000
O O2 0.114165 0.864297 0.651413
O O3 0.368649 0.741300 0.837989
O O4 0.455625 0.984784 0.806824
O O5 0.216227 0.270436 0.852537
O O6 0.566677 0.234261 0.890670
O O7 0.394256 0.482236 0.862705
O O8 0.643723 0.346877 0.040672
O O9 0.166994 0.890155 0.103739
O O10 0.063570 0.906704 0.204767
O O11 0.773292 0.996602 0.003947
O O12 0.000000 0.605908 0.750000
#
# Coordination Sequence:
#
# PCOD8120198 Si02
#       6
#     4   4   4   2   4   4
#     4  10  21  38  58  87 121 159 203 250 306 370
#     4  11  24  40  63  91 127 165 206 261 307 372
#     4  10  22  36  65  93 124 156 207 258 315 367
#     4  12  22  38  62 102 122 162 206 266 308 372
#     4  10  21  41  61  92 125 160 205 258 307 375
#     4  11  24  42  61  89 126 167 213 254 307 369
#
# _framework density 20.315308999999999
#
# number of rings (size 3 to 8) (size 9 to 14) (size 15 to 20)
#    0.000    1.455    2.727    2.182    3.818    1.455 
#    3.273    0.000    0.000    7.636    0.000    0.000 
#    0.000    0.000    0.000    0.000    0.000    0.000 
#
# Total GULP energy -272587.152645 kJ/mol
# GULP energy per Si atom -12390.325120 kJ/mol
# Density = 2.026907 g / cm^3
# Si number density = 20.315309 Si / 1000 Ang^3
#
#
#
# Elastic Constant Matrix: (Units=GPa)
#
#
# Indices 1 2 3 4 5 6 
#
# 1 85.6225 49.5506 36.7155 0.0000 -3.5502 0.0000
# 2 49.5506 96.6728 29.3748 0.0000 -5.3006 0.0000
# 3 36.7155 29.3748 116.0785 0.0000 2.4211 0.0000
# 4 0.0000 0.0000 0.0000 25.0710 0.0000 -1.1569
# 5 -3.5502 -5.3006 2.4211 0.0000 29.7607 0.0000
# 6 0.0000 0.0000 0.0000 -1.1569 0.0000 28.6028
#
#
#
# Elastic Compliance Matrix: (Units=1/GPa)
#
#
# Indices 1 2 3 4 5 6 
#
# 1 0.017936 -0.008025 -0.003663 0.000000 0.001008 0.000000
# 2 -0.008025 0.014946 -0.001282 0.000000 0.001809 0.000000
# 3 -0.003663 -0.001282 0.010129 0.000000 -0.001489 0.000000
# 4 0.000000 0.000000 0.000000 0.039961 0.000000 0.001616
# 5 0.001008 0.001809 -0.001489 0.000000 0.034165 0.000000
# 6 0.000000 0.000000 0.000000 0.001616 0.000000 0.035027
#
#
# Mechanical properties :
#
#
# Convention : Reuss Voigt Hill
#
# Bulk Modulus (GPa) = 58.57852 58.85060 58.71456
# Shear Modulus (GPa) = 27.20432 28.86909 28.03671
#
# Velocity S-wave (km/s) = 3.66335 3.77377 3.71897
# Velocity P-wave (km/s) = 6.84038 6.92964 6.88516
#
# Compressibility (1/GPa) = 0.01707110
#
# Stress axis : x y z
#
# Youngs Moduli (GPa) = 55.75413 66.90754 98.72642
#
# Poissons Ratio (x) = 0.53692 0.36167
# Poissons Ratio (y) = 0.44741 0.12654
# Poissons Ratio (z) = 0.20425 0.08576
#
# Static dielectric constant tensor:
#      x y z
#    x 3.634890 0.000000 0.109270 
#    y 0.000000 3.572760 0.000000 
#    z 0.109270 0.000000 3.976260 
# 
# 
# High freq. dielectric constant tensor:
#      x y z
#    x 1.785560 0.000000 0.009130 
#    y 0.000000 1.773920 0.000000 
#    z 0.009130 0.000000 1.824020 
# 
# From -- ./inp_files/63950.got.cif
#   From: 2010.06.25/outbox.cif.g09.slc.cpg/sg13_32_cif.got.tgz:63950.got - 2010.06.28 04:50:58.
