data_PCOD8120768
_publ_section_title
;
Structure prediction by ZEFSAII (Michael W. Deem and Ramdas Pophale) SiO2 
 PCOD8120768
Probable space group: P 2/C
;
_chemical_formula_sum "Si O2"
_cell_formula_units_Z 24
_cell_length_a 20.192110
_cell_length_b 7.820366
_cell_length_c 20.075645
_cell_angle_alpha 90.000000
_cell_angle_beta 21.010484
_cell_angle_gamma 90.000000
_cell_volume 1136.617699
_symmetry_space_group_name_H-M "P 2/C"
_symmetry_group_IT_number 13
_symmetry_cell_setting 'monoclinic'
loop_
_space_group_symop_operation_xyz
x,y,z
-x,y,1/2-z
-x,-y,-z
x,-y,1/2+z
loop_
_atom_site_type_symbol
_atom_site_label
_atom_site_fract_x
_atom_site_fract_y
_atom_site_fract_z
Si Si1 0.357195 0.435485 0.326112
Si Si2 0.555552 0.358271 0.398097
Si Si3 0.793719 0.143600 0.753394
Si Si4 0.068653 0.138294 0.611802
Si Si5 0.914982 0.257366 0.402771
Si Si6 0.087905 0.766477 0.875601
O O1 0.500000 0.409292 0.250000
O O2 0.229441 0.268914 0.444296
O O3 0.258745 0.618068 0.427998
O O4 0.469572 0.432797 0.152033
O O5 0.500000 0.500000 0.500000
O O6 0.420126 0.196374 0.537370
O O7 0.772332 0.337536 0.209772
O O8 0.900553 0.184562 0.721232
O O9 0.891170 0.234827 0.598383
O O10 0.805846 0.944675 0.728194
O O11 0.000000 0.171153 0.750000
O O12 0.141382 0.942392 0.534320
O O13 0.000000 0.286833 0.250000
O O14 0.057444 0.305672 0.328994
#
# Coordination Sequence:
#
# PCOD8120768 Si02
#       6
#     4   4   4   4   4   4
#     4  12  26  42  63  98 135 172 217 273 327 386
#     4  12  26  39  64 102 131 171 218 263 328 391
#     4  10  21  42  67  94 131 169 219 267 323 386
#     4  10  21  43  68  93 127 177 219 268 331 383
#     4  10  24  43  68  93 128 176 218 268 330 386
#     4  10  22  43  68  95 128 173 214 272 324 378
#
# _framework density 21.115279999999998
#
# number of rings (size 3 to 8) (size 9 to 14) (size 15 to 20)
#    0.000    1.333    1.667    3.000    4.667    2.000 
#    3.000    0.000    0.000    0.000    0.000    0.000 
#    0.000    0.000    0.000    0.000    0.000    0.000 
#
# Total GULP energy -297503.155174 kJ/mol
# GULP energy per Si atom -12395.964799 kJ/mol
# Density = 2.106722 g / cm^3
# Si number density = 21.115280 Si / 1000 Ang^3
#
#
#
# Elastic Constant Matrix: (Units=GPa)
#
#
# Indices 1 2 3 4 5 6 
#
# 1 149.9520 3.9076 19.6186 0.0000 23.0747 0.0000
# 2 3.9076 57.9542 8.1625 0.0000 9.8141 0.0000
# 3 19.6186 8.1625 56.1748 0.0000 16.9342 0.0000
# 4 0.0000 0.0000 0.0000 15.2003 0.0000 24.7530
# 5 23.0747 9.8141 16.9342 0.0000 40.8722 0.0000
# 6 0.0000 0.0000 0.0000 24.7530 0.0000 1.3911
#
#
#
# Elastic Compliance Matrix: (Units=1/GPa)
#
#
# Indices 1 2 3 4 5 6 
#
# 1 0.007421 0.000332 -0.001546 0.000000 -0.003629 0.000000
# 2 0.000332 0.018112 -0.001577 0.000000 -0.003883 0.000000
# 3 -0.001546 -0.001577 0.020790 0.000000 -0.007362 0.000000
# 4 0.000000 0.000000 0.000000 -0.002352 0.000000 0.041843
# 5 -0.003629 -0.003883 -0.007362 0.000000 0.030498 0.000000
# 6 0.000000 0.000000 0.000000 0.041843 0.000000 -0.025695
#
#
# Mechanical properties :
#
#
# Convention : Reuss Voigt Hill
#
# Bulk Modulus (GPa) = 24.54554 36.38426 30.46490
# Shear Modulus (GPa) = 73.59734 26.98554 50.29144
#
# Velocity S-wave (km/s) = 5.91022 3.57881 4.88562
# Velocity P-wave (km/s) = 7.63047 5.86053 6.80330
#
# Compressibility (1/GPa) = 0.04074059
#
# Stress axis : x y z
#
# Youngs Moduli (GPa) = 134.75656 55.21106 48.09986
#
# Poissons Ratio (x) = -0.01832 0.07436
# Poissons Ratio (y) = -0.04472 0.07586
# Poissons Ratio (z) = 0.20833 0.08708
#
# Static dielectric constant tensor:
#      x y z
#    x 4.249510 0.000000 0.231590 
#    y 0.000000 3.783520 0.000000 
#    z 0.231590 0.000000 2.942370 
# 
# 
# High freq. dielectric constant tensor:
#      x y z
#    x 1.854770 0.000000 0.010970 
#    y 0.000000 1.831770 0.000000 
#    z 0.010970 0.000000 1.814690 
# 
# From -- ./inp_files/81621.got.cif
#   From: 2010.06.25/outbox.cif.g09.slc.cpg/sg13_41_cif.got.tgz:81621.got - 2010.06.28 04:50:58.
