data_PCOD8120902
_publ_section_title
;
Structure prediction by ZEFSAII (Michael W. Deem and Ramdas Pophale) SiO2 
 PCOD8120902
Probable space group: P 2/C
;
_chemical_formula_sum "Si O2"
_cell_formula_units_Z 26
_cell_length_a 10.622615
_cell_length_b 12.291913
_cell_length_c 17.446039
_cell_angle_alpha 90.000000
_cell_angle_beta 30.264778
_cell_angle_gamma 90.000000
_cell_volume 1148.088870
_symmetry_space_group_name_H-M "P 2/C"
_symmetry_group_IT_number 13
_symmetry_cell_setting 'monoclinic'
loop_
_space_group_symop_operation_xyz
x,y,z
-x,y,1/2-z
-x,-y,-z
x,-y,1/2+z
loop_
_atom_site_type_symbol
_atom_site_label
_atom_site_fract_x
_atom_site_fract_y
_atom_site_fract_z
Si Si1 0.751769 0.933780 0.747796
Si Si2 0.000000 0.945683 0.250000
Si Si3 0.426438 0.539542 0.955033
Si Si4 0.035407 0.556336 0.901242
Si Si5 0.406963 0.779718 0.011899
Si Si6 0.911489 0.790415 0.016655
Si Si7 0.569790 0.166054 0.826339
O O1 0.904848 0.893720 0.592673
O O2 0.565208 0.033731 0.828387
O O3 0.639328 0.824342 0.842482
O O4 0.932962 0.975968 0.717359
O O5 0.802322 0.867950 0.393910
O O6 0.686394 0.525103 0.772804
O O7 0.500000 0.500000 0.000000
O O8 0.192236 0.475490 0.038274
O O9 0.336158 0.663822 0.013041
O O10 0.045587 0.682747 0.916739
O O11 0.000000 0.500000 0.000000
O O12 0.451993 0.776907 0.079715
O O13 0.665920 0.797251 0.095664
O O14 0.826246 0.791303 0.150683
#
# Coordination Sequence:
#
# PCOD8120902 Si02
#       7
#     4   2   4   4   4   4   4
#     4  11  20  42  62  99 132 177 232 278 350 410
#     4  10  22  34  68  96 136 174 218 292 342 430
#     4  12  28  49  77 107 139 187 246 302 353 426
#     4  12  29  50  75 104 144 189 239 301 362 422
#     4  11  23  42  65  99 136 175 234 288 350 407
#     4  11  23  43  65  94 139 179 230 282 357 417
#     4  10  23  37  68  96 133 184 218 285 348 434
#
# _framework density 22.646329999999999
#
# number of rings (size 3 to 8) (size 9 to 14) (size 15 to 20)
#    0.000    0.923    1.538    6.000    8.615    1.231 
#    0.000    3.077    0.000    0.000    0.000    0.000 
#    0.000    0.000    0.000    0.000    0.000    0.000 
#
# Total GULP energy -322115.180087 kJ/mol
# GULP energy per Si atom -12389.045388 kJ/mol
# Density = 2.259479 g / cm^3
# Si number density = 22.646330 Si / 1000 Ang^3
#
#
#
# Elastic Constant Matrix: (Units=GPa)
#
#
# Indices 1 2 3 4 5 6 
#
# 1 91.6316 -16.8698 6.8971 0.0000 21.2460 0.0000
# 2 -16.8698 109.3963 12.0626 0.0000 -3.7453 0.0000
# 3 6.8971 12.0626 121.5137 0.0000 13.8190 0.0000
# 4 0.0000 0.0000 0.0000 46.4897 0.0000 4.0987
# 5 21.2460 -3.7453 13.8190 0.0000 41.4876 0.0000
# 6 0.0000 0.0000 0.0000 4.0987 0.0000 15.6296
#
#
#
# Elastic Compliance Matrix: (Units=1/GPa)
#
#
# Indices 1 2 3 4 5 6 
#
# 1 0.012710 0.001765 -0.000181 0.000000 -0.006289 0.000000
# 2 0.001765 0.009544 -0.001084 0.000000 0.000319 0.000000
# 3 -0.000181 -0.001084 0.008677 0.000000 -0.002895 0.000000
# 4 0.000000 0.000000 0.000000 0.022019 0.000000 -0.005774
# 5 -0.006289 0.000319 -0.002895 0.000000 0.028317 0.000000
# 6 0.000000 0.000000 0.000000 -0.005774 0.000000 0.065495
#
#
# Mechanical properties :
#
#
# Convention : Reuss Voigt Hill
#
# Bulk Modulus (GPa) = 31.31924 36.30238 33.81081
# Shear Modulus (GPa) = 31.96803 42.08484 37.02644
#
# Velocity S-wave (km/s) = 3.76123 4.31554 4.04788
# Velocity P-wave (km/s) = 5.72033 6.39506 6.06708
#
# Compressibility (1/GPa) = 0.03192926
#
# Stress axis : x y z
#
# Youngs Moduli (GPa) = 78.67804 104.78198 115.25196
#
# Poissons Ratio (x) = -0.18491 0.02090
# Poissons Ratio (y) = -0.13884 0.12491
# Poissons Ratio (z) = 0.01427 0.11356
#
# Static dielectric constant tensor:
#      x y z
#    x 4.159990 0.000000 -0.051650 
#    y 0.000000 0.449430 0.000000 
#    z -0.051650 0.000000 4.866320 
# 
# 
# High freq. dielectric constant tensor:
#      x y z
#    x 1.884740 0.000000 0.008700 
#    y 0.000000 1.906410 0.000000 
#    z 0.008700 0.000000 1.914280 
# 
# From -- ./inp_files/66613.got.cif
#   From: 2010.06.25/outbox.cif.g09.slc.cpg/sg13_34_cif.got.tgz:66613.got - 2010.06.28 04:50:58.
