data_PCOD8120206
_publ_section_title
;
Structure prediction by ZEFSAII (Michael W. Deem and Ramdas Pophale) SiO2 
 PCOD8120206
Probable space group: P 2/C
;
_chemical_formula_sum "Si O2"
_cell_formula_units_Z 26
_cell_length_a 22.439495
_cell_length_b 6.451848
_cell_length_c 18.017503
_cell_angle_alpha 90.000000
_cell_angle_beta 149.061377
_cell_angle_gamma 90.000000
_cell_volume 1341.083850
_symmetry_space_group_name_H-M "P 2/C"
_symmetry_group_IT_number 13
_symmetry_cell_setting 'monoclinic'
loop_
_space_group_symop_operation_xyz
x,y,z
-x,y,1/2-z
-x,-y,-z
x,-y,1/2+z
loop_
_atom_site_type_symbol
_atom_site_label
_atom_site_fract_x
_atom_site_fract_y
_atom_site_fract_z
Si Si1 0.792020 0.029984 0.521615
Si Si2 0.278530 0.725365 0.420114
Si Si3 0.459883 0.289714 0.991411
Si Si4 0.682971 0.013847 0.247034
Si Si5 0.873880 0.966074 0.833482
Si Si6 0.137189 0.349582 0.307945
Si Si7 0.000000 0.659565 0.250000
O O1 0.705904 0.127351 0.491262
O O2 0.720952 0.987884 0.371850
O O3 0.894217 0.193299 0.613218
O O4 0.841689 0.809240 0.601752
O O5 0.400351 0.705054 0.508496
O O6 0.175323 0.830103 0.260913
O O7 0.249366 0.491513 0.413147
O O8 0.363908 0.205739 0.831598
O O9 0.500000 0.500000 0.000000
O O10 0.576520 0.165326 0.125133
O O11 0.788232 0.096566 0.308756
O O12 0.890237 0.773969 0.795738
O O13 0.000000 0.000000 0.000000
O O14 0.033214 0.508896 0.216946
#
# Coordination Sequence:
#
# PCOD8120206 Si02
#       7
#     4   4   4   4   4   4   2
#     4  10  22  39  59  88 125 157 201 249 303 364
#     4   9  21  40  58  88 117 159 204 249 299 359
#     4  10  21  42  63  85 121 157 206 255 297 357
#     4  10  23  39  62  89 118 160 200 250 308 352
#     4  10  22  37  59  87 125 156 199 250 303 363
#     4  10  21  38  59  84 121 165 193 248 300 359
#     4  10  22  36  60  86 124 160 202 242 296 370
#
# _framework density 19.387302999999999
#
# number of rings (size 3 to 8) (size 9 to 14) (size 15 to 20)
#    0.000    2.154    0.000    1.385    8.615    4.923 
#    2.769    0.000    0.000    0.000    0.000    0.000 
#    0.000    0.000    0.000    0.000    0.000    0.000 
#
# Total GULP energy -322298.557311 kJ/mol
# GULP energy per Si atom -12396.098358 kJ/mol
# Density = 1.934318 g / cm^3
# Si number density = 19.387303 Si / 1000 Ang^3
#
#
#
# Elastic Constant Matrix: (Units=GPa)
#
#
# Indices 1 2 3 4 5 6 
#
# 1 157.5788 54.6242 71.7236 0.0000 4.3865 0.0000
# 2 54.6242 107.9148 34.6485 0.0000 -1.4752 0.0000
# 3 71.7236 34.6485 104.2002 0.0000 -7.5308 0.0000
# 4 0.0000 0.0000 0.0000 -0.0452 0.0000 -5.4188
# 5 4.3865 -1.4752 -7.5308 0.0000 38.8022 0.0000
# 6 0.0000 0.0000 0.0000 -5.4188 0.0000 32.4469
#
#
#
# Elastic Compliance Matrix: (Units=1/GPa)
#
#
# Indices 1 2 3 4 5 6 
#
# 1 0.010400 -0.003294 -0.006245 0.000000 -0.002513 0.000000
# 2 -0.003294 0.011420 -0.001493 0.000000 0.000517 0.000000
# 3 -0.006245 -0.001493 0.014644 0.000000 0.003491 0.000000
# 4 0.000000 0.000000 0.000000 -1.052414 0.000000 -0.175760
# 5 -0.002513 0.000517 0.003491 0.000000 0.026753 0.000000
# 6 0.000000 0.000000 0.000000 -0.175760 0.000000 0.001467
#
#
# Mechanical properties :
#
#
# Convention : Reuss Voigt Hill
#
# Bulk Modulus (GPa) = 69.43847 76.85404 73.14626
# Shear Modulus (GPa) = -5.20364 28.15396 11.47516
#
# Velocity S-wave (km/s) = -1.64008 3.81489 2.43552
# Velocity P-wave (km/s) = 5.68399 7.68973 6.76165
#
# Compressibility (1/GPa) = 0.01440124
#
# Stress axis : x y z
#
# Youngs Moduli (GPa) = 96.15149 87.56461 68.28539
#
# Poissons Ratio (x) = 0.28840 0.42646
# Poissons Ratio (y) = 0.31668 0.10195
# Poissons Ratio (z) = 0.60048 0.13074
#
# Static dielectric constant tensor:
#      x y z
#    x 3.905500 0.000000 0.054010 
#    y 0.000000 3.796260 0.000000 
#    z 0.054010 0.000000 3.309160 
# 
# 
# High freq. dielectric constant tensor:
#      x y z
#    x 1.778350 0.000000 0.003340 
#    y 0.000000 1.763420 0.000000 
#    z 0.003340 0.000000 1.731040 
# 
# From -- ./inp_files/70253.got.cif
#   From: 2010.06.25/outbox.cif.g09.slc.cpg/sg13_36_cif.got.tgz:70253.got - 2010.06.28 04:50:58.
