data_PCOD8120981
_publ_section_title
;
Structure prediction by ZEFSAII (Michael W. Deem and Ramdas Pophale) SiO2 
 PCOD8120981
Probable space group: P 2/C
;
_chemical_formula_sum "Si O2"
_cell_formula_units_Z 30
_cell_length_a 6.535764
_cell_length_b 16.588401
_cell_length_c 14.071653
_cell_angle_alpha 90.000000
_cell_angle_beta 87.835099
_cell_angle_gamma 90.000000
_cell_volume 1524.529785
_symmetry_space_group_name_H-M "P 2/C"
_symmetry_group_IT_number 13
_symmetry_cell_setting 'monoclinic'
loop_
_space_group_symop_operation_xyz
x,y,z
-x,y,1/2-z
-x,-y,-z
x,-y,1/2+z
loop_
_atom_site_type_symbol
_atom_site_label
_atom_site_fract_x
_atom_site_fract_y
_atom_site_fract_z
Si Si1 0.917033 0.144879 0.569108
Si Si2 0.435643 0.967875 0.360922
Si Si3 0.430818 0.738147 0.478989
Si Si4 0.307716 0.560420 0.503158
Si Si5 0.031165 0.466651 0.639660
Si Si6 0.000000 0.229028 0.750000
Si Si7 0.327469 0.885151 0.977848
Si Si8 0.666707 0.664054 0.311394
O O1 0.782018 0.071956 0.611056
O O2 0.783915 0.216534 0.527316
O O3 0.045637 0.177272 0.656188
O O4 0.079671 0.117293 0.486083
O O5 0.500000 0.958675 0.250000
O O6 0.604233 0.925082 0.423407
O O7 0.409222 0.061942 0.388092
O O8 0.392116 0.649726 0.523960
O O9 0.579025 0.795473 0.539627
O O10 0.546720 0.727967 0.377468
O O11 0.500000 0.500000 0.500000
O O12 0.138646 0.541864 0.586380
O O13 0.187503 0.555685 0.403969
O O14 0.192451 0.393255 0.626664
O O15 0.000000 0.488651 0.750000
O O16 0.195131 0.286148 0.765231
O O17 0.500000 0.615536 0.250000
#
# Coordination Sequence:
#
# PCOD8120981 Si02
#       8
#     4   4   4   4   4   2   4   4
#     4  11  21  34  58  87 120 151 190 247 306 367
#     4  10  22  39  59  86 117 152 200 244 297 362
#     4  11  22  36  57  84 120 155 198 246 301 368
#     4  11  24  41  63  89 123 169 207 254 316 365
#     4  11  24  39  61  90 122 161 212 260 309 373
#     4  12  20  28  52  92 120 148 190 240 322 368
#     4  10  22  38  60  84 117 157 194 244 303 362
#     4  12  21  33  56  89 126 154 194 255 321 376
#
# _framework density 19.678198999999999
#
# number of rings (size 3 to 8) (size 9 to 14) (size 15 to 20)
#    0.000    1.067    4.667    2.800    1.867    0.000 
#    0.000    0.000    5.867    0.000    0.000    0.000 
#    0.000    0.000    0.000    0.000    0.000    0.000 
#
# Total GULP energy -371854.027510 kJ/mol
# GULP energy per Si atom -12395.134250 kJ/mol
# Density = 1.963341 g / cm^3
# Si number density = 19.678199 Si / 1000 Ang^3
#
#
#
# Elastic Constant Matrix: (Units=GPa)
#
#
# Indices 1 2 3 4 5 6 
#
# 1 123.6121 51.6037 24.9139 0.0000 2.1795 0.0000
# 2 51.6037 130.8370 29.2918 0.0000 -4.5278 0.0000
# 3 24.9139 29.2918 61.3464 0.0000 -0.2982 0.0000
# 4 0.0000 0.0000 0.0000 25.5891 0.0000 -6.4633
# 5 2.1795 -4.5278 -0.2982 0.0000 31.8239 0.0000
# 6 0.0000 0.0000 0.0000 -6.4633 0.0000 35.9621
#
#
#
# Elastic Compliance Matrix: (Units=1/GPa)
#
#
# Indices 1 2 3 4 5 6 
#
# 1 0.010046 -0.003459 -0.002434 0.000000 -0.001203 0.000000
# 2 -0.003459 0.009793 -0.003264 0.000000 0.001600 0.000000
# 3 -0.002434 -0.003264 0.018847 0.000000 -0.000121 0.000000
# 4 0.000000 0.000000 0.000000 0.040937 0.000000 0.007358
# 5 -0.001203 0.001600 -0.000121 0.000000 0.031732 0.000000
# 6 0.000000 0.000000 0.000000 0.007358 0.000000 0.029129
#
#
# Mechanical properties :
#
#
# Convention : Reuss Voigt Hill
#
# Bulk Modulus (GPa) = 49.08450 58.60158 53.84304
# Shear Modulus (GPa) = 30.19532 32.67409 31.43471
#
# Velocity S-wave (km/s) = 3.92146 4.07925 4.00113
# Velocity P-wave (km/s) = 6.74548 7.21329 6.98331
#
# Compressibility (1/GPa) = 0.02037303
#
# Stress axis : x y z
#
# Youngs Moduli (GPa) = 99.54684 102.11051 53.05844
#
# Poissons Ratio (x) = 0.35318 0.12914
# Poissons Ratio (y) = 0.34431 0.17317
# Poissons Ratio (z) = 0.24230 0.33326
#
# Static dielectric constant tensor:
#      x y z
#    x 3.872570 0.000000 0.018220 
#    y 0.000000 3.655600 0.000000 
#    z 0.018220 0.000000 3.285840 
# 
# 
# High freq. dielectric constant tensor:
#      x y z
#    x 1.792920 0.000000 -0.007910 
#    y 0.000000 1.764160 0.000000 
#    z -0.007910 0.000000 1.728420 
# 
# From -- ./inp_files/44279.got.cif
#   From: 2010.06.25/outbox.cif.g09.slc.cpg/sg13_23_cif.got.tgz:44279.got - 2010.06.28 04:50:58.
