data_PCOD8120153
_publ_section_title
;
Structure prediction by ZEFSAII (Michael W. Deem and Ramdas Pophale) SiO2 
 PCOD8120153
Probable space group: P 2/C
;
_chemical_formula_sum "Si O2"
_cell_formula_units_Z 24
_cell_length_a 14.566507
_cell_length_b 11.405363
_cell_length_c 21.580959
_cell_angle_alpha 90.000000
_cell_angle_beta 160.559468
_cell_angle_gamma 90.000000
_cell_volume 1193.316157
_symmetry_space_group_name_H-M "P 2/C"
_symmetry_group_IT_number 13
_symmetry_cell_setting 'monoclinic'
loop_
_space_group_symop_operation_xyz
x,y,z
-x,y,1/2-z
-x,-y,-z
x,-y,1/2+z
loop_
_atom_site_type_symbol
_atom_site_label
_atom_site_fract_x
_atom_site_fract_y
_atom_site_fract_z
Si Si1 0.811468 0.385902 0.315655
Si Si2 0.897825 0.340881 0.873408
Si Si3 0.744781 0.951360 0.797117
Si Si4 0.390668 0.261861 0.116787
Si Si5 0.564843 0.174364 0.948973
Si Si6 0.876763 0.799848 0.765501
O O1 0.871246 0.521317 0.345660
O O2 0.490209 0.349651 0.125046
O O3 0.894451 0.333106 0.302072
O O4 0.975917 0.322810 0.477409
O O5 0.594565 0.286940 0.678906
O O6 0.061479 0.272705 0.920959
O O7 0.516785 0.870186 0.688167
O O8 0.874583 0.879735 0.824239
O O9 0.592440 0.058105 0.668808
O O10 0.000000 0.000000 0.000000
O O11 0.500000 0.318622 0.250000
O O12 0.607764 0.182885 0.050695
O O13 0.857730 0.169139 0.103806
#
# Coordination Sequence:
#
# PCOD8120153 Si02
#       6
#     4   4   4   4   4   4
#     4   9  20  39  62  89 123 156 202 256 301 355
#     4  10  21  37  64  93 118 159 203 256 306 353
#     4  11  23  39  65  88 121 162 203 259 303 360
#     4   9  19  36  57  91 121 147 200 250 302 361
#     4  11  24  39  62  87 125 166 200 246 308 365
#     4  10  24  43  57  89 125 162 205 247 300 376
#
# _framework density 20.112022
#
# number of rings (size 3 to 8) (size 9 to 14) (size 15 to 20)
#    0.000    2.000    0.000    3.500    7.000    2.667 
#    0.000    2.500    0.000    0.000    0.000    0.000 
#    0.000    0.000    0.000    0.000    0.000    0.000 
#
# Total GULP energy -297338.554267 kJ/mol
# GULP energy per Si atom -12389.106428 kJ/mol
# Density = 2.006625 g / cm^3
# Si number density = 20.112022 Si / 1000 Ang^3
#
#
#
# Elastic Constant Matrix: (Units=GPa)
#
#
# Indices 1 2 3 4 5 6 
#
# 1 78.9873 45.1606 33.1477 0.0000 -12.5741 0.0000
# 2 45.1606 111.1915 56.2943 0.0000 -12.7965 0.0000
# 3 33.1477 56.2943 94.2407 0.0000 -5.8620 0.0000
# 4 0.0000 0.0000 0.0000 11.0330 0.0000 9.7055
# 5 -12.5741 -12.7965 -5.8620 0.0000 20.5129 0.0000
# 6 0.0000 0.0000 0.0000 9.7055 0.0000 17.8264
#
#
#
# Elastic Compliance Matrix: (Units=1/GPa)
#
#
# Indices 1 2 3 4 5 6 
#
# 1 0.017825 -0.004989 -0.002854 0.000000 0.006998 0.000000
# 2 -0.004989 0.015043 -0.006962 0.000000 0.004337 0.000000
# 3 -0.002854 -0.006962 0.015673 0.000000 -0.001613 0.000000
# 4 0.000000 0.000000 0.000000 0.173947 0.000000 -0.094705
# 5 0.006998 0.004337 -0.001613 0.000000 0.055284 0.000000
# 6 0.000000 0.000000 0.000000 -0.094705 0.000000 0.107658
#
#
# Mechanical properties :
#
#
# Convention : Reuss Voigt Hill
#
# Bulk Modulus (GPa) = 52.82127 61.51387 57.16757
# Shear Modulus (GPa) = 11.86661 19.86225 15.86443
#
# Velocity S-wave (km/s) = 2.43168 3.14599 2.81161
# Velocity P-wave (km/s) = 5.84847 6.62181 6.24712
#
# Compressibility (1/GPa) = 0.01893177
#
# Stress axis : x y z
#
# Youngs Moduli (GPa) = 56.10241 66.47410 63.80374
#
# Poissons Ratio (x) = 0.33165 0.18209
# Poissons Ratio (y) = 0.27990 0.44417
# Poissons Ratio (z) = 0.16011 0.46276
#
# Static dielectric constant tensor:
#      x y z
#    x 4.088700 0.000000 -0.171450 
#    y 0.000000 3.910410 0.000000 
#    z -0.171450 0.000000 4.247020 
# 
# 
# High freq. dielectric constant tensor:
#      x y z
#    x 1.790770 0.000000 0.005100 
#    y 0.000000 1.790190 0.000000 
#    z 0.005100 0.000000 1.771950 
# 
# From -- ./inp_files/80215.got.cif
#   From: 2010.06.25/outbox.cif.g09.slc.cpg/sg13_41_cif.got.tgz:80215.got - 2010.06.28 04:50:58.
