data_PCOD8120639
_publ_section_title
;
Structure prediction by ZEFSAII (Michael W. Deem and Ramdas Pophale) SiO2 
 PCOD8120639
Probable space group: P 2/C
;
_chemical_formula_sum "Si O2"
_cell_formula_units_Z 20
_cell_length_a 12.762846
_cell_length_b 15.064732
_cell_length_c 12.943255
_cell_angle_alpha 90.000000
_cell_angle_beta 22.273744
_cell_angle_gamma 90.000000
_cell_volume 943.253625
_symmetry_space_group_name_H-M "P 2/C"
_symmetry_group_IT_number 13
_symmetry_cell_setting 'monoclinic'
loop_
_space_group_symop_operation_xyz
x,y,z
-x,y,1/2-z
-x,-y,-z
x,-y,1/2+z
loop_
_atom_site_type_symbol
_atom_site_label
_atom_site_fract_x
_atom_site_fract_y
_atom_site_fract_z
Si Si1 0.809181 0.689436 0.697895
Si Si2 0.726249 0.111481 0.228507
Si Si3 0.363249 0.636315 0.267959
Si Si4 0.818820 0.022973 0.815854
Si Si5 0.216733 0.558602 0.960689
O O1 0.691017 0.783794 0.771271
O O2 0.883044 0.629867 0.531342
O O3 0.101144 0.700857 0.490362
O O4 0.583663 0.641719 0.974860
O O5 0.467780 0.073660 0.397693
O O6 0.739250 0.068200 0.330685
O O7 0.009783 0.089817 0.912152
O O8 0.500000 0.666937 0.250000
O O9 0.256938 0.535578 0.368515
O O10 0.000000 0.998219 0.750000
O O11 0.500000 0.594400 0.750000
O O12 0.000000 0.547955 0.250000
#
# Coordination Sequence:
#
# PCOD8120639 Si02
#       5
#     4   4   4   4   4
#     4  12  23  40  63  90 124 157 199 259 301 342
#     4  10  23  39  60  94 118 150 207 241 290 372
#     4  11  23  40  60  87 122 163 205 245 299 357
#     4  10  21  41  63  84 122 161 189 242 304 355
#     4  11  23  40  61  89 123 163 206 243 296 361
#
# _framework density 21.203203999999999
#
# number of rings (size 3 to 8) (size 9 to 14) (size 15 to 20)
#    0.000    1.200    0.000    7.200    0.000    4.000 
#    0.000    0.000    0.000    0.000    0.000    0.000 
#    0.000    0.000    0.000    0.000    0.000    0.000 
#
# Total GULP energy -248107.552435 kJ/mol
# GULP energy per Si atom -12405.377622 kJ/mol
# Density = 2.115494 g / cm^3
# Si number density = 21.203204 Si / 1000 Ang^3
#
#
#
# Elastic Constant Matrix: (Units=GPa)
#
#
# Indices 1 2 3 4 5 6 
#
# 1 89.2142 18.5919 18.7719 0.0000 -14.2762 0.0000
# 2 18.5919 64.3421 28.6793 0.0000 13.3313 0.0000
# 3 18.7719 28.6793 123.0330 0.0000 -1.8416 0.0000
# 4 0.0000 0.0000 0.0000 23.7525 0.0000 -5.2241
# 5 -14.2762 13.3313 -1.8416 0.0000 44.2513 0.0000
# 6 0.0000 0.0000 0.0000 -5.2241 0.0000 16.6704
#
#
#
# Elastic Compliance Matrix: (Units=1/GPa)
#
#
# Indices 1 2 3 4 5 6 
#
# 1 0.013252 -0.004611 -0.000863 0.000000 0.005629 0.000000
# 2 -0.004611 0.020340 -0.004154 0.000000 -0.007788 0.000000
# 3 -0.000863 -0.004154 0.009248 0.000000 0.001358 0.000000
# 4 0.000000 0.000000 0.000000 0.045217 0.000000 0.014170
# 5 0.005629 -0.007788 0.001358 0.000000 0.026817 0.000000
# 6 0.000000 0.000000 0.000000 0.014170 0.000000 0.064427
#
#
# Mechanical properties :
#
#
# Convention : Reuss Voigt Hill
#
# Bulk Modulus (GPa) = 42.40178 45.40838 43.90508
# Shear Modulus (GPa) = 24.22264 30.97126 27.59695
#
# Velocity S-wave (km/s) = 3.38361 3.82604 3.61161
# Velocity P-wave (km/s) = 5.94192 6.40160 6.17603
#
# Compressibility (1/GPa) = 0.02358392
#
# Stress axis : x y z
#
# Youngs Moduli (GPa) = 75.45964 49.16529 108.12854
#
# Poissons Ratio (x) = 0.22669 0.09331
# Poissons Ratio (y) = 0.34793 0.44919
# Poissons Ratio (z) = 0.06511 0.20425
#
# Static dielectric constant tensor:
#      x y z
#    x 3.956680 0.000000 -0.167650 
#    y 0.000000 3.539730 0.000000 
#    z -0.167650 0.000000 3.944320 
# 
# 
# High freq. dielectric constant tensor:
#      x y z
#    x 1.840050 0.000000 -0.010710 
#    y 0.000000 1.814310 0.000000 
#    z -0.010710 0.000000 1.850110 
# 
# From -- ./inp_files/34519.got.cif
#   From: 2010.06.25/outbox.cif.g09.slc.cpg/sg13_18_cif.got.tgz:34519.got - 2010.06.28 04:50:58.
