data_PCOD8120999
_publ_section_title
;
Structure prediction by ZEFSAII (Michael W. Deem and Ramdas Pophale) SiO2 
 PCOD8120999
Probable space group: P 2/C
;
_chemical_formula_sum "Si O2"
_cell_formula_units_Z 22
_cell_length_a 24.501491
_cell_length_b 5.374541
_cell_length_c 15.399880
_cell_angle_alpha 90.000000
_cell_angle_beta 28.350096
_cell_angle_gamma 90.000000
_cell_volume 962.974674
_symmetry_space_group_name_H-M "P 2/C"
_symmetry_group_IT_number 13
_symmetry_cell_setting 'monoclinic'
loop_
_space_group_symop_operation_xyz
x,y,z
-x,y,1/2-z
-x,-y,-z
x,-y,1/2+z
loop_
_atom_site_type_symbol
_atom_site_label
_atom_site_fract_x
_atom_site_fract_y
_atom_site_fract_z
Si Si1 0.600378 0.994781 0.790029
Si Si2 0.977990 0.237361 0.944909
Si Si3 0.813405 0.607842 0.258123
Si Si4 0.184726 0.135624 0.913227
Si Si5 0.000000 0.563528 0.750000
Si Si6 0.398778 0.499567 0.323796
O O1 0.719865 0.962400 0.675753
O O2 0.604438 0.254394 0.731651
O O3 0.581055 0.752837 0.758396
O O4 0.500000 0.000000 0.000000
O O5 0.097068 0.181130 0.830163
O O6 0.017234 0.415276 0.813282
O O7 0.885971 0.360058 0.138394
O O8 0.923727 0.998555 0.977789
O O9 0.756767 0.704568 0.246923
O O10 0.718021 0.533776 0.460312
O O11 0.122479 0.294736 0.074600
O O12 0.500000 0.537999 0.250000
#
# Coordination Sequence:
#
# PCOD8120999 Si02
#       6
#     4   4   4   4   2   4
#     4  12  29  48  76 106 143 189 245 301 365 428
#     4  10  22  40  65  97 145 181 237 287 359 423
#     4  10  24  41  66 101 141 185 237 290 361 423
#     4  11  24  40  72  99 146 188 239 298 359 434
#     4  10  22  38  62 104 140 190 232 292 354 430
#     4  12  28  49  78 104 144 190 245 301 363 433
#
# _framework density 22.845877999999999
#
# number of rings (size 3 to 8) (size 9 to 14) (size 15 to 20)
#    0.000    1.091    0.000    4.364   15.273    0.000 
#    0.000    0.000    0.000    0.000    0.000    0.000 
#    0.000    0.000    0.000    0.000    0.000    0.000 
#
# Total GULP energy -272699.073851 kJ/mol
# GULP energy per Si atom -12395.412448 kJ/mol
# Density = 2.279388 g / cm^3
# Si number density = 22.845878 Si / 1000 Ang^3
#
#
#
# Elastic Constant Matrix: (Units=GPa)
#
#
# Indices 1 2 3 4 5 6 
#
# 1 113.9944 33.9690 53.7207 0.0000 -3.9803 0.0000
# 2 33.9690 111.8069 42.3778 0.0000 15.7714 0.0000
# 3 53.7207 42.3778 161.4176 0.0000 28.8728 0.0000
# 4 0.0000 0.0000 0.0000 179.4762 0.0000 125.0150
# 5 -3.9803 15.7714 28.8728 0.0000 40.9761 0.0000
# 6 0.0000 0.0000 0.0000 125.0150 0.0000 132.2166
#
#
#
# Elastic Compliance Matrix: (Units=1/GPa)
#
#
# Indices 1 2 3 4 5 6 
#
# 1 0.011680 -0.002716 -0.004078 0.000000 0.005053 0.000000
# 2 -0.002716 0.010752 -0.001295 0.000000 -0.003490 0.000000
# 3 -0.004078 -0.001295 0.009009 0.000000 -0.006246 0.000000
# 4 0.000000 0.000000 0.000000 0.016321 0.000000 -0.015432
# 5 0.005053 -0.003490 -0.006246 0.000000 0.030640 0.000000
# 6 0.000000 0.000000 0.000000 -0.015432 0.000000 0.022155
#
#
# Mechanical properties :
#
#
# Convention : Reuss Voigt Hill
#
# Bulk Modulus (GPa) = 65.51183 71.92823 68.72003
# Shear Modulus (GPa) = 41.04342 87.67718 64.36030
#
# Velocity S-wave (km/s) = 4.24315 6.20169 5.31344
# Velocity P-wave (km/s) = 7.26248 9.10131 8.23339
#
# Compressibility (1/GPa) = 0.01526442
#
# Stress axis : x y z
#
# Youngs Moduli (GPa) = 85.61749 93.00502 110.99434
#
# Poissons Ratio (x) = 0.25257 0.45264
# Poissons Ratio (y) = 0.23251 0.14371
# Poissons Ratio (z) = 0.34915 0.12042
#
# Static dielectric constant tensor:
#      x y z
#    x 4.460070 0.000000 0.159910 
#    y 0.000000 4.305310 0.000000 
#    z 0.159910 0.000000 4.166180 
# 
# 
# High freq. dielectric constant tensor:
#      x y z
#    x 1.921990 0.000000 0.014140 
#    y 0.000000 1.897820 0.000000 
#    z 0.014140 0.000000 1.914970 
# 
# From -- ./inp_files/58191.got.cif
#   From: 2010.06.25/outbox.cif.g09.slc.cpg/sg13_30_cif.got.tgz:58191.got - 2010.06.28 04:50:58.
