data_PCOD8120258
_publ_section_title
;
Structure prediction by ZEFSAII (Michael W. Deem and Ramdas Pophale) SiO2 
 PCOD8120258
Probable space group: P 2/C
;
_chemical_formula_sum "Si O2"
_cell_formula_units_Z 30
_cell_length_a 11.672086
_cell_length_b 8.263022
_cell_length_c 14.858872
_cell_angle_alpha 90.000000
_cell_angle_beta 92.783737
_cell_angle_gamma 90.000000
_cell_volume 1431.398122
_symmetry_space_group_name_H-M "P 2/C"
_symmetry_group_IT_number 13
_symmetry_cell_setting 'monoclinic'
loop_
_space_group_symop_operation_xyz
x,y,z
-x,y,1/2-z
-x,-y,-z
x,-y,1/2+z
loop_
_atom_site_type_symbol
_atom_site_label
_atom_site_fract_x
_atom_site_fract_y
_atom_site_fract_z
Si Si1 0.000000 0.193125 0.250000
Si Si2 0.662829 0.520984 0.080564
Si Si3 0.353574 0.021901 0.540786
Si Si4 0.997638 0.720188 0.084695
Si Si5 0.504828 0.730728 0.954826
Si Si6 0.093531 0.376324 0.411864
Si Si7 0.836317 0.058365 0.818763
Si Si8 0.754073 0.158131 0.629113
O O1 0.088965 0.294247 0.313957
O O2 0.078079 0.092712 0.183799
O O3 0.575603 0.380903 0.113515
O O4 0.778650 0.429688 0.056011
O O5 0.692527 0.668559 0.149185
O O6 0.603589 0.609125 0.993264
O O7 0.422982 0.190565 0.530544
O O8 0.245183 0.043814 0.599135
O O9 0.434992 0.884522 0.590891
O O10 0.318327 0.955113 0.440513
O O11 0.990346 0.529164 0.099179
O O12 0.876880 0.811638 0.087843
O O13 0.084836 0.783902 0.164010
O O14 0.048238 0.748407 0.986199
O O15 0.764073 0.069653 0.724571
#
# Coordination Sequence:
#
# PCOD8120258 Si02
#       8
#     2   4   4   4   4   4   4   4
#     4  12  26  36  60  98 130 158 204 262 314 386
#     4   9  19  37  67  85 120 161 211 255 317 357
#     4  10  22  39  65  89 127 159 210 257 316 370
#     4  10  21  40  61  89 127 170 204 247 311 385
#     4   9  19  40  66  91 116 164 209 269 307 359
#     4  10  23  38  64  93 123 167 208 254 313 380
#     4  12  24  38  62  93 128 171 203 255 315 388
#     4  10  21  38  61  91 124 167 200 258 310 376
#
# _framework density 20.958528999999999
#
# number of rings (size 3 to 8) (size 9 to 14) (size 15 to 20)
#    0.000    1.867    1.333    1.600    7.467    2.133 
#    0.000    6.000    2.933    0.000    0.000    0.000 
#    0.000    0.000    0.000    0.000    0.000    0.000 
#
# Total GULP energy -371747.907576 kJ/mol
# GULP energy per Si atom -12391.596919 kJ/mol
# Density = 2.091083 g / cm^3
# Si number density = 20.958529 Si / 1000 Ang^3
#
#
#
# Elastic Constant Matrix: (Units=GPa)
#
#
# Indices 1 2 3 4 5 6 
#
# 1 118.5765 53.5628 34.4990 0.0000 7.3257 0.0000
# 2 53.5628 89.7807 34.3268 0.0000 8.2146 0.0000
# 3 34.4990 34.3268 72.4353 0.0000 10.6220 0.0000
# 4 0.0000 0.0000 0.0000 26.0359 0.0000 4.4266
# 5 7.3257 8.2146 10.6220 0.0000 20.2561 0.0000
# 6 0.0000 0.0000 0.0000 4.4266 0.0000 34.5377
#
#
#
# Elastic Compliance Matrix: (Units=1/GPa)
#
#
# Indices 1 2 3 4 5 6 
#
# 1 0.012007 -0.006060 -0.002785 0.000000 -0.000425 0.000000
# 2 -0.006060 0.016762 -0.004747 0.000000 -0.002117 0.000000
# 3 -0.002785 -0.004747 0.018363 0.000000 -0.006697 0.000000
# 4 0.000000 0.000000 0.000000 0.039264 0.000000 -0.005032
# 5 -0.000425 -0.002117 -0.006697 0.000000 0.053892 0.000000
# 6 0.000000 0.000000 0.000000 -0.005032 0.000000 0.029599
#
#
# Mechanical properties :
#
#
# Convention : Reuss Voigt Hill
#
# Bulk Modulus (GPa) = 50.12603 58.39664 54.26133
# Shear Modulus (GPa) = 24.54346 26.72620 25.63483
#
# Velocity S-wave (km/s) = 3.42577 3.57486 3.50111
# Velocity P-wave (km/s) = 6.29417 6.70544 6.50306
#
# Compressibility (1/GPa) = 0.01994972
#
# Stress axis : x y z
#
# Youngs Moduli (GPa) = 83.28395 59.65810 54.45624
#
# Poissons Ratio (x) = 0.36152 0.15164
# Poissons Ratio (y) = 0.50469 0.25850
# Poissons Ratio (z) = 0.23192 0.28320
#
# Static dielectric constant tensor:
#      x y z
#    x 4.064700 0.000000 0.158750 
#    y 0.000000 4.104820 0.000000 
#    z 0.158750 0.000000 3.383270 
# 
# 
# High freq. dielectric constant tensor:
#      x y z
#    x 1.837540 0.000000 0.015610 
#    y 0.000000 1.838340 0.000000 
#    z 0.015610 0.000000 1.769370 
# 
# From -- ./inp_files/50062.got.cif
#   From: 2010.06.25/outbox.cif.g09.slc.cpg/sg13_26_cif.got.tgz:50062.got - 2010.06.28 04:50:58.
