data_PCOD8120339
_publ_section_title
;
Structure prediction by ZEFSAII (Michael W. Deem and Ramdas Pophale) SiO2 
 PCOD8120339
Probable space group: P 2/C
;
_chemical_formula_sum "Si O2"
_cell_formula_units_Z 20
_cell_length_a 18.470922
_cell_length_b 9.357646
_cell_length_c 8.196212
_cell_angle_alpha 90.000000
_cell_angle_beta 135.489930
_cell_angle_gamma 90.000000
_cell_volume 993.133952
_symmetry_space_group_name_H-M "P 2/C"
_symmetry_group_IT_number 13
_symmetry_cell_setting 'monoclinic'
loop_
_space_group_symop_operation_xyz
x,y,z
-x,y,1/2-z
-x,-y,-z
x,-y,1/2+z
loop_
_atom_site_type_symbol
_atom_site_label
_atom_site_fract_x
_atom_site_fract_y
_atom_site_fract_z
Si Si1 0.617231 0.191004 0.483083
Si Si2 0.806137 0.338796 0.652106
Si Si3 0.899671 0.392226 0.483105
Si Si4 0.988429 0.159288 0.040560
Si Si5 0.425127 0.916347 0.260420
O O1 0.500000 0.234481 0.250000
O O2 0.690080 0.314913 0.528607
O O3 0.636795 0.187113 0.713736
O O4 0.644294 0.035009 0.446484
O O5 0.806719 0.350008 0.456310
O O6 0.860989 0.478632 0.811554
O O7 0.872358 0.201957 0.809112
O O8 0.000000 0.438921 0.750000
O O9 0.926814 0.258234 0.412432
O O10 0.000000 0.173486 0.250000
O O11 0.000000 0.000000 0.000000
O O12 0.500000 0.833797 0.250000
O O13 0.500000 0.000000 0.500000
#
# Coordination Sequence:
#
# PCOD8120339 Si02
#       5
#     4   4   4   4   4
#     4   9  18  33  53  80 111 146 189 232 276 334
#     4  11  21  37  59  80 111 154 186 224 283 339
#     4  10  21  39  58  79 111 150 186 222 278 345
#     4  11  22  38  59  88 115 139 181 236 280 332
#     4   7  13  29  50  73 106 141 173 224 278 314
#
# _framework density 20.138269999999999
#
# number of rings (size 3 to 8) (size 9 to 14) (size 15 to 20)
#    0.000    2.800    0.000    6.000    0.000    3.200 
#    0.000   11.000    0.000    0.000    0.000    1.400 
#    0.000    0.000    0.000    0.000    0.000    0.000 
#
# Total GULP energy -247791.294233 kJ/mol
# GULP energy per Si atom -12389.564712 kJ/mol
# Density = 2.009243 g / cm^3
# Si number density = 20.138270 Si / 1000 Ang^3
#
#
#
# Elastic Constant Matrix: (Units=GPa)
#
#
# Indices 1 2 3 4 5 6 
#
# 1 182.7890 66.9887 50.3791 0.0000 -25.5336 0.0000
# 2 66.9887 117.3902 40.5388 0.0000 1.3162 0.0000
# 3 50.3791 40.5388 51.8021 0.0000 -16.8604 0.0000
# 4 0.0000 0.0000 0.0000 18.2159 0.0000 4.8190
# 5 -25.5336 1.3162 -16.8604 0.0000 42.1591 0.0000
# 6 0.0000 0.0000 0.0000 4.8190 0.0000 57.1629
#
#
#
# Elastic Compliance Matrix: (Units=1/GPa)
#
#
# Indices 1 2 3 4 5 6 
#
# 1 0.008378 -0.003268 -0.004490 0.000000 0.003381 0.000000
# 2 -0.003268 0.013787 -0.009651 0.000000 -0.006270 0.000000
# 3 -0.004490 -0.009651 0.034992 0.000000 0.011576 0.000000
# 4 0.000000 0.000000 0.000000 0.056149 0.000000 -0.004734
# 5 0.003381 -0.006270 0.011576 0.000000 0.030592 0.000000
# 6 0.000000 0.000000 0.000000 -0.004734 0.000000 0.017893
#
#
# Mechanical properties :
#
#
# Convention : Reuss Voigt Hill
#
# Bulk Modulus (GPa) = 44.76836 74.19940 59.48388
# Shear Modulus (GPa) = 24.50295 36.44587 30.47441
#
# Velocity S-wave (km/s) = 3.49196 4.25877 3.89428
# Velocity P-wave (km/s) = 6.20783 7.81715 7.05850
#
# Compressibility (1/GPa) = 0.02233720
#
# Stress axis : x y z
#
# Youngs Moduli (GPa) = 119.35456 72.53237 28.57835
#
# Poissons Ratio (x) = 0.23707 0.12832
# Poissons Ratio (y) = 0.39010 0.27582
# Poissons Ratio (z) = 0.53592 0.70003
#
# Static dielectric constant tensor:
#      x y z
#    x 4.891060 0.000000 -0.808720 
#    y 0.000000 3.550790 0.000000 
#    z -0.808720 0.000000 3.629970 
# 
# 
# High freq. dielectric constant tensor:
#      x y z
#    x 1.810350 0.000000 -0.030380 
#    y 0.000000 1.755460 0.000000 
#    z -0.030380 0.000000 1.764170 
# 
# From -- ./inp_files/21231.got.cif
#   From: 2010.06.25/outbox.cif.g09.slc.cpg/sg13_11_cif.got.tgz:21231.got - 2010.06.28 04:50:58.
