data_PCOD8120472
_publ_section_title
;
Structure prediction by ZEFSAII (Michael W. Deem and Ramdas Pophale) SiO2 
 PCOD8120472
Probable space group: P 2/C
;
_chemical_formula_sum "Si O2"
_cell_formula_units_Z 26
_cell_length_a 17.784650
_cell_length_b 12.369389
_cell_length_c 11.843996
_cell_angle_alpha 90.000000
_cell_angle_beta 149.759404
_cell_angle_gamma 90.000000
_cell_volume 1312.215917
_symmetry_space_group_name_H-M "P 2/C"
_symmetry_group_IT_number 13
_symmetry_cell_setting 'monoclinic'
loop_
_space_group_symop_operation_xyz
x,y,z
-x,y,1/2-z
-x,-y,-z
x,-y,1/2+z
loop_
_atom_site_type_symbol
_atom_site_label
_atom_site_fract_x
_atom_site_fract_y
_atom_site_fract_z
Si Si1 0.126817 0.431784 0.605826
Si Si2 0.363702 0.909415 0.660358
Si Si3 0.572809 0.183429 0.019442
Si Si4 0.730523 0.862166 0.498400
Si Si5 0.323495 0.317982 0.040088
Si Si6 0.637194 0.579378 0.687291
Si Si7 0.000000 0.277907 0.250000
O O1 0.228424 0.531517 0.706201
O O2 0.000000 0.500000 0.500000
O O3 0.073122 0.357714 0.434692
O O4 0.222501 0.349787 0.804955
O O5 0.500000 0.932505 0.750000
O O6 0.420325 0.896216 0.863311
O O7 0.270821 0.802114 0.507375
O O8 0.250174 0.010181 0.503171
O O9 0.591681 0.305811 0.080600
O O10 0.409295 0.178948 0.754702
O O11 0.699958 0.153725 0.092589
O O12 0.877809 0.797585 0.652291
O O13 0.500000 0.309421 0.250000
O O14 0.301507 0.408820 0.106225
O O15 0.500000 0.500000 0.500000
#
# Coordination Sequence:
#
# PCOD8120472 Si02
#       7
#     4   4   4   4   4   4   2
#     4  12  25  44  63  90 135 173 212 267 332 392
#     4  10  21  39  69  97 124 165 221 278 329 379
#     4  10  22  39  66  96 126 161 228 274 318 388
#     4  11  23  41  63  95 130 173 210 275 329 387
#     4  10  22  39  65  96 120 165 220 266 317 385
#     4  11  21  38  63  94 121 162 216 267 317 380
#     4  12  28  42  62  96 138 176 214 262 340 398
#
# _framework density 19.813811000000001
#
# number of rings (size 3 to 8) (size 9 to 14) (size 15 to 20)
#    0.000    1.231    3.077    3.231    4.308    2.462 
#    0.000    6.154    0.000    0.000    0.000    0.000 
#    0.000    0.000    0.000    0.000    0.000    0.000 
#
# Total GULP energy -322284.528258 kJ/mol
# GULP energy per Si atom -12395.558779 kJ/mol
# Density = 1.976871 g / cm^3
# Si number density = 19.813811 Si / 1000 Ang^3
#
#
#
# Elastic Constant Matrix: (Units=GPa)
#
#
# Indices 1 2 3 4 5 6 
#
# 1 117.7499 31.0922 38.5285 0.0000 -4.9526 0.0000
# 2 31.0922 116.7265 34.7579 0.0000 -6.7971 0.0000
# 3 38.5285 34.7579 88.4209 0.0000 -14.7817 0.0000
# 4 0.0000 0.0000 0.0000 26.2833 0.0000 9.7473
# 5 -4.9526 -6.7971 -14.7817 0.0000 42.9097 0.0000
# 6 0.0000 0.0000 0.0000 9.7473 0.0000 36.7610
#
#
#
# Elastic Compliance Matrix: (Units=1/GPa)
#
#
# Indices 1 2 3 4 5 6 
#
# 1 0.010160 -0.001576 -0.003876 0.000000 -0.000412 0.000000
# 2 -0.001576 0.009949 -0.003174 0.000000 0.000301 0.000000
# 3 -0.003876 -0.003174 0.014948 0.000000 0.004199 0.000000
# 4 0.000000 0.000000 0.000000 0.042196 0.000000 -0.011189
# 5 -0.000412 0.000301 0.004199 0.000000 0.024751 0.000000
# 6 0.000000 0.000000 0.000000 -0.011189 0.000000 0.030169
#
#
# Mechanical properties :
#
#
# Convention : Reuss Voigt Hill
#
# Bulk Modulus (GPa) = 56.16521 59.07270 57.61895
# Shear Modulus (GPa) = 32.18275 35.75872 33.97074
#
# Velocity S-wave (km/s) = 4.03458 4.25283 4.14514
# Velocity P-wave (km/s) = 7.07897 7.34806 7.21477
#
# Compressibility (1/GPa) = 0.01780462
#
# Stress axis : x y z
#
# Youngs Moduli (GPa) = 98.42755 100.50763 66.89678
#
# Poissons Ratio (x) = 0.15839 0.25932
# Poissons Ratio (y) = 0.15512 0.21234
# Poissons Ratio (z) = 0.38155 0.31902
#
# Static dielectric constant tensor:
#      x y z
#    x 3.915740 0.000000 -0.246850 
#    y 0.000000 4.550650 0.000000 
#    z -0.246850 0.000000 3.421040 
# 
# 
# High freq. dielectric constant tensor:
#      x y z
#    x 1.783400 0.000000 -0.016510 
#    y 0.000000 1.798500 0.000000 
#    z -0.016510 0.000000 1.759480 
# 
# From -- ./inp_files/33970.got.cif
#   From: 2010.06.25/outbox.cif.g09.slc.cpg/sg13_17_cif.got.tgz:33970.got - 2010.06.28 04:50:58.
