data_PCOD8120285
_publ_section_title
;
Structure prediction by ZEFSAII (Michael W. Deem and Ramdas Pophale) SiO2 
 PCOD8120285
Probable space group: P 2/C
;
_chemical_formula_sum "Si O2"
_cell_formula_units_Z 22
_cell_length_a 12.482982
_cell_length_b 11.879524
_cell_length_c 15.404197
_cell_angle_alpha 90.000000
_cell_angle_beta 151.910231
_cell_angle_gamma 90.000000
_cell_volume 1075.580800
_symmetry_space_group_name_H-M "P 2/C"
_symmetry_group_IT_number 13
_symmetry_cell_setting 'monoclinic'
loop_
_space_group_symop_operation_xyz
x,y,z
-x,y,1/2-z
-x,-y,-z
x,-y,1/2+z
loop_
_atom_site_type_symbol
_atom_site_label
_atom_site_fract_x
_atom_site_fract_y
_atom_site_fract_z
Si Si1 0.500000 0.931740 0.750000
Si Si2 0.492541 0.374166 0.960330
Si Si3 0.717114 0.705052 0.460999
Si Si4 0.069137 0.070031 0.388987
Si Si5 0.295594 0.800750 0.756121
Si Si6 0.946458 0.370401 0.960971
O O1 0.476260 0.860446 0.821727
O O2 0.263670 0.001440 0.578750
O O3 0.667954 0.377157 0.005725
O O4 0.245629 0.341012 0.746448
O O5 0.500000 0.500000 0.000000
O O6 0.558248 0.277540 0.074879
O O7 0.500000 0.738479 0.250000
O O8 0.817005 0.819143 0.570386
O O9 0.893547 0.645250 0.524527
O O10 0.000000 0.004413 0.250000
O O11 0.862157 0.106030 0.306382
O O12 0.150601 0.717099 0.589656
O O13 0.000000 0.500000 0.000000
#
# Coordination Sequence:
#
# PCOD8120285 Si02
#       6
#     2   4   4   4   4   4
#     4  12  28  44  62  98 136 168 216 284 330 366
#     4  11  21  39  65  96 128 169 213 261 321 391
#     4   9  19  37  62  87 122 164 215 261 302 385
#     4  11  22  42  70  91 121 175 226 263 323 387
#     4  11  25  43  64  95 133 168 219 266 325 393
#     4  10  21  38  63  94 128 167 212 259 326 386
#
# _framework density 20.454063999999999
#
# number of rings (size 3 to 8) (size 9 to 14) (size 15 to 20)
#    0.000    1.455    4.545    0.545    0.000    3.636 
#    0.000    1.818    0.000    0.000    0.000    0.000 
#    0.000    0.000    0.000    0.000    0.000    0.000 
#
# Total GULP energy -272583.102102 kJ/mol
# GULP energy per Si atom -12390.141005 kJ/mol
# Density = 2.040751 g / cm^3
# Si number density = 20.454064 Si / 1000 Ang^3
#
#
#
# Elastic Constant Matrix: (Units=GPa)
#
#
# Indices 1 2 3 4 5 6 
#
# 1 104.4995 48.6827 41.2637 0.0000 -4.2096 0.0000
# 2 48.6827 82.2064 53.1619 0.0000 -0.1799 0.0000
# 3 41.2637 53.1619 95.9552 0.0000 -20.9137 0.0000
# 4 0.0000 0.0000 0.0000 33.0870 0.0000 -0.6165
# 5 -4.2096 -0.1799 -20.9137 0.0000 29.6415 0.0000
# 6 0.0000 0.0000 0.0000 -0.6165 0.0000 32.8692
#
#
#
# Elastic Compliance Matrix: (Units=1/GPa)
#
#
# Indices 1 2 3 4 5 6 
#
# 1 0.013498 -0.006710 -0.001983 0.000000 0.000477 0.000000
# 2 -0.006710 0.024359 -0.012746 0.000000 -0.009798 0.000000
# 3 -0.001983 -0.012746 0.021575 0.000000 0.014864 0.000000
# 4 0.000000 0.000000 0.000000 0.030234 0.000000 0.000567
# 5 0.000477 -0.009798 0.014864 0.000000 0.044232 0.000000
# 6 0.000000 0.000000 0.000000 0.000567 0.000000 0.030434
#
#
# Mechanical properties :
#
#
# Convention : Reuss Voigt Hill
#
# Bulk Modulus (GPa) = 60.40464 63.20863 61.80663
# Shear Modulus (GPa) = 23.50430 28.42306 25.96368
#
# Velocity S-wave (km/s) = 3.39355 3.73178 3.56668
# Velocity P-wave (km/s) = 6.70454 7.03833 6.87346
#
# Compressibility (1/GPa) = 0.01655502
#
# Stress axis : x y z
#
# Youngs Moduli (GPa) = 74.08756 41.05242 46.34942
#
# Poissons Ratio (x) = 0.27546 0.09191
# Poissons Ratio (y) = 0.49712 0.59075
# Poissons Ratio (z) = 0.14691 0.52324
#
# Static dielectric constant tensor:
#      x y z
#    x 3.796550 0.000000 -0.033700 
#    y 0.000000 3.025320 0.000000 
#    z -0.033700 0.000000 3.990970 
# 
# 
# High freq. dielectric constant tensor:
#      x y z
#    x 1.793080 0.000000 -0.009170 
#    y 0.000000 1.789540 0.000000 
#    z -0.009170 0.000000 1.818940 
# 
# From -- ./inp_files/51271.got.cif
#   From: 2010.06.25/outbox.cif.g09.slc.cpg/sg13_26_cif.got.tgz:51271.got - 2010.06.28 04:50:58.
