data_PCOD8120557
_publ_section_title
;
Structure prediction by ZEFSAII (Michael W. Deem and Ramdas Pophale) SiO2 
 PCOD8120557
Probable space group: P 2/C
;
_chemical_formula_sum "Si O2"
_cell_formula_units_Z 26
_cell_length_a 23.937469
_cell_length_b 5.325363
_cell_length_c 10.552319
_cell_angle_alpha 90.000000
_cell_angle_beta 43.179912
_cell_angle_gamma 90.000000
_cell_volume 920.484529
_symmetry_space_group_name_H-M "P 2/C"
_symmetry_group_IT_number 13
_symmetry_cell_setting 'monoclinic'
loop_
_space_group_symop_operation_xyz
x,y,z
-x,y,1/2-z
-x,-y,-z
x,-y,1/2+z
loop_
_atom_site_type_symbol
_atom_site_label
_atom_site_fract_x
_atom_site_fract_y
_atom_site_fract_z
Si Si1 0.368161 0.571789 0.637336
Si Si2 0.114243 0.059257 0.985876
Si Si3 0.068553 0.436762 0.487019
Si Si4 0.748361 0.598608 0.902533
Si Si5 0.500000 0.252363 0.750000
Si Si6 0.216021 0.096983 0.560853
Si Si7 0.408877 0.937777 0.196199
O O1 0.298250 0.532157 0.648226
O O2 0.458704 0.574198 0.425333
O O3 0.370536 0.332962 0.723779
O O4 0.351067 0.835895 0.742506
O O5 0.047222 0.833415 0.087409
O O6 0.073307 0.333176 0.082042
O O7 0.154891 0.123236 0.781475
O O8 0.175924 0.976907 0.994076
O O9 0.155693 0.365108 0.281686
O O10 0.000000 0.500000 0.500000
O O11 0.739754 0.373132 0.020496
O O12 0.720067 0.871115 0.008519
O O13 0.575591 0.083194 0.677564
O O14 0.500000 0.000000 0.000000
#
# Coordination Sequence:
#
# PCOD8120557 Si02
#       7
#     4   4   4   4   2   4   4
#     4  11  23  42  64  95 128 170 213 264 324 383
#     4  10  21  40  65  93 127 172 220 272 327 389
#     4  10  21  41  66  95 130 175 218 269 326 387
#     4  10  22  42  62  94 130 166 219 268 323 389
#     4  10  22  42  64  98 122 172 208 264 328 386
#     4  10  21  42  65  91 134 169 217 272 327 388
#     4  10  22  40  66  90 131 162 213 262 317 392
#
# _framework density 28.245989999999999
#
# number of rings (size 3 to 8) (size 9 to 14) (size 15 to 20)
#    0.000    1.846    0.000    4.154    0.000    5.538 
#   16.615   18.462    0.000    0.000    0.000    0.000 
#    0.000    0.000    0.000    0.000    0.000    0.000 
#
# Total GULP energy -322194.029340 kJ/mol
# GULP energy per Si atom -12392.078052 kJ/mol
# Density = 2.818170 g / cm^3
# Si number density = 28.245990 Si / 1000 Ang^3
#
#
#
# Elastic Constant Matrix: (Units=GPa)
#
#
# Indices 1 2 3 4 5 6 
#
# 1 187.0821 71.8721 -9.7722 0.0000 3.3857 0.0000
# 2 71.8721 270.5341 10.1133 0.0000 7.7809 0.0000
# 3 -9.7722 10.1133 57.1166 0.0000 -4.0350 0.0000
# 4 0.0000 0.0000 0.0000 -18.3453 0.0000 3.8834
# 5 3.3857 7.7809 -4.0350 0.0000 39.8592 0.0000
# 6 0.0000 0.0000 0.0000 3.8834 0.0000 59.8228
#
#
#
# Elastic Compliance Matrix: (Units=1/GPa)
#
#
# Indices 1 2 3 4 5 6 
#
# 1 0.006051 -0.001656 0.001324 0.000000 -0.000057 0.000000
# 2 -0.001656 0.004199 -0.001083 0.000000 -0.000789 0.000000
# 3 0.001324 -0.001083 0.018062 0.000000 0.001927 0.000000
# 4 0.000000 0.000000 0.000000 -0.053771 0.000000 0.003491
# 5 -0.000057 -0.000789 0.001927 0.000000 0.025442 0.000000
# 6 0.000000 0.000000 0.000000 0.003491 0.000000 0.016489
#
#
# Mechanical properties :
#
#
# Convention : Reuss Voigt Hill
#
# Bulk Modulus (GPa) = 39.23699 73.23989 56.23844
# Shear Modulus (GPa) = 179.87725 45.76864 112.82294
#
# Velocity S-wave (km/s) = 7.98878 4.02974 6.32690
# Velocity P-wave (km/s) = 9.95065 6.90198 8.56308
#
# Compressibility (1/GPa) = 0.02548615
#
# Stress axis : x y z
#
# Youngs Moduli (GPa) = 165.24879 238.13085 55.36335
#
# Poissons Ratio (x) = 0.39424 -0.07333
# Poissons Ratio (y) = 0.27358 0.05993
# Poissons Ratio (z) = -0.21887 0.25778
#
# Static dielectric constant tensor:
#      x y z
#    x 5.707160 0.000000 0.283800 
#    y 0.000000 6.973990 0.000000 
#    z 0.283800 0.000000 5.538350 
# 
# 
# High freq. dielectric constant tensor:
#      x y z
#    x 2.140230 0.000000 -0.016890 
#    y 0.000000 2.178940 0.000000 
#    z -0.016890 0.000000 2.181650 
# 
# From -- ./inp_files/39803.got.cif
#   From: 2010.06.25/outbox.cif.g09.slc.cpg/sg13_20_cif.got.tgz:39803.got - 2010.06.28 04:50:58.
