data_PCOD8120617
_publ_section_title
;
Structure prediction by ZEFSAII (Michael W. Deem and Ramdas Pophale) SiO2 
 PCOD8120617
Probable space group: P 2/C
;
_chemical_formula_sum "Si O2"
_cell_formula_units_Z 20
_cell_length_a 13.193729
_cell_length_b 8.874042
_cell_length_c 22.380282
_cell_angle_alpha 90.000000
_cell_angle_beta 22.322280
_cell_angle_gamma 90.000000
_cell_volume 995.239819
_symmetry_space_group_name_H-M "P 2/C"
_symmetry_group_IT_number 13
_symmetry_cell_setting 'monoclinic'
loop_
_space_group_symop_operation_xyz
x,y,z
-x,y,1/2-z
-x,-y,-z
x,-y,1/2+z
loop_
_atom_site_type_symbol
_atom_site_label
_atom_site_fract_x
_atom_site_fract_y
_atom_site_fract_z
Si Si1 0.325975 0.674663 0.399989
Si Si2 0.202879 0.207767 0.361039
Si Si3 0.272864 0.343804 0.451909
Si Si4 0.568415 0.940883 0.331051
Si Si5 0.954876 0.891441 0.344398
O O1 0.500000 0.617187 0.250000
O O2 0.206054 0.520660 0.492135
O O3 0.520971 0.767948 0.337213
O O4 0.084644 0.782578 0.512460
O O5 0.178045 0.251703 0.444295
O O6 0.407283 0.322679 0.216945
O O7 0.317671 0.038060 0.287660
O O8 0.115782 0.275074 0.593429
O O9 0.776189 0.951671 0.271744
O O10 0.287353 0.999068 0.508092
O O11 0.000000 0.883342 0.250000
#
# Coordination Sequence:
#
# PCOD8120617 Si02
#       5
#     4   4   4   4   4
#     4  12  23  36  65  97 130 162 201 259 331 383
#     4  10  21  41  59  96 129 161 201 264 317 386
#     4  10  23  39  62  92 130 164 206 256 319 381
#     4  11  24  41  68  96 126 164 217 261 317 372
#     4  11  24  45  66  89 128 173 217 262 305 364
#
# _framework density 20.095659999999999
#
# number of rings (size 3 to 8) (size 9 to 14) (size 15 to 20)
#    0.000    1.200    4.000    2.400    8.400    1.600 
#    0.000    2.000    0.000    0.000    0.000    0.000 
#    0.000    0.000    0.000    0.000    0.000    0.000 
#
# Total GULP energy -247994.356075 kJ/mol
# GULP energy per Si atom -12399.717804 kJ/mol
# Density = 2.004992 g / cm^3
# Si number density = 20.095660 Si / 1000 Ang^3
#
#
#
# Elastic Constant Matrix: (Units=GPa)
#
#
# Indices 1 2 3 4 5 6 
#
# 1 114.6528 54.9585 46.4343 0.0000 -8.6810 0.0000
# 2 54.9585 132.5248 25.4990 0.0000 13.9479 0.0000
# 3 46.4343 25.4990 56.3695 0.0000 -12.0966 0.0000
# 4 0.0000 0.0000 0.0000 95.8165 0.0000 91.3473
# 5 -8.6810 13.9479 -12.0966 0.0000 39.9650 0.0000
# 6 0.0000 0.0000 0.0000 91.3473 0.0000 129.7901
#
#
#
# Elastic Compliance Matrix: (Units=1/GPa)
#
#
# Indices 1 2 3 4 5 6 
#
# 1 0.015068 -0.004523 -0.009973 0.000000 0.001833 0.000000
# 2 -0.004523 0.010375 -0.002091 0.000000 -0.005236 0.000000
# 3 -0.009973 -0.002091 0.028440 0.000000 0.007172 0.000000
# 4 0.000000 0.000000 0.000000 0.031720 0.000000 -0.022325
# 5 0.001833 -0.005236 0.007172 0.000000 0.029418 0.000000
# 6 0.000000 0.000000 0.000000 -0.022325 0.000000 0.023417
#
#
# Mechanical properties :
#
#
# Convention : Reuss Voigt Hill
#
# Bulk Modulus (GPa) = 48.28758 61.92566 55.10662
# Shear Modulus (GPa) = 28.00887 64.89134 46.45011
#
# Velocity S-wave (km/s) = 3.73738 5.68870 4.81297
# Velocity P-wave (km/s) = 6.53491 8.60411 7.63989
#
# Compressibility (1/GPa) = 0.02070926
#
# Stress axis : x y z
#
# Youngs Moduli (GPa) = 66.36725 96.38754 35.16152
#
# Poissons Ratio (x) = 0.43593 0.35066
# Poissons Ratio (y) = 0.30016 0.07353
# Poissons Ratio (z) = 0.66187 0.20157
#
# Static dielectric constant tensor:
#      x y z
#    x 3.484390 0.000000 -0.250020 
#    y 0.000000 3.538740 0.000000 
#    z -0.250020 0.000000 3.728470 
# 
# 
# High freq. dielectric constant tensor:
#      x y z
#    x 1.762290 0.000000 -0.028710 
#    y 0.000000 1.784910 0.000000 
#    z -0.028710 0.000000 1.791260 
# 
# From -- ./inp_files/32090.got.cif
#   From: 2010.06.25/outbox.cif.g09.slc.cpg/sg13_17_cif.got.tgz:32090.got - 2010.06.28 04:50:58.
