data_PCOD8120549
_publ_section_title
;
Structure prediction by ZEFSAII (Michael W. Deem and Ramdas Pophale) SiO2 
 PCOD8120549
Probable space group: P 2/C
;
_chemical_formula_sum "Si O2"
_cell_formula_units_Z 20
_cell_length_a 18.225471
_cell_length_b 7.687542
_cell_length_c 17.143078
_cell_angle_alpha 90.000000
_cell_angle_beta 156.611868
_cell_angle_gamma 90.000000
_cell_volume 953.453207
_symmetry_space_group_name_H-M "P 2/C"
_symmetry_group_IT_number 13
_symmetry_cell_setting 'monoclinic'
loop_
_space_group_symop_operation_xyz
x,y,z
-x,y,1/2-z
-x,-y,-z
x,-y,1/2+z
loop_
_atom_site_type_symbol
_atom_site_label
_atom_site_fract_x
_atom_site_fract_y
_atom_site_fract_z
Si Si1 0.243179 0.667960 0.212808
Si Si2 0.704473 0.977180 0.128118
Si Si3 0.935165 0.881304 0.105096
Si Si4 0.830047 0.712391 0.849639
Si Si5 0.602992 0.132406 0.774523
O O1 0.281975 0.466898 0.272726
O O2 0.335161 0.707007 0.218959
O O3 0.329320 0.792210 0.363015
O O4 0.023835 0.703119 0.992775
O O5 0.710661 0.127275 0.200389
O O6 0.895764 0.984244 0.268676
O O7 0.465788 0.996205 0.095150
O O8 0.000000 0.793179 0.250000
O O9 0.864057 0.734939 0.975691
O O10 0.778403 0.020858 0.972294
O O11 0.500000 0.209636 0.750000
#
# Coordination Sequence:
#
# PCOD8120549 Si02
#       5
#     4   4   4   4   4
#     4  10  21  40  64  95 120 158 214 252 303 370
#     4  11  21  40  68  89 121 165 204 261 304 357
#     4  11  21  41  62  90 128 163 205 254 312 370
#     4  10  21  40  68  90 120 165 208 258 305 359
#     4  12  23  38  63  95 124 166 206 250 317 374
#
# _framework density 20.976382999999998
#
# number of rings (size 3 to 8) (size 9 to 14) (size 15 to 20)
#    0.000    1.200    6.000    1.800    0.000    0.800 
#    0.000    8.000    0.000    0.000    0.000    0.000 
#    0.000    0.000    0.000    0.000    0.000    0.000 
#
# Total GULP energy -248033.766183 kJ/mol
# GULP energy per Si atom -12401.688309 kJ/mol
# Density = 2.092864 g / cm^3
# Si number density = 20.976383 Si / 1000 Ang^3
#
#
#
# Elastic Constant Matrix: (Units=GPa)
#
#
# Indices 1 2 3 4 5 6 
#
# 1 158.3711 43.1712 37.2042 0.0000 -3.0316 0.0000
# 2 43.1712 111.9651 18.7480 0.0000 -13.2583 0.0000
# 3 37.2042 18.7480 65.6573 0.0000 -13.6461 0.0000
# 4 0.0000 0.0000 0.0000 10.8794 0.0000 -0.2408
# 5 -3.0316 -13.2583 -13.6461 0.0000 39.7213 0.0000
# 6 0.0000 0.0000 0.0000 -0.2408 0.0000 18.0356
#
#
#
# Elastic Compliance Matrix: (Units=1/GPa)
#
#
# Indices 1 2 3 4 5 6 
#
# 1 0.007951 -0.002574 -0.004117 0.000000 -0.001667 0.000000
# 2 -0.002574 0.010427 -0.000901 0.000000 0.002974 0.000000
# 3 -0.004117 -0.000901 0.019053 0.000000 0.005931 0.000000
# 4 0.000000 0.000000 0.000000 0.091944 0.000000 0.001228
# 5 -0.001667 0.002974 0.005931 0.000000 0.028079 0.000000
# 6 0.000000 0.000000 0.000000 0.001228 0.000000 0.055462
#
#
# Mechanical properties :
#
#
# Convention : Reuss Voigt Hill
#
# Bulk Modulus (GPa) = 44.94701 59.36003 52.15352
# Shear Modulus (GPa) = 21.23007 29.51858 25.37433
#
# Velocity S-wave (km/s) = 3.18479 3.75538 3.48179
# Velocity P-wave (km/s) = 5.91590 6.86759 6.40943
#
# Compressibility (1/GPa) = 0.02224842
#
# Stress axis : x y z
#
# Youngs Moduli (GPa) = 125.76861 95.90692 52.48450
#
# Poissons Ratio (x) = 0.24684 0.21607
# Poissons Ratio (y) = 0.32370 0.04727
# Poissons Ratio (z) = 0.51778 0.08638
#
# Static dielectric constant tensor:
#      x y z
#    x 3.988940 0.000000 0.136490 
#    y 0.000000 3.560340 0.000000 
#    z 0.136490 0.000000 3.842930 
# 
# 
# High freq. dielectric constant tensor:
#      x y z
#    x 1.829910 0.000000 0.014630 
#    y 0.000000 1.792510 0.000000 
#    z 0.014630 0.000000 1.829730 
# 
# From -- ./inp_files/69333.got.cif
#   From: 2010.06.25/outbox.cif.g09.slc.cpg/sg13_35_cif.got.tgz:69333.got - 2010.06.28 04:50:58.
