data_PCOD8120697
_publ_section_title
;
Structure prediction by ZEFSAII (Michael W. Deem and Ramdas Pophale) SiO2 
 PCOD8120697
Probable space group: P 2/C
;
_chemical_formula_sum "Si O2"
_cell_formula_units_Z 32
_cell_length_a 11.932475
_cell_length_b 17.137375
_cell_length_c 14.450875
_cell_angle_alpha 90.000000
_cell_angle_beta 148.055298
_cell_angle_gamma 90.000000
_cell_volume 1563.533467
_symmetry_space_group_name_H-M "P 2/C"
_symmetry_group_IT_number 13
_symmetry_cell_setting 'monoclinic'
loop_
_space_group_symop_operation_xyz
x,y,z
-x,y,1/2-z
-x,-y,-z
x,-y,1/2+z
loop_
_atom_site_type_symbol
_atom_site_label
_atom_site_fract_x
_atom_site_fract_y
_atom_site_fract_z
Si Si1 0.408311 0.840117 0.901188
Si Si2 0.060029 0.410405 0.039873
Si Si3 0.577459 0.343720 0.086507
Si Si4 0.942017 0.910187 0.961373
Si Si5 0.706686 0.324204 0.450738
Si Si6 0.600407 0.158694 0.726728
Si Si7 0.192480 0.155289 0.946347
Si Si8 0.606028 0.657944 0.233041
O O1 0.362876 0.747713 0.871342
O O2 0.196122 0.886191 0.724697
O O3 0.476413 0.872850 0.049561
O O4 0.589354 0.859401 0.953756
O O5 0.221341 0.391990 0.236303
O O6 0.164982 0.390180 0.014518
O O7 0.000000 0.500000 0.000000
O O8 0.853427 0.358689 0.907789
O O9 0.369984 0.358920 0.004905
O O10 0.513912 0.376298 0.941085
O O11 0.804170 0.891784 0.955669
O O12 0.153790 0.859759 0.109288
O O13 0.000000 0.000000 0.000000
O O14 0.500000 0.296360 0.250000
O O15 0.848752 0.247188 0.562906
O O16 0.500000 0.121701 0.750000
O O17 0.571971 0.250539 0.708537
O O18 0.000000 0.123438 0.750000
O O19 0.500000 0.620136 0.250000
#
# Coordination Sequence:
#
# PCOD8120697 Si02
#       8
#     4   4   4   4   4   4   4   4
#     4  10  21  41  68  91 120 157 210 272 310 350
#     4  11  23  37  57  89 129 161 190 248 316 379
#     4   9  20  39  64  92 113 154 209 265 305 346
#     4  12  25  40  59  92 129 168 193 248 323 387
#     4   9  19  36  63  93 116 149 206 264 305 351
#     4  10  22  42  62  90 118 161 216 257 295 366
#     4  11  20  38  68  95 117 152 212 269 307 353
#     4  10  22  39  62  83 116 161 210 250 293 358
#
# _framework density 20.466463000000001
#
# number of rings (size 3 to 8) (size 9 to 14) (size 15 to 20)
#    0.000    1.750    1.250    4.125    3.500    4.500 
#    2.250    5.000    0.000    0.000    0.000    0.000 
#    0.000    0.000    0.000    0.000    0.000    0.000 
#
# Total GULP energy -396867.657458 kJ/mol
# GULP energy per Si atom -12402.114296 kJ/mol
# Density = 2.041988 g / cm^3
# Si number density = 20.466463 Si / 1000 Ang^3
#
#
#
# Elastic Constant Matrix: (Units=GPa)
#
#
# Indices 1 2 3 4 5 6 
#
# 1 153.8341 45.4402 76.0799 0.0000 -25.9158 0.0000
# 2 45.4402 55.4950 38.1710 0.0000 -2.9537 0.0000
# 3 76.0799 38.1710 148.4799 0.0000 -14.5810 0.0000
# 4 0.0000 0.0000 0.0000 20.0552 0.0000 5.4051
# 5 -25.9158 -2.9537 -14.5810 0.0000 30.6285 0.0000
# 6 0.0000 0.0000 0.0000 5.4051 0.0000 4.9343
#
#
#
# Elastic Compliance Matrix: (Units=1/GPa)
#
#
# Indices 1 2 3 4 5 6 
#
# 1 0.011370 -0.006570 -0.003414 0.000000 0.007361 0.000000
# 2 -0.006570 0.025697 -0.003716 0.000000 -0.004850 0.000000
# 3 -0.003414 -0.003716 0.009568 0.000000 0.001308 0.000000
# 4 0.000000 0.000000 0.000000 0.070750 0.000000 -0.077502
# 5 0.007361 -0.004850 0.001308 0.000000 0.039033 0.000000
# 6 0.000000 0.000000 0.000000 -0.077502 0.000000 0.287563
#
#
# Mechanical properties :
#
#
# Convention : Reuss Voigt Hill
#
# Bulk Modulus (GPa) = 51.98822 75.24348 63.61585
# Shear Modulus (GPa) = 10.46481 24.33142 17.39812
#
# Velocity S-wave (km/s) = 2.26368 3.45170 2.91877
# Velocity P-wave (km/s) = 5.68235 7.26153 6.51993
#
# Compressibility (1/GPa) = 0.01923513
#
# Stress axis : x y z
#
# Youngs Moduli (GPa) = 87.95388 38.91514 104.51558
#
# Poissons Ratio (x) = 0.25566 0.35680
# Poissons Ratio (y) = 0.57783 0.38840
# Poissons Ratio (z) = 0.30026 0.14462
#
# Static dielectric constant tensor:
#      x y z
#    x 4.173740 0.000000 -0.163400 
#    y 0.000000 3.349070 0.000000 
#    z -0.163400 0.000000 3.913960 
# 
# 
# High freq. dielectric constant tensor:
#      x y z
#    x 1.808320 0.000000 -0.006840 
#    y 0.000000 1.768220 0.000000 
#    z -0.006840 0.000000 1.812760 
# 
# From -- ./inp_files/51660.got.cif
#   From: 2010.06.25/outbox.cif.g09.slc.cpg/sg13_26_cif.got.tgz:51660.got - 2010.06.28 04:50:58.
