data_PCOD8120989
_publ_section_title
;
Structure prediction by ZEFSAII (Michael W. Deem and Ramdas Pophale) SiO2 
 PCOD8120989
Probable space group: P 2/C
;
_chemical_formula_sum "Si O2"
_cell_formula_units_Z 22
_cell_length_a 9.875397
_cell_length_b 19.523367
_cell_length_c 5.322102
_cell_angle_alpha 90.000000
_cell_angle_beta 95.760483
_cell_angle_gamma 90.000000
_cell_volume 1020.924924
_symmetry_space_group_name_H-M "P 2/C"
_symmetry_group_IT_number 13
_symmetry_cell_setting 'monoclinic'
loop_
_space_group_symop_operation_xyz
x,y,z
-x,y,1/2-z
-x,-y,-z
x,-y,1/2+z
loop_
_atom_site_type_symbol
_atom_site_label
_atom_site_fract_x
_atom_site_fract_y
_atom_site_fract_z
Si Si1 0.500000 0.314427 0.250000
Si Si2 0.261105 0.337297 0.526562
Si Si3 0.000000 0.718957 0.750000
Si Si4 0.000000 0.955053 0.750000
Si Si5 0.107486 0.155593 0.977515
Si Si6 0.634984 0.215266 0.661099
Si Si7 0.841116 0.459470 0.714991
O O1 0.393966 0.361104 0.389724
O O2 0.596215 0.266463 0.433323
O O3 0.289736 0.259665 0.613116
O O4 0.243421 0.389536 0.756080
O O5 0.118522 0.333903 0.351261
O O6 0.059057 0.767924 0.542557
O O7 0.119180 0.898736 0.712982
O O8 0.000000 0.000000 0.500000
O O9 0.260950 0.156659 0.903085
O O10 0.000000 0.127189 0.750000
O O11 0.500000 0.179427 0.750000
O O12 0.800572 0.489492 0.436444
O O13 0.000000 0.442227 0.750000
#
# Coordination Sequence:
#
# PCOD8120989 Si02
#       7
#     2   4   2   2   4   4   4
#     4  10  22  40  58  88 132 164 206 252 348 384
#     4  11  23  37  64  88 129 164 206 270 330 391
#     4  11  22  32  62  98 124 159 206 268 330 379
#     4  11  24  42  64  98 138 177 210 262 304 357
#     4  11  21  38  65 100 131 164 217 259 312 375
#     4  10  22  38  60  95 131 166 203 263 334 385
#     4  10  25  42  60  88 121 166 217 267 321 386
#
# _framework density 21.549087
#
# number of rings (size 3 to 8) (size 9 to 14) (size 15 to 20)
#    0.000    1.455    4.545    0.000    8.909    0.000 
#    0.000    0.909    0.000    1.091    0.000    0.000 
#    0.000    0.000    0.000    0.000    0.000    0.000 
#
# Total GULP energy -272568.372922 kJ/mol
# GULP energy per Si atom -12389.471496 kJ/mol
# Density = 2.150004 g / cm^3
# Si number density = 21.549087 Si / 1000 Ang^3
#
#
#
# Elastic Constant Matrix: (Units=GPa)
#
#
# Indices 1 2 3 4 5 6 
#
# 1 167.2851 56.2768 48.3219 0.0000 -30.2289 0.0000
# 2 56.2768 76.4390 16.4434 0.0000 -26.6399 0.0000
# 3 48.3219 16.4434 80.6345 0.0000 -21.4431 0.0000
# 4 0.0000 0.0000 0.0000 39.4641 0.0000 -13.1035
# 5 -30.2289 -26.6399 -21.4431 0.0000 43.8607 0.0000
# 6 0.0000 0.0000 0.0000 -13.1035 0.0000 9.3273
#
#
#
# Elastic Compliance Matrix: (Units=1/GPa)
#
#
# Indices 1 2 3 4 5 6 
#
# 1 0.009216 -0.005564 -0.004135 0.000000 0.000950 0.000000
# 2 -0.005564 0.020001 0.001686 0.000000 0.009137 0.000000
# 3 -0.004135 0.001686 0.016150 0.000000 0.006069 0.000000
# 4 0.000000 0.000000 0.000000 0.047493 0.000000 0.066721
# 5 0.000950 0.009137 0.006069 0.000000 0.031971 0.000000
# 6 0.000000 0.000000 0.000000 0.066721 0.000000 0.200946
#
#
# Mechanical properties :
#
#
# Convention : Reuss Voigt Hill
#
# Bulk Modulus (GPa) = 34.08463 62.93812 48.51137
# Shear Modulus (GPa) = 14.22131 32.08484 23.15307
#
# Velocity S-wave (km/s) = 2.57174 3.86284 3.28141
# Velocity P-wave (km/s) = 4.96689 7.01182 6.07600
#
# Compressibility (1/GPa) = 0.02933874
#
# Stress axis : x y z
#
# Youngs Moduli (GPa) = 108.50675 49.99818 61.91888
#
# Poissons Ratio (x) = 0.27821 0.25606
# Poissons Ratio (y) = 0.60377 -0.10438
# Poissons Ratio (z) = 0.44873 -0.08428
#
# Static dielectric constant tensor:
#      x y z
#    x 4.268850 0.000000 -0.224050 
#    y 0.000000 3.707590 0.000000 
#    z -0.224050 0.000000 4.232600 
# 
# 
# High freq. dielectric constant tensor:
#      x y z
#    x 1.845240 0.000000 -0.027590 
#    y 0.000000 1.809670 0.000000 
#    z -0.027590 0.000000 1.854600 
# 
# From -- ./inp_files/2150.got.cif
#   From: 2010.06.25/outbox.cif.g09.slc.cpg/sg13_2_cif.got.tgz:2150.got - 2010.06.28 04:50:58.
