data_PCOD8120005
_publ_section_title
;
Structure prediction by ZEFSAII (Michael W. Deem and Ramdas Pophale) SiO2 
 PCOD8120005
Probable space group: P 2/C
;
_chemical_formula_sum "Si O2"
_cell_formula_units_Z 20
_cell_length_a 13.037200
_cell_length_b 5.178502
_cell_length_c 14.216496
_cell_angle_alpha 90.000000
_cell_angle_beta 71.720332
_cell_angle_gamma 90.000000
_cell_volume 911.366085
_symmetry_space_group_name_H-M "P 2/C"
_symmetry_group_IT_number 13
_symmetry_cell_setting 'monoclinic'
loop_
_space_group_symop_operation_xyz
x,y,z
-x,y,1/2-z
-x,-y,-z
x,-y,1/2+z
loop_
_atom_site_type_symbol
_atom_site_label
_atom_site_fract_x
_atom_site_fract_y
_atom_site_fract_z
Si Si1 0.529643 0.446554 0.598001
Si Si2 0.659487 0.068945 0.048439
Si Si3 0.899517 0.541840 0.210608
Si Si4 0.689915 0.768587 0.327272
Si Si5 0.172121 0.032953 0.353185
O O1 0.500000 0.500000 0.500000
O O2 0.587592 0.706309 0.619097
O O3 0.417106 0.375954 0.683265
O O4 0.611244 0.209532 0.584488
O O5 0.780799 0.075298 0.055898
O O6 0.665348 0.109061 0.935323
O O7 0.789206 0.564316 0.304177
O O8 0.901908 0.273551 0.154450
O O9 0.000000 0.560759 0.250000
O O10 0.903032 0.776867 0.133454
O O11 0.723951 0.998734 0.246423
#
# Coordination Sequence:
#
# PCOD8120005 Si02
#       5
#     4   4   4   4   4
#     4  10  21  36  59  89 123 157 191 233 291 354
#     4  11  22  39  60  90 126 151 194 246 280 362
#     4  10  22  42  61  82 117 157 200 256 298 343
#     4   9  23  38  62  84 120 160 192 233 305 340
#     4  10  23  39  61  89 118 151 204 240 298 354
#
# _framework density 21.945080000000001
#
# number of rings (size 3 to 8) (size 9 to 14) (size 15 to 20)
#    1.200    0.800    0.000    4.200    8.400    0.800 
#    0.000    2.000    0.000    0.000    0.000    0.000 
#    0.000    0.000    0.000    0.000    0.000    0.000 
#
# Total GULP energy -247859.317350 kJ/mol
# GULP energy per Si atom -12392.965867 kJ/mol
# Density = 2.189513 g / cm^3
# Si number density = 21.945080 Si / 1000 Ang^3
#
#
#
# Elastic Constant Matrix: (Units=GPa)
#
#
# Indices 1 2 3 4 5 6 
#
# 1 101.5454 33.7411 -21.4211 0.0000 16.4006 0.0000
# 2 33.7411 155.5808 -5.3455 0.0000 12.8014 0.0000
# 3 -21.4211 -5.3455 17.5225 0.0000 1.1403 0.0000
# 4 0.0000 0.0000 0.0000 11.2904 0.0000 7.3644
# 5 16.4006 12.8014 1.1403 0.0000 26.3983 0.0000
# 6 0.0000 0.0000 0.0000 7.3644 0.0000 44.1896
#
#
#
# Elastic Compliance Matrix: (Units=1/GPa)
#
#
# Indices 1 2 3 4 5 6 
#
# 1 0.016379 -0.002036 0.020057 0.000000 -0.010055 0.000000
# 2 -0.002036 0.007038 -0.000202 0.000000 -0.002140 0.000000
# 3 0.020057 -0.000202 0.082564 0.000000 -0.015929 0.000000
# 4 0.000000 0.000000 0.000000 0.099373 0.000000 -0.016561
# 5 -0.010055 -0.002140 -0.015929 0.000000 0.045854 0.000000
# 6 0.000000 0.000000 0.000000 -0.016561 0.000000 0.025390
#
#
# Mechanical properties :
#
#
# Convention : Reuss Voigt Hill
#
# Bulk Modulus (GPa) = 7.06123 32.06641 19.56382
# Shear Modulus (GPa) = 17.35108 34.22060 25.78584
#
# Velocity S-wave (km/s) = 2.81492 3.95318 3.43157
# Velocity P-wave (km/s) = 3.71345 5.95656 4.96338
#
# Compressibility (1/GPa) = 0.14161841
#
# Stress axis : x y z
#
# Youngs Moduli (GPa) = 61.05284 142.08359 12.11188
#
# Poissons Ratio (x) = 0.28924 -0.24293
# Poissons Ratio (y) = 0.12429 0.00245
# Poissons Ratio (z) = -1.22452 0.02875
#
# Static dielectric constant tensor:
#      x y z
#    x 4.041500 0.000000 0.041790 
#    y 0.000000 4.219830 0.000000 
#    z 0.041790 0.000000 3.580130 
# 
# 
# High freq. dielectric constant tensor:
#      x y z
#    x 1.867510 0.000000 0.013760 
#    y 0.000000 1.874170 0.000000 
#    z 0.013760 0.000000 1.822100 
# 
# From -- ./inp_files/54229.got.cif
#   From: 2010.06.25/outbox.cif.g09.slc.cpg/sg13_28_cif.got.tgz:54229.got - 2010.06.28 04:50:58.
