data_PCOD8120060
_publ_section_title
;
Structure prediction by ZEFSAII (Michael W. Deem and Ramdas Pophale) SiO2 
 PCOD8120060
Probable space group: P 2/C
;
_chemical_formula_sum "Si O2"
_cell_formula_units_Z 20
_cell_length_a 8.823433
_cell_length_b 22.662466
_cell_length_c 9.855497
_cell_angle_alpha 90.000000
_cell_angle_beta 149.189912
_cell_angle_gamma 90.000000
_cell_volume 1009.387340
_symmetry_space_group_name_H-M "P 2/C"
_symmetry_group_IT_number 13
_symmetry_cell_setting 'monoclinic'
loop_
_space_group_symop_operation_xyz
x,y,z
-x,y,1/2-z
-x,-y,-z
x,-y,1/2+z
loop_
_atom_site_type_symbol
_atom_site_label
_atom_site_fract_x
_atom_site_fract_y
_atom_site_fract_z
Si Si1 0.658572 0.172176 0.508248
Si Si2 0.687935 0.530961 0.759381
Si Si3 0.343128 0.730488 0.267142
Si Si4 0.351280 0.960871 0.499605
Si Si5 0.832793 0.655163 0.758986
O O1 0.624684 0.213296 0.612286
O O2 0.543946 0.106310 0.451539
O O3 0.000000 0.166843 0.750000
O O4 0.500000 0.197620 0.250000
O O5 0.500000 0.522279 0.750000
O O6 0.500000 0.500000 0.500000
O O7 0.762687 0.599524 0.797634
O O8 0.000000 0.500000 0.000000
O O9 0.500000 0.750410 0.250000
O O10 0.511888 0.677810 0.470468
O O11 0.013638 0.705735 0.981482
O O12 0.000000 0.968587 0.250000
O O13 0.500000 0.000000 0.500000
O O14 0.500000 0.983716 0.750000
O O15 0.000000 0.635910 0.750000
#
# Coordination Sequence:
#
# PCOD8120060 Si02
#       5
#     4   4   4   4   4
#     4  10  21  37  57  83 117 153 192 243 297 349
#     4  12  25  42  64  90 119 155 196 240 293 351
#     4  10  21  37  58  84 114 151 193 237 289 346
#     4  10  21  38  59  86 119 157 200 247 300 354
#     4  10  21  38  59  85 117 150 190 241 289 342
#
# _framework density 19.813998000000002
#
# number of rings (size 3 to 8) (size 9 to 14) (size 15 to 20)
#    0.000    1.600    0.000    4.800    0.000    4.800 
#    0.000    3.000    0.000    0.000    0.000    0.000 
#    0.000    0.000    0.000    0.000    0.000    0.000 
#
# Total GULP energy -247900.836099 kJ/mol
# GULP energy per Si atom -12395.041805 kJ/mol
# Density = 1.976890 g / cm^3
# Si number density = 19.813998 Si / 1000 Ang^3
#
#
#
# Elastic Constant Matrix: (Units=GPa)
#
#
# Indices 1 2 3 4 5 6 
#
# 1 131.9371 76.2972 54.2120 0.0000 -17.8783 0.0000
# 2 76.2972 104.0728 39.0200 0.0000 -22.3447 0.0000
# 3 54.2120 39.0200 139.7719 0.0000 -17.2854 0.0000
# 4 0.0000 0.0000 0.0000 41.2333 0.0000 -16.1502
# 5 -17.8783 -22.3447 -17.2854 0.0000 34.2458 0.0000
# 6 0.0000 0.0000 0.0000 -16.1502 0.0000 30.6924
#
#
#
# Elastic Compliance Matrix: (Units=1/GPa)
#
#
# Indices 1 2 3 4 5 6 
#
# 1 0.014132 -0.009306 -0.002903 0.000000 -0.000160 0.000000
# 2 -0.009306 0.018087 -0.000620 0.000000 0.006630 0.000000
# 3 -0.002903 -0.000620 0.008763 0.000000 0.002503 0.000000
# 4 0.000000 0.000000 0.000000 0.030548 0.000000 0.016074
# 5 -0.000160 0.006630 0.002503 0.000000 0.034707 0.000000
# 6 0.000000 0.000000 0.000000 0.016074 0.000000 0.041040
#
#
# Mechanical properties :
#
#
# Convention : Reuss Voigt Hill
#
# Bulk Modulus (GPa) = 65.25713 79.42669 72.34191
# Shear Modulus (GPa) = 28.08292 34.98446 31.53369
#
# Velocity S-wave (km/s) = 3.76883 4.20651 3.99367
# Velocity P-wave (km/s) = 7.20729 7.98537 7.60629
#
# Compressibility (1/GPa) = 0.01532400
#
# Stress axis : x y z
#
# Youngs Moduli (GPa) = 70.75952 55.28750 114.11496
#
# Poissons Ratio (x) = 0.51453 0.33128
# Poissons Ratio (y) = 0.65852 0.07073
# Poissons Ratio (z) = 0.20542 0.03427
#
# Static dielectric constant tensor:
#      x y z
#    x 3.614910 0.000000 -0.054370 
#    y 0.000000 3.885180 0.000000 
#    z -0.054370 0.000000 3.933680 
# 
# 
# High freq. dielectric constant tensor:
#      x y z
#    x 1.768460 0.000000 -0.001150 
#    y 0.000000 1.773790 0.000000 
#    z -0.001150 0.000000 1.800140 
# 
# From -- ./inp_files/13793.got.cif
#   From: 2010.06.25/outbox.cif.g09.slc.cpg/sg13_7_cif.got.tgz:13793.got - 2010.06.28 04:50:58.
