data_PCOD8120573
_publ_section_title
;
Structure prediction by ZEFSAII (Michael W. Deem and Ramdas Pophale) SiO2 
 PCOD8120573
Probable space group: P 2/C
;
_chemical_formula_sum "Si O2"
_cell_formula_units_Z 20
_cell_length_a 8.789335
_cell_length_b 11.195623
_cell_length_c 9.744478
_cell_angle_alpha 90.000000
_cell_angle_beta 90.630015
_cell_angle_gamma 90.000000
_cell_volume 958.818947
_symmetry_space_group_name_H-M "P 2/C"
_symmetry_group_IT_number 13
_symmetry_cell_setting 'monoclinic'
loop_
_space_group_symop_operation_xyz
x,y,z
-x,y,1/2-z
-x,-y,-z
x,-y,1/2+z
loop_
_atom_site_type_symbol
_atom_site_label
_atom_site_fract_x
_atom_site_fract_y
_atom_site_fract_z
Si Si1 0.522808 0.153748 0.897493
Si Si2 0.427951 0.406697 0.600607
Si Si3 0.759146 0.010804 0.501834
Si Si4 0.929193 0.601455 0.402870
Si Si5 0.010081 0.176432 0.402218
O O1 0.500000 0.210685 0.750000
O O2 0.538179 0.279115 0.978439
O O3 0.680093 0.080197 0.895554
O O4 0.380261 0.069156 0.920038
O O5 0.500000 0.426971 0.750000
O O6 0.500000 0.500000 0.500000
O O7 0.247911 0.425109 0.613989
O O8 0.847310 0.116471 0.428271
O O9 0.866810 0.931407 0.601009
O O10 0.956374 0.727971 0.479315
O O11 0.000000 0.604902 0.250000
O O12 0.000000 0.500000 0.500000
O O13 0.000000 0.235218 0.250000
#
# Coordination Sequence:
#
# PCOD8120573 Si02
#       5
#     4   4   4   4   4
#     4  10  21  40  66  94 133 174 226 268 340 392
#     4  11  25  46  71  99 133 177 227 281 340 404
#     4  10  22  40  64  97 136 180 220 276 323 409
#     4  12  27  47  73 101 135 178 229 285 344 408
#     4  11  24  41  67 101 139 176 227 271 341 396
#
# _framework density 20.858993999999999
#
# number of rings (size 3 to 8) (size 9 to 14) (size 15 to 20)
#    0.000    1.200    2.000    3.000    8.400    3.200 
#    0.000    1.000    0.000    0.000    0.000    0.000 
#    0.000    0.000    0.000    0.000    0.000    0.000 
#
# Total GULP energy -247765.710169 kJ/mol
# GULP energy per Si atom -12388.285508 kJ/mol
# Density = 2.081152 g / cm^3
# Si number density = 20.858994 Si / 1000 Ang^3
#
#
#
# Elastic Constant Matrix: (Units=GPa)
#
#
# Indices 1 2 3 4 5 6 
#
# 1 153.6886 50.3512 47.8553 0.0000 9.6248 0.0000
# 2 50.3512 124.0183 47.2792 0.0000 4.2231 0.0000
# 3 47.8553 47.2792 130.3187 0.0000 5.4783 0.0000
# 4 0.0000 0.0000 0.0000 34.2122 0.0000 24.7151
# 5 9.6248 4.2231 5.4783 0.0000 21.9258 0.0000
# 6 0.0000 0.0000 0.0000 24.7151 0.0000 1448.6721
#
#
#
# Elastic Compliance Matrix: (Units=1/GPa)
#
#
# Indices 1 2 3 4 5 6 
#
# 1 0.008083 -0.002441 -0.001974 0.000000 -0.002585 0.000000
# 2 -0.002441 0.010115 -0.002765 0.000000 -0.000186 0.000000
# 3 -0.001974 -0.002765 0.009442 0.000000 -0.000960 0.000000
# 4 0.000000 0.000000 0.000000 0.029594 0.000000 -0.000505
# 5 -0.002585 -0.000186 -0.000960 0.000000 0.047019 0.000000
# 6 0.000000 0.000000 0.000000 -0.000505 0.000000 0.000699
#
#
# Mechanical properties :
#
#
# Convention : Reuss Voigt Hill
#
# Bulk Modulus (GPa) = 75.30708 77.66631 76.48669
# Shear Modulus (GPa) = 40.40768 318.46470 179.43619
#
# Velocity S-wave (km/s) = 4.40612 12.36958 9.28494
# Velocity P-wave (km/s) = 7.87823 15.53459 12.31645
#
# Compressibility (1/GPa) = 0.01327896
#
# Stress axis : x y z
#
# Youngs Moduli (GPa) = 123.71762 98.86296 105.90976
#
# Poissons Ratio (x) = 0.24134 0.20906
# Poissons Ratio (y) = 0.30201 0.29289
# Poissons Ratio (z) = 0.24421 0.27340
#
# Static dielectric constant tensor:
#      x y z
#    x 4.207740 0.000000 0.064970 
#    y 0.000000 4.006670 0.000000 
#    z 0.064970 0.000000 3.764420 
# 
# 
# High freq. dielectric constant tensor:
#      x y z
#    x 1.836480 0.000000 0.012930 
#    y 0.000000 1.836370 0.000000 
#    z 0.012930 0.000000 1.803030 
# 
# From -- ./inp_files/11797.got.cif
#   From: 2010.06.25/outbox.cif.g09.slc.cpg/sg13_6_cif.got.tgz:11797.got - 2010.06.28 04:50:58.
