data_PCOD8120479
_publ_section_title
;
Structure prediction by ZEFSAII (Michael W. Deem and Ramdas Pophale) SiO2 
 PCOD8120479
Probable space group: P 2/C
;
_chemical_formula_sum "Si O2"
_cell_formula_units_Z 20
_cell_length_a 7.276940
_cell_length_b 24.523468
_cell_length_c 5.361216
_cell_angle_alpha 90.000000
_cell_angle_beta 57.424524
_cell_angle_gamma 90.000000
_cell_volume 806.228563
_symmetry_space_group_name_H-M "P 2/C"
_symmetry_group_IT_number 13
_symmetry_cell_setting 'monoclinic'
loop_
_space_group_symop_operation_xyz
x,y,z
-x,y,1/2-z
-x,-y,-z
x,-y,1/2+z
loop_
_atom_site_type_symbol
_atom_site_label
_atom_site_fract_x
_atom_site_fract_y
_atom_site_fract_z
Si Si1 0.246944 0.522377 0.819716
Si Si2 0.255255 0.790334 0.561023
Si Si3 0.741587 0.028234 0.934580
Si Si4 0.742012 0.153524 0.936478
Si Si5 0.500000 0.376811 0.250000
Si Si6 0.500000 0.688731 0.250000
O O1 0.361669 0.504703 0.477726
O O2 0.286090 0.587238 0.828382
O O3 0.000000 0.500000 0.000000
O O4 0.355564 0.814454 0.230474
O O5 0.305123 0.725911 0.506397
O O6 0.000000 0.800298 0.750000
O O7 0.353010 0.821371 0.734327
O O8 0.674467 0.090883 0.957658
O O9 0.000000 0.020541 0.750000
O O10 0.646902 0.993559 0.768969
O O11 0.000000 0.160772 0.750000
O O12 0.427262 0.344694 0.555247
#
# Coordination Sequence:
#
# PCOD8120479 Si02
#       6
#     4   4   4   4   2   2
#     4  10  21  41  68  97 131 171 209 242 294 370
#     4  10  21  40  59  82 118 157 212 259 306 380
#     4   9  15  23  40  75 115 144 189 252 312 376
#     4   9  17  31  55  79 111 162 203 253 317 377
#     4  12  24  43  66  98 136 163 208 264 306 356
#     4  12  26  43  64  96 126 167 208 268 320 350
#
# _framework density 24.806858999999999
#
# number of rings (size 3 to 8) (size 9 to 14) (size 15 to 20)
#    0.000    2.000    0.000    4.200    0.000    4.800 
#   10.800    0.000    0.000    0.000    0.000   14.000 
#    0.000    0.000    0.000    0.000    0.000    0.000 
#
# Total GULP energy -247937.745154 kJ/mol
# GULP energy per Si atom -12396.887258 kJ/mol
# Density = 2.475040 g / cm^3
# Si number density = 24.806859 Si / 1000 Ang^3
#
#
#
# Elastic Constant Matrix: (Units=GPa)
#
#
# Indices 1 2 3 4 5 6 
#
# 1 115.3670 47.7967 61.4357 0.0000 32.1257 0.0000
# 2 47.7967 177.3546 77.7857 0.0000 43.0711 0.0000
# 3 61.4357 77.7857 227.1960 0.0000 38.3243 0.0000
# 4 0.0000 0.0000 0.0000 47.9268 0.0000 21.1141
# 5 32.1257 43.0711 38.3243 0.0000 46.8901 0.0000
# 6 0.0000 0.0000 0.0000 21.1141 0.0000 28.0709
#
#
#
# Elastic Compliance Matrix: (Units=1/GPa)
#
#
# Indices 1 2 3 4 5 6 
#
# 1 0.011607 -0.000961 -0.001876 0.000000 -0.005536 0.000000
# 2 -0.000961 0.007860 -0.001536 0.000000 -0.005306 0.000000
# 3 -0.001876 -0.001536 0.005776 0.000000 -0.002025 0.000000
# 4 0.000000 0.000000 0.000000 0.031206 0.000000 -0.023472
# 5 -0.005536 -0.005306 -0.002025 0.000000 0.031648 0.000000
# 6 0.000000 0.000000 0.000000 -0.023472 0.000000 0.053279
#
#
# Mechanical properties :
#
#
# Convention : Reuss Voigt Hill
#
# Bulk Modulus (GPa) = 60.61617 99.32819 79.97218
# Shear Modulus (GPa) = 32.12961 46.77084 39.45022
#
# Velocity S-wave (km/s) = 3.60278 4.34683 3.99218
# Velocity P-wave (km/s) = 6.46490 8.08213 7.31833
#
# Compressibility (1/GPa) = 0.01649725
#
# Stress axis : x y z
#
# Youngs Moduli (GPa) = 86.15798 127.23333 173.12482
#
# Poissons Ratio (x) = 0.12224 0.32473
# Poissons Ratio (y) = 0.08278 0.26594
# Poissons Ratio (z) = 0.16160 0.19545
#
# Static dielectric constant tensor:
#      x y z
#    x 5.681630 0.000000 0.424820 
#    y 0.000000 4.232320 0.000000 
#    z 0.424820 0.000000 5.394750 
# 
# 
# High freq. dielectric constant tensor:
#      x y z
#    x 2.040870 0.000000 -0.006820 
#    y 0.000000 1.962690 0.000000 
#    z -0.006820 0.000000 2.043300 
# 
# From -- ./inp_files/1977.got.cif
#   From: 2010.06.25/outbox.cif.g09.slc.cpg/sg13_1_cif.got.tgz:1977.got - 2010.06.28 04:50:58.
