data_PCOD8120086
_publ_section_title
;
Structure prediction by ZEFSAII (Michael W. Deem and Ramdas Pophale) SiO2 
 PCOD8120086
Probable space group: P 2/C
;
_chemical_formula_sum "Si O2"
_cell_formula_units_Z 22
_cell_length_a 6.427249
_cell_length_b 6.192456
_cell_length_c 25.510032
_cell_angle_alpha 90.000000
_cell_angle_beta 90.311213
_cell_angle_gamma 90.000000
_cell_volume 1015.295945
_symmetry_space_group_name_H-M "P 2/C"
_symmetry_group_IT_number 13
_symmetry_cell_setting 'monoclinic'
loop_
_space_group_symop_operation_xyz
x,y,z
-x,y,1/2-z
-x,-y,-z
x,-y,1/2+z
loop_
_atom_site_type_symbol
_atom_site_label
_atom_site_fract_x
_atom_site_fract_y
_atom_site_fract_z
Si Si1 0.589501 0.591463 0.840347
Si Si2 0.500000 0.708501 0.250000
Si Si3 0.835127 0.020489 0.291141
Si Si4 0.633623 0.197758 0.979125
Si Si5 0.087062 0.735129 0.112949
Si Si6 0.693584 0.518109 0.570848
O O1 0.463646 0.439627 0.800410
O O2 0.779490 0.465906 0.866860
O O3 0.416073 0.656416 0.882924
O O4 0.676276 0.800435 0.811299
O O5 0.707096 0.847369 0.257505
O O6 0.950533 0.907263 0.340547
O O7 0.000000 0.121060 0.250000
O O8 0.800017 0.134440 0.934412
O O9 0.476959 0.364986 0.954039
O O10 0.763842 0.308407 0.027063
O O11 0.500000 0.000000 0.000000
O O12 0.875200 0.633612 0.091968
#
# Coordination Sequence:
#
# PCOD8120086 Si02
#       6
#     4   2   4   4   4   4
#     4  10  22  38  58  85 117 153 195 243 295 352
#     4  10  22  40  58  82 118 152 192 244 296 350
#     4  11  23  38  60  87 115 155 201 243 297 358
#     4  10  21  37  59  86 116 153 197 242 293 354
#     4  10  22  38  58  87 119 153 197 244 295 354
#     4  10  21  38  58  83 118 154 192 243 297 350
#
# _framework density 21.668557
#
# number of rings (size 3 to 8) (size 9 to 14) (size 15 to 20)
#    0.000    1.818    0.000    3.273    0.000    8.000 
#    0.000    0.000    0.000    0.000    0.000    0.000 
#    0.000    0.000    0.000    0.000    0.000    0.000 
#
# Total GULP energy -272765.543311 kJ/mol
# GULP energy per Si atom -12398.433787 kJ/mol
# Density = 2.161924 g / cm^3
# Si number density = 21.668557 Si / 1000 Ang^3
#
#
#
# Elastic Constant Matrix: (Units=GPa)
#
#
# Indices 1 2 3 4 5 6 
#
# 1 85.4691 32.8675 68.2694 0.0000 -10.4937 0.0000
# 2 32.8675 91.0920 55.6428 0.0000 -8.7785 0.0000
# 3 68.2694 55.6428 154.3788 0.0000 -20.6080 0.0000
# 4 0.0000 0.0000 0.0000 23.1168 0.0000 -13.5655
# 5 -10.4937 -8.7785 -20.6080 0.0000 39.7383 0.0000
# 6 0.0000 0.0000 0.0000 -13.5655 0.0000 23.3457
#
#
#
# Elastic Compliance Matrix: (Units=1/GPa)
#
#
# Indices 1 2 3 4 5 6 
#
# 1 0.018424 -0.002131 -0.007298 0.000000 0.000610 0.000000
# 2 -0.002131 0.014333 -0.004165 0.000000 0.000444 0.000000
# 3 -0.007298 -0.004165 0.011631 0.000000 0.003185 0.000000
# 4 0.000000 0.000000 0.000000 0.065641 0.000000 0.038142
# 5 0.000610 0.000444 0.003185 0.000000 0.027075 0.000000
# 6 0.000000 0.000000 0.000000 0.038142 0.000000 0.064998
#
#
# Mechanical properties :
#
#
# Convention : Reuss Voigt Hill
#
# Bulk Modulus (GPa) = 58.13509 71.61104 64.87307
# Shear Modulus (GPa) = 21.27447 28.85084 25.06266
#
# Velocity S-wave (km/s) = 3.13679 3.65288 3.40463
# Velocity P-wave (km/s) = 6.32509 7.13523 6.74234
#
# Compressibility (1/GPa) = 0.01720132
#
# Stress axis : x y z
#
# Youngs Moduli (GPa) = 54.27783 69.76665 85.97716
#
# Poissons Ratio (x) = 0.14867 0.62745
# Poissons Ratio (y) = 0.11566 0.35806
# Poissons Ratio (z) = 0.39611 0.29055
#
# Static dielectric constant tensor:
#      x y z
#    x 3.816550 0.000000 -0.050250 
#    y 0.000000 3.755850 0.000000 
#    z -0.050250 0.000000 4.604760 
# 
# 
# High freq. dielectric constant tensor:
#      x y z
#    x 1.840780 0.000000 0.001630 
#    y 0.000000 1.839320 0.000000 
#    z 0.001630 0.000000 1.880470 
# 
# From -- ./inp_files/94613.got.cif
#   From: 2010.06.25/outbox.cif.g09.slc.cpg/sg13_48_cif.got.tgz:94613.got - 2010.06.28 04:50:58.
