data_PCOD8120178
_publ_section_title
;
Structure prediction by ZEFSAII (Michael W. Deem and Ramdas Pophale) SiO2 
 PCOD8120178
Probable space group: P 2/C
;
_chemical_formula_sum "Si O2"
_cell_formula_units_Z 16
_cell_length_a 7.361222
_cell_length_b 16.714194
_cell_length_c 5.458338
_cell_angle_alpha 90.000000
_cell_angle_beta 56.728732
_cell_angle_gamma 90.000000
_cell_volume 561.493782
_symmetry_space_group_name_H-M "P 2/C"
_symmetry_group_IT_number 13
_symmetry_cell_setting 'monoclinic'
loop_
_space_group_symop_operation_xyz
x,y,z
-x,y,1/2-z
-x,-y,-z
x,-y,1/2+z
loop_
_atom_site_type_symbol
_atom_site_label
_atom_site_fract_x
_atom_site_fract_y
_atom_site_fract_z
Si Si1 0.748089 0.281672 0.575590
Si Si2 0.242993 0.970917 0.034891
Si Si3 0.243048 0.468691 0.832126
Si Si4 0.747835 0.213397 0.070674
O O1 0.500000 0.250783 0.750000
O O2 0.757309 0.375316 0.616048
O O3 0.856827 0.256284 0.231980
O O4 0.861456 0.238223 0.726944
O O5 0.000000 0.004245 0.250000
O O6 0.356085 0.980495 0.222362
O O7 0.245025 0.881880 0.924973
O O8 0.358830 0.490808 0.485601
O O9 0.000000 0.500000 0.000000
O O10 0.500000 0.245063 0.250000
#
# Coordination Sequence:
#
# PCOD8120178 Si02
#       4
#     4   4   4   4
#     4  10  21  38  59  83 117 153 192 240 292 344
#     4  10  21  38  58  84 120 154 193 236 285 339
#     4  10  21  38  56  81 115 147 187 245 281 347
#     4  10  21  38  59  88 117 151 197 239 285 345
#
# _framework density 28.495417
#
# number of rings (size 3 to 8) (size 9 to 14) (size 15 to 20)
#    0.000    2.000    0.000    3.000    0.000    2.000 
#   13.500    0.000    0.000    0.000    0.000    0.000 
#    0.000    0.000    0.000    0.000    0.000    0.000 
#
# Total GULP energy -198368.489953 kJ/mol
# GULP energy per Si atom -12398.030622 kJ/mol
# Density = 2.843056 g / cm^3
# Si number density = 28.495417 Si / 1000 Ang^3
#
#
#
# Elastic Constant Matrix: (Units=GPa)
#
#
# Indices 1 2 3 4 5 6 
#
# 1 122.0456 4.8860 79.7575 0.0000 57.1575 0.0000
# 2 4.8860 191.7780 84.4834 0.0000 64.2811 0.0000
# 3 79.7575 84.4834 322.0489 0.0000 55.9934 0.0000
# 4 0.0000 0.0000 0.0000 21.1881 0.0000 -28.1453
# 5 57.1575 64.2811 55.9934 0.0000 70.5665 0.0000
# 6 0.0000 0.0000 0.0000 -28.1453 0.0000 -6.8342
#
#
#
# Elastic Compliance Matrix: (Units=1/GPa)
#
#
# Indices 1 2 3 4 5 6 
#
# 1 0.019573 0.007777 -0.003363 0.000000 -0.020269 0.000000
# 2 0.007777 0.010831 -0.002270 0.000000 -0.014364 0.000000
# 3 -0.003363 -0.002270 0.004293 0.000000 0.001386 0.000000
# 4 0.000000 0.000000 0.000000 0.007294 0.000000 -0.030039
# 5 -0.020269 -0.014364 0.001386 0.000000 0.042574 0.000000
# 6 0.000000 0.000000 0.000000 -0.030039 0.000000 -0.022614
#
#
# Mechanical properties :
#
#
# Convention : Reuss Voigt Hill
#
# Bulk Modulus (GPa) = 25.65182 108.23625 66.94404
# Shear Modulus (GPa) = 70.76416 48.10046 59.43231
#
# Velocity S-wave (km/s) = 4.98873 4.11299 4.57188
# Velocity P-wave (km/s) = 6.49653 7.78600 7.17031
#
# Compressibility (1/GPa) = 0.03898358
#
# Stress axis : x y z
#
# Youngs Moduli (GPa) = 51.09116 92.32951 232.96046
#
# Poissons Ratio (x) = -0.71803 0.78353
# Poissons Ratio (y) = -0.39733 0.52877
# Poissons Ratio (z) = 0.17184 0.20957
#
# Static dielectric constant tensor:
#      x y z
#    x 6.405890 0.000000 0.734690 
#    y 0.000000 4.501010 0.000000 
#    z 0.734690 0.000000 7.275430 
# 
# 
# High freq. dielectric constant tensor:
#      x y z
#    x 2.228280 0.000000 -0.006060 
#    y 0.000000 2.111030 0.000000 
#    z -0.006060 0.000000 2.221740 
# 
# From -- ./inp_files/1085.got.cif
#   From: 2010.06.25/outbox.cif.g09.slc.cpg/sg13_1_cif.got.tgz:1085.got - 2010.06.28 04:50:58.
