data_PCOD8120370
_publ_section_title
;
Structure prediction by ZEFSAII (Michael W. Deem and Ramdas Pophale) SiO2 
 PCOD8120370
Probable space group: P 2/C
;
_chemical_formula_sum "Si O2"
_cell_formula_units_Z 26
_cell_length_a 19.678836
_cell_length_b 13.813739
_cell_length_c 14.705315
_cell_angle_alpha 90.000000
_cell_angle_beta 161.018980
_cell_angle_gamma 90.000000
_cell_volume 1300.196103
_symmetry_space_group_name_H-M "P 2/C"
_symmetry_group_IT_number 13
_symmetry_cell_setting 'monoclinic'
loop_
_space_group_symop_operation_xyz
x,y,z
-x,y,1/2-z
-x,-y,-z
x,-y,1/2+z
loop_
_atom_site_type_symbol
_atom_site_label
_atom_site_fract_x
_atom_site_fract_y
_atom_site_fract_z
Si Si1 0.968278 0.612659 0.949169
Si Si2 0.562893 0.723054 0.431911
Si Si3 0.500000 0.177863 0.250000
Si Si4 0.671756 0.096177 0.641102
Si Si5 0.252713 0.887219 0.719303
Si Si6 0.086404 0.739456 0.267249
Si Si7 0.842775 0.269231 0.970257
O O1 0.721337 0.633326 0.636071
O O2 0.000000 0.500000 0.000000
O O3 0.073018 0.667003 0.166128
O O4 0.070436 0.645206 0.983062
O O5 0.500000 0.743915 0.250000
O O6 0.672803 0.821614 0.602708
O O7 0.372614 0.695487 0.257217
O O8 0.649480 0.116851 0.505853
O O9 0.667040 0.241250 0.404530
O O10 0.435960 0.098248 0.378511
O O11 0.814922 0.175042 0.872283
O O12 0.795258 0.994999 0.805631
O O13 0.047874 0.838483 0.416277
O O14 0.000000 0.688962 0.250000
O O15 0.000000 0.242074 0.250000
#
# Coordination Sequence:
#
# PCOD8120370 Si02
#       7
#     4   4   2   4   4   4   4
#     4  11  25  45  65  94 121 158 216 264 323 383
#     4  10  21  41  65  90 126 165 205 257 312 365
#     4  12  22  38  64  90 128 166 214 248 314 368
#     4  10  21  39  61  97 126 171 211 250 301 376
#     4   9  21  39  60  90 131 164 212 248 299 365
#     4  11  23  43  63  88 129 167 203 265 319 368
#     4  11  22  42  67  91 133 167 205 261 313 369
#
# _framework density 19.996984000000001
#
# number of rings (size 3 to 8) (size 9 to 14) (size 15 to 20)
#    0.000    1.538    4.615    0.000    1.077    2.462 
#    4.154    0.000    0.000    0.000    0.000    0.000 
#    0.000    0.000    0.000    0.000    0.000    0.000 
#
# Total GULP energy -322387.311198 kJ/mol
# GULP energy per Si atom -12399.511969 kJ/mol
# Density = 1.995147 g / cm^3
# Si number density = 19.996984 Si / 1000 Ang^3
#
#
#
# Elastic Constant Matrix: (Units=GPa)
#
#
# Indices 1 2 3 4 5 6 
#
# 1 114.3111 46.4358 45.2416 0.0000 -6.2356 0.0000
# 2 46.4358 127.8256 45.3612 0.0000 2.0434 0.0000
# 3 45.2416 45.3612 100.2094 0.0000 0.7146 0.0000
# 4 0.0000 0.0000 0.0000 16.8037 0.0000 2.1719
# 5 -6.2356 2.0434 0.7146 0.0000 45.8659 0.0000
# 6 0.0000 0.0000 0.0000 2.1719 0.0000 19.7727
#
#
#
# Elastic Compliance Matrix: (Units=1/GPa)
#
#
# Indices 1 2 3 4 5 6 
#
# 1 0.011555 -0.002824 -0.003951 0.000000 0.001758 0.000000
# 2 -0.002824 0.010016 -0.003254 0.000000 -0.000779 0.000000
# 3 -0.003951 -0.003254 0.013240 0.000000 -0.000598 0.000000
# 4 0.000000 0.000000 0.000000 0.060368 0.000000 -0.006631
# 5 0.001758 -0.000779 -0.000598 0.000000 0.022086 0.000000
# 6 0.000000 0.000000 0.000000 -0.006631 0.000000 0.051303
#
#
# Mechanical properties :
#
#
# Convention : Reuss Voigt Hill
#
# Bulk Modulus (GPa) = 67.77689 68.49149 68.13419
# Shear Modulus (GPa) = 25.83423 30.17562 28.00492
#
# Velocity S-wave (km/s) = 3.59821 3.88881 3.74633
# Velocity P-wave (km/s) = 7.15751 7.38167 7.27045
#
# Compressibility (1/GPa) = 0.01475429
#
# Stress axis : x y z
#
# Youngs Moduli (GPa) = 86.54512 99.84113 75.52932
#
# Poissons Ratio (x) = 0.28191 0.29842
# Poissons Ratio (y) = 0.24436 0.24574
# Poissons Ratio (z) = 0.34194 0.32484
#
# Static dielectric constant tensor:
#      x y z
#    x 3.895580 0.000000 0.078880 
#    y 0.000000 3.398070 0.000000 
#    z 0.078880 0.000000 3.748070 
# 
# 
# High freq. dielectric constant tensor:
#      x y z
#    x 1.801910 0.000000 0.002820 
#    y 0.000000 1.748840 0.000000 
#    z 0.002820 0.000000 1.790300 
# 
# From -- ./inp_files/57741.got.cif
#   From: 2010.06.25/outbox.cif.g09.slc.cpg/sg13_29_cif.got.tgz:57741.got - 2010.06.28 04:50:58.
