data_PCOD8120791
_publ_section_title
;
Structure prediction by ZEFSAII (Michael W. Deem and Ramdas Pophale) SiO2 
 PCOD8120791
Probable space group: P 2/C
;
_chemical_formula_sum "Si O2"
_cell_formula_units_Z 20
_cell_length_a 19.789652
_cell_length_b 6.434925
_cell_length_c 15.293098
_cell_angle_alpha 90.000000
_cell_angle_beta 28.864395
_cell_angle_gamma 90.000000
_cell_volume 940.131998
_symmetry_space_group_name_H-M "P 2/C"
_symmetry_group_IT_number 13
_symmetry_cell_setting 'monoclinic'
loop_
_space_group_symop_operation_xyz
x,y,z
-x,y,1/2-z
-x,-y,-z
x,-y,1/2+z
loop_
_atom_site_type_symbol
_atom_site_label
_atom_site_fract_x
_atom_site_fract_y
_atom_site_fract_z
Si Si1 0.104366 0.826120 0.465438
Si Si2 0.691802 0.496062 0.705646
Si Si3 0.195823 0.957752 0.692087
Si Si4 0.156738 0.840091 0.055774
Si Si5 0.452927 0.199787 0.997065
O O1 0.163963 0.603753 0.424273
O O2 0.936209 0.799939 0.657806
O O3 0.160977 0.867923 0.303801
O O4 0.156442 0.010547 0.471017
O O5 0.737497 0.646268 0.575055
O O6 0.621377 0.632885 0.858997
O O7 0.586709 0.308311 0.798570
O O8 0.344083 0.854099 0.544515
O O9 0.216206 0.044731 0.572479
O O10 0.000000 0.758204 0.250000
O O11 0.500000 0.000000 0.000000
#
# Coordination Sequence:
#
# PCOD8120791 Si02
#       5
#     4   4   4   4   4
#     4  10  21  43  66  97 130 168 225 281 329 390
#     4  11  22  41  70  93 132 174 224 276 330 404
#     4  10  21  42  70  92 134 178 212 276 344 384
#     4  10  22  42  64  99 135 168 221 288 327 392
#     4  11  22  43  67  93 135 177 217 278 334 397
#
# _framework density 21.273609
#
# number of rings (size 3 to 8) (size 9 to 14) (size 15 to 20)
#    0.000    1.600    4.000    0.000    0.000    3.200 
#    3.600    6.000    0.000    0.000    0.000    0.000 
#    0.000    0.000    0.000    0.000    0.000    0.000 
#
# Total GULP energy -247926.950991 kJ/mol
# GULP energy per Si atom -12396.347550 kJ/mol
# Density = 2.122519 g / cm^3
# Si number density = 21.273609 Si / 1000 Ang^3
#
#
#
# Elastic Constant Matrix: (Units=GPa)
#
#
# Indices 1 2 3 4 5 6 
#
# 1 129.7826 33.9454 41.5925 0.0000 -25.6891 0.0000
# 2 33.9454 80.7691 33.6077 0.0000 -25.7462 0.0000
# 3 41.5925 33.6077 75.2252 0.0000 -22.6813 0.0000
# 4 0.0000 0.0000 0.0000 43.1402 0.0000 -9.9760
# 5 -25.6891 -25.7462 -22.6813 0.0000 37.8697 0.0000
# 6 0.0000 0.0000 0.0000 -9.9760 0.0000 25.8916
#
#
#
# Elastic Compliance Matrix: (Units=1/GPa)
#
#
# Indices 1 2 3 4 5 6 
#
# 1 0.010011 -0.001513 -0.003810 0.000000 0.003481 0.000000
# 2 -0.001513 0.017500 -0.004520 0.000000 0.008164 0.000000
# 3 -0.003810 -0.004520 0.019177 0.000000 0.005828 0.000000
# 4 0.000000 0.000000 0.000000 0.025448 0.000000 0.009805
# 5 0.003481 0.008164 0.005828 0.000000 0.037808 0.000000
# 6 0.000000 0.000000 0.000000 0.009805 0.000000 0.042400
#
#
# Mechanical properties :
#
#
# Convention : Reuss Voigt Hill
#
# Bulk Modulus (GPa) = 37.03457 56.00758 46.52107
# Shear Modulus (GPa) = 27.61973 33.15570 30.38772
#
# Velocity S-wave (km/s) = 3.60712 3.95211 3.78355
# Velocity P-wave (km/s) = 5.89872 6.87095 6.40331
#
# Compressibility (1/GPa) = 0.02700180
#
# Stress axis : x y z
#
# Youngs Moduli (GPa) = 99.89283 57.14270 52.14697
#
# Poissons Ratio (x) = 0.08643 0.19867
# Poissons Ratio (y) = 0.15109 0.23573
# Poissons Ratio (z) = 0.38057 0.25831
#
# Static dielectric constant tensor:
#      x y z
#    x 3.929850 0.000000 -0.298630 
#    y 0.000000 3.821150 0.000000 
#    z -0.298630 0.000000 4.166910 
# 
# 
# High freq. dielectric constant tensor:
#      x y z
#    x 1.827400 0.000000 -0.013840 
#    y 0.000000 1.824200 0.000000 
#    z -0.013840 0.000000 1.848160 
# 
# From -- ./inp_files/56399.got.cif
#   From: 2010.06.25/outbox.cif.g09.slc.cpg/sg13_29_cif.got.tgz:56399.got - 2010.06.28 04:50:58.
