data_PCOD8120470
_publ_section_title
;
Structure prediction by ZEFSAII (Michael W. Deem and Ramdas Pophale) SiO2 
 PCOD8120470
Probable space group: P 2/C
;
_chemical_formula_sum "Si O2"
_cell_formula_units_Z 20
_cell_length_a 9.662815
_cell_length_b 14.137850
_cell_length_c 9.510506
_cell_angle_alpha 90.000000
_cell_angle_beta 136.190395
_cell_angle_gamma 90.000000
_cell_volume 899.419928
_symmetry_space_group_name_H-M "P 2/C"
_symmetry_group_IT_number 13
_symmetry_cell_setting 'monoclinic'
loop_
_space_group_symop_operation_xyz
x,y,z
-x,y,1/2-z
-x,-y,-z
x,-y,1/2+z
loop_
_atom_site_type_symbol
_atom_site_label
_atom_site_fract_x
_atom_site_fract_y
_atom_site_fract_z
Si Si1 0.793788 0.602020 0.042055
Si Si2 0.685543 0.238321 0.282168
Si Si3 0.500000 0.446603 0.750000
Si Si4 0.377484 0.282362 0.849734
Si Si5 0.000000 0.996854 0.250000
Si Si6 0.908377 0.875379 0.432628
O O1 0.743171 0.693062 0.099211
O O2 0.000000 0.560306 0.250000
O O3 0.779441 0.655716 0.880884
O O4 0.648094 0.513319 0.945933
O O5 0.500000 0.210242 0.250000
O O6 0.862361 0.161397 0.410788
O O7 0.596244 0.244686 0.057372
O O8 0.379884 0.380128 0.766970
O O9 0.256116 0.206027 0.670780
O O10 0.124598 0.061307 0.451779
O O11 0.137385 0.932179 0.246823
#
# Coordination Sequence:
#
# PCOD8120470 Si02
#       6
#     4   4   2   4   2   4
#     4  11  21  39  63  92 128 181 219 260 320 377
#     4  10  21  39  69  93 127 176 216 259 331 393
#     4  12  26  38  58  98 136 168 234 266 294 386
#     4  11  24  41  64  92 134 175 214 271 323 381
#     4  10  24  44  74 100 126 166 220 282 324 422
#     4  11  23  46  70  97 134 170 215 272 348 383
#
# _framework density 22.236554999999999
#
# number of rings (size 3 to 8) (size 9 to 14) (size 15 to 20)
#    0.000    1.200    5.000    3.000    2.800    2.400 
#    0.000   11.000    0.000    0.000    0.000    0.000 
#    0.000    0.000    0.000    0.000    0.000    0.000 
#
# Total GULP energy -247775.526871 kJ/mol
# GULP energy per Si atom -12388.776344 kJ/mol
# Density = 2.218594 g / cm^3
# Si number density = 22.236555 Si / 1000 Ang^3
#
#
#
# Elastic Constant Matrix: (Units=GPa)
#
#
# Indices 1 2 3 4 5 6 
#
# 1 49.9806 34.0334 48.5849 0.0000 -6.0360 0.0000
# 2 34.0334 133.8930 61.4925 0.0000 4.2701 0.0000
# 3 48.5849 61.4925 136.8113 0.0000 14.9994 0.0000
# 4 0.0000 0.0000 0.0000 10.3727 0.0000 -3.1228
# 5 -6.0360 4.2701 14.9994 0.0000 37.4939 0.0000
# 6 0.0000 0.0000 0.0000 -3.1228 0.0000 -12.9704
#
#
#
# Elastic Compliance Matrix: (Units=1/GPa)
#
#
# Indices 1 2 3 4 5 6 
#
# 1 0.035845 -0.003856 -0.012213 0.000000 0.011095 0.000000
# 2 -0.003856 0.009841 -0.002994 0.000000 -0.000544 0.000000
# 3 -0.012213 -0.002994 0.013775 0.000000 -0.007136 0.000000
# 4 0.000000 0.000000 0.000000 0.089891 0.000000 -0.021642
# 5 0.011095 -0.000544 -0.007136 0.000000 0.031374 0.000000
# 6 0.000000 0.000000 0.000000 -0.021642 0.000000 -0.071888
#
#
# Mechanical properties :
#
#
# Convention : Reuss Voigt Hill
#
# Bulk Modulus (GPa) = 46.87223 67.65629 57.26426
# Shear Modulus (GPa) = 32.45151 18.75085 25.60118
#
# Velocity S-wave (km/s) = 3.82432 2.90702 3.39678
# Velocity P-wave (km/s) = 6.37380 6.46215 6.41813
#
# Compressibility (1/GPa) = 0.02133459
#
# Stress axis : x y z
#
# Youngs Moduli (GPa) = 27.89771 101.61168 72.59775
#
# Poissons Ratio (x) = 0.39184 0.88661
# Poissons Ratio (y) = 0.10758 0.21738
# Poissons Ratio (z) = 0.34071 0.30426
#
# Static dielectric constant tensor:
#      x y z
#    x 3.711170 0.000000 -0.299810 
#    y 0.000000 3.992510 0.000000 
#    z -0.299810 0.000000 4.686500 
# 
# 
# High freq. dielectric constant tensor:
#      x y z
#    x 1.840630 0.000000 -0.015400 
#    y 0.000000 1.881160 0.000000 
#    z -0.015400 0.000000 1.887730 
# 
# From -- ./inp_files/34058.got.cif
#   From: 2010.06.25/outbox.cif.g09.slc.cpg/sg13_18_cif.got.tgz:34058.got - 2010.06.28 04:50:58.
