data_PCOD8120110
_publ_section_title
;
Structure prediction by ZEFSAII (Michael W. Deem and Ramdas Pophale) SiO2 
 PCOD8120110
Probable space group: P 2/C
;
_chemical_formula_sum "Si O2"
_cell_formula_units_Z 20
_cell_length_a 23.918210
_cell_length_b 7.126389
_cell_length_c 5.233152
_cell_angle_alpha 90.000000
_cell_angle_beta 90.170197
_cell_angle_gamma 90.000000
_cell_volume 891.989275
_symmetry_space_group_name_H-M "P 2/C"
_symmetry_group_IT_number 13
_symmetry_cell_setting 'monoclinic'
loop_
_space_group_symop_operation_xyz
x,y,z
-x,y,1/2-z
-x,-y,-z
x,-y,1/2+z
loop_
_atom_site_type_symbol
_atom_site_label
_atom_site_fract_x
_atom_site_fract_y
_atom_site_fract_z
Si Si1 0.664591 0.381140 0.266332
Si Si2 0.563580 0.118279 0.267835
Si Si3 0.061993 0.379160 0.725122
Si Si4 0.825653 0.208066 0.691174
Si Si5 0.777920 0.789766 0.690477
O O1 0.672266 0.461940 0.550240
O O2 0.603236 0.295783 0.232074
O O3 0.711140 0.218225 0.229430
O O4 0.500000 0.191364 0.250000
O O5 0.575802 0.030230 0.544483
O O6 0.070166 0.462668 0.442083
O O7 0.107435 0.213903 0.766477
O O8 0.000000 0.290064 0.750000
O O9 0.809308 0.313096 0.426812
O O10 0.801421 0.999534 0.651479
O O11 0.794609 0.313470 0.925700
#
# Coordination Sequence:
#
# PCOD8120110 Si02
#       5
#     4   4   4   4   4
#     4  12  26  41  64  98 130 168 213 271 325 370
#     4  10  23  43  70  97 128 175 217 258 316 383
#     4  10  21  37  60  89 121 157 201 258 316 371
#     4  10  21  39  60  85 117 171 201 255 311 373
#     4  10  23  38  58  87 122 161 208 254 310 373
#
# _framework density 22.421792
#
# number of rings (size 3 to 8) (size 9 to 14) (size 15 to 20)
#    0.000    1.600    0.000    3.600    5.600    5.600 
#    0.000    4.000    0.000    0.000    0.000    0.000 
#    0.000    0.000    0.000    0.000    0.000    0.000 
#
# Total GULP energy -247913.976818 kJ/mol
# GULP energy per Si atom -12395.698841 kJ/mol
# Density = 2.237076 g / cm^3
# Si number density = 22.421792 Si / 1000 Ang^3
#
#
#
# Elastic Constant Matrix: (Units=GPa)
#
#
# Indices 1 2 3 4 5 6 
#
# 1 140.2764 37.3882 18.0896 0.0000 -5.9563 0.0000
# 2 37.3882 48.1945 -11.9390 0.0000 -7.5165 0.0000
# 3 18.0896 -11.9390 156.9698 0.0000 4.2142 0.0000
# 4 0.0000 0.0000 0.0000 6.2532 0.0000 0.0550
# 5 -5.9563 -7.5165 4.2142 0.0000 34.8682 0.0000
# 6 0.0000 0.0000 0.0000 0.0550 0.0000 45.4302
#
#
#
# Elastic Compliance Matrix: (Units=1/GPa)
#
#
# Indices 1 2 3 4 5 6 
#
# 1 0.009398 -0.007681 -0.001671 0.000000 0.000152 0.000000
# 2 -0.007681 0.028114 0.002905 0.000000 0.004397 0.000000
# 3 -0.001671 0.002905 0.006797 0.000000 -0.000481 0.000000
# 4 0.000000 0.000000 0.000000 0.159919 0.000000 -0.000194
# 5 0.000152 0.004397 -0.000481 0.000000 0.029711 0.000000
# 6 0.000000 0.000000 0.000000 -0.000194 0.000000 0.022012
#
#
# Mechanical properties :
#
#
# Convention : Reuss Voigt Hill
#
# Bulk Modulus (GPa) = 31.83224 48.05758 39.94491
# Shear Modulus (GPa) = 17.90083 37.43713 27.66898
#
# Velocity S-wave (km/s) = 2.82861 4.09060 3.51668
# Velocity P-wave (km/s) = 4.98957 6.61745 5.86031
#
# Compressibility (1/GPa) = 0.03141470
#
# Stress axis : x y z
#
# Youngs Moduli (GPa) = 106.40539 35.56996 147.12038
#
# Poissons Ratio (x) = 0.27322 0.24589
# Poissons Ratio (y) = 0.81732 -0.42745
# Poissons Ratio (z) = 0.17784 -0.10335
#
# Static dielectric constant tensor:
#      x y z
#    x 4.267450 0.000000 0.089650 
#    y 0.000000 3.531490 0.000000 
#    z 0.089650 0.000000 5.411420 
# 
# 
# High freq. dielectric constant tensor:
#      x y z
#    x 1.895620 0.000000 0.001800 
#    y 0.000000 1.839310 0.000000 
#    z 0.001800 0.000000 1.926120 
# 
# From -- ./inp_files/6672.got.cif
#   From: 2010.06.25/outbox.cif.g09.slc.cpg/sg13_4_cif.got.tgz:6672.got - 2010.06.28 04:50:58.
