data_PCOD8120930
_publ_section_title
;
Structure prediction by ZEFSAII (Michael W. Deem and Ramdas Pophale) SiO2 
 PCOD8120930
Probable space group: P 2/C
;
_chemical_formula_sum "Si O2"
_cell_formula_units_Z 22
_cell_length_a 9.189147
_cell_length_b 8.529796
_cell_length_c 17.344349
_cell_angle_alpha 90.000000
_cell_angle_beta 53.588144
_cell_angle_gamma 90.000000
_cell_volume 1094.067603
_symmetry_space_group_name_H-M "P 2/C"
_symmetry_group_IT_number 13
_symmetry_cell_setting 'monoclinic'
loop_
_space_group_symop_operation_xyz
x,y,z
-x,y,1/2-z
-x,-y,-z
x,-y,1/2+z
loop_
_atom_site_type_symbol
_atom_site_label
_atom_site_fract_x
_atom_site_fract_y
_atom_site_fract_z
Si Si1 0.184551 0.565492 0.974891
Si Si2 0.173240 0.047523 0.051285
Si Si3 0.450412 0.279909 0.915670
Si Si4 0.500000 0.923929 0.250000
Si Si5 0.836851 0.262379 0.859885
Si Si6 0.804461 0.135137 0.115197
O O1 0.340351 0.438436 0.936332
O O2 0.260851 0.691602 0.888959
O O3 0.127252 0.644687 0.073163
O O4 0.000000 0.500000 0.000000
O O5 0.174878 0.924352 0.120899
O O6 0.179740 0.961350 0.968094
O O7 0.988399 0.147822 0.106937
O O8 0.340294 0.167980 0.009689
O O9 0.471867 0.188778 0.829967
O O10 0.646503 0.323228 0.886443
O O11 0.667023 0.040980 0.213214
O O12 0.000000 0.298658 0.750000
#
# Coordination Sequence:
#
# PCOD8120930 Si02
#       6
#     4   4   4   2   4   4
#     4  11  23  41  65  89 127 175 206 259 330 392
#     4   9  18  36  62  84 120 164 205 251 308 378
#     4  11  22  39  64  94 129 164 217 257 328 378
#     4  10  22  36  64  96 120 164 218 270 306 374
#     4  11  24  40  62  92 128 164 215 268 317 374
#     4   9  18  36  59  90 121 158 211 252 309 375
#
# _framework density 20.108447000000002
#
# number of rings (size 3 to 8) (size 9 to 14) (size 15 to 20)
#    0.000    1.818    1.818    2.182    5.091    0.727 
#    0.000    0.909    0.000    0.000    0.000    0.000 
#    0.000    0.000    0.000    0.000    0.000    0.000 
#
# Total GULP energy -272733.745701 kJ/mol
# GULP energy per Si atom -12396.988441 kJ/mol
# Density = 2.006268 g / cm^3
# Si number density = 20.108447 Si / 1000 Ang^3
#
#
#
# Elastic Constant Matrix: (Units=GPa)
#
#
# Indices 1 2 3 4 5 6 
#
# 1 117.3856 47.6840 33.3287 0.0000 -26.2850 0.0000
# 2 47.6840 132.6347 53.9129 0.0000 -5.8133 0.0000
# 3 33.3287 53.9129 93.7563 0.0000 -15.0025 0.0000
# 4 0.0000 0.0000 0.0000 21.1136 0.0000 -2.4199
# 5 -26.2850 -5.8133 -15.0025 0.0000 29.9707 0.0000
# 6 0.0000 0.0000 0.0000 -2.4199 0.0000 39.5850
#
#
#
# Elastic Compliance Matrix: (Units=1/GPa)
#
#
# Indices 1 2 3 4 5 6 
#
# 1 0.012447 -0.003765 -0.000684 0.000000 0.009843 0.000000
# 2 -0.003765 0.011006 -0.005628 0.000000 -0.003985 0.000000
# 3 -0.000684 -0.005628 0.015083 0.000000 0.005858 0.000000
# 4 0.000000 0.000000 0.000000 0.047697 0.000000 0.002916
# 5 0.009843 -0.003985 0.005858 0.000000 0.044158 0.000000
# 6 0.000000 0.000000 0.000000 0.002916 0.000000 0.025440
#
#
# Mechanical properties :
#
#
# Convention : Reuss Voigt Hill
#
# Bulk Modulus (GPa) = 54.40513 68.18087 61.29300
# Shear Modulus (GPa) = 27.45535 32.05726 29.75630
#
# Velocity S-wave (km/s) = 3.69909 3.99710 3.85098
# Velocity P-wave (km/s) = 6.73491 7.43523 7.09371
#
# Compressibility (1/GPa) = 0.01838062
#
# Stress axis : x y z
#
# Youngs Moduli (GPa) = 80.34164 90.85819 66.29999
#
# Poissons Ratio (x) = 0.34210 0.04538
# Poissons Ratio (y) = 0.30250 0.37314
# Poissons Ratio (z) = 0.05499 0.51135
#
# Static dielectric constant tensor:
#      x y z
#    x 3.577740 0.000000 -0.285130 
#    y 0.000000 3.894270 0.000000 
#    z -0.285130 0.000000 3.639080 
# 
# 
# High freq. dielectric constant tensor:
#      x y z
#    x 1.787080 0.000000 -0.015200 
#    y 0.000000 1.789970 0.000000 
#    z -0.015200 0.000000 1.772120 
# 
# From -- ./inp_files/45991.got.cif
#   From: 2010.06.25/outbox.cif.g09.slc.cpg/sg13_23_cif.got.tgz:45991.got - 2010.06.28 04:50:58.
