data_PCOD8120310
_publ_section_title
;
Structure prediction by ZEFSAII (Michael W. Deem and Ramdas Pophale) SiO2 
 PCOD8120310
Probable space group: P 2/C
;
_chemical_formula_sum "Si O2"
_cell_formula_units_Z 30
_cell_length_a 11.554857
_cell_length_b 11.358108
_cell_length_c 12.047067
_cell_angle_alpha 90.000000
_cell_angle_beta 67.217755
_cell_angle_gamma 90.000000
_cell_volume 1457.722639
_symmetry_space_group_name_H-M "P 2/C"
_symmetry_group_IT_number 13
_symmetry_cell_setting 'monoclinic'
loop_
_space_group_symop_operation_xyz
x,y,z
-x,y,1/2-z
-x,-y,-z
x,-y,1/2+z
loop_
_atom_site_type_symbol
_atom_site_label
_atom_site_fract_x
_atom_site_fract_y
_atom_site_fract_z
Si Si1 0.500000 0.783721 0.750000
Si Si2 0.773687 0.860458 0.217972
Si Si3 0.856615 0.339713 0.840836
Si Si4 0.061138 0.936646 0.874262
Si Si5 0.608269 0.960791 0.881421
Si Si6 0.191750 0.175023 0.054624
Si Si7 0.851965 0.399238 0.297644
Si Si8 0.772480 0.276546 0.114065
O O1 0.557158 0.855069 0.828909
O O2 0.379225 0.712796 0.842738
O O3 0.776237 0.744569 0.291598
O O4 0.882082 0.953709 0.216201
O O5 0.643756 0.928264 0.290179
O O6 0.784157 0.824378 0.085480
O O7 0.803024 0.471491 0.848928
O O8 0.000000 0.331775 0.750000
O O9 0.842844 0.299619 0.972663
O O10 0.179472 0.851679 0.860521
O O11 0.950354 0.862586 0.857008
O O12 0.000000 0.000000 0.000000
O O13 0.721427 0.918454 0.917014
O O14 0.500000 0.000000 0.000000
O O15 0.212757 0.306068 0.094654
O O16 0.813400 0.376315 0.185196
O O17 0.000000 0.393628 0.250000
#
# Coordination Sequence:
#
# PCOD8120310 Si02
#       8
#     2   4   4   4   4   4   4   4
#     4  12  24  44  66 100 130 192 222 278 346 406
#     4  11  24  40  65 101 139 173 216 277 343 411
#     4  11  27  41  69 103 142 177 224 291 345 409
#     4  10  21  38  66 100 134 164 214 275 345 412
#     4  12  25  40  67  98 140 179 223 278 345 418
#     4  11  23  42  68  99 133 176 226 279 340 413
#     4  11  24  44  70  99 132 184 230 284 342 402
#     4  12  24  47  69  98 140 182 229 279 349 414
#
# _framework density 20.580047
#
# number of rings (size 3 to 8) (size 9 to 14) (size 15 to 20)
#    0.000    0.800    4.000    3.200    9.333    1.067 
#    0.000    0.667    0.000    0.000    0.000    0.000 
#    0.000    0.000    0.000    0.000    0.000    0.000 
#
# Total GULP energy -371923.897698 kJ/mol
# GULP energy per Si atom -12397.463257 kJ/mol
# Density = 2.053321 g / cm^3
# Si number density = 20.580047 Si / 1000 Ang^3
#
#
#
# Elastic Constant Matrix: (Units=GPa)
#
#
# Indices 1 2 3 4 5 6 
#
# 1 108.0889 32.0899 48.3781 0.0000 -3.4907 0.0000
# 2 32.0899 122.4156 49.5018 0.0000 2.8095 0.0000
# 3 48.3781 49.5018 133.9291 0.0000 4.1782 0.0000
# 4 0.0000 0.0000 0.0000 17.0371 0.0000 6.8674
# 5 -3.4907 2.8095 4.1782 0.0000 41.1479 0.0000
# 6 0.0000 0.0000 0.0000 6.8674 0.0000 -11.2682
#
#
#
# Elastic Compliance Matrix: (Units=1/GPa)
#
#
# Indices 1 2 3 4 5 6 
#
# 1 0.011361 -0.001568 -0.003569 0.000000 0.001433 0.000000
# 2 -0.001568 0.009824 -0.003049 0.000000 -0.000494 0.000000
# 3 -0.003569 -0.003049 0.009917 0.000000 -0.001102 0.000000
# 4 0.000000 0.000000 0.000000 0.047120 0.000000 0.028717
# 5 0.001433 -0.000494 -0.001102 0.000000 0.024570 0.000000
# 6 0.000000 0.000000 0.000000 0.028717 0.000000 -0.071243
#
#
# Mechanical properties :
#
#
# Convention : Reuss Voigt Hill
#
# Bulk Modulus (GPa) = 67.88890 69.37482 68.63186
# Shear Modulus (GPa) = 94.64100 25.01427 59.82764
#
# Velocity S-wave (km/s) = 6.78871 3.49013 5.39757
# Velocity P-wave (km/s) = 9.72153 7.07278 8.50095
#
# Compressibility (1/GPa) = 0.01472995
#
# Stress axis : x y z
#
# Youngs Moduli (GPa) = 88.02212 101.78802 100.83365
#
# Poissons Ratio (x) = 0.15958 0.35988
# Poissons Ratio (y) = 0.13800 0.30749
# Poissons Ratio (z) = 0.31415 0.31040
#
# Static dielectric constant tensor:
#      x y z
#    x 3.977060 0.000000 -0.205430 
#    y 0.000000 3.547280 0.000000 
#    z -0.205430 0.000000 3.994580 
# 
# 
# High freq. dielectric constant tensor:
#      x y z
#    x 1.794820 0.000000 -0.000560 
#    y 0.000000 1.799040 0.000000 
#    z -0.000560 0.000000 1.825380 
# 
# From -- ./inp_files/33808.got.cif
#   From: 2010.06.25/outbox.cif.g09.slc.cpg/sg13_17_cif.got.tgz:33808.got - 2010.06.28 04:50:58.
