data_PCOD8120783
_publ_section_title
;
Structure prediction by ZEFSAII (Michael W. Deem and Ramdas Pophale) SiO2 
 PCOD8120783
Probable space group: P 2/C
;
_chemical_formula_sum "Si O2"
_cell_formula_units_Z 16
_cell_length_a 9.546104
_cell_length_b 10.917112
_cell_length_c 8.670827
_cell_angle_alpha 90.000000
_cell_angle_beta 46.663787
_cell_angle_gamma 90.000000
_cell_volume 657.251239
_symmetry_space_group_name_H-M "P 2/C"
_symmetry_group_IT_number 13
_symmetry_cell_setting 'monoclinic'
loop_
_space_group_symop_operation_xyz
x,y,z
-x,y,1/2-z
-x,-y,-z
x,-y,1/2+z
loop_
_atom_site_type_symbol
_atom_site_label
_atom_site_fract_x
_atom_site_fract_y
_atom_site_fract_z
Si Si1 0.557665 0.361227 0.931024
Si Si2 0.199931 0.718986 0.535753
Si Si3 0.700156 0.953595 0.175418
Si Si4 0.220723 0.170962 0.573312
O O1 0.716245 0.355784 0.674614
O O2 0.653084 0.295381 0.009411
O O3 0.500000 0.500000 0.000000
O O4 0.362477 0.286761 0.044631
O O5 0.151782 0.858105 0.517421
O O6 0.000000 0.660980 0.750000
O O7 0.500000 0.915200 0.250000
O O8 0.706894 0.927465 0.352846
O O9 0.749376 0.096684 0.109171
O O10 0.000000 0.209905 0.750000
#
# Coordination Sequence:
#
# PCOD8120783 Si02
#       4
#     4   4   4   4
#     4  10  23  45  64  96 139 184 242 292 340 416
#     4  10  21  42  69  92 132 183 229 291 362 407
#     4  11  21  42  67  99 146 184 224 290 361 419
#     4  11  23  41  67 106 141 182 233 288 355 424
#
# _framework density 24.343810000000001
#
# number of rings (size 3 to 8) (size 9 to 14) (size 15 to 20)
#    0.000    1.500    5.000    2.250    0.000    4.000 
#    4.500    0.000    0.000    0.000    0.000    0.000 
#    0.000    0.000    0.000    0.000    0.000    0.000 
#
# Total GULP energy -198283.049363 kJ/mol
# GULP energy per Si atom -12392.690585 kJ/mol
# Density = 2.428840 g / cm^3
# Si number density = 24.343810 Si / 1000 Ang^3
#
#
#
# Elastic Constant Matrix: (Units=GPa)
#
#
# Indices 1 2 3 4 5 6 
#
# 1 82.4003 19.4804 16.9576 0.0000 -19.3467 0.0000
# 2 19.4804 169.0882 33.3455 0.0000 -1.0673 0.0000
# 3 16.9576 33.3455 104.2395 0.0000 -31.0094 0.0000
# 4 0.0000 0.0000 0.0000 6.1520 0.0000 5.3850
# 5 -19.3467 -1.0673 -31.0094 0.0000 29.5089 0.0000
# 6 0.0000 0.0000 0.0000 5.3850 0.0000 21.1716
#
#
#
# Elastic Compliance Matrix: (Units=1/GPa)
#
#
# Indices 1 2 3 4 5 6 
#
# 1 0.014949 -0.001963 0.001587 0.000000 0.011397 0.000000
# 2 -0.001963 0.006728 -0.003118 0.000000 -0.004320 0.000000
# 3 0.001587 -0.003118 0.015433 0.000000 0.017145 0.000000
# 4 0.000000 0.000000 0.000000 0.209104 0.000000 -0.053186
# 5 0.011397 -0.004320 0.017145 0.000000 0.059221 0.000000
# 6 0.000000 0.000000 0.000000 -0.053186 0.000000 0.060761
#
#
# Mechanical properties :
#
#
# Convention : Reuss Voigt Hill
#
# Bulk Modulus (GPa) = 33.19948 55.03276 44.11612
# Shear Modulus (GPa) = 13.04712 30.42948 21.73830
#
# Velocity S-wave (km/s) = 2.31758 3.53935 2.99150
# Velocity P-wave (km/s) = 4.56387 6.27361 5.48576
#
# Compressibility (1/GPa) = 0.03012095
#
# Stress axis : x y z
#
# Youngs Moduli (GPa) = 66.89191 148.63497 64.79613
#
# Poissons Ratio (x) = 0.29181 -0.10281
# Poissons Ratio (y) = 0.13133 0.20204
# Poissons Ratio (z) = -0.10613 0.46345
#
# Static dielectric constant tensor:
#      x y z
#    x 4.595300 0.000000 0.102840 
#    y 0.000000 4.153650 0.000000 
#    z 0.102840 0.000000 4.302820 
# 
# 
# High freq. dielectric constant tensor:
#      x y z
#    x 1.972700 0.000000 -0.006630 
#    y 0.000000 1.945760 0.000000 
#    z -0.006630 0.000000 1.957610 
# 
# From -- ./inp_files/11504.got.cif
#   From: 2010.06.25/outbox.cif.g09.slc.cpg/sg13_6_cif.got.tgz:11504.got - 2010.06.28 04:50:58.
