data_PCOD8120762
_publ_section_title
;
Structure prediction by ZEFSAII (Michael W. Deem and Ramdas Pophale) SiO2 
 PCOD8120762
Probable space group: P 2/C
;
_chemical_formula_sum "Si O2"
_cell_formula_units_Z 28
_cell_length_a 9.335256
_cell_length_b 8.496746
_cell_length_c 26.259895
_cell_angle_alpha 90.000000
_cell_angle_beta 141.670914
_cell_angle_gamma 90.000000
_cell_volume 1291.777595
_symmetry_space_group_name_H-M "P 2/C"
_symmetry_group_IT_number 13
_symmetry_cell_setting 'monoclinic'
loop_
_space_group_symop_operation_xyz
x,y,z
-x,y,1/2-z
-x,-y,-z
x,-y,1/2+z
loop_
_atom_site_type_symbol
_atom_site_label
_atom_site_fract_x
_atom_site_fract_y
_atom_site_fract_z
Si Si1 0.378557 0.878301 0.802631
Si Si2 0.902064 0.456524 0.917068
Si Si3 0.000000 0.930085 0.250000
Si Si4 0.296839 0.604291 0.965750
Si Si5 0.234026 0.333486 0.341210
Si Si6 0.634834 0.310129 0.637470
Si Si7 0.500000 0.346872 0.250000
Si Si8 0.592335 0.182509 0.832167
O O1 0.431670 0.770397 0.867726
O O2 0.351244 0.765212 0.746016
O O3 0.589797 0.003462 0.853792
O O4 0.137624 0.971514 0.745327
O O5 0.672682 0.550900 0.833911
O O6 0.841400 0.269538 0.901734
O O7 0.098911 0.488307 0.930595
O O8 0.000000 0.500000 0.000000
O O9 0.180451 0.817854 0.330471
O O10 0.212501 0.710741 0.894897
O O11 0.500000 0.500000 0.000000
O O12 0.397605 0.712662 0.039110
O O13 0.266318 0.517180 0.342142
O O14 0.000000 0.276886 0.250000
O O15 0.579419 0.288529 0.681519
O O16 0.500000 0.175502 0.750000
#
# Coordination Sequence:
#
# PCOD8120762 Si02
#       8
#     4   4   2   4   4   4   2   4
#     4  11  24  43  67 109 144 188 243 290 376 445
#     4  12  25  46  75 106 142 189 253 308 360 438
#     4  10  22  40  72  96 148 190 232 300 350 442
#     4  10  24  41  68 106 137 173 240 304 356 417
#     4  11  21  39  68 100 132 180 231 290 354 422
#     4  10  21  42  67 104 134 181 241 292 346 427
#     4  12  26  46  76 102 146 198 242 310 364 456
#     4  11  23  42  69  99 142 187 235 294 362 431
#
# _framework density 21.675557999999999
#
# number of rings (size 3 to 8) (size 9 to 14) (size 15 to 20)
#    0.000    1.143    4.286    1.714    4.000    1.143 
#    0.000    5.000    0.000    0.000    0.000    0.000 
#    0.000    0.000    0.000    0.000    0.000    0.000 
#
# Total GULP energy -346867.651883 kJ/mol
# GULP energy per Si atom -12388.130424 kJ/mol
# Density = 2.162622 g / cm^3
# Si number density = 21.675558 Si / 1000 Ang^3
#
#
#
# Elastic Constant Matrix: (Units=GPa)
#
#
# Indices 1 2 3 4 5 6 
#
# 1 142.0512 53.1066 52.5648 0.0000 -13.4183 0.0000
# 2 53.1066 117.1685 47.9177 0.0000 -9.1042 0.0000
# 3 52.5648 47.9177 117.6345 0.0000 -9.8747 0.0000
# 4 0.0000 0.0000 0.0000 7.0035 0.0000 2.6127
# 5 -13.4183 -9.1042 -9.8747 0.0000 33.9869 0.0000
# 6 0.0000 0.0000 0.0000 2.6127 0.0000 52.4335
#
#
#
# Elastic Compliance Matrix: (Units=1/GPa)
#
#
# Indices 1 2 3 4 5 6 
#
# 1 0.009378 -0.002935 -0.002819 0.000000 0.002097 0.000000
# 2 -0.002935 0.011241 -0.003190 0.000000 0.000926 0.000000
# 3 -0.002819 -0.003190 0.011167 0.000000 0.001277 0.000000
# 4 0.000000 0.000000 0.000000 0.145490 0.000000 -0.007250
# 5 0.002097 0.000926 0.001277 0.000000 0.030870 0.000000
# 6 0.000000 0.000000 0.000000 -0.007250 0.000000 0.019433
#
#
# Mechanical properties :
#
#
# Convention : Reuss Voigt Hill
#
# Bulk Modulus (GPa) = 71.94719 76.00362 73.97541
# Shear Modulus (GPa) = 19.99195 33.56913 26.78054
#
# Velocity S-wave (km/s) = 3.04028 3.93963 3.51881
# Velocity P-wave (km/s) = 6.75198 7.47226 7.12123
#
# Compressibility (1/GPa) = 0.01389908
#
# Stress axis : x y z
#
# Youngs Moduli (GPa) = 106.63021 88.95655 89.54752
#
# Poissons Ratio (x) = 0.26107 0.25244
# Poissons Ratio (y) = 0.31294 0.28566
# Poissons Ratio (z) = 0.30060 0.28377
#
# Static dielectric constant tensor:
#      x y z
#    x 3.456530 0.000000 0.573060 
#    y 0.000000 4.245550 0.000000 
#    z 0.573060 0.000000 3.632450 
# 
# 
# High freq. dielectric constant tensor:
#      x y z
#    x 1.871330 0.000000 -0.010260 
#    y 0.000000 1.851790 0.000000 
#    z -0.010260 0.000000 1.826030 
# 
# From -- ./inp_files/91352.got.cif
#   From: 2010.06.25/outbox.cif.g09.slc.cpg/sg13_46_cif.got.tgz:91352.got - 2010.06.28 04:50:58.
