data_PCOD8120895
_publ_section_title
;
Structure prediction by ZEFSAII (Michael W. Deem and Ramdas Pophale) SiO2 
 PCOD8120895
Probable space group: P 2/C
;
_chemical_formula_sum "Si O2"
_cell_formula_units_Z 22
_cell_length_a 18.727046
_cell_length_b 8.754090
_cell_length_c 9.817170
_cell_angle_alpha 90.000000
_cell_angle_beta 141.713275
_cell_angle_gamma 90.000000
_cell_volume 997.185683
_symmetry_space_group_name_H-M "P 2/C"
_symmetry_group_IT_number 13
_symmetry_cell_setting 'monoclinic'
loop_
_space_group_symop_operation_xyz
x,y,z
-x,y,1/2-z
-x,-y,-z
x,-y,1/2+z
loop_
_atom_site_type_symbol
_atom_site_label
_atom_site_fract_x
_atom_site_fract_y
_atom_site_fract_z
Si Si1 0.745568 0.582362 0.532559
Si Si2 0.015381 0.678400 0.539613
Si Si3 0.000000 0.878592 0.250000
Si Si4 0.367842 0.869404 0.057630
Si Si5 0.750886 0.016081 0.860047
Si Si6 0.783938 0.334339 0.807145
O O1 0.852781 0.701581 0.718062
O O2 0.637552 0.688401 0.411007
O O3 0.747117 0.420688 0.612938
O O4 0.753283 0.546095 0.382780
O O5 0.989792 0.771568 0.365498
O O6 0.000000 0.500000 0.500000
O O7 0.918267 0.718271 0.505761
O O8 0.112575 0.985081 0.423714
O O9 0.500000 0.919471 0.250000
O O10 0.303513 0.978391 0.070692
O O11 0.310367 0.887013 0.822510
O O12 0.718424 0.176013 0.735502
#
# Coordination Sequence:
#
# PCOD8120895 Si02
#       6
#     4   4   2   4   4   4
#     4  10  22  40  61  91 130 170 225 265 326 387
#     4  10  22  34  60  91 131 166 209 253 332 387
#     4  12  24  40  66 102 138 172 212 280 338 402
#     4  11  24  45  67  94 131 179 228 278 325 391
#     4  11  25  42  68  99 133 172 222 275 341 396
#     4  10  23  37  62  94 131 171 214 272 329 400
#
# _framework density 22.062087999999999
#
# number of rings (size 3 to 8) (size 9 to 14) (size 15 to 20)
#    0.000    1.455    1.818    2.182   15.273    2.909 
#    0.000    4.545    0.000    0.000    0.000    0.000 
#    0.000    0.000    0.000    0.000    0.000    0.000 
#
# Total GULP energy -272654.259625 kJ/mol
# GULP energy per Si atom -12393.375438 kJ/mol
# Density = 2.201187 g / cm^3
# Si number density = 22.062088 Si / 1000 Ang^3
#
#
#
# Elastic Constant Matrix: (Units=GPa)
#
#
# Indices 1 2 3 4 5 6 
#
# 1 112.2546 39.3489 41.2054 0.0000 2.4518 0.0000
# 2 39.3489 73.3834 9.3735 0.0000 -6.8312 0.0000
# 3 41.2054 9.3735 54.2524 0.0000 10.2964 0.0000
# 4 0.0000 0.0000 0.0000 26.2159 0.0000 -10.6685
# 5 2.4518 -6.8312 10.2964 0.0000 36.9522 0.0000
# 6 0.0000 0.0000 0.0000 -10.6685 0.0000 30.4383
#
#
#
# Elastic Compliance Matrix: (Units=1/GPa)
#
#
# Indices 1 2 3 4 5 6 
#
# 1 0.015056 -0.006682 -0.010407 0.000000 0.000666 0.000000
# 2 -0.006682 0.017324 0.001468 0.000000 0.003237 0.000000
# 3 -0.010407 0.001468 0.027347 0.000000 -0.006658 0.000000
# 4 0.000000 0.000000 0.000000 0.044491 0.000000 0.015594
# 5 0.000666 0.003237 -0.006658 0.000000 0.029471 0.000000
# 6 0.000000 0.000000 0.000000 0.015594 0.000000 0.038319
#
#
# Mechanical properties :
#
#
# Convention : Reuss Voigt Hill
#
# Bulk Modulus (GPa) = 35.10787 46.63843 40.87315
# Shear Modulus (GPa) = 23.50222 28.71878 26.11050
#
# Velocity S-wave (km/s) = 3.26740 3.61186 3.44394
# Velocity P-wave (km/s) = 5.49384 6.21124 5.86352
#
# Compressibility (1/GPa) = 0.02848364
#
# Stress axis : x y z
#
# Youngs Moduli (GPa) = 66.41768 57.72379 36.56729
#
# Poissons Ratio (x) = 0.38571 0.38056
# Poissons Ratio (y) = 0.44380 -0.05366
# Poissons Ratio (z) = 0.69122 -0.08471
#
# Static dielectric constant tensor:
#      x y z
#    x 4.585130 0.000000 0.236200 
#    y 0.000000 3.958460 0.000000 
#    z 0.236200 0.000000 4.046330 
# 
# 
# High freq. dielectric constant tensor:
#      x y z
#    x 1.878880 0.000000 -0.018870 
#    y 0.000000 1.862040 0.000000 
#    z -0.018870 0.000000 1.843190 
# 
# From -- ./inp_files/21260.got.cif
#   From: 2010.06.25/outbox.cif.g09.slc.cpg/sg13_11_cif.got.tgz:21260.got - 2010.06.28 04:50:58.
