data_PCOD8120063
_publ_section_title
;
Structure prediction by ZEFSAII (Michael W. Deem and Ramdas Pophale) SiO2 
 PCOD8120063
Probable space group: P 2/C
;
_chemical_formula_sum "Si O2"
_cell_formula_units_Z 32
_cell_length_a 8.360516
_cell_length_b 14.700086
_cell_length_c 14.630323
_cell_angle_alpha 90.000000
_cell_angle_beta 60.178637
_cell_angle_gamma 90.000000
_cell_volume 1559.970735
_symmetry_space_group_name_H-M "P 2/C"
_symmetry_group_IT_number 13
_symmetry_cell_setting 'monoclinic'
loop_
_space_group_symop_operation_xyz
x,y,z
-x,y,1/2-z
-x,-y,-z
x,-y,1/2+z
loop_
_atom_site_type_symbol
_atom_site_label
_atom_site_fract_x
_atom_site_fract_y
_atom_site_fract_z
Si Si1 0.367077 0.114341 0.867001
Si Si2 0.879937 0.680502 0.968406
Si Si3 0.218212 0.686724 0.113859
Si Si4 0.989346 0.503448 0.355070
Si Si5 0.422017 0.777672 0.531445
Si Si6 0.289051 0.363608 0.798162
Si Si7 0.043596 0.819121 0.030814
Si Si8 0.423175 0.095507 0.368611
O O1 0.500000 0.153746 0.750000
O O2 0.147090 0.122438 0.907611
O O3 0.432931 0.012534 0.870400
O O4 0.429275 0.171774 0.934454
O O5 0.934755 0.576375 0.939878
O O6 0.765091 0.717205 0.913489
O O7 0.766480 0.694800 0.096856
O O8 0.047822 0.748507 0.942669
O O9 0.153899 0.587209 0.098886
O O10 0.230750 0.688257 0.220820
O O11 0.077303 0.764321 0.116782
O O12 0.412676 0.705013 0.009937
O O13 0.000000 0.462753 0.250000
O O14 0.188691 0.538824 0.329092
O O15 0.431982 0.854388 0.605746
O O16 0.500000 0.387254 0.750000
O O17 0.213725 0.883400 0.957146
O O18 0.500000 0.130310 0.250000
#
# Coordination Sequence:
#
# PCOD8120063 Si02
#       8
#     4   4   4   4   4   4   4   4
#     4  10  22  38  66  95 125 157 198 253 317 377
#     4  11  22  38  61  86 119 162 204 249 309 360
#     4  10  21  37  57  87 123 156 194 253 308 359
#     4  10  23  39  56  82 123 160 202 250 302 363
#     4  10  22  37  64  91 119 156 205 255 299 370
#     4  11  21  37  58  85 121 158 199 256 314 364
#     4  10  22  38  63  92 123 160 204 258 300 372
#     4  10  22  44  62  87 126 165 202 251 309 367
#
# _framework density 20.513207000000001
#
# number of rings (size 3 to 8) (size 9 to 14) (size 15 to 20)
#    0.000    1.750    2.500    1.125    3.500    1.500 
#    0.000    2.500    0.000   10.500    0.000    0.000 
#    0.000    0.000    0.000    0.000    0.000    0.000 
#
# Total GULP energy -396511.569698 kJ/mol
# GULP energy per Si atom -12390.986553 kJ/mol
# Density = 2.046652 g / cm^3
# Si number density = 20.513207 Si / 1000 Ang^3
#
#
#
# Elastic Constant Matrix: (Units=GPa)
#
#
# Indices 1 2 3 4 5 6 
#
# 1 117.3448 32.2593 25.2960 0.0000 3.5608 0.0000
# 2 32.2593 79.0063 23.4914 0.0000 10.2272 0.0000
# 3 25.2960 23.4914 65.0755 0.0000 3.9553 0.0000
# 4 0.0000 0.0000 0.0000 25.4305 0.0000 11.1109
# 5 3.5608 10.2272 3.9553 0.0000 20.4431 0.0000
# 6 0.0000 0.0000 0.0000 11.1109 0.0000 12.5252
#
#
#
# Elastic Compliance Matrix: (Units=1/GPa)
#
#
# Indices 1 2 3 4 5 6 
#
# 1 0.010011 -0.003339 -0.002714 0.000000 0.000452 0.000000
# 2 -0.003339 0.016108 -0.004111 0.000000 -0.006681 0.000000
# 3 -0.002714 -0.004111 0.017963 0.000000 -0.000946 0.000000
# 4 0.000000 0.000000 0.000000 0.064208 0.000000 -0.056958
# 5 0.000452 -0.006681 -0.000946 0.000000 0.052363 0.000000
# 6 0.000000 0.000000 0.000000 -0.056958 0.000000 0.130365
#
#
# Mechanical properties :
#
#
# Convention : Reuss Voigt Hill
#
# Bulk Modulus (GPa) = 42.09625 47.05779 44.57702
# Shear Modulus (GPa) = 15.66105 23.70510 19.68307
#
# Velocity S-wave (km/s) = 2.76608 3.40310 3.10099
# Velocity P-wave (km/s) = 5.54686 6.19932 5.88214
#
# Compressibility (1/GPa) = 0.02375508
#
# Stress axis : x y z
#
# Youngs Moduli (GPa) = 99.88848 62.08157 55.67022
#
# Poissons Ratio (x) = 0.20731 0.15106
# Poissons Ratio (y) = 0.33356 0.22883
# Poissons Ratio (z) = 0.27105 0.25519
#
# Static dielectric constant tensor:
#      x y z
#    x 4.119200 0.000000 0.063130 
#    y 0.000000 3.710230 0.000000 
#    z 0.063130 0.000000 3.623450 
# 
# 
# High freq. dielectric constant tensor:
#      x y z
#    x 1.816870 0.000000 0.007720 
#    y 0.000000 1.802890 0.000000 
#    z 0.007720 0.000000 1.784860 
# 
# From -- ./inp_files/47675.got.cif
#   From: 2010.06.25/outbox.cif.g09.slc.cpg/sg13_24_cif.got.tgz:47675.got - 2010.06.28 04:50:58.
