data_PCOD8120222
_publ_section_title
;
Structure prediction by ZEFSAII (Michael W. Deem and Ramdas Pophale) SiO2 
 PCOD8120222
Probable space group: P 2/C
;
_chemical_formula_sum "Si O2"
_cell_formula_units_Z 24
_cell_length_a 18.613769
_cell_length_b 5.202015
_cell_length_c 20.387525
_cell_angle_alpha 90.000000
_cell_angle_beta 148.891683
_cell_angle_gamma 90.000000
_cell_volume 1019.936806
_symmetry_space_group_name_H-M "P 2/C"
_symmetry_group_IT_number 13
_symmetry_cell_setting 'monoclinic'
loop_
_space_group_symop_operation_xyz
x,y,z
-x,y,1/2-z
-x,-y,-z
x,-y,1/2+z
loop_
_atom_site_type_symbol
_atom_site_label
_atom_site_fract_x
_atom_site_fract_y
_atom_site_fract_z
Si Si1 0.264550 0.453954 0.657234
Si Si2 0.170093 0.941683 0.528472
Si Si3 0.021052 0.753041 0.695656
Si Si4 0.719559 0.043124 0.645144
Si Si5 0.456949 0.686012 0.909032
Si Si6 0.067908 0.632546 0.118482
O O1 0.256144 0.672794 0.593487
O O2 0.404674 0.517316 0.806784
O O3 0.119536 0.481556 0.587771
O O4 0.271911 0.162354 0.637379
O O5 0.032189 0.883322 0.465645
O O6 0.103701 0.033327 0.407396
O O7 0.172367 0.884047 0.814229
O O8 0.996204 0.570251 0.613258
O O9 0.000000 0.615241 0.750000
O O10 0.667735 0.868560 0.665094
O O11 0.593134 0.139044 0.499421
O O12 0.788084 0.289356 0.733606
O O13 0.500000 0.500000 0.000000
#
# Coordination Sequence:
#
# PCOD8120222 Si02
#       6
#     4   4   4   4   4   4
#     4  12  22  37  62  96 134 165 208 268 332 400
#     4  11  25  38  60  98 131 169 207 264 340 390
#     4  11  24  43  65  91 130 174 223 269 325 399
#     4  10  21  38  59  98 126 167 220 259 327 378
#     4  11  21  36  61  94 135 168 211 265 325 399
#     4  11  21  38  61  95 133 170 204 269 334 392
#
# _framework density 23.530868999999999
#
# number of rings (size 3 to 8) (size 9 to 14) (size 15 to 20)
#    0.000    1.000    5.000    2.000    4.667    2.667 
#    0.000    0.000    0.000    1.000    0.000    0.000 
#    0.000    0.000    0.000    0.000    0.000    0.000 
#
# Total GULP energy -297399.705883 kJ/mol
# GULP energy per Si atom -12391.654412 kJ/mol
# Density = 2.347731 g / cm^3
# Si number density = 23.530869 Si / 1000 Ang^3
#
#
#
# Elastic Constant Matrix: (Units=GPa)
#
#
# Indices 1 2 3 4 5 6 
#
# 1 56.2276 23.6901 17.2669 0.0000 -15.4091 0.0000
# 2 23.6901 126.3484 42.9999 0.0000 -3.6085 0.0000
# 3 17.2669 42.9999 110.6296 0.0000 6.5443 0.0000
# 4 0.0000 0.0000 0.0000 55.4064 0.0000 2.1418
# 5 -15.4091 -3.6085 6.5443 0.0000 23.7716 0.0000
# 6 0.0000 0.0000 0.0000 2.1418 0.0000 17.8169
#
#
#
# Elastic Compliance Matrix: (Units=1/GPa)
#
#
# Indices 1 2 3 4 5 6 
#
# 1 0.024688 -0.002893 -0.003710 0.000000 0.016585 0.000000
# 2 -0.002893 0.009597 -0.003308 0.000000 0.000492 0.000000
# 3 -0.003710 -0.003308 0.011259 0.000000 -0.006007 0.000000
# 4 0.000000 0.000000 0.000000 0.018133 0.000000 -0.002180
# 5 0.016585 0.000492 -0.006007 0.000000 0.054546 0.000000
# 6 0.000000 0.000000 0.000000 -0.002180 0.000000 0.056389
#
#
# Mechanical properties :
#
#
# Convention : Reuss Voigt Hill
#
# Bulk Modulus (GPa) = 38.87544 51.23550 45.05547
# Shear Modulus (GPa) = 24.62967 33.34888 28.98928
#
# Velocity S-wave (km/s) = 3.23878 3.76871 3.51375
# Velocity P-wave (km/s) = 5.52659 6.38424 5.97083
#
# Compressibility (1/GPa) = 0.02572318
#
# Stress axis : x y z
#
# Youngs Moduli (GPa) = 40.50528 104.20165 88.81602
#
# Poissons Ratio (x) = 0.30142 0.32951
# Poissons Ratio (y) = 0.11717 0.29378
# Poissons Ratio (z) = 0.15028 0.34467
#
# Static dielectric constant tensor:
#      x y z
#    x 3.451290 0.000000 0.217150 
#    y 0.000000 2.968850 0.000000 
#    z 0.217150 0.000000 4.553210 
# 
# 
# High freq. dielectric constant tensor:
#      x y z
#    x 1.843090 0.000000 0.006880 
#    y 0.000000 1.949730 0.000000 
#    z 0.006880 0.000000 1.964160 
# 
# From -- ./inp_files/81413.got.cif
#   From: 2010.06.25/outbox.cif.g09.slc.cpg/sg13_41_cif.got.tgz:81413.got - 2010.06.28 04:50:58.
