data_PCOD8120208
_publ_section_title
;
Structure prediction by ZEFSAII (Michael W. Deem and Ramdas Pophale) SiO2 
 PCOD8120208
Probable space group: P 2/C
;
_chemical_formula_sum "Si O2"
_cell_formula_units_Z 32
_cell_length_a 16.341427
_cell_length_b 6.459790
_cell_length_c 26.882502
_cell_angle_alpha 90.000000
_cell_angle_beta 34.374098
_cell_angle_gamma 90.000000
_cell_volume 1602.190939
_symmetry_space_group_name_H-M "P 2/C"
_symmetry_group_IT_number 13
_symmetry_cell_setting 'monoclinic'
loop_
_space_group_symop_operation_xyz
x,y,z
-x,y,1/2-z
-x,-y,-z
x,-y,1/2+z
loop_
_atom_site_type_symbol
_atom_site_label
_atom_site_fract_x
_atom_site_fract_y
_atom_site_fract_z
Si Si1 0.670714 0.930624 0.551742
Si Si2 0.152905 0.380568 0.472220
Si Si3 0.187070 0.314453 0.270197
Si Si4 0.864863 0.687500 0.928829
Si Si5 0.356408 0.921757 0.217946
Si Si6 0.172186 0.380088 0.867008
Si Si7 0.366173 0.616992 0.122752
Si Si8 0.664646 0.595177 0.471993
O O1 0.748062 0.806546 0.557712
O O2 0.629235 0.778742 0.527699
O O3 0.775542 0.102223 0.476714
O O4 0.524491 0.035339 0.645888
O O5 0.145561 0.572449 0.513380
O O6 0.223856 0.474132 0.386460
O O7 0.991131 0.293625 0.541375
O O8 0.166769 0.497039 0.318983
O O9 0.279135 0.405465 0.178214
O O10 0.027646 0.245542 0.332291
O O11 0.270223 0.132315 0.255536
O O12 0.808525 0.530392 0.914825
O O13 0.287908 0.804017 0.300083
O O14 0.335060 0.798539 0.177176
O O15 0.317513 0.690341 0.092154
O O16 0.536290 0.571397 0.038267
#
# Coordination Sequence:
#
# PCOD8120208 Si02
#       8
#     4   4   4   4   4   4   4   4
#     4  11  21  36  60  87 117 153 197 247 294 351
#     4   9  20  39  61  83 115 158 198 240 296 356
#     4  10  21  38  59  85 117 152 193 246 296 347
#     4  10  21  38  59  85 117 152 193 246 296 347
#     4  11  21  36  60  87 117 153 197 247 294 351
#     4   9  20  39  61  83 115 158 198 240 296 356
#     4  10  21  38  60  84 114 155 195 236 293 355
#     4  10  21  38  60  84 114 155 195 236 293 355
#
# _framework density 19.972652
#
# number of rings (size 3 to 8) (size 9 to 14) (size 15 to 20)
#    0.000    2.000    2.500    0.750    0.000    4.000 
#    0.000    7.500    0.000    0.000    0.000    0.000 
#    0.000    0.000    0.000    0.000    0.000    0.000 
#
# Total GULP energy -396823.437445 kJ/mol
# GULP energy per Si atom -12400.732420 kJ/mol
# Density = 1.992719 g / cm^3
# Si number density = 19.972652 Si / 1000 Ang^3
#
#
#
# Elastic Constant Matrix: (Units=GPa)
#
#
# Indices 1 2 3 4 5 6 
#
# 1 88.4935 18.6341 35.2423 0.0000 -2.0390 0.0000
# 2 18.6341 64.6704 27.1125 0.0000 -9.1966 0.0000
# 3 35.2423 27.1125 94.5472 0.0000 -12.4261 0.0000
# 4 0.0000 0.0000 0.0000 34.5333 0.0000 -6.3080
# 5 -2.0390 -9.1966 -12.4261 0.0000 33.9243 0.0000
# 6 0.0000 0.0000 0.0000 -6.3080 0.0000 25.9379
#
#
#
# Elastic Compliance Matrix: (Units=1/GPa)
#
#
# Indices 1 2 3 4 5 6 
#
# 1 0.013567 -0.002179 -0.004625 0.000000 -0.001470 0.000000
# 2 -0.002179 0.018235 -0.003976 0.000000 0.003356 0.000000
# 3 -0.004625 -0.003976 0.013934 0.000000 0.003748 0.000000
# 4 0.000000 0.000000 0.000000 0.030304 0.000000 0.007370
# 5 -0.001470 0.003356 0.003748 0.000000 0.031672 0.000000
# 6 0.000000 0.000000 0.000000 0.007370 0.000000 0.040346
#
#
# Mechanical properties :
#
#
# Convention : Reuss Voigt Hill
#
# Bulk Modulus (GPa) = 41.36462 45.52099 43.44281
# Shear Modulus (GPa) = 28.14108 29.99392 29.06750
#
# Velocity S-wave (km/s) = 3.75771 3.87945 3.81906
# Velocity P-wave (km/s) = 6.29148 6.55041 6.42225
#
# Compressibility (1/GPa) = 0.02417525
#
# Stress axis : x y z
#
# Youngs Moduli (GPa) = 73.70650 54.83964 71.76933
#
# Poissons Ratio (x) = 0.11950 0.33197
# Poissons Ratio (y) = 0.16061 0.28534
# Poissons Ratio (z) = 0.34093 0.21803
#
# Static dielectric constant tensor:
#      x y z
#    x 3.619770 0.000000 -0.136120 
#    y 0.000000 3.524940 0.000000 
#    z -0.136120 0.000000 3.855750 
# 
# 
# High freq. dielectric constant tensor:
#      x y z
#    x 1.774980 0.000000 -0.007540 
#    y 0.000000 1.775420 0.000000 
#    z -0.007540 0.000000 1.781940 
# 
# From -- ./inp_files/97237.got.cif
#   From: 2010.06.25/outbox.cif.g09.slc.cpg/sg13_49_cif.got.tgz:97237.got - 2010.06.28 04:50:58.
