data_PCOD8120111
_publ_section_title
;
Structure prediction by ZEFSAII (Michael W. Deem and Ramdas Pophale) SiO2 
 PCOD8120111
Probable space group: P 2/C
;
_chemical_formula_sum "Si O2"
_cell_formula_units_Z 16
_cell_length_a 8.078029
_cell_length_b 18.993058
_cell_length_c 8.969061
_cell_angle_alpha 90.000000
_cell_angle_beta 33.777625
_cell_angle_gamma 90.000000
_cell_volume 765.066992
_symmetry_space_group_name_H-M "P 2/C"
_symmetry_group_IT_number 13
_symmetry_cell_setting 'monoclinic'
loop_
_space_group_symop_operation_xyz
x,y,z
-x,y,1/2-z
-x,-y,-z
x,-y,1/2+z
loop_
_atom_site_type_symbol
_atom_site_label
_atom_site_fract_x
_atom_site_fract_y
_atom_site_fract_z
Si Si1 0.325175 0.178537 0.030781
Si Si2 0.302384 0.955160 0.752247
Si Si3 0.669379 0.286784 0.968279
Si Si4 0.669556 0.555595 0.471270
O O1 0.246361 0.117097 0.207211
O O2 0.000000 0.212940 0.250000
O O3 0.500000 0.151928 0.750000
O O4 0.529926 0.238128 0.947342
O O5 0.500000 0.938932 0.750000
O O6 0.500000 0.000000 0.500000
O O7 0.000000 0.000000 0.000000
O O8 0.678360 0.366131 0.893417
O O9 0.000000 0.258660 0.750000
O O10 0.500000 0.281808 0.250000
O O11 0.500000 0.500000 0.500000
O O12 0.000000 0.526236 0.250000
O O13 0.500000 0.563019 0.750000
#
# Coordination Sequence:
#
# PCOD8120111 Si02
#       4
#     4   4   4   4
#     4  12  25  41  63  93 123 157 204 255 306 366
#     4  12  25  43  65  89 120 156 195 244 300 362
#     4  10  22  41  62  89 124 166 209 253 308 367
#     4  10  21  37  60  89 125 165 209 256 307 365
#
# _framework density 20.913201999999998
#
# number of rings (size 3 to 8) (size 9 to 14) (size 15 to 20)
#    0.000    1.000    0.000    7.500    0.000    4.000 
#    0.000    0.000    0.000    0.000    0.000    0.000 
#    0.000    0.000    0.000    0.000    0.000    0.000 
#
# Total GULP energy -198337.615190 kJ/mol
# GULP energy per Si atom -12396.100949 kJ/mol
# Density = 2.086560 g / cm^3
# Si number density = 20.913202 Si / 1000 Ang^3
#
#
#
# Elastic Constant Matrix: (Units=GPa)
#
#
# Indices 1 2 3 4 5 6 
#
# 1 154.6437 83.8191 67.1903 0.0000 -24.1637 0.0000
# 2 83.8191 124.1813 38.7264 0.0000 -15.2385 0.0000
# 3 67.1903 38.7264 148.9307 0.0000 -28.1690 0.0000
# 4 0.0000 0.0000 0.0000 35.7059 0.0000 -2.1215
# 5 -24.1637 -15.2385 -28.1690 0.0000 47.5229 0.0000
# 6 0.0000 0.0000 0.0000 -2.1215 0.0000 41.5428
#
#
#
# Elastic Compliance Matrix: (Units=1/GPa)
#
#
# Indices 1 2 3 4 5 6 
#
# 1 0.011817 -0.006736 -0.003212 0.000000 0.001945 0.000000
# 2 -0.006736 0.012718 -0.000163 0.000000 0.000557 0.000000
# 3 -0.003212 -0.000163 0.008883 0.000000 0.003580 0.000000
# 4 0.000000 0.000000 0.000000 0.028092 0.000000 0.001435
# 5 0.001945 0.000557 0.003580 0.000000 0.024332 0.000000
# 6 0.000000 0.000000 0.000000 0.001435 0.000000 0.024145
#
#
# Mechanical properties :
#
#
# Convention : Reuss Voigt Hill
#
# Bulk Modulus (GPa) = 75.77469 89.69192 82.73330
# Shear Modulus (GPa) = 37.14528 40.82231 38.98379
#
# Velocity S-wave (km/s) = 4.21903 4.42292 4.32218
# Velocity P-wave (km/s) = 7.74888 8.31046 8.03458
#
# Compressibility (1/GPa) = 0.01319702
#
# Stress axis : x y z
#
# Youngs Moduli (GPa) = 84.62621 78.62682 112.57377
#
# Poissons Ratio (x) = 0.52961 0.36156
# Poissons Ratio (y) = 0.57002 0.01835
# Poissons Ratio (z) = 0.27180 0.01282
#
# Static dielectric constant tensor:
#      x y z
#    x 3.592880 0.000000 -0.334160 
#    y 0.000000 3.890240 0.000000 
#    z -0.334160 0.000000 3.856860 
# 
# 
# High freq. dielectric constant tensor:
#      x y z
#    x 1.824900 0.000000 -0.012270 
#    y 0.000000 1.822690 0.000000 
#    z -0.012270 0.000000 1.843890 
# 
# From -- ./inp_files/9100.got.cif
#   From: 2010.06.25/outbox.cif.g09.slc.cpg/sg13_5_cif.got.tgz:9100.got - 2010.06.28 04:50:58.
