data_PCOD8120932
_publ_section_title
;
Structure prediction by ZEFSAII (Michael W. Deem and Ramdas Pophale) SiO2 
 PCOD8120932
Probable space group: P 2/C
;
_chemical_formula_sum "Si O2"
_cell_formula_units_Z 26
_cell_length_a 16.285046
_cell_length_b 6.687988
_cell_length_c 21.145868
_cell_angle_alpha 90.000000
_cell_angle_beta 148.561227
_cell_angle_gamma 90.000000
_cell_volume 1201.259551
_symmetry_space_group_name_H-M "P 2/C"
_symmetry_group_IT_number 13
_symmetry_cell_setting 'monoclinic'
loop_
_space_group_symop_operation_xyz
x,y,z
-x,y,1/2-z
-x,-y,-z
x,-y,1/2+z
loop_
_atom_site_type_symbol
_atom_site_label
_atom_site_fract_x
_atom_site_fract_y
_atom_site_fract_z
Si Si1 0.516960 0.145279 0.922082
Si Si2 0.000121 0.341241 0.356075
Si Si3 0.660110 0.208430 0.145782
Si Si4 0.802966 0.042891 0.547457
Si Si5 0.000000 0.655796 0.250000
Si Si6 0.753075 0.382506 0.429467
Si Si7 0.463120 0.541880 0.826949
O O1 0.435105 0.310632 0.824716
O O2 0.374531 0.022376 0.860061
O O3 0.625469 0.243032 0.048640
O O4 0.623447 0.010563 0.945721
O O5 0.840372 0.257631 0.281717
O O6 0.948184 0.511665 0.272631
O O7 0.108824 0.450742 0.479956
O O8 0.091781 0.156615 0.384230
O O9 0.543093 0.339954 0.111378
O O10 0.857686 0.198200 0.637400
O O11 0.812292 0.157698 0.485580
O O12 0.673834 0.379660 0.309129
O O13 0.633020 0.440275 0.406709
#
# Coordination Sequence:
#
# PCOD8120932 Si02
#       7
#     4   4   4   4   2   4   4
#     4  11  23  41  67  96 132 172 211 266 323 388
#     4  11  23  41  64  96 128 169 216 274 323 382
#     4  11  25  39  65 100 131 164 213 271 334 375
#     4  11  21  41  66  96 127 171 223 261 318 391
#     4  10  22  36  66  96 132 166 212 268 326 386
#     4  10  24  42  68  91 125 179 222 260 317 385
#     4  11  23  45  63  93 131 173 219 262 318 388
#
# _framework density 21.643947000000001
#
# number of rings (size 3 to 8) (size 9 to 14) (size 15 to 20)
#    0.000    1.231    3.077    2.769    2.154    6.769 
#    0.000    1.538    0.000    0.000    0.000    0.000 
#    0.000    0.000    0.000    0.000    0.000    0.000 
#
# Total GULP energy -322412.124751 kJ/mol
# GULP energy per Si atom -12400.466337 kJ/mol
# Density = 2.159468 g / cm^3
# Si number density = 21.643947 Si / 1000 Ang^3
#
#
#
# Elastic Constant Matrix: (Units=GPa)
#
#
# Indices 1 2 3 4 5 6 
#
# 1 55.8709 21.1328 12.9469 0.0000 5.4793 0.0000
# 2 21.1328 118.0493 34.9932 0.0000 -11.9297 0.0000
# 3 12.9469 34.9932 83.7135 0.0000 -0.4229 0.0000
# 4 0.0000 0.0000 0.0000 28.4152 0.0000 -1.1136
# 5 5.4793 -11.9297 -0.4229 0.0000 27.7706 0.0000
# 6 0.0000 0.0000 0.0000 -1.1136 0.0000 25.0160
#
#
#
# Elastic Compliance Matrix: (Units=1/GPa)
#
#
# Indices 1 2 3 4 5 6 
#
# 1 0.020224 -0.003712 -0.001605 0.000000 -0.005609 0.000000
# 2 -0.003712 0.010839 -0.003930 0.000000 0.005329 0.000000
# 3 -0.001605 -0.003930 0.013831 0.000000 -0.001161 0.000000
# 4 0.000000 0.000000 0.000000 0.035254 0.000000 0.001569
# 5 -0.005609 0.005329 -0.001161 0.000000 0.039388 0.000000
# 6 0.000000 0.000000 0.000000 0.001569 0.000000 0.040044
#
#
# Mechanical properties :
#
#
# Convention : Reuss Voigt Hill
#
# Bulk Modulus (GPa) = 37.87675 43.97548 40.92612
# Shear Modulus (GPa) = 26.75625 28.81107 27.78366
#
# Velocity S-wave (km/s) = 3.51978 3.65243 3.58672
# Velocity P-wave (km/s) = 5.83578 6.17647 6.00854
#
# Compressibility (1/GPa) = 0.02640142
#
# Stress axis : x y z
#
# Youngs Moduli (GPa) = 49.44552 92.26033 72.30390
#
# Poissons Ratio (x) = 0.34244 0.11602
# Poissons Ratio (y) = 0.18353 0.28414
# Poissons Ratio (z) = 0.07934 0.36257
#
# Static dielectric constant tensor:
#      x y z
#    x 3.647440 0.000000 -0.009590 
#    y 0.000000 4.175570 0.000000 
#    z -0.009590 0.000000 3.796360 
# 
# 
# High freq. dielectric constant tensor:
#      x y z
#    x 1.827360 0.000000 0.001600 
#    y 0.000000 1.866920 0.000000 
#    z 0.001600 0.000000 1.843900 
# 
# From -- ./inp_files/87778.got.cif
#   From: 2010.06.25/outbox.cif.g09.slc.cpg/sg13_44_cif.got.tgz:87778.got - 2010.06.28 04:50:58.
