data_PCOD8120209
_publ_section_title
;
Structure prediction by ZEFSAII (Michael W. Deem and Ramdas Pophale) SiO2 
 PCOD8120209
Probable space group: P 2/C
;
_chemical_formula_sum "Si O2"
_cell_formula_units_Z 18
_cell_length_a 17.947883
_cell_length_b 7.909845
_cell_length_c 5.305286
_cell_angle_alpha 90.000000
_cell_angle_beta 77.734481
_cell_angle_gamma 90.000000
_cell_volume 735.972742
_symmetry_space_group_name_H-M "P 2/C"
_symmetry_group_IT_number 13
_symmetry_cell_setting 'monoclinic'
loop_
_space_group_symop_operation_xyz
x,y,z
-x,y,1/2-z
-x,-y,-z
x,-y,1/2+z
loop_
_atom_site_type_symbol
_atom_site_label
_atom_site_fract_x
_atom_site_fract_y
_atom_site_fract_z
Si Si1 0.090522 0.089010 0.679872
Si Si2 0.500000 0.384957 0.750000
Si Si3 0.633592 0.113301 0.654673
Si Si4 0.262772 0.590950 0.423245
Si Si5 0.097972 0.455272 0.564486
O O1 0.127971 0.265322 0.573641
O O2 0.000000 0.114587 0.750000
O O3 0.117267 0.961382 0.440716
O O4 0.500000 0.500000 0.500000
O O5 0.572874 0.263766 0.697354
O O6 0.715083 0.210098 0.595483
O O7 0.624758 0.999146 0.411883
O O8 0.296587 0.501716 0.650304
O O9 0.170960 0.578836 0.487643
O O10 0.049332 0.484288 0.343301
#
# Coordination Sequence:
#
# PCOD8120209 Si02
#       5
#     4   2   4   4   4
#     4  10  21  38  60  88 120 154 195 248 307 359
#     4  12  24  42  68  94 126 164 198 246 304 362
#     4  12  24  41  64  94 126 158 202 252 301 354
#     4  10  21  41  60  84 121 161 203 244 293 357
#     4  10  21  38  59  85 118 156 201 245 292 360
#
# _framework density 24.457425000000001
#
# number of rings (size 3 to 8) (size 9 to 14) (size 15 to 20)
#    0.000    1.333    0.000    6.000    0.000    0.889 
#    0.000   26.667    0.000    0.000    0.000    0.000 
#    0.000    0.000    0.000    0.000    0.000    0.000 
#
# Total GULP energy -223088.742878 kJ/mol
# GULP energy per Si atom -12393.819049 kJ/mol
# Density = 2.440176 g / cm^3
# Si number density = 24.457425 Si / 1000 Ang^3
#
#
#
# Elastic Constant Matrix: (Units=GPa)
#
#
# Indices 1 2 3 4 5 6 
#
# 1 60.5260 25.6897 43.5332 0.0000 1.4211 0.0000
# 2 25.6897 141.8671 106.4686 0.0000 13.2049 0.0000
# 3 43.5332 106.4686 274.2498 0.0000 29.0950 0.0000
# 4 0.0000 0.0000 0.0000 66.6229 0.0000 0.6853
# 5 1.4211 13.2049 29.0950 0.0000 22.1579 0.0000
# 6 0.0000 0.0000 0.0000 0.6853 0.0000 52.4193
#
#
#
# Elastic Compliance Matrix: (Units=1/GPa)
#
#
# Indices 1 2 3 4 5 6 
#
# 1 0.019138 -0.001737 -0.002722 0.000000 0.003382 0.000000
# 2 -0.001737 0.010124 -0.003516 0.000000 -0.001305 0.000000
# 3 -0.002722 -0.003516 0.006045 0.000000 -0.005667 0.000000
# 4 0.000000 0.000000 0.000000 0.015012 0.000000 -0.000196
# 5 0.003382 -0.001305 -0.005667 0.000000 0.053133 0.000000
# 6 0.000000 0.000000 0.000000 -0.000196 0.000000 0.019080
#
#
# Mechanical properties :
#
#
# Convention : Reuss Voigt Hill
#
# Bulk Modulus (GPa) = 51.66653 92.00286 71.83469
# Shear Modulus (GPa) = 34.49881 48.30344 41.40113
#
# Velocity S-wave (km/s) = 3.75982 4.44892 4.11881
# Velocity P-wave (km/s) = 6.32608 8.00561 7.21488
#
# Compressibility (1/GPa) = 0.01935489
#
# Stress axis : x y z
#
# Youngs Moduli (GPa) = 52.25273 98.77950 165.43770
#
# Poissons Ratio (x) = 0.17162 0.45035
# Poissons Ratio (y) = 0.09078 0.58166
# Poissons Ratio (z) = 0.14224 0.34730
#
# Static dielectric constant tensor:
#      x y z
#    x 4.294000 0.000000 0.363930 
#    y 0.000000 4.424230 0.000000 
#    z 0.363930 0.000000 6.156750 
# 
# 
# High freq. dielectric constant tensor:
#      x y z
#    x 1.956870 0.000000 0.009300 
#    y 0.000000 1.976360 0.000000 
#    z 0.009300 0.000000 2.013770 
# 
# From -- ./inp_files/7206.got.cif
#   From: 2010.06.25/outbox.cif.g09.slc.cpg/sg13_4_cif.got.tgz:7206.got - 2010.06.28 04:50:58.
