data_PCOD8120996
_publ_section_title
;
Structure prediction by ZEFSAII (Michael W. Deem and Ramdas Pophale) SiO2 
 PCOD8120996
Probable space group: P 2/C
;
_chemical_formula_sum "Si O2"
_cell_formula_units_Z 20
_cell_length_a 20.446111
_cell_length_b 5.920583
_cell_length_c 14.457505
_cell_angle_alpha 90.000000
_cell_angle_beta 150.708229
_cell_angle_gamma 90.000000
_cell_volume 856.260209
_symmetry_space_group_name_H-M "P 2/C"
_symmetry_group_IT_number 13
_symmetry_cell_setting 'monoclinic'
loop_
_space_group_symop_operation_xyz
x,y,z
-x,y,1/2-z
-x,-y,-z
x,-y,1/2+z
loop_
_atom_site_type_symbol
_atom_site_label
_atom_site_fract_x
_atom_site_fract_y
_atom_site_fract_z
Si Si1 0.112061 0.774760 0.545929
Si Si2 0.647233 0.812958 0.901649
Si Si3 0.126559 0.890519 0.765073
Si Si4 0.202993 0.571242 0.023012
Si Si5 0.357401 0.951630 0.284003
O O1 0.106387 0.728761 0.649999
O O2 0.096061 0.553704 0.459851
O O3 0.258455 0.870604 0.707601
O O4 0.002655 0.954500 0.380062
O O5 0.500000 0.733325 0.750000
O O6 0.717160 0.596526 0.944355
O O7 0.626026 0.012155 0.803914
O O8 0.746995 0.937274 0.098214
O O9 0.131963 0.748135 0.866462
O O10 0.302341 0.694808 0.219714
O O11 0.500000 0.000000 0.500000
#
# Coordination Sequence:
#
# PCOD8120996 Si02
#       5
#     4   4   4   4   4
#     4  10  23  42  67  97 129 173 221 270 333 396
#     4  10  22  38  61  93 129 172 218 268 324 385
#     4  10  23  43  66  96 133 171 219 275 328 391
#     4  10  24  42  68  96 128 175 219 269 329 391
#     4  10  22  39  61  93 133 170 214 274 325 381
#
# _framework density 23.357386999999999
#
# number of rings (size 3 to 8) (size 9 to 14) (size 15 to 20)
#    0.000    2.000    0.000    1.200    0.000   21.600 
#    0.000    4.000    0.000    3.600    0.000    0.000 
#    0.000    0.000    0.000    0.000    0.000    0.000 
#
# Total GULP energy -247784.742402 kJ/mol
# GULP energy per Si atom -12389.237120 kJ/mol
# Density = 2.330422 g / cm^3
# Si number density = 23.357387 Si / 1000 Ang^3
#
#
#
# Elastic Constant Matrix: (Units=GPa)
#
#
# Indices 1 2 3 4 5 6 
#
# 1 105.2052 40.2707 53.5083 0.0000 -6.9502 0.0000
# 2 40.2707 96.6700 46.6186 0.0000 -19.4957 0.0000
# 3 53.5083 46.6186 143.2122 0.0000 -0.9406 0.0000
# 4 0.0000 0.0000 0.0000 33.1910 0.0000 -4.9367
# 5 -6.9502 -19.4957 -0.9406 0.0000 37.4294 0.0000
# 6 0.0000 0.0000 0.0000 -4.9367 0.0000 37.6434
#
#
#
# Elastic Compliance Matrix: (Units=1/GPa)
#
#
# Indices 1 2 3 4 5 6 
#
# 1 0.012697 -0.003450 -0.003618 0.000000 0.000470 0.000000
# 2 -0.003450 0.014893 -0.003513 0.000000 0.007028 0.000000
# 3 -0.003618 -0.003513 0.009463 0.000000 -0.002264 0.000000
# 4 0.000000 0.000000 0.000000 0.030728 0.000000 0.004030
# 5 0.000470 0.007028 -0.002264 0.000000 0.030408 0.000000
# 6 0.000000 0.000000 0.000000 0.004030 0.000000 0.027094
#
#
# Mechanical properties :
#
#
# Convention : Reuss Voigt Hill
#
# Bulk Modulus (GPa) = 62.92518 69.54249 66.23384
# Shear Modulus (GPa) = 32.95084 35.29876 34.12480
#
# Velocity S-wave (km/s) = 3.76004 3.89169 3.82643
# Velocity P-wave (km/s) = 6.77120 7.07330 6.92390
#
# Compressibility (1/GPa) = 0.01589189
#
# Stress axis : x y z
#
# Youngs Moduli (GPa) = 78.75959 67.14514 105.67436
#
# Poissons Ratio (x) = 0.23164 0.38231
# Poissons Ratio (y) = 0.27170 0.37122
# Poissons Ratio (z) = 0.28494 0.23587
#
# Static dielectric constant tensor:
#      x y z
#    x 4.216680 0.000000 -0.412740 
#    y 0.000000 4.026030 0.000000 
#    z -0.412740 0.000000 1.385650 
# 
# 
# High freq. dielectric constant tensor:
#      x y z
#    x 1.924800 0.000000 0.002000 
#    y 0.000000 1.920050 0.000000 
#    z 0.002000 0.000000 1.935520 
# 
# From -- ./inp_files/56696.got.cif
#   From: 2010.06.25/outbox.cif.g09.slc.cpg/sg13_29_cif.got.tgz:56696.got - 2010.06.28 04:50:58.
