data_PCOD8120109
_publ_section_title
;
Structure prediction by ZEFSAII (Michael W. Deem and Ramdas Pophale) SiO2 
 PCOD8120109
Probable space group: P 2/C
;
_chemical_formula_sum "Si O2"
_cell_formula_units_Z 26
_cell_length_a 10.758470
_cell_length_b 7.569167
_cell_length_c 18.219686
_cell_angle_alpha 90.000000
_cell_angle_beta 122.738162
_cell_angle_gamma 90.000000
_cell_volume 1247.996403
_symmetry_space_group_name_H-M "P 2/C"
_symmetry_group_IT_number 13
_symmetry_cell_setting 'monoclinic'
loop_
_space_group_symop_operation_xyz
x,y,z
-x,y,1/2-z
-x,-y,-z
x,-y,1/2+z
loop_
_atom_site_type_symbol
_atom_site_label
_atom_site_fract_x
_atom_site_fract_y
_atom_site_fract_z
Si Si1 0.185530 0.328987 0.085734
Si Si2 0.534385 0.348083 0.412214
Si Si3 0.271787 0.956093 0.141943
Si Si4 0.000000 0.655700 0.250000
Si Si5 0.560936 0.025195 0.652491
Si Si6 0.941624 0.337772 0.891325
Si Si7 0.323782 0.634902 0.386717
O O1 0.360106 0.353986 0.125218
O O2 0.131732 0.465187 0.131850
O O3 0.165656 0.127198 0.104274
O O4 0.096620 0.355433 0.981798
O O5 0.422379 0.509721 0.367259
O O6 0.634973 0.379413 0.515485
O O7 0.437184 0.168319 0.384681
O O8 0.354664 0.970369 0.244625
O O9 0.387450 0.934707 0.111730
O O10 0.168451 0.787010 0.099572
O O11 0.961132 0.748893 0.315745
O O12 0.844641 0.562465 0.179116
O O13 0.644592 0.162584 0.626283
#
# Coordination Sequence:
#
# PCOD8120109 Si02
#       7
#     4   4   4   2   4   4   4
#     4  10  22  40  64  89 119 160 204 248 300 360
#     4  10  22  40  64  89 119 160 204 248 300 360
#     4  10  21  37  60  89 117 153 203 252 297 353
#     4  12  24  40  64  88 126 158 200 250 302 368
#     4  10  21  37  60  89 117 153 203 252 297 353
#     4  11  22  41  61  87 125 161 196 249 307 356
#     4  11  22  41  61  87 125 161 196 249 307 356
#
# _framework density 20.833393000000001
#
# number of rings (size 3 to 8) (size 9 to 14) (size 15 to 20)
#    0.000    1.538    3.077    1.846    2.154    0.000 
#    0.000    3.077    0.000    0.000    0.000    0.000 
#    0.000    0.000    0.000    0.000    0.000    0.000 
#
# Total GULP energy -322104.104009 kJ/mol
# GULP energy per Si atom -12388.619385 kJ/mol
# Density = 2.078598 g / cm^3
# Si number density = 20.833393 Si / 1000 Ang^3
#
#
#
# Elastic Constant Matrix: (Units=GPa)
#
#
# Indices 1 2 3 4 5 6 
#
# 1 75.8867 32.7818 10.5438 0.0000 13.4598 0.0000
# 2 32.7818 95.9437 15.9459 0.0000 12.9264 0.0000
# 3 10.5438 15.9459 21.3147 0.0000 12.4823 0.0000
# 4 0.0000 0.0000 0.0000 17.6613 0.0000 2.0137
# 5 13.4598 12.9264 12.4823 0.0000 33.7638 0.0000
# 6 0.0000 0.0000 0.0000 2.0137 0.0000 4.5800
#
#
#
# Elastic Compliance Matrix: (Units=1/GPa)
#
#
# Indices 1 2 3 4 5 6 
#
# 1 0.016175 -0.004629 -0.002297 0.000000 -0.003827 0.000000
# 2 -0.004629 0.013297 -0.007348 0.000000 -0.000529 0.000000
# 3 -0.002297 -0.007348 0.065559 0.000000 -0.020508 0.000000
# 4 0.000000 0.000000 0.000000 0.059609 0.000000 -0.026209
# 5 -0.003827 -0.000529 -0.020508 0.000000 0.038927 0.000000
# 6 0.000000 0.000000 0.000000 -0.026209 0.000000 0.229864
#
#
# Mechanical properties :
#
#
# Convention : Reuss Voigt Hill
#
# Bulk Modulus (GPa) = 15.04157 34.63201 24.83679
# Shear Modulus (GPa) = 10.54536 20.12591 15.33564
#
# Velocity S-wave (km/s) = 2.25228 3.11149 2.71608
# Velocity P-wave (km/s) = 3.74156 5.43764 4.66729
#
# Compressibility (1/GPa) = 0.06648242
#
# Stress axis : x y z
#
# Youngs Moduli (GPa) = 61.82289 75.20483 15.25332
#
# Poissons Ratio (x) = 0.34815 0.03504
# Poissons Ratio (y) = 0.28620 0.11208
# Poissons Ratio (z) = 0.14202 0.55261
#
# Static dielectric constant tensor:
#      x y z
#    x 4.011830 0.000000 0.125370 
#    y 0.000000 3.717530 0.000000 
#    z 0.125370 0.000000 3.749750 
# 
# 
# High freq. dielectric constant tensor:
#      x y z
#    x 1.819340 0.000000 0.011590 
#    y 0.000000 1.797590 0.000000 
#    z 0.011590 0.000000 1.819330 
# 
# From -- ./inp_files/77594.got.cif
#   From: 2010.06.25/outbox.cif.g09.slc.cpg/sg13_39_cif.got.tgz:77594.got - 2010.06.28 04:50:58.
