data_PCOD8120454
_publ_section_title
;
Structure prediction by ZEFSAII (Michael W. Deem and Ramdas Pophale) SiO2 
 PCOD8120454
Probable space group: P 2/C
;
_chemical_formula_sum "Si O2"
_cell_formula_units_Z 26
_cell_length_a 8.259234
_cell_length_b 9.211283
_cell_length_c 26.360515
_cell_angle_alpha 90.000000
_cell_angle_beta 40.595542
_cell_angle_gamma 90.000000
_cell_volume 1304.982529
_symmetry_space_group_name_H-M "P 2/C"
_symmetry_group_IT_number 13
_symmetry_cell_setting 'monoclinic'
loop_
_space_group_symop_operation_xyz
x,y,z
-x,y,1/2-z
-x,-y,-z
x,-y,1/2+z
loop_
_atom_site_type_symbol
_atom_site_label
_atom_site_fract_x
_atom_site_fract_y
_atom_site_fract_z
Si Si1 0.694199 0.240692 0.049432
Si Si2 0.777774 0.441259 0.938845
Si Si3 0.773052 0.708791 0.337985
Si Si4 0.598868 0.939208 0.028539
Si Si5 0.290051 0.427588 0.196439
Si Si6 0.965327 0.726148 0.583680
Si Si7 0.500000 0.673936 0.750000
O O1 0.672812 0.067164 0.049198
O O2 0.431438 0.305053 0.130448
O O3 0.912426 0.280135 0.036566
O O4 0.779045 0.305933 0.976166
O O5 0.879660 0.377626 0.861640
O O6 0.956975 0.567391 0.915808
O O7 0.500000 0.500000 0.000000
O O8 0.619394 0.588243 0.342381
O O9 0.000000 0.770032 0.250000
O O10 0.598059 0.840575 0.394983
O O11 0.500000 0.000000 0.000000
O O12 0.830148 0.845558 0.954441
O O13 0.359402 0.418806 0.239534
O O14 0.000000 0.409393 0.250000
O O15 0.712368 0.772831 0.673311
#
# Coordination Sequence:
#
# PCOD8120454 Si02
#       7
#     4   4   4   4   4   4   2
#     4  11  23  39  62  97 124 181 217 271 337 394
#     4  12  20  40  69  95 122 171 227 272 330 396
#     4  11  23  40  65 101 129 169 226 283 335 391
#     4  12  24  42  66  90 135 179 225 266 332 415
#     4  10  21  39  67  94 136 169 224 279 336 395
#     4  11  23  42  64  94 137 166 228 277 333 400
#     4  10  24  40  66 104 130 174 220 286 340 386
#
# _framework density 19.923636999999999
#
# number of rings (size 3 to 8) (size 9 to 14) (size 15 to 20)
#    0.000    0.923    4.615    2.769    2.154    1.846 
#    2.769    0.000    0.000    0.923    0.000    0.000 
#    0.000    0.000    0.000    0.000    0.000    0.000 
#
# Total GULP energy -322345.516321 kJ/mol
# GULP energy per Si atom -12397.904474 kJ/mol
# Density = 1.987829 g / cm^3
# Si number density = 19.923637 Si / 1000 Ang^3
#
#
#
# Elastic Constant Matrix: (Units=GPa)
#
#
# Indices 1 2 3 4 5 6 
#
# 1 133.4367 46.7388 59.4628 0.0000 9.6157 0.0000
# 2 46.7388 133.4763 63.0870 0.0000 -4.5967 0.0000
# 3 59.4628 63.0870 131.3030 0.0000 4.1636 0.0000
# 4 0.0000 0.0000 0.0000 15.8524 0.0000 5.3035
# 5 9.6157 -4.5967 4.1636 0.0000 35.2994 0.0000
# 6 0.0000 0.0000 0.0000 5.3035 0.0000 28.9164
#
#
#
# Elastic Compliance Matrix: (Units=1/GPa)
#
#
# Indices 1 2 3 4 5 6 
#
# 1 0.009898 -0.001905 -0.003487 0.000000 -0.002533 0.000000
# 2 -0.001905 0.010178 -0.004101 0.000000 0.002328 0.000000
# 3 -0.003487 -0.004101 0.011194 0.000000 -0.000905 0.000000
# 4 0.000000 0.000000 0.000000 0.067206 0.000000 -0.012326
# 5 -0.002533 0.002328 -0.000905 0.000000 0.029429 0.000000
# 6 0.000000 0.000000 0.000000 -0.012326 0.000000 0.036843
#
#
# Mechanical properties :
#
#
# Convention : Reuss Voigt Hill
#
# Bulk Modulus (GPa) = 81.40873 81.86591 81.63732
# Shear Modulus (GPa) = 26.62012 31.27546 28.94779
#
# Velocity S-wave (km/s) = 3.65925 3.96633 3.81588
# Velocity P-wave (km/s) = 7.66828 7.88383 7.77680
#
# Compressibility (1/GPa) = 0.01228369
#
# Stress axis : x y z
#
# Youngs Moduli (GPa) = 101.03249 98.25494 89.33262
#
# Poissons Ratio (x) = 0.18719 0.31148
# Poissons Ratio (y) = 0.19248 0.36636
# Poissons Ratio (z) = 0.35227 0.40295
#
# Static dielectric constant tensor:
#      x y z
#    x 3.811160 0.000000 0.204920 
#    y 0.000000 3.775500 0.000000 
#    z 0.204920 0.000000 3.591490 
# 
# 
# High freq. dielectric constant tensor:
#      x y z
#    x 1.787920 0.000000 0.011200 
#    y 0.000000 1.764760 0.000000 
#    z 0.011200 0.000000 1.790080 
# 
# From -- ./inp_files/91217.got.cif
#   From: 2010.06.25/outbox.cif.g09.slc.cpg/sg13_46_cif.got.tgz:91217.got - 2010.06.28 04:50:58.
