data_PCOD8120123
_publ_section_title
;
Structure prediction by ZEFSAII (Michael W. Deem and Ramdas Pophale) SiO2 
 PCOD8120123
Probable space group: P 2/C
;
_chemical_formula_sum "Si O2"
_cell_formula_units_Z 20
_cell_length_a 4.999956
_cell_length_b 7.986266
_cell_length_c 22.870652
_cell_angle_alpha 90.000000
_cell_angle_beta 77.372018
_cell_angle_gamma 90.000000
_cell_volume 891.156158
_symmetry_space_group_name_H-M "P 2/C"
_symmetry_group_IT_number 13
_symmetry_cell_setting 'monoclinic'
loop_
_space_group_symop_operation_xyz
x,y,z
-x,y,1/2-z
-x,-y,-z
x,-y,1/2+z
loop_
_atom_site_type_symbol
_atom_site_label
_atom_site_fract_x
_atom_site_fract_y
_atom_site_fract_z
Si Si1 0.554527 0.801358 0.933598
Si Si2 0.000000 0.605100 0.750000
Si Si3 0.578274 0.198643 0.933598
Si Si4 0.500000 0.394902 0.750000
Si Si5 0.123571 0.197870 0.360667
Si Si6 0.155093 0.802129 0.360667
O O1 0.383411 0.737888 0.885511
O O2 0.865420 0.742907 0.911323
O O3 0.563297 0.000001 0.936697
O O4 0.430135 0.728170 0.000000
O O5 0.277629 0.500001 0.722371
O O6 0.099751 0.718103 0.798974
O O7 0.311933 0.257097 0.911323
O O8 0.845565 0.262111 0.885511
O O9 0.697701 0.281899 0.701026
O O10 0.150362 0.999999 0.349641
#
# Coordination Sequence:
#
# PCOD8120123 Si02
#       6
#     4   2   4   2   4   4
#     4   9  17  32  58  91 119 144 186 247 302 347
#     4  12  26  42  60  84 124 166 202 250 304 354
#     4   9  17  32  58  91 119 144 186 247 302 347
#     4  12  26  42  60  84 124 166 202 250 304 354
#     4  10  21  37  61  88 115 153 201 245 289 353
#     4  10  21  37  61  88 115 153 201 245 289 353
#
# _framework density 22.442754999999998
#
# number of rings (size 3 to 8) (size 9 to 14) (size 15 to 20)
#    0.000    2.000    0.000    3.600    0.000   11.200 
#    0.000    0.000    0.000   24.000    0.000    0.000 
#    0.000    0.000    0.000    0.000    0.000    0.000 
#
# Total GULP energy -247839.578912 kJ/mol
# GULP energy per Si atom -12391.978946 kJ/mol
# Density = 2.239167 g / cm^3
# Si number density = 22.442755 Si / 1000 Ang^3
#
#
#
# Elastic Constant Matrix: (Units=GPa)
#
#
# Indices 1 2 3 4 5 6 
#
# 1 160.6399 41.0787 58.2758 0.0000 1.7547 0.0000
# 2 41.0787 48.7728 44.7011 0.0000 -0.1808 0.0000
# 3 58.2758 44.7011 162.1344 0.0000 -1.8256 0.0000
# 4 0.0000 0.0000 0.0000 -41.0732 0.0000 3.2450
# 5 1.7547 -0.1808 -1.8256 0.0000 33.7327 0.0000
# 6 0.0000 0.0000 0.0000 3.2450 0.0000 24.2316
#
#
#
# Elastic Compliance Matrix: (Units=1/GPa)
#
#
# Indices 1 2 3 4 5 6 
#
# 1 0.008171 -0.005602 -0.001398 0.000000 -0.000531 0.000000
# 2 -0.005602 0.031279 -0.006609 0.000000 0.000101 0.000000
# 3 -0.001398 -0.006609 0.008498 0.000000 0.000497 0.000000
# 4 0.000000 0.000000 0.000000 -0.024092 0.000000 0.003226
# 5 -0.000531 0.000101 0.000497 0.000000 0.029700 0.000000
# 6 0.000000 0.000000 0.000000 0.003226 0.000000 0.040836
#
#
# Mechanical properties :
#
#
# Convention : Reuss Voigt Hill
#
# Bulk Modulus (GPa) = 48.24143 73.29536 60.76840
# Shear Modulus (GPa) = 38.90401 18.54432 28.72417
#
# Velocity S-wave (km/s) = 4.16802 2.87765 3.58143
# Velocity P-wave (km/s) = 6.68619 6.61596 6.65117
#
# Compressibility (1/GPa) = 0.02072907
#
# Stress axis : x y z
#
# Youngs Moduli (GPa) = 122.38798 31.96988 117.67418
#
# Poissons Ratio (x) = 0.17910 0.16453
# Poissons Ratio (y) = 0.68565 0.77772
# Poissons Ratio (z) = 0.17112 0.21129
#
# Static dielectric constant tensor:
#      x y z
#    x 4.577790 0.000000 0.028390 
#    y 0.000000 3.822920 0.000000 
#    z 0.028390 0.000000 4.006950 
# 
# 
# High freq. dielectric constant tensor:
#      x y z
#    x 1.908070 0.000000 0.001040 
#    y 0.000000 1.847540 0.000000 
#    z 0.001040 0.000000 1.887100 
# 
# From -- ./inp_files/73038.got.cif
#   From: 2010.06.25/outbox.cif.g09.slc.cpg/sg13_37_cif.got.tgz:73038.got - 2010.06.28 04:50:58.
