data_PCOD8120449
_publ_section_title
;
Structure prediction by ZEFSAII (Michael W. Deem and Ramdas Pophale) SiO2 
 PCOD8120449
Probable space group: P 2/C
;
_chemical_formula_sum "Si O2"
_cell_formula_units_Z 20
_cell_length_a 20.777721
_cell_length_b 7.570682
_cell_length_c 9.049617
_cell_angle_alpha 90.000000
_cell_angle_beta 39.946932
_cell_angle_gamma 90.000000
_cell_volume 914.009645
_symmetry_space_group_name_H-M "P 2/C"
_symmetry_group_IT_number 13
_symmetry_cell_setting 'monoclinic'
loop_
_space_group_symop_operation_xyz
x,y,z
-x,y,1/2-z
-x,-y,-z
x,-y,1/2+z
loop_
_atom_site_type_symbol
_atom_site_label
_atom_site_fract_x
_atom_site_fract_y
_atom_site_fract_z
Si Si1 0.712229 0.847586 0.084937
Si Si2 0.426125 0.467516 0.760685
Si Si3 0.882894 0.668597 0.299091
Si Si4 0.697297 0.186326 0.955871
Si Si5 0.106605 0.699726 0.879869
O O1 0.662068 0.664556 0.124757
O O2 0.716548 0.863891 0.252785
O O3 0.652680 0.014562 0.119739
O O4 0.824493 0.848634 0.818106
O O5 0.500000 0.381690 0.750000
O O6 0.500000 0.500000 0.500000
O O7 0.379324 0.651892 0.898471
O O8 0.802014 0.777742 0.351451
O O9 0.854240 0.660770 0.522989
O O10 0.884402 0.470747 0.238470
O O11 0.990976 0.761747 0.086383
#
# Coordination Sequence:
#
# PCOD8120449 Si02
#       5
#     4   4   4   4   4
#     4  12  27  45  72 104 140 179 228 284 340 411
#     4  12  28  50  73  99 134 178 228 286 347 406
#     4  10  21  39  67 101 140 183 228 272 337 402
#     4  12  27  45  72 105 138 181 228 282 343 408
#     4  10  21  39  67 101 140 184 225 277 331 406
#
# _framework density 21.881605
#
# number of rings (size 3 to 8) (size 9 to 14) (size 15 to 20)
#    0.000    0.800    4.000    2.400    5.600    4.800 
#    0.000    0.000    0.000    0.000    0.000    0.000 
#    0.000    0.000    0.000    0.000    0.000    0.000 
#
# Total GULP energy -248007.037787 kJ/mol
# GULP energy per Si atom -12400.351889 kJ/mol
# Density = 2.183180 g / cm^3
# Si number density = 21.881605 Si / 1000 Ang^3
#
#
#
# Elastic Constant Matrix: (Units=GPa)
#
#
# Indices 1 2 3 4 5 6 
#
# 1 143.0969 21.5747 54.2285 0.0000 25.7323 0.0000
# 2 21.5747 78.0339 22.8443 0.0000 4.9330 0.0000
# 3 54.2285 22.8443 113.0877 0.0000 20.4242 0.0000
# 4 0.0000 0.0000 0.0000 19.1359 0.0000 11.0986
# 5 25.7323 4.9330 20.4242 0.0000 46.0720 0.0000
# 6 0.0000 0.0000 0.0000 11.0986 0.0000 27.6875
#
#
#
# Elastic Compliance Matrix: (Units=1/GPa)
#
#
# Indices 1 2 3 4 5 6 
#
# 1 0.009120 -0.001282 -0.003499 0.000000 -0.003405 0.000000
# 2 -0.001282 0.013803 -0.002213 0.000000 0.000219 0.000000
# 3 -0.003499 -0.002213 0.011492 0.000000 -0.002903 0.000000
# 4 0.000000 0.000000 0.000000 0.068088 0.000000 -0.027293
# 5 -0.003405 0.000219 -0.002903 0.000000 0.024871 0.000000
# 6 0.000000 0.000000 0.000000 -0.027293 0.000000 0.047058
#
#
# Mechanical properties :
#
#
# Convention : Reuss Voigt Hill
#
# Bulk Modulus (GPa) = 48.95555 59.05706 54.00630
# Shear Modulus (GPa) = 25.61087 34.28380 29.94733
#
# Velocity S-wave (km/s) = 3.42487 3.96256 3.70348
# Velocity P-wave (km/s) = 6.16937 6.92703 6.55915
#
# Compressibility (1/GPa) = 0.02042669
#
# Stress axis : x y z
#
# Youngs Moduli (GPa) = 109.64930 72.44579 87.01602
#
# Poissons Ratio (x) = 0.09286 0.30450
# Poissons Ratio (y) = 0.14055 0.19259
# Poissons Ratio (z) = 0.38370 0.16034
#
# Static dielectric constant tensor:
#      x y z
#    x 4.092720 0.000000 0.028750 
#    y 0.000000 3.943070 0.000000 
#    z 0.028750 0.000000 4.100120 
# 
# 
# High freq. dielectric constant tensor:
#      x y z
#    x 1.875240 0.000000 0.008870 
#    y 0.000000 1.853540 0.000000 
#    z 0.008870 0.000000 1.871380 
# 
# From -- ./inp_files/22646.got.cif
#   From: 2010.06.25/outbox.cif.g09.slc.cpg/sg13_12_cif.got.tgz:22646.got - 2010.06.28 04:50:58.
