data_PCOD8120018
_publ_section_title
;
Structure prediction by ZEFSAII (Michael W. Deem and Ramdas Pophale) SiO2 
 PCOD8120018
Probable space group: P 2/C
;
_chemical_formula_sum "Si O2"
_cell_formula_units_Z 30
_cell_length_a 11.496787
_cell_length_b 13.202093
_cell_length_c 16.280715
_cell_angle_alpha 90.000000
_cell_angle_beta 37.408841
_cell_angle_gamma 90.000000
_cell_volume 1501.197718
_symmetry_space_group_name_H-M "P 2/C"
_symmetry_group_IT_number 13
_symmetry_cell_setting 'monoclinic'
loop_
_space_group_symop_operation_xyz
x,y,z
-x,y,1/2-z
-x,-y,-z
x,-y,1/2+z
loop_
_atom_site_type_symbol
_atom_site_label
_atom_site_fract_x
_atom_site_fract_y
_atom_site_fract_z
Si Si1 0.500000 0.729779 0.250000
Si Si2 0.430512 0.562973 0.962156
Si Si3 0.907986 0.416059 0.950247
Si Si4 0.666801 0.074773 0.220446
Si Si5 0.334800 0.141837 0.703445
Si Si6 0.280092 0.450749 0.810621
Si Si7 0.098501 0.809608 0.037155
Si Si8 0.429306 0.800156 0.972551
O O1 0.510817 0.802651 0.323429
O O2 0.677839 0.653244 0.162745
O O3 0.535223 0.513133 0.823953
O O4 0.473424 0.680651 0.953516
O O5 0.500000 0.500000 0.000000
O O6 0.202009 0.553779 0.072504
O O7 0.843945 0.304905 0.016201
O O8 0.139513 0.425564 0.811347
O O9 0.841976 0.484687 0.060322
O O10 0.500000 0.053834 0.250000
O O11 0.606454 0.157610 0.321102
O O12 0.710515 0.971819 0.243385
O O13 0.852537 0.116592 0.067017
O O14 0.432734 0.148443 0.559911
O O15 0.125884 0.192177 0.816511
O O16 0.228008 0.835041 0.044436
#
# Coordination Sequence:
#
# PCOD8120018 Si02
#       8
#     2   4   4   4   4   4   4   4
#     4  12  22  36  62  86 126 158 208 250 310 366
#     4  11  22  37  59  89 122 155 199 248 302 363
#     4  10  21  36  61  84 115 159 197 245 295 356
#     4  10  21  40  62  91 117 162 204 251 309 370
#     4  12  22  39  61  91 121 159 203 260 308 364
#     4  11  21  38  57  85 118 159 201 242 297 366
#     4  10  21  38  63  90 116 153 211 252 298 367
#     4  10  23  39  62  87 126 156 200 255 312 366
#
# _framework density 19.984044000000001
#
# number of rings (size 3 to 8) (size 9 to 14) (size 15 to 20)
#    0.000    1.333    3.333    2.800    0.000    2.667 
#    0.000    0.000    0.000    0.000    0.000    0.000 
#    0.000    0.000    0.000    0.000    0.000    0.000 
#
# Total GULP energy -371673.470023 kJ/mol
# GULP energy per Si atom -12389.115667 kJ/mol
# Density = 1.993856 g / cm^3
# Si number density = 19.984044 Si / 1000 Ang^3
#
#
#
# Elastic Constant Matrix: (Units=GPa)
#
#
# Indices 1 2 3 4 5 6 
#
# 1 127.6347 47.5247 34.5246 0.0000 -0.8093 0.0000
# 2 47.5247 107.5287 15.5378 0.0000 9.2945 0.0000
# 3 34.5246 15.5378 53.7269 0.0000 2.9920 0.0000
# 4 0.0000 0.0000 0.0000 25.5279 0.0000 1.6412
# 5 -0.8093 9.2945 2.9920 0.0000 33.4194 0.0000
# 6 0.0000 0.0000 0.0000 1.6412 0.0000 29.1216
#
#
#
# Elastic Compliance Matrix: (Units=1/GPa)
#
#
# Indices 1 2 3 4 5 6 
#
# 1 0.011021 -0.004176 -0.005984 0.000000 0.001964 0.000000
# 2 -0.004176 0.011493 -0.000459 0.000000 -0.003257 0.000000
# 3 -0.005984 -0.000459 0.022705 0.000000 -0.002050 0.000000
# 4 0.000000 0.000000 0.000000 0.039315 0.000000 -0.002216
# 5 0.001964 -0.003257 -0.002050 0.000000 0.031059 0.000000
# 6 0.000000 0.000000 0.000000 -0.002216 0.000000 0.034464
#
#
# Mechanical properties :
#
#
# Convention : Reuss Voigt Hill
#
# Bulk Modulus (GPa) = 41.69890 53.78495 47.74193
# Shear Modulus (GPa) = 27.88807 30.36732 29.12770
#
# Velocity S-wave (km/s) = 3.73971 3.90241 3.82193
# Velocity P-wave (km/s) = 6.28957 6.87586 6.58924
#
# Compressibility (1/GPa) = 0.02398145
#
# Stress axis : x y z
#
# Youngs Moduli (GPa) = 90.73778 87.00694 44.04406
#
# Poissons Ratio (x) = 0.36334 0.26354
# Poissons Ratio (y) = 0.37892 0.02022
# Poissons Ratio (z) = 0.54293 0.03994
#
# Static dielectric constant tensor:
#      x y z
#    x 3.978030 0.000000 -0.154620 
#    y 0.000000 3.812800 0.000000 
#    z -0.154620 0.000000 3.069840 
# 
# 
# High freq. dielectric constant tensor:
#      x y z
#    x 1.792060 0.000000 -0.004120 
#    y 0.000000 1.791530 0.000000 
#    z -0.004120 0.000000 1.754740 
# 
# From -- ./inp_files/66648.got.cif
#   From: 2010.06.25/outbox.cif.g09.slc.cpg/sg13_34_cif.got.tgz:66648.got - 2010.06.28 04:50:58.
