data_PCOD8120552
_publ_section_title
;
Structure prediction by ZEFSAII (Michael W. Deem and Ramdas Pophale) SiO2 
 PCOD8120552
Probable space group: P 2/C
;
_chemical_formula_sum "Si O2"
_cell_formula_units_Z 32
_cell_length_a 12.920390
_cell_length_b 14.965147
_cell_length_c 17.887528
_cell_angle_alpha 90.000000
_cell_angle_beta 27.518930
_cell_angle_gamma 90.000000
_cell_volume 1598.041529
_symmetry_space_group_name_H-M "P 2/C"
_symmetry_group_IT_number 13
_symmetry_cell_setting 'monoclinic'
loop_
_space_group_symop_operation_xyz
x,y,z
-x,y,1/2-z
-x,-y,-z
x,-y,1/2+z
loop_
_atom_site_type_symbol
_atom_site_label
_atom_site_fract_x
_atom_site_fract_y
_atom_site_fract_z
Si Si1 0.451350 0.844449 0.614065
Si Si2 0.954016 0.060405 0.097318
Si Si3 0.850209 0.091591 0.776080
Si Si4 0.861118 0.719061 0.198116
Si Si5 0.507554 0.601367 0.519017
Si Si6 0.104515 0.284228 0.261511
Si Si7 0.763334 0.236230 0.594646
Si Si8 0.639434 0.315940 0.084434
O O1 0.289945 0.902240 0.769639
O O2 0.596871 0.911141 0.469711
O O3 0.277075 0.793827 0.671968
O O4 0.596967 0.780370 0.573669
O O5 0.932896 0.001027 0.186327
O O6 0.145187 0.135862 0.978675
O O7 0.000000 0.000000 0.000000
O O8 0.864688 0.175573 0.711652
O O9 0.000000 0.114709 0.750000
O O10 0.674486 0.665089 0.364521
O O11 0.811492 0.716113 0.142334
O O12 0.099529 0.674161 0.063666
O O13 0.500000 0.500000 0.500000
O O14 0.250015 0.626215 0.667937
O O15 0.568455 0.609940 0.568261
O O16 0.000000 0.258847 0.250000
O O17 0.897249 0.298168 0.450751
O O18 0.500000 0.235971 0.750000
O O19 0.500000 0.328461 0.250000
#
# Coordination Sequence:
#
# PCOD8120552 Si02
#       8
#     4   4   4   4   4   4   4   4
#     4  10  22  39  60  90 125 169 217 267 323 382
#     4  11  24  38  57  90 131 169 223 273 324 376
#     4  12  22  39  63  93 125 170 224 273 333 388
#     4  12  21  44  69  94 131 171 220 267 333 405
#     4  11  24  43  69 102 132 165 211 274 335 403
#     4  10  21  40  65  90 124 170 218 261 325 401
#     4  11  25  43  64  92 132 182 224 274 331 390
#     4  11  22  41  71  99 133 172 217 268 328 395
#
# _framework density 20.024511
#
# number of rings (size 3 to 8) (size 9 to 14) (size 15 to 20)
#    0.000    1.000    5.000    3.750    0.000    4.000 
#    0.000    4.375    0.000    0.000    0.000    0.000 
#    0.000    0.000    0.000    0.000    0.000    0.000 
#
# Total GULP energy -396569.123772 kJ/mol
# GULP energy per Si atom -12392.785118 kJ/mol
# Density = 1.997893 g / cm^3
# Si number density = 20.024511 Si / 1000 Ang^3
#
#
#
# Elastic Constant Matrix: (Units=GPa)
#
#
# Indices 1 2 3 4 5 6 
#
# 1 135.2297 28.6321 70.4191 0.0000 10.9291 0.0000
# 2 28.6321 92.2714 48.5910 0.0000 7.4004 0.0000
# 3 70.4191 48.5910 170.2702 0.0000 -2.9331 0.0000
# 4 0.0000 0.0000 0.0000 26.2320 0.0000 6.9185
# 5 10.9291 7.4004 -2.9331 0.0000 38.8052 0.0000
# 6 0.0000 0.0000 0.0000 6.9185 0.0000 14.4477
#
#
#
# Elastic Compliance Matrix: (Units=1/GPa)
#
#
# Indices 1 2 3 4 5 6 
#
# 1 0.009819 -0.000763 -0.003894 0.000000 -0.002914 0.000000
# 2 -0.000763 0.013105 -0.003468 0.000000 -0.002546 0.000000
# 3 -0.003894 -0.003468 0.008514 0.000000 0.002402 0.000000
# 4 0.000000 0.000000 0.000000 0.043632 0.000000 -0.020894
# 5 -0.002914 -0.002546 0.002402 0.000000 0.027258 0.000000
# 6 0.000000 0.000000 0.000000 -0.020894 0.000000 0.079221
#
#
# Mechanical properties :
#
#
# Convention : Reuss Voigt Hill
#
# Bulk Modulus (GPa) = 65.83493 77.00618 71.42055
# Shear Modulus (GPa) = 24.64736 32.57224 28.60980
#
# Velocity S-wave (km/s) = 3.51217 4.03751 3.78397
# Velocity P-wave (km/s) = 7.02820 7.76368 7.40508
#
# Compressibility (1/GPa) = 0.01518951
#
# Stress axis : x y z
#
# Youngs Moduli (GPa) = 101.83938 76.30714 117.44842
#
# Poissons Ratio (x) = 0.05821 0.45729
# Poissons Ratio (y) = 0.07769 0.40733
# Poissons Ratio (z) = 0.39651 0.26465
#
# Static dielectric constant tensor:
#      x y z
#    x 3.421860 0.000000 -0.035380 
#    y 0.000000 1.527030 0.000000 
#    z -0.035380 0.000000 4.342190 
# 
# 
# High freq. dielectric constant tensor:
#      x y z
#    x 1.785000 0.000000 0.002340 
#    y 0.000000 1.757920 0.000000 
#    z 0.002340 0.000000 1.809260 
# 
# From -- ./inp_files/66922.got.cif
#   From: 2010.06.25/outbox.cif.g09.slc.cpg/sg13_34_cif.got.tgz:66922.got - 2010.06.28 04:50:58.
