data_PCOD8120197
_publ_section_title
;
Structure prediction by ZEFSAII (Michael W. Deem and Ramdas Pophale) SiO2 
 PCOD8120197
Probable space group: P 2/C
;
_chemical_formula_sum "Si O2"
_cell_formula_units_Z 32
_cell_length_a 8.959991
_cell_length_b 14.276166
_cell_length_c 14.152021
_cell_angle_alpha 90.000000
_cell_angle_beta 121.005745
_cell_angle_gamma 90.000000
_cell_volume 1551.590293
_symmetry_space_group_name_H-M "P 2/C"
_symmetry_group_IT_number 13
_symmetry_cell_setting 'monoclinic'
loop_
_space_group_symop_operation_xyz
x,y,z
-x,y,1/2-z
-x,-y,-z
x,-y,1/2+z
loop_
_atom_site_type_symbol
_atom_site_label
_atom_site_fract_x
_atom_site_fract_y
_atom_site_fract_z
Si Si1 0.703042 0.347944 0.499509
Si Si2 0.310653 0.587772 0.701586
Si Si3 0.903654 0.183079 0.633294
Si Si4 0.364800 0.869142 0.986202
Si Si5 0.866674 0.074155 0.917245
Si Si6 0.697356 0.962574 0.166889
Si Si7 0.047555 0.486846 0.373141
Si Si8 0.327568 0.344451 0.414933
O O1 0.678702 0.336713 0.379089
O O2 0.739695 0.243611 0.547540
O O3 0.862689 0.416879 0.568976
O O4 0.525509 0.383649 0.493048
O O5 0.500000 0.532903 0.750000
O O6 0.280822 0.642382 0.789355
O O7 0.135677 0.523913 0.628626
O O8 0.855320 0.079972 0.657469
O O9 0.000000 0.238671 0.750000
O O10 0.034907 0.166043 0.589779
O O11 0.327626 0.764144 0.940674
O O12 0.348679 0.934659 0.887673
O O13 0.228936 0.892860 0.021594
O O14 0.546999 0.886384 0.097905
O O15 0.741364 0.031893 0.793370
O O16 0.000000 0.000000 0.000000
O O17 0.187416 0.401435 0.432810
O O18 0.000000 0.495923 0.250000
#
# Coordination Sequence:
#
# PCOD8120197 Si02
#       8
#     4   4   4   4   4   4   4   4
#     4  11  20  38  63  85 121 166 205 249 319 372
#     4   9  21  39  59  88 126 156 205 264 301 372
#     4  10  21  38  58  86 121 157 204 253 304 374
#     4  11  22  41  64  88 125 168 206 258 321 371
#     4  11  23  39  61  92 124 162 210 261 315 378
#     4  10  22  42  62  87 127 164 206 258 311 381
#     4  10  21  39  61  89 122 162 204 258 314 375
#     4  10  22  39  60  93 122 160 207 263 312 369
#
# _framework density 20.624001
#
# number of rings (size 3 to 8) (size 9 to 14) (size 15 to 20)
#    0.000    1.750    2.500    1.500    1.750    1.000 
#    4.500    1.250    0.000    0.000    0.000    0.000 
#    0.000    0.000    0.000    0.000    0.000    0.000 
#
# Total GULP energy -396423.505322 kJ/mol
# GULP energy per Si atom -12388.234541 kJ/mol
# Density = 2.057706 g / cm^3
# Si number density = 20.624001 Si / 1000 Ang^3
#
#
#
# Elastic Constant Matrix: (Units=GPa)
#
#
# Indices 1 2 3 4 5 6 
#
# 1 127.3273 25.9776 28.2285 0.0000 14.2523 0.0000
# 2 25.9776 79.5773 29.1161 0.0000 7.3881 0.0000
# 3 28.2285 29.1161 74.7769 0.0000 20.8408 0.0000
# 4 0.0000 0.0000 0.0000 21.4899 0.0000 11.7970
# 5 14.2523 7.3881 20.8408 0.0000 30.8116 0.0000
# 6 0.0000 0.0000 0.0000 11.7970 0.0000 23.9489
#
#
#
# Elastic Compliance Matrix: (Units=1/GPa)
#
#
# Indices 1 2 3 4 5 6 
#
# 1 0.008955 -0.001992 -0.001952 0.000000 -0.002345 0.000000
# 2 -0.001992 0.015102 -0.005392 0.000000 0.000948 0.000000
# 3 -0.001952 -0.005392 0.019221 0.000000 -0.010805 0.000000
# 4 0.000000 0.000000 0.000000 0.063780 0.000000 -0.031418
# 5 -0.002345 0.000948 -0.010805 0.000000 0.040621 0.000000
# 6 0.000000 0.000000 0.000000 -0.031418 0.000000 0.057231
#
#
# Mechanical properties :
#
#
# Convention : Reuss Voigt Hill
#
# Bulk Modulus (GPa) = 40.63968 49.81398 45.22683
# Shear Modulus (GPa) = 21.57176 28.47404 25.02290
#
# Velocity S-wave (km/s) = 3.23763 3.71971 3.48701
# Velocity P-wave (km/s) = 5.80725 6.53101 6.17974
#
# Compressibility (1/GPa) = 0.02460649
#
# Stress axis : x y z
#
# Youngs Moduli (GPa) = 111.66636 66.21826 52.02640
#
# Poissons Ratio (x) = 0.13188 0.10154
# Poissons Ratio (y) = 0.22240 0.28055
# Poissons Ratio (z) = 0.21794 0.35707
#
# Static dielectric constant tensor:
#      x y z
#    x 3.685230 0.000000 0.371710 
#    y 0.000000 0.645190 0.000000 
#    z 0.371710 0.000000 4.035110 
# 
# 
# High freq. dielectric constant tensor:
#      x y z
#    x 1.825640 0.000000 0.010600 
#    y 0.000000 1.773920 0.000000 
#    z 0.010600 0.000000 1.820710 
# 
# From -- ./inp_files/47695.got.cif
#   From: 2010.06.25/outbox.cif.g09.slc.cpg/sg13_24_cif.got.tgz:47695.got - 2010.06.28 04:50:58.
