data_PCOD8120993
_publ_section_title
;
Structure prediction by ZEFSAII (Michael W. Deem and Ramdas Pophale) SiO2 
 PCOD8120993
Probable space group: P 2/C
;
_chemical_formula_sum "Si O2"
_cell_formula_units_Z 28
_cell_length_a 8.609938
_cell_length_b 6.125454
_cell_length_c 29.097234
_cell_angle_alpha 90.000000
_cell_angle_beta 123.433037
_cell_angle_gamma 90.000000
_cell_volume 1280.654945
_symmetry_space_group_name_H-M "P 2/C"
_symmetry_group_IT_number 13
_symmetry_cell_setting 'monoclinic'
loop_
_space_group_symop_operation_xyz
x,y,z
-x,y,1/2-z
-x,-y,-z
x,-y,1/2+z
loop_
_atom_site_type_symbol
_atom_site_label
_atom_site_fract_x
_atom_site_fract_y
_atom_site_fract_z
Si Si1 0.323671 0.282787 0.289000
Si Si2 0.000000 0.591533 0.250000
Si Si3 0.174027 0.146674 0.510240
Si Si4 0.500000 0.602391 0.250000
Si Si5 0.320971 0.428464 0.999469
Si Si6 0.495997 0.081259 0.404699
Si Si7 0.159063 0.099334 0.700785
Si Si8 0.172219 0.927782 0.416067
O O1 0.464931 0.446570 0.287413
O O2 0.439417 0.145300 0.344291
O O3 0.172443 0.433710 0.289879
O O4 0.225683 0.118722 0.237326
O O5 0.967360 0.746127 0.288048
O O6 0.179818 0.408926 0.504418
O O7 0.346232 0.104523 0.572653
O O8 0.219875 0.088119 0.465246
O O9 0.000000 0.000000 0.500000
O O10 0.670397 0.759611 0.290239
O O11 0.188707 0.314096 0.940030
O O12 0.500000 0.500000 0.000000
O O13 0.404209 0.275378 0.052299
O O14 0.317630 0.977763 0.399778
O O15 0.034767 0.031117 0.636981
#
# Coordination Sequence:
#
# PCOD8120993 Si02
#       8
#     4   2   4   2   4   4   4   4
#     4  11  24  42  66  94 134 170 223 278 335 401
#     4  10  22  38  60  98 120 166 218 270 328 398
#     4  11  25  41  63  97 133 173 223 276 339 404
#     4  10  26  46  64  94 136 182 222 266 352 422
#     4  11  21  41  67  92 135 173 221 283 336 402
#     4  11  23  40  67  97 126 173 225 275 337 402
#     4  11  24  42  66  94 134 170 223 278 335 401
#     4  11  23  40  67  97 126 173 225 275 337 402
#
# _framework density 21.863814000000001
#
# number of rings (size 3 to 8) (size 9 to 14) (size 15 to 20)
#    0.000    1.143    2.857    3.429    2.000   11.429 
#    0.000    0.000    0.000    0.000    0.000    0.000 
#    0.000    0.000    0.000    0.000    0.000    0.000 
#
# Total GULP energy -346945.546729 kJ/mol
# GULP energy per Si atom -12390.912383 kJ/mol
# Density = 2.181405 g / cm^3
# Si number density = 21.863814 Si / 1000 Ang^3
#
#
#
# Elastic Constant Matrix: (Units=GPa)
#
#
# Indices 1 2 3 4 5 6 
#
# 1 108.6260 30.6876 12.3705 0.0000 13.4513 0.0000
# 2 30.6876 106.3069 10.9519 0.0000 7.8159 0.0000
# 3 12.3705 10.9519 93.1440 0.0000 24.0939 0.0000
# 4 0.0000 0.0000 0.0000 23.0595 0.0000 12.8194
# 5 13.4513 7.8159 24.0939 0.0000 25.0117 0.0000
# 6 0.0000 0.0000 0.0000 12.8194 0.0000 -28.2609
#
#
#
# Elastic Compliance Matrix: (Units=1/GPa)
#
#
# Indices 1 2 3 4 5 6 
#
# 1 0.010570 -0.002702 0.000221 0.000000 -0.005053 0.000000
# 2 -0.002702 0.010334 -0.000528 0.000000 -0.001267 0.000000
# 3 0.000221 -0.000528 0.014327 0.000000 -0.013755 0.000000
# 4 0.000000 0.000000 0.000000 0.034633 0.000000 0.015710
# 5 -0.005053 -0.001267 -0.013755 0.000000 0.056345 0.000000
# 6 0.000000 0.000000 0.000000 0.015710 0.000000 -0.028259
#
#
# Mechanical properties :
#
#
# Convention : Reuss Voigt Hill
#
# Bulk Modulus (GPa) = 34.23331 46.23297 40.23314
# Shear Modulus (GPa) = 43.97267 20.89988 32.43628
#
# Velocity S-wave (km/s) = 4.48951 3.09514 3.85588
# Velocity P-wave (km/s) = 6.52425 5.82795 6.18590
#
# Compressibility (1/GPa) = 0.02921131
#
# Stress axis : x y z
#
# Youngs Moduli (GPa) = 94.60828 96.76383 69.79886
#
# Poissons Ratio (x) = 0.26150 -0.01543
# Poissons Ratio (y) = 0.25568 0.03689
# Poissons Ratio (z) = -0.02091 0.05114
#
# Static dielectric constant tensor:
#      x y z
#    x 4.234320 0.000000 0.181380 
#    y 0.000000 4.372500 0.000000 
#    z 0.181380 0.000000 3.890350 
# 
# 
# High freq. dielectric constant tensor:
#      x y z
#    x 1.862520 0.000000 0.005840 
#    y 0.000000 1.874060 0.000000 
#    z 0.005840 0.000000 1.855190 
# 
# From -- ./inp_files/95731.got.cif
#   From: 2010.06.25/outbox.cif.g09.slc.cpg/sg13_48_cif.got.tgz:95731.got - 2010.06.28 04:50:58.
