data_PCOD8120399
_publ_section_title
;
Structure prediction by ZEFSAII (Michael W. Deem and Ramdas Pophale) SiO2 
 PCOD8120399
Probable space group: P 2/C
;
_chemical_formula_sum "Si O2"
_cell_formula_units_Z 20
_cell_length_a 8.832828
_cell_length_b 24.112334
_cell_length_c 5.117648
_cell_angle_alpha 90.000000
_cell_angle_beta 56.885615
_cell_angle_gamma 90.000000
_cell_volume 912.928058
_symmetry_space_group_name_H-M "P 2/C"
_symmetry_group_IT_number 13
_symmetry_cell_setting 'monoclinic'
loop_
_space_group_symop_operation_xyz
x,y,z
-x,y,1/2-z
-x,-y,-z
x,-y,1/2+z
loop_
_atom_site_type_symbol
_atom_site_label
_atom_site_fract_x
_atom_site_fract_y
_atom_site_fract_z
Si Si1 0.000000 0.301167 0.250000
Si Si2 0.292085 0.464540 0.458470
Si Si3 0.000000 0.626209 0.250000
Si Si4 0.704726 0.212260 0.503833
Si Si5 0.699086 0.975757 0.358965
Si Si6 0.206631 0.856533 0.083957
O O1 0.946832 0.337501 0.549796
O O2 0.827104 0.265203 0.322811
O O3 0.500000 0.445892 0.250000
O O4 0.245795 0.489430 0.784999
O O5 0.173184 0.410710 0.516053
O O6 0.500000 0.231186 0.750000
O O7 0.786257 0.187269 0.690376
O O8 0.709557 0.168700 0.259990
O O9 0.682342 0.910959 0.440102
O O10 0.500000 0.000000 0.500000
O O11 0.802041 0.010287 0.491155
O O12 0.000000 0.874545 0.250000
#
# Coordination Sequence:
#
# PCOD8120399 Si02
#       6
#     2   4   2   4   4   4
#     4  12  26  47  64 102 134 169 240 308 322 412
#     4  10  21  39  64 101 144 184 233 274 327 415
#     4  12  24  39  72  94 142 185 224 286 364 376
#     4  12  27  46  73  97 128 181 230 285 348 409
#     4  10  23  38  60  96 134 160 204 261 329 418
#     4  12  24  45  72  97 133 172 220 276 344 415
#
# _framework density 21.907529
#
# number of rings (size 3 to 8) (size 9 to 14) (size 15 to 20)
#    0.000    0.800    2.000    4.800    8.400    2.400 
#    0.000    0.000    0.000    0.000    0.000    0.000 
#    0.000    0.000    0.000    0.000    0.000    0.000 
#
# Total GULP energy -248054.279491 kJ/mol
# GULP energy per Si atom -12402.713975 kJ/mol
# Density = 2.185767 g / cm^3
# Si number density = 21.907529 Si / 1000 Ang^3
#
#
#
# Elastic Constant Matrix: (Units=GPa)
#
#
# Indices 1 2 3 4 5 6 
#
# 1 87.0516 51.8993 47.0542 0.0000 9.4734 0.0000
# 2 51.8993 105.1881 33.4246 0.0000 -15.7513 0.0000
# 3 47.0542 33.4246 110.7636 0.0000 15.0705 0.0000
# 4 0.0000 0.0000 0.0000 26.0811 0.0000 10.4557
# 5 9.4734 -15.7513 15.0705 0.0000 46.8370 0.0000
# 6 0.0000 0.0000 0.0000 10.4557 0.0000 28.2154
#
#
#
# Elastic Compliance Matrix: (Units=1/GPa)
#
#
# Indices 1 2 3 4 5 6 
#
# 1 0.020382 -0.009276 -0.005098 0.000000 -0.005602 0.000000
# 2 -0.009276 0.015862 -0.001911 0.000000 0.007826 0.000000
# 3 -0.005098 -0.001911 0.012254 0.000000 -0.003555 0.000000
# 4 0.000000 0.000000 0.000000 0.045032 0.000000 -0.016687
# 5 -0.005602 0.007826 -0.003555 0.000000 0.026259 0.000000
# 6 0.000000 0.000000 0.000000 -0.016687 0.000000 0.041625
#
#
# Mechanical properties :
#
#
# Convention : Reuss Voigt Hill
#
# Bulk Modulus (GPa) = 62.77262 63.08437 62.92850
# Shear Modulus (GPa) = 25.08860 31.60174 28.34517
#
# Velocity S-wave (km/s) = 3.38776 3.80215 3.60092
# Velocity P-wave (km/s) = 6.63462 6.93783 6.78792
#
# Compressibility (1/GPa) = 0.01593051
#
# Stress axis : x y z
#
# Youngs Moduli (GPa) = 49.06170 63.04205 81.60551
#
# Poissons Ratio (x) = 0.58476 0.41599
# Poissons Ratio (y) = 0.45508 0.15595
# Poissons Ratio (z) = 0.25009 0.12047
#
# Static dielectric constant tensor:
#      x y z
#    x 5.047610 0.000000 -1.649580 
#    y 0.000000 3.786360 0.000000 
#    z -1.649580 0.000000 6.055300 
# 
# 
# High freq. dielectric constant tensor:
#      x y z
#    x 1.874140 0.000000 0.013930 
#    y 0.000000 1.852050 0.000000 
#    z 0.013930 0.000000 1.880810 
# 
# From -- ./inp_files/1992.got.cif
#   From: 2010.06.25/outbox.cif.g09.slc.cpg/sg13_1_cif.got.tgz:1992.got - 2010.06.28 04:50:58.
