data_PCOD8120960
_publ_section_title
;
Structure prediction by ZEFSAII (Michael W. Deem and Ramdas Pophale) SiO2 
 PCOD8120960
Probable space group: P 2/C
;
_chemical_formula_sum "Si O2"
_cell_formula_units_Z 32
_cell_length_a 14.009364
_cell_length_b 12.343049
_cell_length_c 16.896225
_cell_angle_alpha 90.000000
_cell_angle_beta 146.458445
_cell_angle_gamma 90.000000
_cell_volume 1614.342069
_symmetry_space_group_name_H-M "P 2/C"
_symmetry_group_IT_number 13
_symmetry_cell_setting 'monoclinic'
loop_
_space_group_symop_operation_xyz
x,y,z
-x,y,1/2-z
-x,-y,-z
x,-y,1/2+z
loop_
_atom_site_type_symbol
_atom_site_label
_atom_site_fract_x
_atom_site_fract_y
_atom_site_fract_z
Si Si1 0.782449 0.012541 0.420553
Si Si2 0.708748 0.332132 0.714081
Si Si3 0.773174 0.321497 0.259942
Si Si4 0.820017 0.500572 0.168742
Si Si5 0.523612 0.514592 0.673109
Si Si6 0.530165 0.830475 0.521997
Si Si7 0.030113 0.817519 0.023004
Si Si8 0.560474 0.998429 0.917863
O O1 0.894974 0.120894 0.486485
O O2 0.896743 0.904261 0.489384
O O3 0.625486 0.012406 0.250764
O O4 0.715301 0.015026 0.463538
O O5 0.824959 0.409749 0.740771
O O6 0.620616 0.401217 0.723408
O O7 0.562335 0.283973 0.556159
O O8 0.813004 0.229029 0.817474
O O9 0.811418 0.384635 0.205371
O O10 0.642015 0.386322 0.225811
O O11 0.701178 0.202421 0.188043
O O12 0.948831 0.290161 0.426906
O O13 0.000000 0.511634 0.250000
O O14 0.660372 0.516341 0.998596
O O15 0.500000 0.527361 0.750000
O O16 0.576025 0.884581 0.469696
O O17 0.414367 0.909014 0.496349
#
# Coordination Sequence:
#
# PCOD8120960 Si02
#       8
#     4   4   4   4   4   4   4   4
#     4  10  22  41  58  95 126 155 206 263 300 358
#     4  11  23  43  64  86 130 166 204 247 309 369
#     4  11  23  43  64  86 130 166 204 247 309 369
#     4  11  25  42  63  95 127 154 206 262 300 362
#     4  11  25  42  65  93 123 162 206 252 306 370
#     4  11  20  41  64  90 116 173 204 243 304 374
#     4  11  24  39  64  92 126 163 204 259 304 356
#     4  10  22  37  66  89 122 163 209 250 306 368
#
# _framework density 19.822317000000002
#
# number of rings (size 3 to 8) (size 9 to 14) (size 15 to 20)
#    0.000    1.250    5.000    0.750    3.500    5.000 
#    0.000    1.250    0.000    0.000    0.000    0.000 
#    0.000    0.000    0.000    0.000    0.000    0.000 
#
# Total GULP energy -396859.632875 kJ/mol
# GULP energy per Si atom -12401.863527 kJ/mol
# Density = 1.977720 g / cm^3
# Si number density = 19.822317 Si / 1000 Ang^3
#
#
#
# Elastic Constant Matrix: (Units=GPa)
#
#
# Indices 1 2 3 4 5 6 
#
# 1 59.4255 -3.2300 10.7959 0.0000 -5.5312 0.0000
# 2 -3.2300 68.4842 11.0767 0.0000 -2.6718 0.0000
# 3 10.7959 11.0767 59.5810 0.0000 0.5522 0.0000
# 4 0.0000 0.0000 0.0000 42.6584 0.0000 1.5005
# 5 -5.5312 -2.6718 0.5522 0.0000 30.8696 0.0000
# 6 0.0000 0.0000 0.0000 1.5005 0.0000 11.5688
#
#
#
# Elastic Compliance Matrix: (Units=1/GPa)
#
#
# Indices 1 2 3 4 5 6 
#
# 1 0.017875 0.001551 -0.003559 0.000000 0.003401 0.000000
# 2 0.001551 0.015246 -0.003131 0.000000 0.001654 0.000000
# 3 -0.003559 -0.003131 0.018022 0.000000 -0.001231 0.000000
# 4 0.000000 0.000000 0.000000 0.023549 0.000000 -0.003054
# 5 0.003401 0.001654 -0.001231 0.000000 0.033169 0.000000
# 6 0.000000 0.000000 0.000000 -0.003054 0.000000 0.086836
#
#
# Mechanical properties :
#
#
# Convention : Reuss Voigt Hill
#
# Bulk Modulus (GPa) = 24.46978 24.97510 24.72244
# Shear Modulus (GPa) = 22.87321 28.27589 25.57455
#
# Velocity S-wave (km/s) = 3.40061 3.78096 3.59582
# Velocity P-wave (km/s) = 5.27165 5.62918 5.45335
#
# Compressibility (1/GPa) = 0.04086673
#
# Stress axis : x y z
#
# Youngs Moduli (GPa) = 55.94340 65.59108 55.48711
#
# Poissons Ratio (x) = -0.10176 0.19747
# Poissons Ratio (y) = -0.08679 0.17372
# Poissons Ratio (z) = 0.19910 0.20535
#
# Static dielectric constant tensor:
#      x y z
#    x 3.526210 0.000000 0.025760 
#    y 0.000000 3.625940 0.000000 
#    z 0.025760 0.000000 3.537160 
# 
# 
# High freq. dielectric constant tensor:
#      x y z
#    x 1.767990 0.000000 -0.001480 
#    y 0.000000 1.785380 0.000000 
#    z -0.001480 0.000000 1.777340 
# 
# From -- ./inp_files/68704.got.cif
#   From: 2010.06.25/outbox.cif.g09.slc.cpg/sg13_35_cif.got.tgz:68704.got - 2010.06.28 04:50:58.
