data_PCOD8120302
_publ_section_title
;
Structure prediction by ZEFSAII (Michael W. Deem and Ramdas Pophale) SiO2 
 PCOD8120302
Probable space group: P 2/C
;
_chemical_formula_sum "Si O2"
_cell_formula_units_Z 32
_cell_length_a 13.523580
_cell_length_b 12.271001
_cell_length_c 17.473179
_cell_angle_alpha 90.000000
_cell_angle_beta 31.625458
_cell_angle_gamma 90.000000
_cell_volume 1520.465979
_symmetry_space_group_name_H-M "P 2/C"
_symmetry_group_IT_number 13
_symmetry_cell_setting 'monoclinic'
loop_
_space_group_symop_operation_xyz
x,y,z
-x,y,1/2-z
-x,-y,-z
x,-y,1/2+z
loop_
_atom_site_type_symbol
_atom_site_label
_atom_site_fract_x
_atom_site_fract_y
_atom_site_fract_z
Si Si1 0.737023 0.582042 0.712690
Si Si2 0.674453 0.154376 0.093587
Si Si3 0.582362 0.815165 0.868027
Si Si4 0.778438 0.992903 0.653094
Si Si5 0.546901 0.597486 0.130968
Si Si6 0.595253 0.803390 0.357741
Si Si7 0.096403 0.490918 0.553725
Si Si8 0.026024 0.728452 0.317160
O O1 0.638396 0.692577 0.806709
O O2 0.586906 0.485448 0.828132
O O3 0.789937 0.574113 0.588048
O O4 0.932390 0.568707 0.629949
O O5 0.500000 0.219294 0.250000
O O6 0.611987 0.145473 0.046191
O O7 0.693587 0.038358 0.125432
O O8 0.871048 0.216319 0.974464
O O9 0.749483 0.894512 0.732062
O O10 0.549726 0.836078 0.979454
O O11 0.669727 0.098855 0.755781
O O12 0.000000 0.000000 0.500000
O O13 0.500000 0.599319 0.250000
O O14 0.519247 0.718656 0.118152
O O15 0.765532 0.561023 0.982554
O O16 0.770352 0.746435 0.282750
O O17 0.004880 0.400230 0.667807
O O18 0.000000 0.779166 0.250000
#
# Coordination Sequence:
#
# PCOD8120302 Si02
#       8
#     4   4   4   4   4   4   4   4
#     4  10  21  40  67  98 132 179 233 281 332 396
#     4  10  21  40  65  95 121 169 226 276 326 394
#     4  11  24  42  68 100 137 171 221 287 343 399
#     4  11  24  42  68  93 127 178 231 280 336 409
#     4  10  23  41  65  98 138 184 226 278 333 410
#     4  12  25  43  67 101 143 175 220 285 357 406
#     4  10  21  38  64  99 138 181 233 274 330 406
#     4  12  22  38  66 102 135 172 221 287 340 400
#
# _framework density 21.04618
#
# number of rings (size 3 to 8) (size 9 to 14) (size 15 to 20)
#    0.000    1.250    3.750    2.625    0.000    6.000 
#    0.000    0.000    0.000    0.000    0.000    0.000 
#    0.000    0.000    0.000    0.000    0.000    0.000 
#
# Total GULP energy -396563.076622 kJ/mol
# GULP energy per Si atom -12392.596144 kJ/mol
# Density = 2.099828 g / cm^3
# Si number density = 21.046180 Si / 1000 Ang^3
#
#
#
# Elastic Constant Matrix: (Units=GPa)
#
#
# Indices 1 2 3 4 5 6 
#
# 1 88.8627 50.8139 37.2932 0.0000 -14.5683 0.0000
# 2 50.8139 138.1902 51.1286 0.0000 6.8023 0.0000
# 3 37.2932 51.1286 90.0852 0.0000 -11.7427 0.0000
# 4 0.0000 0.0000 0.0000 31.0754 0.0000 -6.4037
# 5 -14.5683 6.8023 -11.7427 0.0000 27.0660 0.0000
# 6 0.0000 0.0000 0.0000 -6.4037 0.0000 29.6987
#
#
#
# Elastic Compliance Matrix: (Units=1/GPa)
#
#
# Indices 1 2 3 4 5 6 
#
# 1 0.017274 -0.005884 -0.002551 0.000000 0.009670 0.000000
# 2 -0.005884 0.011801 -0.005365 0.000000 -0.008461 0.000000
# 3 -0.002551 -0.005365 0.016109 0.000000 0.006964 0.000000
# 4 0.000000 0.000000 0.000000 0.033676 0.000000 0.007261
# 5 0.009670 -0.008461 0.006964 0.000000 0.047299 0.000000
# 6 0.000000 0.000000 0.000000 0.007261 0.000000 0.035237
#
#
# Mechanical properties :
#
#
# Convention : Reuss Voigt Hill
#
# Bulk Modulus (GPa) = 56.86769 66.17884 61.52326
# Shear Modulus (GPa) = 25.65964 29.42819 27.54392
#
# Velocity S-wave (km/s) = 3.49550 3.74340 3.62157
# Velocity P-wave (km/s) = 6.58563 7.08498 6.83986
#
# Compressibility (1/GPa) = 0.01758468
#
# Stress axis : x y z
#
# Youngs Moduli (GPa) = 57.89155 84.73576 62.07523
#
# Poissons Ratio (x) = 0.49857 0.15836
# Poissons Ratio (y) = 0.34062 0.33304
# Poissons Ratio (z) = 0.14769 0.45461
#
# Static dielectric constant tensor:
#      x y z
#    x 3.984660 0.000000 -0.158830 
#    y 0.000000 3.722850 0.000000 
#    z -0.158830 0.000000 4.012080 
# 
# 
# High freq. dielectric constant tensor:
#      x y z
#    x 1.822570 0.000000 -0.007800 
#    y 0.000000 1.811170 0.000000 
#    z -0.007800 0.000000 1.831560 
# 
# From -- ./inp_files/68651.got.cif
#   From: 2010.06.25/outbox.cif.g09.slc.cpg/sg13_35_cif.got.tgz:68651.got - 2010.06.28 04:50:58.
