data_PCOD8120296
_publ_section_title
;
Structure prediction by ZEFSAII (Michael W. Deem and Ramdas Pophale) SiO2 
 PCOD8120296
Probable space group: P 2/C
;
_chemical_formula_sum "Si O2"
_cell_formula_units_Z 26
_cell_length_a 28.960613
_cell_length_b 8.600674
_cell_length_c 11.718825
_cell_angle_alpha 90.000000
_cell_angle_beta 26.364499
_cell_angle_gamma 90.000000
_cell_volume 1296.240600
_symmetry_space_group_name_H-M "P 2/C"
_symmetry_group_IT_number 13
_symmetry_cell_setting 'monoclinic'
loop_
_space_group_symop_operation_xyz
x,y,z
-x,y,1/2-z
-x,-y,-z
x,-y,1/2+z
loop_
_atom_site_type_symbol
_atom_site_label
_atom_site_fract_x
_atom_site_fract_y
_atom_site_fract_z
Si Si1 0.143967 0.247962 0.047934
Si Si2 0.157592 0.592281 0.940228
Si Si3 0.500000 0.523893 0.750000
Si Si4 0.000000 0.982843 0.750000
Si Si5 0.362992 0.224271 0.665479
Si Si6 0.625233 0.718661 0.095548
Si Si7 0.971942 0.265685 0.966988
Si Si8 0.500000 0.976383 0.250000
O O1 0.056353 0.271923 0.338333
O O2 0.100453 0.122398 0.055035
O O3 0.165813 0.407366 0.933666
O O4 0.249486 0.182553 0.869033
O O5 0.269669 0.671554 0.702104
O O6 0.107512 0.626953 0.928059
O O7 0.087914 0.665625 0.195608
O O8 0.594817 0.624910 0.493031
O O9 0.459441 0.416878 0.736020
O O10 0.031890 0.089282 0.571643
O O11 0.353585 0.260027 0.818881
O O12 0.439843 0.080329 0.475870
O O13 0.584195 0.877819 0.132594
#
# Coordination Sequence:
#
# PCOD8120296 Si02
#       8
#     4   4   2   2   4   4   4   2
#     4  12  22  40  66  91 128 162 208 252 314 363
#     4  10  21  38  64  90 121 161 207 256 302 369
#     4  10  22  42  60  94 120 158 208 264 304 366
#     4  10  24  40  60  94 124 168 200 252 300 380
#     4  11  23  39  66  91 125 162 206 257 314 364
#     4  11  21  43  65  89 125 162 207 253 317 365
#     4  10  23  42  61  88 130 161 208 254 308 371
#     4  10  26  40  64  92 128 164 206 260 306 378
#
# _framework density 20.058005000000001
#
# number of rings (size 3 to 8) (size 9 to 14) (size 15 to 20)
#    0.000    1.538    3.077    2.769    4.308    0.000 
#    0.000    0.000    3.385    0.000    0.000    0.000 
#    0.000    0.000    0.000    0.000    0.000    0.000 
#
# Total GULP energy -322514.748285 kJ/mol
# GULP energy per Si atom -12404.413396 kJ/mol
# Density = 2.001235 g / cm^3
# Si number density = 20.058005 Si / 1000 Ang^3
#
#
#
# Elastic Constant Matrix: (Units=GPa)
#
#
# Indices 1 2 3 4 5 6 
#
# 1 90.9851 51.1086 31.7546 0.0000 -20.8814 0.0000
# 2 51.1086 131.8073 39.2507 0.0000 -9.7928 0.0000
# 3 31.7546 39.2507 87.5365 0.0000 -12.2749 0.0000
# 4 0.0000 0.0000 0.0000 28.6336 0.0000 -7.0325
# 5 -20.8814 -9.7928 -12.2749 0.0000 30.2768 0.0000
# 6 0.0000 0.0000 0.0000 -7.0325 0.0000 27.4151
#
#
#
# Elastic Compliance Matrix: (Units=1/GPa)
#
#
# Indices 1 2 3 4 5 6 
#
# 1 0.016781 -0.005083 -0.002561 0.000000 0.008891 0.000000
# 2 -0.005083 0.010346 -0.002987 0.000000 -0.001371 0.000000
# 3 -0.002561 -0.002987 0.014111 0.000000 0.002989 0.000000
# 4 0.000000 0.000000 0.000000 0.037272 0.000000 0.009561
# 5 0.008891 -0.001371 0.002989 0.000000 0.039929 0.000000
# 6 0.000000 0.000000 0.000000 0.009561 0.000000 0.038929
#
#
# Mechanical properties :
#
#
# Convention : Reuss Voigt Hill
#
# Bulk Modulus (GPa) = 50.06472 61.61741 55.84106
# Shear Modulus (GPa) = 26.98490 29.81278 28.39884
#
# Velocity S-wave (km/s) = 3.67187 3.85948 3.76684
# Velocity P-wave (km/s) = 6.55675 7.11667 6.84244
#
# Compressibility (1/GPa) = 0.01997415
#
# Stress axis : x y z
#
# Youngs Moduli (GPa) = 59.59234 96.65910 70.86497
#
# Poissons Ratio (x) = 0.49137 0.18150
# Poissons Ratio (y) = 0.30294 0.21168
# Poissons Ratio (z) = 0.15263 0.28873
#
# Static dielectric constant tensor:
#      x y z
#    x 3.489020 0.000000 -0.138830 
#    y 0.000000 3.745530 0.000000 
#    z -0.138830 0.000000 3.664010 
# 
# 
# High freq. dielectric constant tensor:
#      x y z
#    x 1.778070 0.000000 -0.011710 
#    y 0.000000 1.793810 0.000000 
#    z -0.011710 0.000000 1.784640 
# 
# From -- ./inp_files/42643.got.cif
#   From: 2010.06.25/outbox.cif.g09.slc.cpg/sg13_22_cif.got.tgz:42643.got - 2010.06.28 04:50:58.
