data_PCOD8120616
_publ_section_title
;
Structure prediction by ZEFSAII (Michael W. Deem and Ramdas Pophale) SiO2 
 PCOD8120616
Probable space group: P 2/C
;
_chemical_formula_sum "Si O2"
_cell_formula_units_Z 26
_cell_length_a 15.809950
_cell_length_b 11.683306
_cell_length_c 21.913689
_cell_angle_alpha 90.000000
_cell_angle_beta 161.149751
_cell_angle_gamma 90.000000
_cell_volume 1307.805153
_symmetry_space_group_name_H-M "P 2/C"
_symmetry_group_IT_number 13
_symmetry_cell_setting 'monoclinic'
loop_
_space_group_symop_operation_xyz
x,y,z
-x,y,1/2-z
-x,-y,-z
x,-y,1/2+z
loop_
_atom_site_type_symbol
_atom_site_label
_atom_site_fract_x
_atom_site_fract_y
_atom_site_fract_z
Si Si1 0.683379 0.966824 0.978961
Si Si2 0.237860 0.452620 0.243421
Si Si3 0.578388 0.802994 0.152020
Si Si4 0.940831 0.333330 0.495451
Si Si5 0.252903 0.076209 0.846113
Si Si6 0.500000 0.810660 0.750000
Si Si7 0.257145 0.597960 0.892877
O O1 0.512650 0.892464 0.817007
O O2 0.530512 0.084698 0.888615
O O3 0.714379 0.888166 0.060831
O O4 0.973769 0.990596 0.149138
O O5 0.211869 0.359429 0.171776
O O6 0.526459 0.504952 0.441983
O O7 0.194122 0.390664 0.278065
O O8 0.021244 0.550594 0.085085
O O9 0.730606 0.821403 0.191174
O O10 0.799605 0.741126 0.344337
O O11 0.332807 0.721900 0.971085
O O12 0.754126 0.267450 0.415054
O O13 0.500000 0.000000 0.000000
O O14 0.000000 0.552802 0.750000
#
# Coordination Sequence:
#
# PCOD8120616 Si02
#       7
#     4   4   4   4   4   2   4
#     4  10  22  39  58  91 121 163 209 252 298 372
#     4   9  22  45  63  92 126 157 206 270 312 371
#     4  10  21  41  59  89 126 161 207 256 305 374
#     4  10  22  42  63  90 127 163 204 256 326 372
#     4   9  19  38  60  78 120 164 200 252 295 350
#     4  12  24  38  62  94 122 172 208 246 320 380
#     4  10  22  39  67  96 118 160 211 257 319 372
#
# _framework density 19.880638000000001
#
# number of rings (size 3 to 8) (size 9 to 14) (size 15 to 20)
#    0.000    2.154    1.538    0.000    8.615    0.615 
#    2.769    0.000    0.000    0.000    0.000    0.000 
#    0.000    0.000    0.000    0.000    0.000    0.000 
#
# Total GULP energy -322289.085264 kJ/mol
# GULP energy per Si atom -12395.734049 kJ/mol
# Density = 1.983539 g / cm^3
# Si number density = 19.880638 Si / 1000 Ang^3
#
#
#
# Elastic Constant Matrix: (Units=GPa)
#
#
# Indices 1 2 3 4 5 6 
#
# 1 97.4923 41.1985 52.2120 0.0000 -3.3593 0.0000
# 2 41.1985 78.4381 33.5801 0.0000 -5.3703 0.0000
# 3 52.2120 33.5801 100.9706 0.0000 -2.2747 0.0000
# 4 0.0000 0.0000 0.0000 19.4982 0.0000 -2.5727
# 5 -3.3593 -5.3703 -2.2747 0.0000 39.7566 0.0000
# 6 0.0000 0.0000 0.0000 -2.5727 0.0000 30.4470
#
#
#
# Elastic Compliance Matrix: (Units=1/GPa)
#
#
# Indices 1 2 3 4 5 6 
#
# 1 0.016118 -0.005695 -0.006436 0.000000 0.000224 0.000000
# 2 -0.005695 0.016997 -0.002670 0.000000 0.001662 0.000000
# 3 -0.006436 -0.002670 0.014118 0.000000 -0.000097 0.000000
# 4 0.000000 0.000000 0.000000 0.051865 0.000000 0.004382
# 5 0.000224 0.001662 -0.000097 0.000000 0.025391 0.000000
# 6 0.000000 0.000000 0.000000 0.004382 0.000000 0.033214
#
#
# Mechanical properties :
#
#
# Convention : Reuss Voigt Hill
#
# Bulk Modulus (GPa) = 56.71953 58.98692 57.85322
# Shear Modulus (GPa) = 25.88219 27.93439 26.90829
#
# Velocity S-wave (km/s) = 3.61207 3.75254 3.68298
# Velocity P-wave (km/s) = 6.78145 6.96494 6.87381
#
# Compressibility (1/GPa) = 0.01763061
#
# Stress axis : x y z
#
# Youngs Moduli (GPa) = 62.04127 58.83279 70.83353
#
# Poissons Ratio (x) = 0.33508 0.45585
# Poissons Ratio (y) = 0.35335 0.18915
# Poissons Ratio (z) = 0.39927 0.15710
#
# Static dielectric constant tensor:
#      x y z
#    x 4.026930 0.000000 -0.110990 
#    y 0.000000 3.508010 0.000000 
#    z -0.110990 0.000000 3.775640 
# 
# 
# High freq. dielectric constant tensor:
#      x y z
#    x 1.772930 0.000000 -0.000170 
#    y 0.000000 1.759450 0.000000 
#    z -0.000170 0.000000 1.793160 
# 
# From -- ./inp_files/80237.got.cif
#   From: 2010.06.25/outbox.cif.g09.slc.cpg/sg13_41_cif.got.tgz:80237.got - 2010.06.28 04:50:58.
