data_PCOD8120507
_publ_section_title
;
Structure prediction by ZEFSAII (Michael W. Deem and Ramdas Pophale) SiO2 
 PCOD8120507
Probable space group: P 2/C
;
_chemical_formula_sum "Si O2"
_cell_formula_units_Z 20
_cell_length_a 11.059601
_cell_length_b 12.282080
_cell_length_c 10.566582
_cell_angle_alpha 90.000000
_cell_angle_beta 135.812126
_cell_angle_gamma 90.000000
_cell_volume 1000.430704
_symmetry_space_group_name_H-M "P 2/C"
_symmetry_group_IT_number 13
_symmetry_cell_setting 'monoclinic'
loop_
_space_group_symop_operation_xyz
x,y,z
-x,y,1/2-z
-x,-y,-z
x,-y,1/2+z
loop_
_atom_site_type_symbol
_atom_site_label
_atom_site_fract_x
_atom_site_fract_y
_atom_site_fract_z
Si Si1 0.306271 0.193644 0.958143
Si Si2 0.814074 0.441064 0.351712
Si Si3 0.292434 0.797269 0.736149
Si Si4 0.801344 0.429158 0.615659
Si Si5 0.113579 0.994265 0.710698
O O1 0.202655 0.303191 0.847702
O O2 0.238508 0.099490 0.814245
O O3 0.506086 0.222961 0.084340
O O4 0.268971 0.158592 0.075175
O O5 0.821198 0.312026 0.327450
O O6 0.712981 0.451394 0.411366
O O7 0.711267 0.499250 0.159066
O O8 0.000000 0.500000 0.500000
O O9 0.230603 0.886889 0.789591
O O10 0.000000 0.465268 0.750000
O O11 0.000000 0.984539 0.750000
O O12 0.000000 0.000000 0.500000
#
# Coordination Sequence:
#
# PCOD8120507 Si02
#       5
#     4   4   4   4   4
#     4  10  21  40  62  86 124 164 201 249 311 371
#     4   9  19  34  58  85 116 154 198 246 292 356
#     4  10  22  40  61  89 124 163 202 250 309 366
#     4   9  18  34  59  83 116 154 202 239 300 356
#     4  12  24  40  65  90 118 157 209 252 308 365
#
# _framework density 19.991389000000002
#
# number of rings (size 3 to 8) (size 9 to 14) (size 15 to 20)
#    0.000    2.000    2.000    1.200    5.600    3.200 
#    0.000    0.000    0.000    0.000    0.000    0.000 
#    0.000    0.000    0.000    0.000    0.000    0.000 
#
# Total GULP energy -247859.290826 kJ/mol
# GULP energy per Si atom -12392.964541 kJ/mol
# Density = 1.994589 g / cm^3
# Si number density = 19.991389 Si / 1000 Ang^3
#
#
#
# Elastic Constant Matrix: (Units=GPa)
#
#
# Indices 1 2 3 4 5 6 
#
# 1 82.3944 64.4139 43.6146 0.0000 -16.6804 0.0000
# 2 64.4139 150.7733 51.3930 0.0000 -23.1388 0.0000
# 3 43.6146 51.3930 79.8690 0.0000 -21.2481 0.0000
# 4 0.0000 0.0000 0.0000 29.6687 0.0000 -15.0098
# 5 -16.6804 -23.1388 -21.2481 0.0000 36.1660 0.0000
# 6 0.0000 0.0000 0.0000 -15.0098 0.0000 30.9396
#
#
#
# Elastic Compliance Matrix: (Units=1/GPa)
#
#
# Indices 1 2 3 4 5 6 
#
# 1 0.021188 -0.006420 -0.007031 0.000000 0.001534 0.000000
# 2 -0.006420 0.010659 -0.002757 0.000000 0.002238 0.000000
# 3 -0.007031 -0.002757 0.019915 0.000000 0.006693 0.000000
# 4 0.000000 0.000000 0.000000 0.044669 0.000000 0.021670
# 5 0.001534 0.002238 0.006693 0.000000 0.033722 0.000000
# 6 0.000000 0.000000 0.000000 0.021670 0.000000 0.042834
#
#
# Mechanical properties :
#
#
# Convention : Reuss Voigt Hill
#
# Bulk Modulus (GPa) = 51.69308 70.20885 60.95097
# Shear Modulus (GPa) = 23.60137 29.59586 26.59861
#
# Velocity S-wave (km/s) = 3.43968 3.85181 3.65156
# Velocity P-wave (km/s) = 6.45670 7.41470 6.95222
#
# Compressibility (1/GPa) = 0.01934495
#
# Stress axis : x y z
#
# Youngs Moduli (GPa) = 47.19605 93.82119 50.21362
#
# Poissons Ratio (x) = 0.60233 0.35307
# Poissons Ratio (y) = 0.30300 0.13844
# Poissons Ratio (z) = 0.33185 0.25868
#
# Static dielectric constant tensor:
#      x y z
#    x 4.091950 0.000000 -0.654460 
#    y 0.000000 3.713500 0.000000 
#    z -0.654460 0.000000 4.074260 
# 
# 
# High freq. dielectric constant tensor:
#      x y z
#    x 1.769010 0.000000 -0.011440 
#    y 0.000000 1.782760 0.000000 
#    z -0.011440 0.000000 1.776550 
# 
# From -- ./inp_files/33421.got.cif
#   From: 2010.06.25/outbox.cif.g09.slc.cpg/sg13_17_cif.got.tgz:33421.got - 2010.06.28 04:50:58.
