data_PCOD8120386
_publ_section_title
;
Structure prediction by ZEFSAII (Michael W. Deem and Ramdas Pophale) SiO2 
 PCOD8120386
Probable space group: P 2/C
;
_chemical_formula_sum "Si O2"
_cell_formula_units_Z 26
_cell_length_a 8.728183
_cell_length_b 10.812250
_cell_length_c 14.638179
_cell_angle_alpha 90.000000
_cell_angle_beta 112.133757
_cell_angle_gamma 90.000000
_cell_volume 1279.622396
_symmetry_space_group_name_H-M "P 2/C"
_symmetry_group_IT_number 13
_symmetry_cell_setting 'monoclinic'
loop_
_space_group_symop_operation_xyz
x,y,z
-x,y,1/2-z
-x,-y,-z
x,-y,1/2+z
loop_
_atom_site_type_symbol
_atom_site_label
_atom_site_fract_x
_atom_site_fract_y
_atom_site_fract_z
Si Si1 0.717758 0.291111 0.902725
Si Si2 0.264201 0.298712 0.261350
Si Si3 0.502637 0.078003 0.909297
Si Si4 0.500000 0.511203 0.250000
Si Si5 0.000000 0.422306 0.750000
Si Si6 0.500000 0.092068 0.250000
Si Si7 0.824836 0.808557 0.240731
Si Si8 0.061069 0.641022 0.888207
O O1 0.610881 0.201727 0.944597
O O2 0.600190 0.400509 0.841084
O O3 0.792898 0.200509 0.842179
O O4 0.865197 0.353707 0.993832
O O5 0.374029 0.422593 0.276317
O O6 0.364751 0.174223 0.270287
O O7 0.189873 0.298631 0.346226
O O8 0.116020 0.290327 0.153704
O O9 0.316326 0.116704 0.841977
O O10 0.579679 0.994113 0.845864
O O11 0.500000 0.000000 0.000000
O O12 0.165172 0.336982 0.785608
O O13 0.016679 0.501905 0.845853
O O14 0.000000 0.872124 0.250000
#
# Coordination Sequence:
#
# PCOD8120386 Si02
#       8
#     4   4   4   2   2   2   4   4
#     4  12  22  41  67  96 131 174 219 268 338 390
#     4   9  22  41  61  97 133 168 210 275 324 393
#     4  12  25  44  66  93 128 179 224 274 320 390
#     4  11  21  38  66  90 135 175 210 266 340 387
#     4   8  20  40  66  92 140 160 208 266 330 388
#     4  11  21  46  64  86 135 173 216 274 322 381
#     4  10  22  44  66  92 129 172 218 273 326 386
#     4  10  21  39  63 101 132 165 212 269 331 398
#
# _framework density 20.318493
#
# number of rings (size 3 to 8) (size 9 to 14) (size 15 to 20)
#    0.462    1.231    3.077    2.769    0.000    4.308 
#   11.077    1.538    0.000    0.000    0.000    0.000 
#    0.000    0.000    0.000    0.000    0.000    0.000 
#
# Total GULP energy -322184.419490 kJ/mol
# GULP energy per Si atom -12391.708442 kJ/mol
# Density = 2.027225 g / cm^3
# Si number density = 20.318493 Si / 1000 Ang^3
#
#
#
# Elastic Constant Matrix: (Units=GPa)
#
#
# Indices 1 2 3 4 5 6 
#
# 1 96.1129 25.7963 29.1046 0.0000 6.3268 0.0000
# 2 25.7963 97.3580 34.1337 0.0000 5.3950 0.0000
# 3 29.1046 34.1337 128.7033 0.0000 19.6188 0.0000
# 4 0.0000 0.0000 0.0000 30.8037 0.0000 4.0033
# 5 6.3268 5.3950 19.6188 0.0000 30.5014 0.0000
# 6 0.0000 0.0000 0.0000 4.0033 0.0000 15.9419
#
#
#
# Elastic Compliance Matrix: (Units=1/GPa)
#
#
# Indices 1 2 3 4 5 6 
#
# 1 0.011668 -0.002387 -0.001886 0.000000 -0.000785 0.000000
# 2 -0.002387 0.011813 -0.002606 0.000000 0.000082 0.000000
# 3 -0.001886 -0.002606 0.009709 0.000000 -0.005393 0.000000
# 4 0.000000 0.000000 0.000000 0.033559 0.000000 -0.008427
# 5 -0.000785 0.000082 -0.005393 0.000000 0.036403 0.000000
# 6 0.000000 0.000000 0.000000 -0.008427 0.000000 0.064844
#
#
# Mechanical properties :
#
#
# Convention : Reuss Voigt Hill
#
# Bulk Modulus (GPa) = 51.45772 55.58262 53.52017
# Shear Modulus (GPa) = 26.56323 30.99203 28.77763
#
# Velocity S-wave (km/s) = 3.61964 3.90976 3.76749
# Velocity P-wave (km/s) = 6.54596 6.91352 6.73225
#
# Compressibility (1/GPa) = 0.01943343
#
# Stress axis : x y z
#
# Youngs Moduli (GPa) = 85.70600 84.65403 102.99302
#
# Poissons Ratio (x) = 0.20206 0.19423
# Poissons Ratio (y) = 0.20457 0.26836
# Poissons Ratio (z) = 0.16163 0.22057
#
# Static dielectric constant tensor:
#      x y z
#    x 4.605850 0.000000 -0.669930 
#    y 0.000000 3.710440 0.000000 
#    z -0.669930 0.000000 4.198330 
# 
# 
# High freq. dielectric constant tensor:
#      x y z
#    x 1.805540 0.000000 -0.005000 
#    y 0.000000 1.798830 0.000000 
#    z -0.005000 0.000000 1.773670 
# 
# From -- ./inp_files/46658.got.cif
#   From: 2010.06.25/outbox.cif.g09.slc.cpg/sg13_24_cif.got.tgz:46658.got - 2010.06.28 04:50:58.
