data_PCOD8120391
_publ_section_title
;
Structure prediction by ZEFSAII (Michael W. Deem and Ramdas Pophale) SiO2 
 PCOD8120391
Probable space group: P 2/C
;
_chemical_formula_sum "Si O2"
_cell_formula_units_Z 16
_cell_length_a 11.820942
_cell_length_b 6.662076
_cell_length_c 13.812413
_cell_angle_alpha 90.000000
_cell_angle_beta 45.800130
_cell_angle_gamma 90.000000
_cell_volume 779.825064
_symmetry_space_group_name_H-M "P 2/C"
_symmetry_group_IT_number 13
_symmetry_cell_setting 'monoclinic'
loop_
_space_group_symop_operation_xyz
x,y,z
-x,y,1/2-z
-x,-y,-z
x,-y,1/2+z
loop_
_atom_site_type_symbol
_atom_site_label
_atom_site_fract_x
_atom_site_fract_y
_atom_site_fract_z
Si Si1 0.836505 0.279869 0.294746
Si Si2 0.347282 0.455072 0.461262
Si Si3 0.698704 0.533438 0.225017
Si Si4 0.333583 0.887264 0.113326
O O1 0.689190 0.360799 0.445609
O O2 0.836696 0.407758 0.195299
O O3 0.000000 0.320106 0.250000
O O4 0.807911 0.046370 0.292221
O O5 0.532829 0.422312 0.339625
O O6 0.261538 0.518180 0.412436
O O7 0.288648 0.248828 0.546461
O O8 0.676897 0.758521 0.280561
O O9 0.500000 0.000000 0.000000
#
# Coordination Sequence:
#
# PCOD8120391 Si02
#       4
#     4   4   4   4
#     4  11  23  39  59  89 123 157 195 245 298 348
#     4  10  21  39  63  89 117 155 199 242 295 352
#     4  10  21  39  63  89 117 155 199 242 295 352
#     4  11  19  38  62  86 119 156 199 239 286 348
#
# _framework density 20.517422
#
# number of rings (size 3 to 8) (size 9 to 14) (size 15 to 20)
#    0.000    1.500    5.000    1.500    0.000    7.000 
#    0.000    2.500    0.000    0.000    0.000    0.000 
#    0.000    0.000    0.000    0.000    0.000    0.000 
#
# Total GULP energy -198309.894642 kJ/mol
# GULP energy per Si atom -12394.368415 kJ/mol
# Density = 2.047072 g / cm^3
# Si number density = 20.517422 Si / 1000 Ang^3
#
#
#
# Elastic Constant Matrix: (Units=GPa)
#
#
# Indices 1 2 3 4 5 6 
#
# 1 129.7683 49.4946 18.9687 0.0000 28.1216 0.0000
# 2 49.4946 136.3717 24.1670 0.0000 21.5109 0.0000
# 3 18.9687 24.1670 34.6480 0.0000 29.7006 0.0000
# 4 0.0000 0.0000 0.0000 9.6716 0.0000 -0.8504
# 5 28.1216 21.5109 29.7006 0.0000 42.7081 0.0000
# 6 0.0000 0.0000 0.0000 -0.8504 0.0000 34.0037
#
#
#
# Elastic Compliance Matrix: (Units=1/GPa)
#
#
# Indices 1 2 3 4 5 6 
#
# 1 0.009945 -0.002973 0.002374 0.000000 -0.006702 0.000000
# 2 -0.002973 0.009258 -0.006217 0.000000 0.001618 0.000000
# 3 0.002374 -0.006217 0.075653 0.000000 -0.051043 0.000000
# 4 0.000000 0.000000 0.000000 0.103623 0.000000 0.002591
# 5 -0.006702 0.001618 -0.051043 0.000000 0.062510 0.000000
# 6 0.000000 0.000000 0.000000 0.002591 0.000000 0.029473
#
#
# Mechanical properties :
#
#
# Convention : Reuss Voigt Hill
#
# Bulk Modulus (GPa) = 12.31147 54.00540 33.15844
# Shear Modulus (GPa) = 15.09797 31.15389 23.12593
#
# Velocity S-wave (km/s) = 2.71562 3.90091 3.36093
# Velocity P-wave (km/s) = 3.98074 6.83142 5.59082
#
# Compressibility (1/GPa) = 0.08122506
#
# Stress axis : x y z
#
# Youngs Moduli (GPa) = 100.54908 108.00892 13.21824
#
# Poissons Ratio (x) = 0.32112 -0.03138
# Poissons Ratio (y) = 0.29894 0.08218
# Poissons Ratio (z) = -0.23873 0.67150
#
# Static dielectric constant tensor:
#      x y z
#    x 3.932110 0.000000 0.363980 
#    y 0.000000 3.781490 0.000000 
#    z 0.363980 0.000000 3.533640 
# 
# 
# High freq. dielectric constant tensor:
#      x y z
#    x 1.804100 0.000000 0.014860 
#    y 0.000000 1.804910 0.000000 
#    z 0.014860 0.000000 1.777610 
# 
# From -- ./inp_files/48392.got.cif
#   From: 2010.06.25/outbox.cif.g09.slc.cpg/sg13_25_cif.got.tgz:48392.got - 2010.06.28 04:50:58.
