data_PCOD8120554
_publ_section_title
;
Structure prediction by ZEFSAII (Michael W. Deem and Ramdas Pophale) SiO2 
 PCOD8120554
Probable space group: P 2/C
;
_chemical_formula_sum "Si O2"
_cell_formula_units_Z 28
_cell_length_a 8.760779
_cell_length_b 11.362366
_cell_length_c 14.597733
_cell_angle_alpha 90.000000
_cell_angle_beta 110.471284
_cell_angle_gamma 90.000000
_cell_volume 1361.337663
_symmetry_space_group_name_H-M "P 2/C"
_symmetry_group_IT_number 13
_symmetry_cell_setting 'monoclinic'
loop_
_space_group_symop_operation_xyz
x,y,z
-x,y,1/2-z
-x,-y,-z
x,-y,1/2+z
loop_
_atom_site_type_symbol
_atom_site_label
_atom_site_fract_x
_atom_site_fract_y
_atom_site_fract_z
Si Si1 0.352103 0.454848 0.151110
Si Si2 0.424682 0.280899 0.401912
Si Si3 0.973985 0.860878 0.984199
Si Si4 0.669636 0.094282 0.513561
Si Si5 0.480677 0.084394 0.641788
Si Si6 0.715955 0.296975 0.939569
Si Si7 0.142269 0.722578 0.708175
O O1 0.500000 0.481401 0.250000
O O2 0.434989 0.377163 0.088390
O O3 0.274311 0.577095 0.104773
O O4 0.192248 0.390511 0.158408
O O5 0.506706 0.161390 0.450703
O O6 0.307308 0.325513 0.457970
O O7 0.312524 0.244028 0.292681
O O8 0.831610 0.831322 0.027880
O O9 0.915985 0.830300 0.868484
O O10 0.121044 0.777471 0.044359
O O11 0.000000 0.000000 0.000000
O O12 0.649073 0.066392 0.618163
O O13 0.666259 0.979938 0.445568
O O14 0.500000 0.036926 0.750000
O O15 0.434112 0.222627 0.634404
O O16 0.000000 0.690246 0.750000
#
# Coordination Sequence:
#
# PCOD8120554 Si02
#       7
#     4   4   4   4   4   4   4
#     4  10  22  40  65  94 125 166 225 265 325 389
#     4  10  21  40  65  92 118 170 223 267 307 388
#     4  12  24  42  60  95 137 166 214 270 332 390
#     4  10  22  40  62  94 120 168 226 261 311 398
#     4  10  22  39  63  88 127 170 213 266 326 375
#     4  11  22  40  61  92 133 164 210 273 327 380
#     4  11  23  42  65  96 127 171 216 267 325 394
#
# _framework density 20.568006
#
# number of rings (size 3 to 8) (size 9 to 14) (size 15 to 20)
#    0.000    1.429    4.286    0.857    2.000    0.571 
#    0.000    3.571    0.000    0.000    0.000    0.000 
#    0.000    0.000    0.000    0.000    0.000    0.000 
#
# Total GULP energy -346972.390649 kJ/mol
# GULP energy per Si atom -12391.871095 kJ/mol
# Density = 2.052119 g / cm^3
# Si number density = 20.568006 Si / 1000 Ang^3
#
#
#
# Elastic Constant Matrix: (Units=GPa)
#
#
# Indices 1 2 3 4 5 6 
#
# 1 148.3258 50.1361 43.2744 0.0000 -25.5103 0.0000
# 2 50.1361 124.2272 49.9738 0.0000 -5.7942 0.0000
# 3 43.2744 49.9738 100.1630 0.0000 -21.4456 0.0000
# 4 0.0000 0.0000 0.0000 31.3510 0.0000 2.8947
# 5 -25.5103 -5.7942 -21.4456 0.0000 33.6174 0.0000
# 6 0.0000 0.0000 0.0000 2.8947 0.0000 31.9766
#
#
#
# Elastic Compliance Matrix: (Units=1/GPa)
#
#
# Indices 1 2 3 4 5 6 
#
# 1 0.009042 -0.002873 -0.001285 0.000000 0.005546 0.000000
# 2 -0.002873 0.011069 -0.005026 0.000000 -0.003479 0.000000
# 3 -0.001285 -0.005026 0.014654 0.000000 0.007506 0.000000
# 4 0.000000 0.000000 0.000000 0.032166 0.000000 -0.002912
# 5 0.005546 -0.003479 0.007506 0.000000 0.038144 0.000000
# 6 0.000000 0.000000 0.000000 -0.002912 0.000000 0.031536
#
#
# Mechanical properties :
#
#
# Convention : Reuss Voigt Hill
#
# Bulk Modulus (GPa) = 60.99347 73.27605 67.13476
# Shear Modulus (GPa) = 31.16306 34.67778 32.92042
#
# Velocity S-wave (km/s) = 3.89668 4.11055 4.00505
# Velocity P-wave (km/s) = 7.06855 7.63102 7.35516
#
# Compressibility (1/GPa) = 0.01639520
#
# Stress axis : x y z
#
# Youngs Moduli (GPa) = 110.59381 90.34200 68.24132
#
# Poissons Ratio (x) = 0.25959 0.08772
# Poissons Ratio (y) = 0.31779 0.34298
# Poissons Ratio (z) = 0.14216 0.45406
#
# Static dielectric constant tensor:
#      x y z
#    x 4.035750 0.000000 -0.267430 
#    y 0.000000 3.617410 0.000000 
#    z -0.267430 0.000000 3.729900 
# 
# 
# High freq. dielectric constant tensor:
#      x y z
#    x 1.814640 0.000000 -0.012020 
#    y 0.000000 1.799280 0.000000 
#    z -0.012020 0.000000 1.788680 
# 
# From -- ./inp_files/47002.got.cif
#   From: 2010.06.25/outbox.cif.g09.slc.cpg/sg13_24_cif.got.tgz:47002.got - 2010.06.28 04:50:58.
