data_PCOD8120589
_publ_section_title
;
Structure prediction by ZEFSAII (Michael W. Deem and Ramdas Pophale) SiO2 
 PCOD8120589
Probable space group: P 2/C
;
_chemical_formula_sum "Si O2"
_cell_formula_units_Z 18
_cell_length_a 10.834201
_cell_length_b 8.594836
_cell_length_c 16.949267
_cell_angle_alpha 90.000000
_cell_angle_beta 27.881721
_cell_angle_gamma 90.000000
_cell_volume 738.081534
_symmetry_space_group_name_H-M "P 2/C"
_symmetry_group_IT_number 13
_symmetry_cell_setting 'monoclinic'
loop_
_space_group_symop_operation_xyz
x,y,z
-x,y,1/2-z
-x,-y,-z
x,-y,1/2+z
loop_
_atom_site_type_symbol
_atom_site_label
_atom_site_fract_x
_atom_site_fract_y
_atom_site_fract_z
Si Si1 0.352576 0.610165 0.468407
Si Si2 0.095321 0.936710 0.608880
Si Si3 0.722519 0.668233 0.383212
Si Si4 0.500000 0.608373 0.750000
Si Si5 0.589606 0.145198 0.320845
O O1 0.167090 0.756065 0.560286
O O2 0.650628 0.662749 0.329678
O O3 0.250321 0.506487 0.598845
O O4 0.333004 0.505739 0.400527
O O5 0.000000 0.981247 0.750000
O O6 0.842936 0.963396 0.694203
O O7 0.337611 0.039696 0.439021
O O8 0.484677 0.765634 0.556502
O O9 0.000000 0.752252 0.250000
O O10 0.333941 0.725898 0.788253
#
# Coordination Sequence:
#
# PCOD8120589 Si02
#       5
#     4   4   4   2   4
#     4  10  23  41  69  97 139 176 233 275 345 397
#     4  12  24  44  73 105 131 181 228 289 334 406
#     4  10  21  40  68 100 133 179 226 291 329 402
#     4  10  26  50  62 106 134 192 218 286 336 418
#     4  11  26  44  70 101 144 174 233 273 348 403
#
# _framework density 24.387550000000001
#
# number of rings (size 3 to 8) (size 9 to 14) (size 15 to 20)
#    0.000    1.333    2.222    2.000    9.333    2.667 
#    4.000    0.000    0.000    0.000    0.000    0.000 
#    0.000    0.000    0.000    0.000    0.000    0.000 
#
# Total GULP energy -223000.745260 kJ/mol
# GULP energy per Si atom -12388.930292 kJ/mol
# Density = 2.433204 g / cm^3
# Si number density = 24.387550 Si / 1000 Ang^3
#
#
#
# Elastic Constant Matrix: (Units=GPa)
#
#
# Indices 1 2 3 4 5 6 
#
# 1 127.8869 29.0789 66.8786 0.0000 -16.9557 0.0000
# 2 29.0789 118.4425 38.5364 0.0000 -5.6960 0.0000
# 3 66.8786 38.5364 74.4802 0.0000 -23.9487 0.0000
# 4 0.0000 0.0000 0.0000 34.6106 0.0000 -14.0062
# 5 -16.9557 -5.6960 -23.9487 0.0000 45.9355 0.0000
# 6 0.0000 0.0000 0.0000 -14.0062 0.0000 10.1898
#
#
#
# Elastic Compliance Matrix: (Units=1/GPa)
#
#
# Indices 1 2 3 4 5 6 
#
# 1 0.014952 0.000971 -0.014555 0.000000 -0.001949 0.000000
# 2 0.000971 0.010337 -0.006840 0.000000 -0.001926 0.000000
# 3 -0.014555 -0.006840 0.033680 0.000000 0.011339 0.000000
# 4 0.000000 0.000000 0.000000 0.065109 0.000000 0.089494
# 5 -0.001949 -0.001926 0.011339 0.000000 0.026723 0.000000
# 6 0.000000 0.000000 0.000000 0.089494 0.000000 0.221149
#
#
# Mechanical properties :
#
#
# Convention : Reuss Voigt Hill
#
# Bulk Modulus (GPa) = 55.17936 65.53303 60.35619
# Shear Modulus (GPa) = 11.93780 30.56823 21.25302
#
# Velocity S-wave (km/s) = 2.21487 3.54423 2.95527
# Velocity P-wave (km/s) = 5.40519 6.60898 6.03716
#
# Compressibility (1/GPa) = 0.01812272
#
# Stress axis : x y z
#
# Youngs Moduli (GPa) = 66.88234 96.73759 29.69088
#
# Poissons Ratio (x) = -0.09393 0.43214
# Poissons Ratio (y) = -0.06494 0.20307
# Poissons Ratio (z) = 0.97345 0.66165
#
# Static dielectric constant tensor:
#      x y z
#    x 4.599550 0.000000 -0.196610 
#    y 0.000000 4.511190 0.000000 
#    z -0.196610 0.000000 4.112590 
# 
# 
# High freq. dielectric constant tensor:
#      x y z
#    x 1.966280 0.000000 -0.016060 
#    y 0.000000 1.992560 0.000000 
#    z -0.016060 0.000000 1.926680 
# 
# From -- ./inp_files/32333.got.cif
#   From: 2010.06.25/outbox.cif.g09.slc.cpg/sg13_17_cif.got.tgz:32333.got - 2010.06.28 04:50:58.
