data_PCOD8120951
_publ_section_title
;
Structure prediction by ZEFSAII (Michael W. Deem and Ramdas Pophale) SiO2 
 PCOD8120951
Probable space group: P 2/C
;
_chemical_formula_sum "Si O2"
_cell_formula_units_Z 18
_cell_length_a 9.153837
_cell_length_b 10.783835
_cell_length_c 9.319338
_cell_angle_alpha 90.000000
_cell_angle_beta 101.522999
_cell_angle_gamma 90.000000
_cell_volume 901.402327
_symmetry_space_group_name_H-M "P 2/C"
_symmetry_group_IT_number 13
_symmetry_cell_setting 'monoclinic'
loop_
_space_group_symop_operation_xyz
x,y,z
-x,y,1/2-z
-x,-y,-z
x,-y,1/2+z
loop_
_atom_site_type_symbol
_atom_site_label
_atom_site_fract_x
_atom_site_fract_y
_atom_site_fract_z
Si Si1 0.452005 0.382064 0.902014
Si Si2 0.500000 0.987567 0.750000
Si Si3 0.074526 0.685260 0.916458
Si Si4 0.122771 0.409829 0.893928
Si Si5 0.362235 0.153931 0.482089
O O1 0.500000 0.400943 0.750000
O O2 0.275841 0.357092 0.863807
O O3 0.500000 0.500000 0.000000
O O4 0.521202 0.264721 0.992713
O O5 0.610510 0.910287 0.667274
O O6 0.391735 0.067103 0.625625
O O7 0.152087 0.550290 0.957094
O O8 0.194035 0.794423 0.964029
O O9 0.000000 0.704712 0.750000
O O10 0.936402 0.688485 0.000371
O O11 0.000000 0.421759 0.750000
#
# Coordination Sequence:
#
# PCOD8120951 Si02
#       5
#     4   2   4   4   4
#     4  12  25  38  68 104 132 171 220 273 344 413
#     4  10  26  44  72  88 130 184 242 284 308 372
#     4  10  22  39  64  94 136 169 207 269 339 406
#     4  10  22  37  60  99 140 167 199 263 351 410
#     4  11  23  46  68  94 132 176 236 276 328 385
#
# _framework density 19.968886000000001
#
# number of rings (size 3 to 8) (size 9 to 14) (size 15 to 20)
#    0.000    1.333    3.333    1.333   10.889    0.000 
#    0.000    1.111    0.000    0.000    0.000    0.000 
#    0.000    0.000    0.000    0.000    0.000    0.000 
#
# Total GULP energy -223163.397463 kJ/mol
# GULP energy per Si atom -12397.966526 kJ/mol
# Density = 1.992344 g / cm^3
# Si number density = 19.968886 Si / 1000 Ang^3
#
#
#
# Elastic Constant Matrix: (Units=GPa)
#
#
# Indices 1 2 3 4 5 6 
#
# 1 172.6466 59.4806 68.2377 0.0000 -14.9956 0.0000
# 2 59.4806 112.1843 61.8567 0.0000 -4.1440 0.0000
# 3 68.2377 61.8567 136.7312 0.0000 -20.8153 0.0000
# 4 0.0000 0.0000 0.0000 58.9183 0.0000 4.4680
# 5 -14.9956 -4.1440 -20.8153 0.0000 34.6801 0.0000
# 6 0.0000 0.0000 0.0000 4.4680 0.0000 39.3220
#
#
#
# Elastic Compliance Matrix: (Units=1/GPa)
#
#
# Indices 1 2 3 4 5 6 
#
# 1 0.007840 -0.002765 -0.002417 0.000000 0.001609 0.000000
# 2 -0.002765 0.012977 -0.004883 0.000000 -0.002576 0.000000
# 3 -0.002417 -0.004883 0.011535 0.000000 0.005295 0.000000
# 4 0.000000 0.000000 0.000000 0.017120 0.000000 -0.001945
# 5 0.001609 -0.002576 0.005295 0.000000 0.032401 0.000000
# 6 0.000000 0.000000 0.000000 -0.001945 0.000000 0.025652
#
#
# Mechanical properties :
#
#
# Convention : Reuss Voigt Hill
#
# Bulk Modulus (GPa) = 81.81671 88.96801 85.39236
# Shear Modulus (GPa) = 37.95692 42.04988 40.00340
#
# Velocity S-wave (km/s) = 4.36455 4.59385 4.48066
# Velocity P-wave (km/s) = 8.15231 8.53158 8.34410
#
# Compressibility (1/GPa) = 0.01222244
#
# Stress axis : x y z
#
# Youngs Moduli (GPa) = 127.55708 77.05912 86.69258
#
# Poissons Ratio (x) = 0.21303 0.20953
# Poissons Ratio (y) = 0.35264 0.42334
# Poissons Ratio (z) = 0.30829 0.37630
#
# Static dielectric constant tensor:
#      x y z
#    x 3.693080 0.000000 -0.152950 
#    y 0.000000 3.730280 0.000000 
#    z -0.152950 0.000000 3.870250 
# 
# 
# High freq. dielectric constant tensor:
#      x y z
#    x 1.783790 0.000000 -0.003180 
#    y 0.000000 1.762780 0.000000 
#    z -0.003180 0.000000 1.797580 
# 
# From -- ./inp_files/11264.got.cif
#   From: 2010.06.25/outbox.cif.g09.slc.cpg/sg13_6_cif.got.tgz:11264.got - 2010.06.28 04:50:58.
