data_PCOD8120107
_publ_section_title
;
Structure prediction by ZEFSAII (Michael W. Deem and Ramdas Pophale) SiO2 
 PCOD8120107
Probable space group: P 2/C
;
_chemical_formula_sum "Si O2"
_cell_formula_units_Z 18
_cell_length_a 6.551513
_cell_length_b 19.418184
_cell_length_c 7.958618
_cell_angle_alpha 90.000000
_cell_angle_beta 116.681358
_cell_angle_gamma 90.000000
_cell_volume 904.671602
_symmetry_space_group_name_H-M "P 2/C"
_symmetry_group_IT_number 13
_symmetry_cell_setting 'monoclinic'
loop_
_space_group_symop_operation_xyz
x,y,z
-x,y,1/2-z
-x,-y,-z
x,-y,1/2+z
loop_
_atom_site_type_symbol
_atom_site_label
_atom_site_fract_x
_atom_site_fract_y
_atom_site_fract_z
Si Si1 0.464094 0.922281 0.539331
Si Si2 0.000000 0.473366 0.750000
Si Si3 0.000000 0.138390 0.750000
Si Si4 0.713591 0.804234 0.432485
Si Si5 0.764871 0.410453 0.367737
Si Si6 0.000000 0.704001 0.750000
O O1 0.500000 0.910282 0.750000
O O2 0.204637 0.907971 0.393011
O O3 0.638379 0.874374 0.499045
O O4 0.500000 0.000000 0.500000
O O5 0.835109 0.423066 0.585228
O O6 0.829415 0.520354 0.793296
O O7 0.919493 0.183991 0.878099
O O8 0.500000 0.773157 0.250000
O O9 0.795177 0.749942 0.600977
O O10 0.500000 0.395496 0.250000
O O11 0.899849 0.343350 0.358925
#
# Coordination Sequence:
#
# PCOD8120107 Si02
#       6
#     4   2   2   4   4   2
#     4  11  23  39  62  89 115 150 197 247 301 360
#     4   9  20  39  60  87 118 153 198 246 288 339
#     4  10  22  40  60  80 112 154 192 242 298 354
#     4  10  23  41  59  84 118 156 198 245 299 356
#     4  10  21  37  60  87 118 156 198 242 293 351
#     4  11  24  37  56  89 120 155 198 240 300 365
#
# _framework density 19.896722
#
# number of rings (size 3 to 8) (size 9 to 14) (size 15 to 20)
#    0.000    1.778    0.000    4.000    0.000   11.556 
#    0.000    2.222    0.000    0.000    0.000    0.000 
#    0.000    0.000    0.000    0.000    0.000    0.000 
#
# Total GULP energy -223236.782323 kJ/mol
# GULP energy per Si atom -12402.043462 kJ/mol
# Density = 1.985144 g / cm^3
# Si number density = 19.896722 Si / 1000 Ang^3
#
#
#
# Elastic Constant Matrix: (Units=GPa)
#
#
# Indices 1 2 3 4 5 6 
#
# 1 99.1921 36.1769 35.0897 0.0000 3.0528 0.0000
# 2 36.1769 115.6469 61.9709 0.0000 9.3795 0.0000
# 3 35.0897 61.9709 148.1469 0.0000 1.8468 0.0000
# 4 0.0000 0.0000 0.0000 50.2289 0.0000 13.8958
# 5 3.0528 9.3795 1.8468 0.0000 35.3618 0.0000
# 6 0.0000 0.0000 0.0000 13.8958 0.0000 18.0948
#
#
#
# Elastic Compliance Matrix: (Units=1/GPa)
#
#
# Indices 1 2 3 4 5 6 
#
# 1 0.011666 -0.002777 -0.001599 0.000000 -0.000187 0.000000
# 2 -0.002777 0.012073 -0.004358 0.000000 -0.002735 0.000000
# 3 -0.001599 -0.004358 0.008942 0.000000 0.000827 0.000000
# 4 0.000000 0.000000 0.000000 0.025280 0.000000 -0.019413
# 5 -0.000187 -0.002735 0.000827 0.000000 0.028977 0.000000
# 6 0.000000 0.000000 0.000000 -0.019413 0.000000 0.070173
#
#
# Mechanical properties :
#
#
# Convention : Reuss Voigt Hill
#
# Bulk Modulus (GPa) = 65.74121 69.94009 67.84065
# Shear Modulus (GPa) = 27.83190 36.05366 31.94278
#
# Velocity S-wave (km/s) = 3.74414 4.26142 4.01113
# Velocity P-wave (km/s) = 7.19752 7.70979 7.45806
#
# Compressibility (1/GPa) = 0.01521116
#
# Stress axis : x y z
#
# Youngs Moduli (GPa) = 85.72072 82.82871 111.83653
#
# Poissons Ratio (x) = 0.23004 0.17883
# Poissons Ratio (y) = 0.23807 0.48742
# Poissons Ratio (z) = 0.13707 0.36100
#
# Static dielectric constant tensor:
#      x y z
#    x 3.667480 0.000000 -0.141450 
#    y 0.000000 3.489540 0.000000 
#    z -0.141450 0.000000 3.919300 
# 
# 
# High freq. dielectric constant tensor:
#      x y z
#    x 1.781250 0.000000 -0.001520 
#    y 0.000000 1.771000 0.000000 
#    z -0.001520 0.000000 1.797240 
# 
# From -- ./inp_files/9388.got.cif
#   From: 2010.06.25/outbox.cif.g09.slc.cpg/sg13_5_cif.got.tgz:9388.got - 2010.06.28 04:50:58.
