data_PCOD8120220
_publ_section_title
;
Structure prediction by ZEFSAII (Michael W. Deem and Ramdas Pophale) SiO2 
 PCOD8120220
Probable space group: P 2/C
;
_chemical_formula_sum "Si O2"
_cell_formula_units_Z 30
_cell_length_a 30.323485
_cell_length_b 9.639333
_cell_length_c 11.872479
_cell_angle_alpha 90.000000
_cell_angle_beta 26.084455
_cell_angle_gamma 90.000000
_cell_volume 1525.877030
_symmetry_space_group_name_H-M "P 2/C"
_symmetry_group_IT_number 13
_symmetry_cell_setting 'monoclinic'
loop_
_space_group_symop_operation_xyz
x,y,z
-x,y,1/2-z
-x,-y,-z
x,-y,1/2+z
loop_
_atom_site_type_symbol
_atom_site_label
_atom_site_fract_x
_atom_site_fract_y
_atom_site_fract_z
Si Si1 0.664754 0.383001 0.735880
Si Si2 0.792307 0.854941 0.013553
Si Si3 0.355583 0.308112 0.168605
Si Si4 0.791456 0.877312 0.385804
Si Si5 0.500000 0.251317 0.250000
Si Si6 0.427721 0.756250 0.265372
Si Si7 0.359292 0.932892 0.956132
Si Si8 0.997018 0.919854 0.628493
O O1 0.767444 0.298281 0.523206
O O2 0.682204 0.546854 0.692442
O O3 0.615082 0.334981 0.735412
O O4 0.589475 0.351275 0.010020
O O5 0.697473 0.925724 0.293989
O O6 0.890640 0.839697 0.867234
O O7 0.808992 0.959294 0.870741
O O8 0.258918 0.207094 0.396503
O O9 0.451087 0.244829 0.016852
O O10 0.386555 0.323316 0.968707
O O11 0.715192 0.857164 0.458389
O O12 0.904073 0.820562 0.100277
O O13 0.536906 0.153058 0.268889
O O14 0.387697 0.913031 0.353130
O O15 0.000000 0.993129 0.750000
O O16 0.000000 0.000000 0.500000
#
# Coordination Sequence:
#
# PCOD8120220 Si02
#       8
#     4   4   4   4   2   4   4   4
#     4  11  23  39  57  83 124 161 200 249 307 363
#     4  10  21  38  59  90 115 153 201 253 309 359
#     4  11  24  37  57  89 117 165 205 248 296 370
#     4  11  21  37  62  87 119 154 204 251 307 359
#     4  10  22  34  54  88 120 156 200 246 294 362
#     4  11  22  37  59  81 127 160 206 244 302 362
#     4  11  20  34  60  88 119 156 200 247 300 357
#     4  10  21  39  65  96 124 157 203 265 319 374
#
# _framework density 19.660824999999999
#
# number of rings (size 3 to 8) (size 9 to 14) (size 15 to 20)
#    0.000    1.333    4.000    2.800    1.867    3.200 
#    0.000    0.667    0.000    0.000    0.000    0.000 
#    0.000    0.000    0.000    0.000    0.000    0.000 
#
# Total GULP energy -371655.253678 kJ/mol
# GULP energy per Si atom -12388.508456 kJ/mol
# Density = 1.961608 g / cm^3
# Si number density = 19.660825 Si / 1000 Ang^3
#
#
#
# Elastic Constant Matrix: (Units=GPa)
#
#
# Indices 1 2 3 4 5 6 
#
# 1 94.3431 12.9356 26.1670 0.0000 -10.1501 0.0000
# 2 12.9356 78.3537 31.6971 0.0000 -14.4142 0.0000
# 3 26.1670 31.6971 85.8176 0.0000 -20.4584 0.0000
# 4 0.0000 0.0000 0.0000 14.7899 0.0000 5.3639
# 5 -10.1501 -14.4142 -20.4584 0.0000 35.6232 0.0000
# 6 0.0000 0.0000 0.0000 5.3639 0.0000 15.0169
#
#
#
# Elastic Compliance Matrix: (Units=1/GPa)
#
#
# Indices 1 2 3 4 5 6 
#
# 1 0.011658 -0.000429 -0.003065 0.000000 0.001388 0.000000
# 2 -0.000429 0.015373 -0.004743 0.000000 0.003374 0.000000
# 3 -0.003065 -0.004743 0.015842 0.000000 0.006306 0.000000
# 4 0.000000 0.000000 0.000000 0.077676 0.000000 -0.027745
# 5 0.001388 0.003374 0.006306 0.000000 0.033454 0.000000
# 6 0.000000 0.000000 0.000000 -0.027745 0.000000 0.076502
#
#
# Mechanical properties :
#
#
# Convention : Reuss Voigt Hill
#
# Bulk Modulus (GPa) = 37.88115 44.45708 41.16912
# Shear Modulus (GPa) = 19.54811 25.60032 22.57421
#
# Velocity S-wave (km/s) = 3.15662 3.61237 3.39216
# Velocity P-wave (km/s) = 5.70919 6.32930 6.02723
#
# Compressibility (1/GPa) = 0.02639835
#
# Stress axis : x y z
#
# Youngs Moduli (GPa) = 85.77831 65.04965 63.12228
#
# Poissons Ratio (x) = 0.02793 0.19349
# Poissons Ratio (y) = 0.03683 0.29937
# Poissons Ratio (z) = 0.26294 0.30851
#
# Static dielectric constant tensor:
#      x y z
#    x 3.812860 0.000000 -0.142860 
#    y 0.000000 3.362630 0.000000 
#    z -0.142860 0.000000 3.958620 
# 
# 
# High freq. dielectric constant tensor:
#      x y z
#    x 1.780430 0.000000 0.001030 
#    y 0.000000 1.725290 0.000000 
#    z 0.001030 0.000000 1.771830 
# 
# From -- ./inp_files/42691.got.cif
#   From: 2010.06.25/outbox.cif.g09.slc.cpg/sg13_22_cif.got.tgz:42691.got - 2010.06.28 04:50:58.
