data_PCOD8120756
_publ_section_title
;
Structure prediction by ZEFSAII (Michael W. Deem and Ramdas Pophale) SiO2 
 PCOD8120756
Probable space group: P 2/C
;
_chemical_formula_sum "Si O2"
_cell_formula_units_Z 28
_cell_length_a 14.272113
_cell_length_b 8.811440
_cell_length_c 13.836583
_cell_angle_alpha 90.000000
_cell_angle_beta 131.265581
_cell_angle_gamma 90.000000
_cell_volume 1307.933706
_symmetry_space_group_name_H-M "P 2/C"
_symmetry_group_IT_number 13
_symmetry_cell_setting 'monoclinic'
loop_
_space_group_symop_operation_xyz
x,y,z
-x,y,1/2-z
-x,-y,-z
x,-y,1/2+z
loop_
_atom_site_type_symbol
_atom_site_label
_atom_site_fract_x
_atom_site_fract_y
_atom_site_fract_z
Si Si1 0.785110 0.848806 0.394594
Si Si2 0.231933 0.192956 0.131071
Si Si3 0.268663 0.671167 0.317110
Si Si4 0.595474 0.812895 0.927993
Si Si5 0.018999 0.660683 0.057794
Si Si6 0.618818 0.656857 0.614777
Si Si7 0.418964 0.155959 0.602082
O O1 0.693684 0.760907 0.255829
O O2 0.921043 0.770061 0.484486
O O3 0.725566 0.842112 0.460702
O O4 0.800763 0.020179 0.370297
O O5 0.354596 0.209593 0.146940
O O6 0.257594 0.269859 0.253023
O O7 0.113742 0.272964 0.998891
O O8 0.290293 0.782660 0.421633
O O9 0.118683 0.641678 0.213481
O O10 0.354911 0.520901 0.383523
O O11 0.490214 0.689086 0.881876
O O12 0.543418 0.984909 0.904713
O O13 0.000000 0.500000 0.000000
O O14 0.573410 0.730927 0.483183
O O15 0.500000 0.207570 0.750000
#
# Coordination Sequence:
#
# PCOD8120756 Si02
#       7
#     4   4   4   4   4   4   4
#     4   9  21  40  64  94 125 170 218 263 318 370
#     4  11  21  41  68  94 127 174 214 270 318 381
#     4  10  23  40  64  94 135 166 215 262 319 390
#     4  11  23  40  62  97 128 167 218 261 324 383
#     4  10  21  42  66  91 135 168 216 260 324 381
#     4  12  23  39  67  96 132 169 208 266 327 389
#     4  11  23  42  66  93 129 169 214 273 322 387
#
# _framework density 21.407813000000001
#
# number of rings (size 3 to 8) (size 9 to 14) (size 15 to 20)
#    0.857    0.571    1.429    5.143    0.000    2.857 
#    0.000    2.857    0.000    0.000    0.000    0.000 
#    0.000    0.000    0.000    0.000    0.000    0.000 
#
# Total GULP energy -346991.970948 kJ/mol
# GULP energy per Si atom -12392.570391 kJ/mol
# Density = 2.135909 g / cm^3
# Si number density = 21.407813 Si / 1000 Ang^3
#
#
#
# Elastic Constant Matrix: (Units=GPa)
#
#
# Indices 1 2 3 4 5 6 
#
# 1 62.0682 33.1482 16.5326 0.0000 1.4805 0.0000
# 2 33.1482 133.7159 47.5527 0.0000 -7.0565 0.0000
# 3 16.5326 47.5527 122.7676 0.0000 3.4761 0.0000
# 4 0.0000 0.0000 0.0000 35.5942 0.0000 11.5222
# 5 1.4805 -7.0565 3.4761 0.0000 28.9603 0.0000
# 6 0.0000 0.0000 0.0000 11.5222 0.0000 27.7346
#
#
#
# Elastic Compliance Matrix: (Units=1/GPa)
#
#
# Indices 1 2 3 4 5 6 
#
# 1 0.018752 -0.004493 -0.000729 0.000000 -0.001966 0.000000
# 2 -0.004493 0.009938 -0.003331 0.000000 0.003051 0.000000
# 3 -0.000729 -0.003331 0.009588 0.000000 -0.001925 0.000000
# 4 0.000000 0.000000 0.000000 0.032460 0.000000 -0.013485
# 5 -0.001966 0.003051 -0.001925 0.000000 0.035605 0.000000
# 6 0.000000 0.000000 0.000000 -0.013485 0.000000 0.041658
#
#
# Mechanical properties :
#
#
# Convention : Reuss Voigt Hill
#
# Bulk Modulus (GPa) = 47.23166 57.00210 52.11688
# Shear Modulus (GPa) = 29.04199 33.21237 31.12718
#
# Velocity S-wave (km/s) = 3.68721 3.94307 3.81729
# Velocity P-wave (km/s) = 6.34335 6.88585 6.62016
#
# Compressibility (1/GPa) = 0.02117224
#
# Stress axis : x y z
#
# Youngs Moduli (GPa) = 53.32763 100.62564 104.29404
#
# Poissons Ratio (x) = 0.45211 0.07606
# Poissons Ratio (y) = 0.23960 0.34737
# Poissons Ratio (z) = 0.03889 0.33515
#
# Static dielectric constant tensor:
#      x y z
#    x 3.953520 0.000000 0.315190 
#    y 0.000000 3.904150 0.000000 
#    z 0.315190 0.000000 4.044980 
# 
# 
# High freq. dielectric constant tensor:
#      x y z
#    x 1.828070 0.000000 0.016280 
#    y 0.000000 1.845350 0.000000 
#    z 0.016280 0.000000 1.837640 
# 
# From -- ./inp_files/36530.got.cif
#   From: 2010.06.25/outbox.cif.g09.slc.cpg/sg13_19_cif.got.tgz:36530.got - 2010.06.28 04:50:58.
