data_PCOD8120941
_publ_section_title
;
Structure prediction by ZEFSAII (Michael W. Deem and Ramdas Pophale) SiO2 
 PCOD8120941
Probable space group: P 2/C
;
_chemical_formula_sum "Si O2"
_cell_formula_units_Z 32
_cell_length_a 17.645297
_cell_length_b 12.038028
_cell_length_c 24.507960
_cell_angle_alpha 90.000000
_cell_angle_beta 19.439784
_cell_angle_gamma 90.000000
_cell_volume 1732.589458
_symmetry_space_group_name_H-M "P 2/C"
_symmetry_group_IT_number 13
_symmetry_cell_setting 'monoclinic'
loop_
_space_group_symop_operation_xyz
x,y,z
-x,y,1/2-z
-x,-y,-z
x,-y,1/2+z
loop_
_atom_site_type_symbol
_atom_site_label
_atom_site_fract_x
_atom_site_fract_y
_atom_site_fract_z
Si Si1 0.054477 0.763064 0.801723
Si Si2 0.134816 0.204803 0.510842
Si Si3 0.366766 0.011076 0.491347
Si Si4 0.065969 0.988824 0.292194
Si Si5 0.552216 0.204735 0.302037
Si Si6 0.370442 0.237002 0.985782
Si Si7 0.178998 0.627383 0.331723
Si Si8 0.135986 0.627441 0.853295
O O1 0.248707 0.735660 0.625642
O O2 0.067652 0.677630 0.841993
O O3 0.090945 0.887940 0.800465
O O4 0.807023 0.750588 0.942984
O O5 0.967919 0.102029 0.637727
O O6 0.302935 0.233326 0.447055
O O7 0.277966 0.168086 0.361063
O O8 0.984104 0.313109 0.601589
O O9 0.147674 0.009648 0.602304
O O10 0.545440 0.101959 0.348846
O O11 0.291056 0.042098 0.604405
O O12 0.474794 0.887877 0.416585
O O13 0.641422 0.312950 0.272904
O O14 0.570648 0.322620 0.838893
O O15 0.199084 0.499937 0.300918
O O16 0.078226 0.640539 0.460862
#
# Coordination Sequence:
#
# PCOD8120941 Si02
#       8
#     4   4   4   4   4   4   4   4
#     4   9  19  36  56  78 105 135 167 208 257 306
#     4   9  18  33  52  74 102 134 168 210 257 304
#     4   8  15  30  52  77 103 130 163 204 254 312
#     4   8  15  30  52  77 103 130 163 204 254 312
#     4   9  18  33  52  74 102 134 168 210 257 304
#     4   9  19  36  56  78 105 135 167 208 257 306
#     4  10  22  37  52  74 103 137 178 217 253 298
#     4  10  22  37  52  74 103 137 178 217 253 298
#
# _framework density 18.469465
#
# number of rings (size 3 to 8) (size 9 to 14) (size 15 to 20)
#    0.000    3.000    0.000    1.500    0.000    5.000 
#    0.000   10.000    0.000    3.000    0.000    0.000 
#    0.000    0.000    0.000    0.000    0.000    0.000 
#
# Total GULP energy -396756.813269 kJ/mol
# GULP energy per Si atom -12398.650415 kJ/mol
# Density = 1.842743 g / cm^3
# Si number density = 18.469465 Si / 1000 Ang^3
#
#
#
# Elastic Constant Matrix: (Units=GPa)
#
#
# Indices 1 2 3 4 5 6 
#
# 1 91.1270 70.3518 48.6909 0.0000 7.7293 0.0000
# 2 70.3518 168.4202 84.1458 0.0000 12.3035 0.0000
# 3 48.6909 84.1458 98.4724 0.0000 -0.9573 0.0000
# 4 0.0000 0.0000 0.0000 399.1372 0.0000 232.3223
# 5 7.7293 12.3035 -0.9573 0.0000 17.8004 0.0000
# 6 0.0000 0.0000 0.0000 232.3223 0.0000 163.6686
#
#
#
# Elastic Compliance Matrix: (Units=1/GPa)
#
#
# Indices 1 2 3 4 5 6 
#
# 1 0.017440 -0.004558 -0.004774 0.000000 -0.004679 0.000000
# 2 -0.004558 0.012707 -0.008675 0.000000 -0.007270 0.000000
# 3 -0.004774 -0.008675 0.020018 0.000000 0.009146 0.000000
# 4 0.000000 0.000000 0.000000 0.014417 0.000000 -0.020464
# 5 -0.004679 -0.007270 0.009146 0.000000 0.063727 0.000000
# 6 0.000000 0.000000 0.000000 -0.020464 0.000000 0.035158
#
#
# Mechanical properties :
#
#
# Convention : Reuss Voigt Hill
#
# Bulk Modulus (GPa) = 70.66989 84.93294 77.80141
# Shear Modulus (GPa) = 24.48596 126.44330 75.46463
#
# Velocity S-wave (km/s) = 3.64504 8.28308 6.39905
# Velocity P-wave (km/s) = 7.48741 11.72879 9.83936
#
# Compressibility (1/GPa) = 0.01415030
#
# Stress axis : x y z
#
# Youngs Moduli (GPa) = 57.33803 78.69819 49.95596
#
# Poissons Ratio (x) = 0.35871 0.23850
# Poissons Ratio (y) = 0.26135 0.43337
# Poissons Ratio (z) = 0.27375 0.68271
#
# Static dielectric constant tensor:
#      x y z
#    x 3.339190 0.000000 0.114110 
#    y 0.000000 3.448420 0.000000 
#    z 0.114110 0.000000 3.464230 
# 
# 
# High freq. dielectric constant tensor:
#      x y z
#    x 1.714780 0.000000 0.000060 
#    y 0.000000 1.710450 0.000000 
#    z 0.000060 0.000000 1.714440 
# 
# From -- ./inp_files/88157.got.cif
#   From: 2010.06.25/outbox.cif.g09.slc.cpg/sg13_45_cif.got.tgz:88157.got - 2010.06.28 04:50:58.
