data_PCOD8120672
_publ_section_title
;
Structure prediction by ZEFSAII (Michael W. Deem and Ramdas Pophale) SiO2 
 PCOD8120672
Probable space group: P 2/C
;
_chemical_formula_sum "Si O2"
_cell_formula_units_Z 26
_cell_length_a 17.668322
_cell_length_b 12.867291
_cell_length_c 9.386864
_cell_angle_alpha 90.000000
_cell_angle_beta 143.677454
_cell_angle_gamma 90.000000
_cell_volume 1264.057644
_symmetry_space_group_name_H-M "P 2/C"
_symmetry_group_IT_number 13
_symmetry_cell_setting 'monoclinic'
loop_
_space_group_symop_operation_xyz
x,y,z
-x,y,1/2-z
-x,-y,-z
x,-y,1/2+z
loop_
_atom_site_type_symbol
_atom_site_label
_atom_site_fract_x
_atom_site_fract_y
_atom_site_fract_z
Si Si1 0.337691 0.093889 0.649548
Si Si2 0.125711 0.813965 0.635748
Si Si3 0.364455 0.113242 0.020278
Si Si4 0.140849 0.541275 0.419515
Si Si5 0.500000 0.260725 0.750000
Si Si6 0.248799 0.608984 0.857588
Si Si7 0.850351 0.221296 0.645426
O O1 0.201389 0.116048 0.364915
O O2 0.324674 0.081495 0.799577
O O3 0.444018 0.184290 0.787500
O O4 0.381257 0.986215 0.648257
O O5 0.139629 0.695513 0.706790
O O6 0.182584 0.825119 0.561132
O O7 0.974794 0.837120 0.399372
O O8 0.262612 0.196499 0.919082
O O9 0.500000 0.170539 0.250000
O O10 0.227674 0.539035 0.689175
O O11 0.227759 0.464698 0.459093
O O12 0.125891 0.655209 0.326470
O O13 0.000000 0.499195 0.250000
O O14 0.385164 0.336925 0.535735
#
# Coordination Sequence:
#
# PCOD8120672 Si02
#       7
#     4   4   4   4   2   4   4
#     4  11  24  43  67  91 126 164 214 259 322 374
#     4   9  20  42  66  91 126 172 204 271 308 367
#     4  12  26  40  66  96 123 169 210 261 313 390
#     4  11  21  39  65  93 124 170 204 261 311 370
#     4  10  24  44  64  88 124 170 204 264 318 368
#     4  10  22  39  64  90 128 163 212 255 313 373
#     4  10  21  41  65  94 129 166 216 256 318 362
#
# _framework density 20.568683
#
# number of rings (size 3 to 8) (size 9 to 14) (size 15 to 20)
#    0.000    1.538    3.846    1.846    6.462    4.308 
#    1.385    0.000    0.000    0.000    0.000    0.000 
#    0.000    0.000    0.000    0.000    0.000    0.000 
#
# Total GULP energy -322137.316345 kJ/mol
# GULP energy per Si atom -12389.896783 kJ/mol
# Density = 2.052187 g / cm^3
# Si number density = 20.568683 Si / 1000 Ang^3
#
#
#
# Elastic Constant Matrix: (Units=GPa)
#
#
# Indices 1 2 3 4 5 6 
#
# 1 106.2364 32.7282 41.4225 0.0000 4.6955 0.0000
# 2 32.7282 44.1513 16.9005 0.0000 7.3814 0.0000
# 3 41.4225 16.9005 91.1323 0.0000 4.3686 0.0000
# 4 0.0000 0.0000 0.0000 -2.8110 0.0000 16.5751
# 5 4.6955 7.3814 4.3686 0.0000 36.0765 0.0000
# 6 0.0000 0.0000 0.0000 16.5751 0.0000 14.1012
#
#
#
# Elastic Compliance Matrix: (Units=1/GPa)
#
#
# Indices 1 2 3 4 5 6 
#
# 1 0.013876 -0.008556 -0.004745 0.000000 0.000519 0.000000
# 2 -0.008556 0.030393 -0.001511 0.000000 -0.004922 0.000000
# 3 -0.004745 -0.001511 0.013444 0.000000 -0.000701 0.000000
# 4 0.000000 0.000000 0.000000 -0.044855 0.000000 0.052724
# 5 0.000519 -0.004922 -0.000701 0.000000 0.028743 0.000000
# 6 0.000000 0.000000 0.000000 0.052724 0.000000 0.008942
#
#
# Mechanical properties :
#
#
# Convention : Reuss Voigt Hill
#
# Bulk Modulus (GPa) = 35.60324 47.06914 41.33619
# Shear Modulus (GPa) = 55.84601 19.50459 37.67530
#
# Velocity S-wave (km/s) = 5.21631 3.08273 4.28446
# Velocity P-wave (km/s) = 7.32304 5.96696 6.67950
#
# Compressibility (1/GPa) = 0.02808734
#
# Stress axis : x y z
#
# Youngs Moduli (GPa) = 72.06574 32.90179 74.38362
#
# Poissons Ratio (x) = 0.28152 0.35297
# Poissons Ratio (y) = 0.61663 0.11242
# Poissons Ratio (z) = 0.34197 0.04973
#
# Static dielectric constant tensor:
#      x y z
#    x 3.655450 0.000000 -0.004160 
#    y 0.000000 3.563900 0.000000 
#    z -0.004160 0.000000 3.990180 
# 
# 
# High freq. dielectric constant tensor:
#      x y z
#    x 1.797490 0.000000 0.000410 
#    y 0.000000 1.789890 0.000000 
#    z 0.000410 0.000000 1.818230 
# 
# From -- ./inp_files/19927.got.cif
#   From: 2010.06.25/outbox.cif.g09.slc.cpg/sg13_10_cif.got.tgz:19927.got - 2010.06.28 04:50:58.
