data_PCOD8120955
_publ_section_title
;
Structure prediction by ZEFSAII (Michael W. Deem and Ramdas Pophale) SiO2 
 PCOD8120955
Probable space group: P 2/C
;
_chemical_formula_sum "Si O2"
_cell_formula_units_Z 24
_cell_length_a 13.703419
_cell_length_b 5.992070
_cell_length_c 21.528920
_cell_angle_alpha 90.000000
_cell_angle_beta 42.442315
_cell_angle_gamma 90.000000
_cell_volume 1192.981623
_symmetry_space_group_name_H-M "P 2/C"
_symmetry_group_IT_number 13
_symmetry_cell_setting 'monoclinic'
loop_
_space_group_symop_operation_xyz
x,y,z
-x,y,1/2-z
-x,-y,-z
x,-y,1/2+z
loop_
_atom_site_type_symbol
_atom_site_label
_atom_site_fract_x
_atom_site_fract_y
_atom_site_fract_z
Si Si1 0.672345 0.826794 0.762039
Si Si2 0.270038 0.528822 0.358923
Si Si3 0.440500 0.174658 0.864379
Si Si4 0.517212 0.559023 0.562980
Si Si5 0.935143 0.100002 0.594256
Si Si6 0.229511 0.789655 0.991502
O O1 0.650014 0.606395 0.732332
O O2 0.607157 0.742800 0.859381
O O3 0.572494 0.020248 0.780983
O O4 0.835499 0.921797 0.679430
O O5 0.394595 0.682738 0.327229
O O6 0.142729 0.671269 0.387711
O O7 0.214387 0.354602 0.435886
O O8 0.496769 0.326288 0.894471
O O9 0.302588 0.028406 0.947750
O O10 0.500000 0.500000 0.500000
O O11 0.679364 0.656979 0.499154
O O12 0.061478 0.157799 0.585303
O O13 0.000000 0.000000 0.500000
#
# Coordination Sequence:
#
# PCOD8120955 Si02
#       6
#     4   4   4   4   4   4
#     4  11  24  35  60  90 124 164 199 252 322 375
#     4  11  21  36  59  92 134 158 198 238 324 394
#     4  10  22  40  59  91 121 156 205 258 307 382
#     4  10  24  44  65  84 113 164 224 272 303 359
#     4  12  22  37  57  93 135 163 192 249 321 407
#     4  10  22  37  62  91 122 167 198 251 322 385
#
# _framework density 20.117661999999999
#
# number of rings (size 3 to 8) (size 9 to 14) (size 15 to 20)
#    0.000    1.333    3.333    1.500    0.000   18.667 
#    0.000    0.000    0.000   15.000    0.000    0.000 
#    0.000    0.000    0.000    0.000    0.000    0.000 
#
# Total GULP energy -297403.369083 kJ/mol
# GULP energy per Si atom -12391.807045 kJ/mol
# Density = 2.007187 g / cm^3
# Si number density = 20.117662 Si / 1000 Ang^3
#
#
#
# Elastic Constant Matrix: (Units=GPa)
#
#
# Indices 1 2 3 4 5 6 
#
# 1 121.7328 51.4325 72.9325 0.0000 -10.4396 0.0000
# 2 51.4325 123.1203 52.3463 0.0000 -13.2100 0.0000
# 3 72.9325 52.3463 103.3197 0.0000 -20.9012 0.0000
# 4 0.0000 0.0000 0.0000 37.5474 0.0000 -10.2734
# 5 -10.4396 -13.2100 -20.9012 0.0000 17.5346 0.0000
# 6 0.0000 0.0000 0.0000 -10.2734 0.0000 27.3865
#
#
#
# Elastic Compliance Matrix: (Units=1/GPa)
#
#
# Indices 1 2 3 4 5 6 
#
# 1 0.015059 -0.002403 -0.010496 0.000000 -0.005356 0.000000
# 2 -0.002403 0.010791 -0.003184 0.000000 0.002904 0.000000
# 3 -0.010496 -0.003184 0.022338 0.000000 0.017979 0.000000
# 4 0.000000 0.000000 0.000000 0.029679 0.000000 0.011133
# 5 -0.005356 0.002904 0.017979 0.000000 0.077461 0.000000
# 6 0.000000 0.000000 0.000000 0.011133 0.000000 0.040691
#
#
# Mechanical properties :
#
#
# Convention : Reuss Voigt Hill
#
# Bulk Modulus (GPa) = 62.41065 77.95506 70.18285
# Shear Modulus (GPa) = 21.41101 27.92447 24.66774
#
# Velocity S-wave (km/s) = 3.26588 3.72971 3.50547
# Velocity P-wave (km/s) = 6.73138 7.57504 7.16564
#
# Compressibility (1/GPa) = 0.01602291
#
# Stress axis : x y z
#
# Youngs Moduli (GPa) = 66.40519 92.66935 44.76699
#
# Poissons Ratio (x) = 0.22267 0.46988
# Poissons Ratio (y) = 0.15956 0.14252
# Poissons Ratio (z) = 0.69700 0.29502
#
# Static dielectric constant tensor:
#      x y z
#    x 3.554940 0.000000 -0.425300 
#    y 0.000000 7.126520 0.000000 
#    z -0.425300 0.000000 3.596070 
# 
# 
# High freq. dielectric constant tensor:
#      x y z
#    x 1.760120 0.000000 -0.034580 
#    y 0.000000 1.818740 0.000000 
#    z -0.034580 0.000000 1.764870 
# 
# From -- ./inp_files/79239.got.cif
#   From: 2010.06.25/outbox.cif.g09.slc.cpg/sg13_40_cif.got.tgz:79239.got - 2010.06.28 04:50:58.
