data_PCOD8120737
_publ_section_title
;
Structure prediction by ZEFSAII (Michael W. Deem and Ramdas Pophale) SiO2 
 PCOD8120737
Probable space group: P 2/C
;
_chemical_formula_sum "Si O2"
_cell_formula_units_Z 26
_cell_length_a 14.764183
_cell_length_b 5.251711
_cell_length_c 17.668787
_cell_angle_alpha 90.000000
_cell_angle_beta 55.294021
_cell_angle_gamma 90.000000
_cell_volume 1126.246625
_symmetry_space_group_name_H-M "P 2/C"
_symmetry_group_IT_number 13
_symmetry_cell_setting 'monoclinic'
loop_
_space_group_symop_operation_xyz
x,y,z
-x,y,1/2-z
-x,-y,-z
x,-y,1/2+z
loop_
_atom_site_type_symbol
_atom_site_label
_atom_site_fract_x
_atom_site_fract_y
_atom_site_fract_z
Si Si1 0.810134 0.167835 0.812316
Si Si2 0.132244 0.779259 0.929790
Si Si3 0.815393 0.344249 0.407115
Si Si4 0.977482 0.387914 0.621282
Si Si5 0.678418 0.514140 0.101096
Si Si6 0.695465 0.892872 0.219612
Si Si7 0.500000 0.232667 0.250000
O O1 0.777796 0.412948 0.876486
O O2 0.706579 0.134351 0.804664
O O3 0.925271 0.229210 0.714638
O O4 0.828654 0.913390 0.852691
O O5 0.229115 0.703338 0.942114
O O6 0.113997 0.559722 0.876089
O O7 0.179287 0.026751 0.865574
O O8 0.026560 0.814351 0.035565
O O9 0.930849 0.411823 0.392561
O O10 0.715077 0.296645 0.515705
O O11 0.672974 0.633157 0.187592
O O12 0.555965 0.393572 0.154203
O O13 0.595785 0.078928 0.246621
#
# Coordination Sequence:
#
# PCOD8120737 Si02
#       7
#     4   4   4   4   4   4   2
#     4  12  26  45  65 103 146 187 226 280 342 409
#     4   9  20  39  65 101 134 179 237 290 326 385
#     4  11  28  44  67 101 152 188 226 277 343 411
#     4  10  21  42  63  99 142 193 233 272 328 410
#     4  10  22  46  69 100 133 175 235 290 347 410
#     4  11  23  43  74  97 130 174 233 295 343 414
#     4  10  24  44  80 100 120 168 242 294 358 416
#
# _framework density 23.085529999999999
#
# number of rings (size 3 to 8) (size 9 to 14) (size 15 to 20)
#    0.000    1.538    1.538    1.846    8.615    5.538 
#    2.769    1.538    0.000    0.000    0.000    0.000 
#    0.000    0.000    0.000    0.000    0.000    0.000 
#
# Total GULP energy -322175.574398 kJ/mol
# GULP energy per Si atom -12391.368246 kJ/mol
# Density = 2.303299 g / cm^3
# Si number density = 23.085530 Si / 1000 Ang^3
#
#
#
# Elastic Constant Matrix: (Units=GPa)
#
#
# Indices 1 2 3 4 5 6 
#
# 1 94.0704 17.6986 49.9855 0.0000 -8.4392 0.0000
# 2 17.6986 72.9207 28.3706 0.0000 3.1392 0.0000
# 3 49.9855 28.3706 112.2838 0.0000 -2.3669 0.0000
# 4 0.0000 0.0000 0.0000 41.1651 0.0000 6.9456
# 5 -8.4392 3.1392 -2.3669 0.0000 39.6346 0.0000
# 6 0.0000 0.0000 0.0000 6.9456 0.0000 29.5334
#
#
#
# Elastic Compliance Matrix: (Units=1/GPa)
#
#
# Indices 1 2 3 4 5 6 
#
# 1 0.014300 -0.001261 -0.005988 0.000000 0.002787 0.000000
# 2 -0.001261 0.015402 -0.003366 0.000000 -0.001689 0.000000
# 3 -0.005988 -0.003366 0.012417 0.000000 -0.000267 0.000000
# 4 0.000000 0.000000 0.000000 0.025296 0.000000 -0.005949
# 5 0.002787 -0.001689 -0.000267 0.000000 0.025942 0.000000
# 6 0.000000 0.000000 0.000000 -0.005949 0.000000 0.035259
#
#
# Mechanical properties :
#
#
# Convention : Reuss Voigt Hill
#
# Bulk Modulus (GPa) = 47.87470 52.37603 50.12536
# Shear Modulus (GPa) = 31.88613 34.28130 33.08372
#
# Velocity S-wave (km/s) = 3.72050 3.85771 3.78973
# Velocity P-wave (km/s) = 6.26412 6.52531 6.39605
#
# Compressibility (1/GPa) = 0.02088786
#
# Stress axis : x y z
#
# Youngs Moduli (GPa) = 69.93193 64.92746 80.53649
#
# Poissons Ratio (x) = 0.08186 0.48229
# Poissons Ratio (y) = 0.08817 0.27108
# Poissons Ratio (z) = 0.41879 0.21854
#
# Static dielectric constant tensor:
#      x y z
#    x 4.211310 0.000000 0.044600 
#    y 0.000000 4.043320 0.000000 
#    z 0.044600 0.000000 4.518100 
# 
# 
# High freq. dielectric constant tensor:
#      x y z
#    x 1.905550 0.000000 0.000490 
#    y 0.000000 1.913970 0.000000 
#    z 0.000490 0.000000 1.910340 
# 
# From -- ./inp_files/67277.got.cif
#   From: 2010.06.25/outbox.cif.g09.slc.cpg/sg13_34_cif.got.tgz:67277.got - 2010.06.28 04:50:58.
