data_PCOD8120481
_publ_section_title
;
Structure prediction by ZEFSAII (Michael W. Deem and Ramdas Pophale) SiO2 
 PCOD8120481
Probable space group: P 2/C
;
_chemical_formula_sum "Si O2"
_cell_formula_units_Z 26
_cell_length_a 10.934944
_cell_length_b 9.339473
_cell_length_c 15.068445
_cell_angle_alpha 90.000000
_cell_angle_beta 63.138920
_cell_angle_gamma 90.000000
_cell_volume 1372.850281
_symmetry_space_group_name_H-M "P 2/C"
_symmetry_group_IT_number 13
_symmetry_cell_setting 'monoclinic'
loop_
_space_group_symop_operation_xyz
x,y,z
-x,y,1/2-z
-x,-y,-z
x,-y,1/2+z
loop_
_atom_site_type_symbol
_atom_site_label
_atom_site_fract_x
_atom_site_fract_y
_atom_site_fract_z
Si Si1 0.000000 0.904680 0.250000
Si Si2 0.186975 0.653098 0.258086
Si Si3 0.301916 0.234449 0.890631
Si Si4 0.500000 0.985362 0.250000
Si Si5 0.846244 0.153924 0.391096
Si Si6 0.000000 0.593987 0.750000
Si Si7 0.447908 0.119277 0.082930
Si Si8 0.464670 0.356886 0.559536
O O1 0.111109 0.801784 0.259533
O O2 0.064589 0.010427 0.154357
O O3 0.226951 0.655309 0.349021
O O4 0.318603 0.639306 0.153130
O O5 0.098758 0.509914 0.273739
O O6 0.366460 0.111862 0.807533
O O7 0.420100 0.314563 0.906725
O O8 0.193498 0.160658 0.992355
O O9 0.478074 0.087026 0.174188
O O10 0.922388 0.302747 0.344250
O O11 0.713422 0.146410 0.372374
O O12 0.538879 0.252571 0.023513
O O13 0.500000 0.000000 0.000000
O O14 0.500000 0.500000 0.500000
#
# Coordination Sequence:
#
# PCOD8120481 Si02
#       8
#     2   4   4   2   4   2   4   4
#     4  10  22  36  62  84 118 164 204 234 296 364
#     4  11  21  39  61  88 117 162 209 243 297 375
#     4  11  21  37  66  88 123 150 200 261 314 355
#     4  12  20  36  62 104 118 156 190 256 332 360
#     4  10  21  40  59  87 121 163 194 253 302 359
#     4  10  24  42  60  78 124 174 204 240 294 362
#     4  11  20  38  65  91 123 155 199 254 316 362
#     4  11  22  40  62  89 122 160 197 258 320 354
#
# _framework density 18.938700999999998
#
# number of rings (size 3 to 8) (size 9 to 14) (size 15 to 20)
#    0.000    1.231    4.615    3.692    0.000    1.231 
#    5.538    0.000    0.000    0.000    0.000    0.000 
#    0.000    0.000    0.000    0.000    0.000    0.000 
#
# Total GULP energy -322347.282460 kJ/mol
# GULP energy per Si atom -12397.972402 kJ/mol
# Density = 1.889560 g / cm^3
# Si number density = 18.938701 Si / 1000 Ang^3
#
#
#
# Elastic Constant Matrix: (Units=GPa)
#
#
# Indices 1 2 3 4 5 6 
#
# 1 99.8776 50.9449 60.6267 0.0000 1.9370 0.0000
# 2 50.9449 140.5178 60.7575 0.0000 -1.2793 0.0000
# 3 60.6267 60.7575 140.3278 0.0000 1.6581 0.0000
# 4 0.0000 0.0000 0.0000 3.5620 0.0000 -5.3842
# 5 1.9370 -1.2793 1.6581 0.0000 40.7480 0.0000
# 6 0.0000 0.0000 0.0000 -5.3842 0.0000 28.7229
#
#
#
# Elastic Compliance Matrix: (Units=1/GPa)
#
#
# Indices 1 2 3 4 5 6 
#
# 1 0.014646 -0.003177 -0.004945 0.000000 -0.000595 0.000000
# 2 -0.003177 0.009452 -0.002727 0.000000 0.000559 0.000000
# 3 -0.004945 -0.002727 0.010446 0.000000 -0.000276 0.000000
# 4 0.000000 0.000000 0.000000 0.391738 0.000000 0.073433
# 5 -0.000595 0.000559 -0.000276 0.000000 0.024598 0.000000
# 6 0.000000 0.000000 0.000000 0.073433 0.000000 0.048581
#
#
# Mechanical properties :
#
#
# Convention : Reuss Voigt Hill
#
# Bulk Modulus (GPa) = 77.83693 80.59794 79.21743
# Shear Modulus (GPa) = 9.51581 28.49953 19.00767
#
# Velocity S-wave (km/s) = 2.24398 3.88342 3.17147
# Velocity P-wave (km/s) = 6.92117 7.92197 7.43842
#
# Compressibility (1/GPa) = 0.01284737
#
# Stress axis : x y z
#
# Youngs Moduli (GPa) = 68.27777 105.79276 95.72749
#
# Poissons Ratio (x) = 0.33613 0.47337
# Poissons Ratio (y) = 0.21694 0.26100
# Poissons Ratio (z) = 0.33763 0.28845
#
# Static dielectric constant tensor:
#      x y z
#    x 3.563430 0.000000 -0.152840 
#    y 0.000000 3.771090 0.000000 
#    z -0.152840 0.000000 3.623720 
# 
# 
# High freq. dielectric constant tensor:
#      x y z
#    x 1.732300 0.000000 -0.011930 
#    y 0.000000 1.744170 0.000000 
#    z -0.011930 0.000000 1.748920 
# 
# From -- ./inp_files/49799.got.cif
#   From: 2010.06.25/outbox.cif.g09.slc.cpg/sg13_25_cif.got.tgz:49799.got - 2010.06.28 04:50:58.
