data_PCOD8120594
_publ_section_title
;
Structure prediction by ZEFSAII (Michael W. Deem and Ramdas Pophale) SiO2 
 PCOD8120594
Probable space group: P 2/C
;
_chemical_formula_sum "Si O2"
_cell_formula_units_Z 16
_cell_length_a 13.206705
_cell_length_b 7.409310
_cell_length_c 22.500345
_cell_angle_alpha 90.000000
_cell_angle_beta 159.062966
_cell_angle_gamma 90.000000
_cell_volume 786.765295
_symmetry_space_group_name_H-M "P 2/C"
_symmetry_group_IT_number 13
_symmetry_cell_setting 'monoclinic'
loop_
_space_group_symop_operation_xyz
x,y,z
-x,y,1/2-z
-x,-y,-z
x,-y,1/2+z
loop_
_atom_site_type_symbol
_atom_site_label
_atom_site_fract_x
_atom_site_fract_y
_atom_site_fract_z
Si Si1 0.061805 0.828181 0.396177
Si Si2 0.818509 0.674581 0.912879
Si Si3 0.714629 0.832898 0.733471
Si Si4 0.195241 0.482190 0.305374
O O1 0.053605 0.775201 0.460550
O O2 0.378550 0.868518 0.547133
O O3 0.925130 0.675034 0.280533
O O4 0.871574 0.006270 0.285280
O O5 0.500000 0.607016 0.750000
O O6 0.824519 0.814275 0.861272
O O7 0.000000 0.500000 0.000000
O O8 0.797448 0.647028 0.747176
O O9 0.500000 0.500000 0.500000
O O10 0.000000 0.398824 0.250000
#
# Coordination Sequence:
#
# PCOD8120594 Si02
#       4
#     4   4   4   4
#     4  11  25  43  68 100 131 169 217 266 328 386
#     4  10  21  40  68  99 130 166 210 264 331 388
#     4  11  25  43  68  99 132 170 214 270 325 386
#     4  12  26  45  66  94 131 174 225 268 317 378
#
# _framework density 20.336434000000001
#
# number of rings (size 3 to 8) (size 9 to 14) (size 15 to 20)
#    0.000    1.000    5.000    0.750    3.500    4.000 
#    0.000    0.000    0.000    0.000    0.000    0.000 
#    0.000    0.000    0.000    0.000    0.000    0.000 
#
# Total GULP energy -198483.322117 kJ/mol
# GULP energy per Si atom -12405.207632 kJ/mol
# Density = 2.029015 g / cm^3
# Si number density = 20.336434 Si / 1000 Ang^3
#
#
#
# Elastic Constant Matrix: (Units=GPa)
#
#
# Indices 1 2 3 4 5 6 
#
# 1 104.1457 29.2972 37.0922 0.0000 11.2216 0.0000
# 2 29.2972 105.8546 41.8107 0.0000 18.2765 0.0000
# 3 37.0922 41.8107 116.3714 0.0000 7.3724 0.0000
# 4 0.0000 0.0000 0.0000 28.9610 0.0000 11.5886
# 5 11.2216 18.2765 7.3724 0.0000 39.6885 0.0000
# 6 0.0000 0.0000 0.0000 11.5886 0.0000 32.3583
#
#
#
# Elastic Compliance Matrix: (Units=1/GPa)
#
#
# Indices 1 2 3 4 5 6 
#
# 1 0.011301 -0.001661 -0.002885 0.000000 -0.001894 0.000000
# 2 -0.001661 0.012064 -0.003524 0.000000 -0.004431 0.000000
# 3 -0.002885 -0.003524 0.010751 0.000000 0.000442 0.000000
# 4 0.000000 0.000000 0.000000 0.040305 0.000000 -0.014435
# 5 -0.001894 -0.004431 0.000442 0.000000 0.027690 0.000000
# 6 0.000000 0.000000 0.000000 -0.014435 0.000000 0.036073
#
#
# Mechanical properties :
#
#
# Convention : Reuss Voigt Hill
#
# Bulk Modulus (GPa) = 55.63366 60.30797 57.97082
# Shear Modulus (GPa) = 31.18821 34.74634 32.96727
#
# Velocity S-wave (km/s) = 3.92038 4.13798 4.03065
# Velocity P-wave (km/s) = 6.92160 7.24914 7.08726
#
# Compressibility (1/GPa) = 0.01797473
#
# Stress axis : x y z
#
# Youngs Moduli (GPa) = 88.48840 82.89357 93.01435
#
# Poissons Ratio (x) = 0.13769 0.26837
# Poissons Ratio (y) = 0.14698 0.32780
# Poissons Ratio (z) = 0.25531 0.29213
#
# Static dielectric constant tensor:
#      x y z
#    x 3.784270 0.000000 0.031480 
#    y 0.000000 3.579870 0.000000 
#    z 0.031480 0.000000 3.833420 
# 
# 
# High freq. dielectric constant tensor:
#      x y z
#    x 1.813280 0.000000 -0.000200 
#    y 0.000000 1.787890 0.000000 
#    z -0.000200 0.000000 1.806460 
# 
# From -- ./inp_files/14433.got.cif
#   From: 2010.06.25/outbox.cif.g09.slc.cpg/sg13_8_cif.got.tgz:14433.got - 2010.06.28 04:50:58.
