data_PCOD8120027
_publ_section_title
;
Structure prediction by ZEFSAII (Michael W. Deem and Ramdas Pophale) SiO2 
 PCOD8120027
Probable space group: P 2/C
;
_chemical_formula_sum "Si O2"
_cell_formula_units_Z 20
_cell_length_a 9.187290
_cell_length_b 11.757392
_cell_length_c 13.158431
_cell_angle_alpha 90.000000
_cell_angle_beta 135.515802
_cell_angle_gamma 90.000000
_cell_volume 995.961181
_symmetry_space_group_name_H-M "P 2/C"
_symmetry_group_IT_number 13
_symmetry_cell_setting 'monoclinic'
loop_
_space_group_symop_operation_xyz
x,y,z
-x,y,1/2-z
-x,-y,-z
x,-y,1/2+z
loop_
_atom_site_type_symbol
_atom_site_label
_atom_site_fract_x
_atom_site_fract_y
_atom_site_fract_z
Si Si1 0.381231 0.147464 0.423842
Si Si2 0.322678 0.593428 0.920615
Si Si3 0.985144 0.596292 0.910816
Si Si4 0.192265 0.051526 0.915224
Si Si5 0.737420 0.813478 0.849179
O O1 0.409944 0.281651 0.445262
O O2 0.612499 0.101355 0.548170
O O3 0.269199 0.117468 0.260026
O O4 0.233309 0.086460 0.435123
O O5 0.164243 0.558346 0.754049
O O6 0.215476 0.604256 0.977617
O O7 0.500000 0.500000 0.000000
O O8 0.901069 0.710247 0.923344
O O9 0.000000 0.500000 0.000000
O O10 0.000000 0.087905 0.750000
O O11 0.179514 0.100778 0.022678
O O12 0.500000 0.769106 0.750000
#
# Coordination Sequence:
#
# PCOD8120027 Si02
#       5
#     4   4   4   4   4
#     4   9  21  41  59  88 122 164 201 242 319 369
#     4  10  23  42  64  87 125 162 201 259 306 370
#     4  10  23  38  63  93 118 163 210 246 314 371
#     4  10  21  36  64  88 120 159 206 255 296 363
#     4   9  20  39  62  87 126 165 202 253 314 370
#
# _framework density 20.081102999999999
#
# number of rings (size 3 to 8) (size 9 to 14) (size 15 to 20)
#    0.000    2.400    0.000    0.000   14.000    2.400 
#    0.000    0.000    8.800    0.000    0.000    0.000 
#    0.000    0.000    0.000    0.000    0.000    0.000 
#
# Total GULP energy -247813.344091 kJ/mol
# GULP energy per Si atom -12390.667205 kJ/mol
# Density = 2.003540 g / cm^3
# Si number density = 20.081103 Si / 1000 Ang^3
#
#
#
# Elastic Constant Matrix: (Units=GPa)
#
#
# Indices 1 2 3 4 5 6 
#
# 1 105.8717 65.0312 43.4927 0.0000 -5.9408 0.0000
# 2 65.0312 128.4498 74.0590 0.0000 -7.8434 0.0000
# 3 43.4927 74.0590 99.6750 0.0000 -0.1022 0.0000
# 4 0.0000 0.0000 0.0000 31.4318 0.0000 -4.2470
# 5 -5.9408 -7.8434 -0.1022 0.0000 30.7693 0.0000
# 6 0.0000 0.0000 0.0000 -4.2470 0.0000 43.4877
#
#
#
# Elastic Compliance Matrix: (Units=1/GPa)
#
#
# Indices 1 2 3 4 5 6 
#
# 1 0.013866 -0.006059 -0.001547 0.000000 0.001128 0.000000
# 2 -0.006059 0.016641 -0.009717 0.000000 0.003040 0.000000
# 3 -0.001547 -0.009717 0.017925 0.000000 -0.002716 0.000000
# 4 0.000000 0.000000 0.000000 0.032240 0.000000 0.003149
# 5 0.001128 0.003040 -0.002716 0.000000 0.033483 0.000000
# 6 0.000000 0.000000 0.000000 0.003149 0.000000 0.023303
#
#
# Mechanical properties :
#
#
# Convention : Reuss Voigt Hill
#
# Bulk Modulus (GPa) = 72.54493 77.68473 75.11483
# Shear Modulus (GPa) = 28.29640 31.23198 29.76419
#
# Velocity S-wave (km/s) = 3.75788 3.94800 3.85411
# Velocity P-wave (km/s) = 7.41844 7.71698 7.56918
#
# Compressibility (1/GPa) = 0.01378456
#
# Stress axis : x y z
#
# Youngs Moduli (GPa) = 72.11831 60.09248 55.78796
#
# Poissons Ratio (x) = 0.36411 0.08632
# Poissons Ratio (y) = 0.43698 0.54211
# Poissons Ratio (z) = 0.11159 0.58394
#
# Static dielectric constant tensor:
#      x y z
#    x 4.956550 0.000000 -0.335210 
#    y 0.000000 4.727620 0.000000 
#    z -0.335210 0.000000 3.721960 
# 
# 
# High freq. dielectric constant tensor:
#      x y z
#    x 1.797140 0.000000 0.002020 
#    y 0.000000 1.780170 0.000000 
#    z 0.002020 0.000000 1.776120 
# 
# From -- ./inp_files/29618.got.cif
#   From: 2010.06.25/outbox.cif.g09.slc.cpg/sg13_15_cif.got.tgz:29618.got - 2010.06.28 04:50:58.
