data_PCOD8120061
_publ_section_title
;
Structure prediction by ZEFSAII (Michael W. Deem and Ramdas Pophale) SiO2 
 PCOD8120061
Probable space group: P 2/C
;
_chemical_formula_sum "Si O2"
_cell_formula_units_Z 24
_cell_length_a 13.907652
_cell_length_b 8.880687
_cell_length_c 15.013555
_cell_angle_alpha 90.000000
_cell_angle_beta 37.434314
_cell_angle_gamma 90.000000
_cell_volume 1127.149209
_symmetry_space_group_name_H-M "P 2/C"
_symmetry_group_IT_number 13
_symmetry_cell_setting 'monoclinic'
loop_
_space_group_symop_operation_xyz
x,y,z
-x,y,1/2-z
-x,-y,-z
x,-y,1/2+z
loop_
_atom_site_type_symbol
_atom_site_label
_atom_site_fract_x
_atom_site_fract_y
_atom_site_fract_z
Si Si1 0.646754 0.679461 0.918600
Si Si2 0.864532 0.868376 0.095722
Si Si3 0.644574 0.874287 0.756312
Si Si4 0.275638 0.654972 0.160758
Si Si5 0.715095 0.153519 0.010705
Si Si6 0.844355 0.169865 0.413708
O O1 0.710624 0.782596 0.791367
O O2 0.739786 0.524097 0.832041
O O3 0.696138 0.745104 0.978230
O O4 0.456999 0.679001 0.057683
O O5 0.853811 0.738501 0.179814
O O6 0.699381 0.954666 0.225291
O O7 0.866091 0.782715 0.000387
O O8 0.000000 0.000000 0.000000
O O9 0.712655 0.795042 0.616061
O O10 0.458523 0.892792 0.892482
O O11 0.232939 0.712375 0.092593
O O12 0.827870 0.010194 0.916399
O O13 0.000000 0.224820 0.250000
#
# Coordination Sequence:
#
# PCOD8120061 Si02
#       6
#     4   4   4   4   4   4
#     4  10  21  37  57  84 119 152 191 242 302 365
#     4  11  22  37  59  84 112 151 197 242 290 347
#     4   9  18  34  56  81 108 145 190 240 290 346
#     4  10  21  37  58  84 115 154 194 241 299 364
#     4   9  18  34  57  80 106 144 193 239 287 348
#     4  11  22  37  57  83 113 148 193 245 297 355
#
# _framework density 21.292656999999998
#
# number of rings (size 3 to 8) (size 9 to 14) (size 15 to 20)
#    0.000    2.000    0.000    4.000    0.000    6.000 
#    0.000   10.833    0.000    0.000    0.000    0.000 
#    0.000    0.000    0.000    0.000    0.000    0.000 
#
# Total GULP energy -297396.962386 kJ/mol
# GULP energy per Si atom -12391.540099 kJ/mol
# Density = 2.124419 g / cm^3
# Si number density = 21.292657 Si / 1000 Ang^3
#
#
#
# Elastic Constant Matrix: (Units=GPa)
#
#
# Indices 1 2 3 4 5 6 
#
# 1 77.2869 8.1072 19.5496 0.0000 25.8129 0.0000
# 2 8.1072 50.2641 27.9872 0.0000 11.5448 0.0000
# 3 19.5496 27.9872 81.4790 0.0000 20.8557 0.0000
# 4 0.0000 0.0000 0.0000 27.7442 0.0000 -5.8548
# 5 25.8129 11.5448 20.8557 0.0000 30.4334 0.0000
# 6 0.0000 0.0000 0.0000 -5.8548 0.0000 24.6350
#
#
#
# Elastic Compliance Matrix: (Units=1/GPa)
#
#
# Indices 1 2 3 4 5 6 
#
# 1 0.018111 0.001017 -0.000805 0.000000 -0.015195 0.000000
# 2 0.001017 0.025129 -0.007537 0.000000 -0.005231 0.000000
# 3 -0.000805 -0.007537 0.017158 0.000000 -0.008216 0.000000
# 4 0.000000 0.000000 0.000000 0.037947 0.000000 0.009019
# 5 -0.015195 -0.005231 -0.008216 0.000000 0.053361 0.000000
# 6 0.000000 0.000000 0.000000 0.009019 0.000000 0.042736
#
#
# Mechanical properties :
#
#
# Convention : Reuss Voigt Hill
#
# Bulk Modulus (GPa) = 21.85885 35.59091 28.72488
# Shear Modulus (GPa) = 22.28756 26.78827 24.53791
#
# Velocity S-wave (km/s) = 3.23882 3.55082 3.39840
# Velocity P-wave (km/s) = 4.92695 5.79331 5.37761
#
# Compressibility (1/GPa) = 0.04574807
#
# Stress axis : x y z
#
# Youngs Moduli (GPa) = 55.21564 39.79526 58.28129
#
# Poissons Ratio (x) = -0.04049 0.04694
# Poissons Ratio (y) = -0.05618 0.43925
# Poissons Ratio (z) = 0.04448 0.29992
#
# Static dielectric constant tensor:
#      x y z
#    x 4.077400 0.000000 0.225010 
#    y 0.000000 3.710660 0.000000 
#    z 0.225010 0.000000 3.835670 
# 
# 
# High freq. dielectric constant tensor:
#      x y z
#    x 1.843650 0.000000 0.009390 
#    y 0.000000 1.809420 0.000000 
#    z 0.009390 0.000000 1.833690 
# 
# From -- ./inp_files/52871.got.cif
#   From: 2010.06.25/outbox.cif.g09.slc.cpg/sg13_27_cif.got.tgz:52871.got - 2010.06.28 04:50:58.
