data_PCOD8120884
_publ_section_title
;
Structure prediction by ZEFSAII (Michael W. Deem and Ramdas Pophale) SiO2 
 PCOD8120884
Probable space group: P 2/C
;
_chemical_formula_sum "Si O2"
_cell_formula_units_Z 22
_cell_length_a 14.123732
_cell_length_b 8.848981
_cell_length_c 16.802841
_cell_angle_alpha 90.000000
_cell_angle_beta 151.939753
_cell_angle_gamma 90.000000
_cell_volume 987.853431
_symmetry_space_group_name_H-M "P 2/C"
_symmetry_group_IT_number 13
_symmetry_cell_setting 'monoclinic'
loop_
_space_group_symop_operation_xyz
x,y,z
-x,y,1/2-z
-x,-y,-z
x,-y,1/2+z
loop_
_atom_site_type_symbol
_atom_site_label
_atom_site_fract_x
_atom_site_fract_y
_atom_site_fract_z
Si Si1 0.514824 0.230418 0.122498
Si Si2 0.161767 0.445628 0.057255
Si Si3 0.500000 0.993863 0.250000
Si Si4 0.788554 0.253252 0.998243
Si Si5 0.752839 0.273687 0.150317
Si Si6 0.858474 0.593064 0.212611
O O1 0.651607 0.354263 0.268737
O O2 0.613860 0.185250 0.110983
O O3 0.484650 0.090234 0.158012
O O4 0.289969 0.285679 0.935262
O O5 0.253970 0.588370 0.077964
O O6 0.000000 0.500000 0.000000
O O7 0.022787 0.338145 0.896610
O O8 0.692135 0.886313 0.379650
O O9 0.682586 0.253768 0.007117
O O10 0.022454 0.213197 0.173673
O O11 0.738111 0.452631 0.162310
O O12 0.000000 0.515488 0.250000
#
# Coordination Sequence:
#
# PCOD8120884 Si02
#       6
#     4   4   2   4   4   4
#     4  12  26  45  70 109 143 178 248 294 357 431
#     4  11  22  41  75 107 129 179 238 306 352 409
#     4  12  30  42  64 108 146 204 228 294 362 430
#     4  10  23  45  68  99 144 183 237 282 364 424
#     4  10  21  45  74  95 133 188 235 292 353 422
#     4  11  21  41  69 104 136 174 226 300 361 398
#
# _framework density 22.270510000000002
#
# number of rings (size 3 to 8) (size 9 to 14) (size 15 to 20)
#    0.000    1.091    7.273    1.636    2.545    1.455 
#    9.818    0.000    0.000    0.000    0.000    0.000 
#    0.000    0.000    0.000    0.000    0.000    0.000 
#
# Total GULP energy -272618.763694 kJ/mol
# GULP energy per Si atom -12391.761986 kJ/mol
# Density = 2.221982 g / cm^3
# Si number density = 22.270510 Si / 1000 Ang^3
#
#
#
# Elastic Constant Matrix: (Units=GPa)
#
#
# Indices 1 2 3 4 5 6 
#
# 1 118.3504 41.1460 47.7624 0.0000 -5.6198 0.0000
# 2 41.1460 99.9807 63.2271 0.0000 -2.2251 0.0000
# 3 47.7624 63.2271 134.2634 0.0000 -12.4795 0.0000
# 4 0.0000 0.0000 0.0000 39.1834 0.0000 -8.0590
# 5 -5.6198 -2.2251 -12.4795 0.0000 28.8090 0.0000
# 6 0.0000 0.0000 0.0000 -8.0590 0.0000 14.2388
#
#
#
# Elastic Compliance Matrix: (Units=1/GPa)
#
#
# Indices 1 2 3 4 5 6 
#
# 1 0.010391 -0.002803 -0.002301 0.000000 0.000814 0.000000
# 2 -0.002803 0.015099 -0.006309 0.000000 -0.002114 0.000000
# 3 -0.002301 -0.006309 0.011619 0.000000 0.004097 0.000000
# 4 0.000000 0.000000 0.000000 0.028883 0.000000 0.016348
# 5 0.000814 -0.002114 0.004097 0.000000 0.036482 0.000000
# 6 0.000000 0.000000 0.000000 0.016348 0.000000 0.079483
#
#
# Mechanical properties :
#
#
# Convention : Reuss Voigt Hill
#
# Bulk Modulus (GPa) = 70.02142 72.98505 71.50323
# Shear Modulus (GPa) = 23.86136 29.81018 26.83577
#
# Velocity S-wave (km/s) = 3.27683 3.66259 3.47506
# Velocity P-wave (km/s) = 6.76952 7.12245 6.94822
#
# Compressibility (1/GPa) = 0.01428134
#
# Stress axis : x y z
#
# Youngs Moduli (GPa) = 96.23480 66.23119 86.06929
#
# Poissons Ratio (x) = 0.18567 0.19803
# Poissons Ratio (y) = 0.26978 0.54305
# Poissons Ratio (z) = 0.22141 0.41788
#
# Static dielectric constant tensor:
#      x y z
#    x 4.335060 0.000000 -0.341670 
#    y 0.000000 3.638670 0.000000 
#    z -0.341670 0.000000 4.331010 
# 
# 
# High freq. dielectric constant tensor:
#      x y z
#    x 1.891350 0.000000 -0.013330 
#    y 0.000000 1.831370 0.000000 
#    z -0.013330 0.000000 1.893720 
# 
# From -- ./inp_files/68007.got.cif
#   From: 2010.06.25/outbox.cif.g09.slc.cpg/sg13_35_cif.got.tgz:68007.got - 2010.06.28 04:50:58.
