data_PCOD8120430
_publ_section_title
;
Structure prediction by ZEFSAII (Michael W. Deem and Ramdas Pophale) SiO2 
 PCOD8120430
Probable space group: P 2/C
;
_chemical_formula_sum "Si O2"
_cell_formula_units_Z 22
_cell_length_a 11.287139
_cell_length_b 6.410024
_cell_length_c 26.578268
_cell_angle_alpha 90.000000
_cell_angle_beta 31.060585
_cell_angle_gamma 90.000000
_cell_volume 992.139883
_symmetry_space_group_name_H-M "P 2/C"
_symmetry_group_IT_number 13
_symmetry_cell_setting 'monoclinic'
loop_
_space_group_symop_operation_xyz
x,y,z
-x,y,1/2-z
-x,-y,-z
x,-y,1/2+z
loop_
_atom_site_type_symbol
_atom_site_label
_atom_site_fract_x
_atom_site_fract_y
_atom_site_fract_z
Si Si1 0.837291 0.227456 0.152336
Si Si2 0.796045 0.969176 0.423436
Si Si3 0.518864 0.794469 0.397983
Si Si4 0.814793 0.579674 0.477353
Si Si5 0.610225 0.134501 0.133174
Si Si6 0.000000 0.885321 0.250000
O O1 0.745353 0.109912 0.136147
O O2 0.632892 0.249116 0.267399
O O3 0.942484 0.458883 0.104994
O O4 0.039159 0.080018 0.096666
O O5 0.808972 0.719282 0.428460
O O6 0.884024 0.026749 0.335631
O O7 0.545377 0.064556 0.528835
O O8 0.400766 0.573317 0.445855
O O9 0.793277 0.752314 0.300024
O O10 0.444298 0.912694 0.373648
O O11 0.777260 0.728521 0.538302
#
# Coordination Sequence:
#
# PCOD8120430 Si02
#       6
#     4   4   4   4   4   2
#     4  10  21  39  65  95 126 161 199 244 304 369
#     4  10  23  42  63  92 122 160 205 251 306 360
#     4  10  23  42  63  92 122 160 205 251 306 360
#     4  10  23  39  60  94 130 155 199 252 306 364
#     4  10  21  39  65  95 126 161 199 244 304 369
#     4  12  22  42  68  84 122 166 204 256 300 352
#
# _framework density 22.174292999999999
#
# number of rings (size 3 to 8) (size 9 to 14) (size 15 to 20)
#    0.000    1.818    1.818    1.091    2.545    8.727 
#    0.000   12.727    0.000    0.000    0.000    0.000 
#    0.000    0.000    0.000    0.000    0.000    0.000 
#
# Total GULP energy -272690.605678 kJ/mol
# GULP energy per Si atom -12395.027531 kJ/mol
# Density = 2.212382 g / cm^3
# Si number density = 22.174293 Si / 1000 Ang^3
#
#
#
# Elastic Constant Matrix: (Units=GPa)
#
#
# Indices 1 2 3 4 5 6 
#
# 1 56.1576 22.7971 34.0126 0.0000 11.9285 0.0000
# 2 22.7971 91.6504 26.4597 0.0000 1.8558 0.0000
# 3 34.0126 26.4597 125.8886 0.0000 4.1928 0.0000
# 4 0.0000 0.0000 0.0000 22.3929 0.0000 -2.5191
# 5 11.9285 1.8558 4.1928 0.0000 43.2786 0.0000
# 6 0.0000 0.0000 0.0000 -2.5191 0.0000 14.2905
#
#
#
# Elastic Compliance Matrix: (Units=1/GPa)
#
#
# Indices 1 2 3 4 5 6 
#
# 1 0.024091 -0.004312 -0.005405 0.000000 -0.005931 0.000000
# 2 -0.004312 0.012391 -0.001466 0.000000 0.000799 0.000000
# 3 -0.005405 -0.001466 0.009692 0.000000 0.000614 0.000000
# 4 0.000000 0.000000 0.000000 0.045561 0.000000 0.008031
# 5 -0.005931 0.000799 0.000614 0.000000 0.024647 0.000000
# 6 0.000000 0.000000 0.000000 0.008031 0.000000 0.071392
#
#
# Mechanical properties :
#
#
# Convention : Reuss Voigt Hill
#
# Bulk Modulus (GPa) = 42.00369 48.91504 45.45936
# Shear Modulus (GPa) = 22.92791 28.68753 25.80772
#
# Velocity S-wave (km/s) = 3.21905 3.60075 3.41524
# Velocity P-wave (km/s) = 5.72713 6.27650 6.00810
#
# Compressibility (1/GPa) = 0.02380743
#
# Stress axis : x y z
#
# Youngs Moduli (GPa) = 41.50932 80.70645 103.18260
#
# Poissons Ratio (x) = 0.34799 0.55771
# Poissons Ratio (y) = 0.17898 0.15126
# Poissons Ratio (z) = 0.22436 0.11831
#
# Static dielectric constant tensor:
#      x y z
#    x 3.947840 0.000000 0.007750 
#    y 0.000000 3.741040 0.000000 
#    z 0.007750 0.000000 4.549140 
# 
# 
# High freq. dielectric constant tensor:
#      x y z
#    x 1.873500 0.000000 -0.001340 
#    y 0.000000 1.839310 0.000000 
#    z -0.001340 0.000000 1.904490 
# 
# From -- ./inp_files/48956.got.cif
#   From: 2010.06.25/outbox.cif.g09.slc.cpg/sg13_25_cif.got.tgz:48956.got - 2010.06.28 04:50:58.
