data_PCOD8120419
_publ_section_title
;
Structure prediction by ZEFSAII (Michael W. Deem and Ramdas Pophale) SiO2 
 PCOD8120419
Probable space group: P 2/C
;
_chemical_formula_sum "Si O2"
_cell_formula_units_Z 30
_cell_length_a 8.220264
_cell_length_b 9.861998
_cell_length_c 19.331170
_cell_angle_alpha 90.000000
_cell_angle_beta 106.042500
_cell_angle_gamma 90.000000
_cell_volume 1506.114362
_symmetry_space_group_name_H-M "P 2/C"
_symmetry_group_IT_number 13
_symmetry_cell_setting 'monoclinic'
loop_
_space_group_symop_operation_xyz
x,y,z
-x,y,1/2-z
-x,-y,-z
x,-y,1/2+z
loop_
_atom_site_type_symbol
_atom_site_label
_atom_site_fract_x
_atom_site_fract_y
_atom_site_fract_z
Si Si1 0.353242 0.740793 0.120886
Si Si2 0.744533 0.764697 0.921702
Si Si3 0.077471 0.359010 0.492143
Si Si4 0.000000 0.869776 0.750000
Si Si5 0.313629 0.987235 0.698555
Si Si6 0.238185 0.300144 0.375589
Si Si7 0.504563 0.156652 0.003664
Si Si8 0.514805 0.452940 0.329287
O O1 0.453727 0.614077 0.165177
O O2 0.319414 0.855613 0.174939
O O3 0.172864 0.694993 0.070721
O O4 0.463490 0.788538 0.068877
O O5 0.706873 0.894210 0.870566
O O6 0.672765 0.783976 0.990630
O O7 0.671722 0.624577 0.882519
O O8 0.943899 0.755189 0.954660
O O9 0.188122 0.385356 0.437278
O O10 0.000000 0.500000 0.500000
O O11 0.845671 0.959441 0.766775
O O12 0.916656 0.770961 0.683072
O O13 0.500000 0.950478 0.750000
O O14 0.360936 0.184658 0.419421
O O15 0.335833 0.410607 0.341172
O O16 0.500000 0.000000 0.000000
O O17 0.500000 0.401668 0.250000
#
# Coordination Sequence:
#
# PCOD8120419 Si02
#       8
#     4   4   4   2   4   4   4   4
#     4  11  25  42  64  95 140 171 216 279 351 395
#     4  11  21  40  70  91 124 175 221 276 336 395
#     4  11  23  41  63  98 136 166 220 282 340 401
#     4  12  24  44  68 102 134 178 244 278 334 414
#     4  12  25  45  68  99 137 181 227 288 336 407
#     4  10  24  39  67  96 125 173 221 278 326 400
#     4  10  21  39  64  96 125 163 215 267 337 400
#     4  11  23  42  64  92 127 177 223 270 330 405
#
# _framework density 19.918804000000002
#
# number of rings (size 3 to 8) (size 9 to 14) (size 15 to 20)
#    0.000    1.067    4.000    3.200    1.867    3.200 
#    0.000    1.333    0.000    0.000    0.000    0.000 
#    0.000    0.000    0.000    0.000    0.000    0.000 
#
# Total GULP energy -371825.693428 kJ/mol
# GULP energy per Si atom -12394.189781 kJ/mol
# Density = 1.987347 g / cm^3
# Si number density = 19.918804 Si / 1000 Ang^3
#
#
#
# Elastic Constant Matrix: (Units=GPa)
#
#
# Indices 1 2 3 4 5 6 
#
# 1 115.5608 34.4781 32.9310 0.0000 -1.5563 0.0000
# 2 34.4781 121.2614 22.9482 0.0000 -1.7620 0.0000
# 3 32.9310 22.9482 65.5273 0.0000 -1.0561 0.0000
# 4 0.0000 0.0000 0.0000 24.5845 0.0000 -4.2932
# 5 -1.5563 -1.7620 -1.0561 0.0000 26.7658 0.0000
# 6 0.0000 0.0000 0.0000 -4.2932 0.0000 28.6496
#
#
#
# Elastic Compliance Matrix: (Units=1/GPa)
#
#
# Indices 1 2 3 4 5 6 
#
# 1 0.010600 -0.002144 -0.004571 0.000000 0.000295 0.000000
# 2 -0.002144 0.009271 -0.002163 0.000000 0.000400 0.000000
# 3 -0.004571 -0.002163 0.018321 0.000000 0.000315 0.000000
# 4 0.000000 0.000000 0.000000 0.041769 0.000000 0.006259
# 5 0.000295 0.000400 0.000315 0.000000 0.037417 0.000000
# 6 0.000000 0.000000 0.000000 0.006259 0.000000 0.035842
#
#
# Mechanical properties :
#
#
# Convention : Reuss Voigt Hill
#
# Bulk Modulus (GPa) = 48.93570 53.67376 51.30473
# Shear Modulus (GPa) = 28.12320 30.13280 29.12800
#
# Velocity S-wave (km/s) = 3.76159 3.89367 3.82820
# Velocity P-wave (km/s) = 6.59447 6.87161 6.73446
#
# Compressibility (1/GPa) = 0.02043498
#
# Stress axis : x y z
#
# Youngs Moduli (GPa) = 94.34051 107.85742 54.58329
#
# Poissons Ratio (x) = 0.23130 0.24951
# Poissons Ratio (y) = 0.20231 0.11805
# Poissons Ratio (z) = 0.43125 0.23327
#
# Static dielectric constant tensor:
#      x y z
#    x 4.770820 0.000000 -0.159180 
#    y 0.000000 3.483190 0.000000 
#    z -0.159180 0.000000 3.892170 
# 
# 
# High freq. dielectric constant tensor:
#      x y z
#    x 1.785070 0.000000 -0.005670 
#    y 0.000000 1.777030 0.000000 
#    z -0.005670 0.000000 1.786260 
# 
# From -- ./inp_files/75735.got.cif
#   From: 2010.06.25/outbox.cif.g09.slc.cpg/sg13_38_cif.got.tgz:75735.got - 2010.06.28 04:50:58.
