data_PCOD8120015
_publ_section_title
;
Structure prediction by ZEFSAII (Michael W. Deem and Ramdas Pophale) SiO2 
 PCOD8120015
Probable space group: P 2/C
;
_chemical_formula_sum "Si O2"
_cell_formula_units_Z 20
_cell_length_a 14.442790
_cell_length_b 8.990056
_cell_length_c 22.978689
_cell_angle_alpha 90.000000
_cell_angle_beta 161.251328
_cell_angle_gamma 90.000000
_cell_volume 958.977203
_symmetry_space_group_name_H-M "P 2/C"
_symmetry_group_IT_number 13
_symmetry_cell_setting 'monoclinic'
loop_
_space_group_symop_operation_xyz
x,y,z
-x,y,1/2-z
-x,-y,-z
x,-y,1/2+z
loop_
_atom_site_type_symbol
_atom_site_label
_atom_site_fract_x
_atom_site_fract_y
_atom_site_fract_z
Si Si1 0.770237 0.038259 0.276728
Si Si2 0.259125 0.191096 0.831176
Si Si3 0.718367 0.618052 0.542184
Si Si4 0.657740 0.277216 0.489941
Si Si5 0.372960 0.833883 0.115863
O O1 0.115988 0.055251 0.483155
O O2 0.680770 0.972646 0.159658
O O3 0.641515 0.922455 0.247050
O O4 0.629040 0.199437 0.205545
O O5 0.285920 0.194591 0.915699
O O6 0.938773 0.239450 0.618992
O O7 0.468525 0.315075 0.931503
O O8 0.615073 0.452645 0.466365
O O9 0.760187 0.711099 0.507380
O O10 0.000000 0.617595 0.750000
O O11 0.500000 0.757447 0.250000
#
# Coordination Sequence:
#
# PCOD8120015 Si02
#       5
#     4   4   4   4   4
#     4  11  22  42  65  91 126 167 211 261 312 370
#     4  10  21  36  60  94 131 156 210 252 319 371
#     4  11  23  39  65  94 127 165 206 259 317 375
#     4  11  21  36  63  97 129 161 204 263 314 374
#     4  11  25  44  66  92 127 167 214 259 315 373
#
# _framework density 20.855553
#
# number of rings (size 3 to 8) (size 9 to 14) (size 15 to 20)
#    0.000    1.200    4.000    3.000    2.800    1.600 
#    0.000    2.000    0.000    0.000    0.000    0.000 
#    0.000    0.000    0.000    0.000    0.000    0.000 
#
# Total GULP energy -247854.989878 kJ/mol
# GULP energy per Si atom -12392.749494 kJ/mol
# Density = 2.080808 g / cm^3
# Si number density = 20.855553 Si / 1000 Ang^3
#
#
#
# Elastic Constant Matrix: (Units=GPa)
#
#
# Indices 1 2 3 4 5 6 
#
# 1 58.0846 17.9131 23.1721 0.0000 -2.4023 0.0000
# 2 17.9131 112.7345 18.5875 0.0000 -4.8360 0.0000
# 3 23.1721 18.5875 28.7382 0.0000 5.5704 0.0000
# 4 0.0000 0.0000 0.0000 15.0242 0.0000 -2.4133
# 5 -2.4023 -4.8360 5.5704 0.0000 46.6954 0.0000
# 6 0.0000 0.0000 0.0000 -2.4133 0.0000 4.0826
#
#
#
# Elastic Compliance Matrix: (Units=1/GPa)
#
#
# Indices 1 2 3 4 5 6 
#
# 1 0.026088 -0.000434 -0.021503 0.000000 0.003862 0.000000
# 2 -0.000434 0.010093 -0.006527 0.000000 0.001802 0.000000
# 3 -0.021503 -0.006527 0.058045 0.000000 -0.008706 0.000000
# 4 0.000000 0.000000 0.000000 0.073542 0.000000 0.043473
# 5 0.003862 0.001802 -0.008706 0.000000 0.022839 0.000000
# 6 0.000000 0.000000 0.000000 0.043473 0.000000 0.270639
#
#
# Mechanical properties :
#
#
# Convention : Reuss Voigt Hill
#
# Bulk Modulus (GPa) = 26.81200 35.43362 31.12281
# Shear Modulus (GPa) = 9.42316 22.48609 15.95463
#
# Velocity S-wave (km/s) = 2.12794 3.28713 2.76888
# Velocity P-wave (km/s) = 4.34988 5.60659 5.01773
#
# Compressibility (1/GPa) = 0.03729674
#
# Stress axis : x y z
#
# Youngs Moduli (GPa) = 38.33127 99.08013 17.22815
#
# Poissons Ratio (x) = 0.04302 0.37046
# Poissons Ratio (y) = 0.01664 0.11245
# Poissons Ratio (z) = 0.82425 0.64670
#
# Static dielectric constant tensor:
#      x y z
#    x 4.001370 0.000000 0.355700 
#    y 0.000000 3.665650 0.000000 
#    z 0.355700 0.000000 3.841460 
# 
# 
# High freq. dielectric constant tensor:
#      x y z
#    x 1.815160 0.000000 0.031250 
#    y 0.000000 1.809990 0.000000 
#    z 0.031250 0.000000 1.812830 
# 
# From -- ./inp_files/28111.got.cif
#   From: 2010.06.25/outbox.cif.g09.slc.cpg/sg13_15_cif.got.tgz:28111.got - 2010.06.28 04:50:58.
