data_PCOD8120918
_publ_section_title
;
Structure prediction by ZEFSAII (Michael W. Deem and Ramdas Pophale) SiO2 
 PCOD8120918
Probable space group: P 2/C
;
_chemical_formula_sum "Si O2"
_cell_formula_units_Z 22
_cell_length_a 14.997531
_cell_length_b 11.088173
_cell_length_c 8.964514
_cell_angle_alpha 90.000000
_cell_angle_beta 136.530000
_cell_angle_gamma 90.000000
_cell_volume 1025.602247
_symmetry_space_group_name_H-M "P 2/C"
_symmetry_group_IT_number 13
_symmetry_cell_setting 'monoclinic'
loop_
_space_group_symop_operation_xyz
x,y,z
-x,y,1/2-z
-x,-y,-z
x,-y,1/2+z
loop_
_atom_site_type_symbol
_atom_site_label
_atom_site_fract_x
_atom_site_fract_y
_atom_site_fract_z
Si Si1 0.797581 0.495648 0.016928
Si Si2 0.237873 0.343468 0.273352
Si Si3 0.084158 0.916498 0.998183
Si Si4 0.500000 0.961808 0.750000
Si Si5 0.673919 0.084937 0.204509
Si Si6 0.068691 0.651768 0.070742
O O1 0.709442 0.402001 0.007648
O O2 0.867243 0.592800 0.207184
O O3 0.707435 0.576503 0.797810
O O4 0.895597 0.415596 0.038304
O O5 0.263691 0.203964 0.287179
O O6 0.083750 0.361969 0.093624
O O7 0.000000 0.888494 0.750000
O O8 0.114471 0.791006 0.117701
O O9 0.219238 0.983638 0.126147
O O10 0.000000 0.000000 0.000000
O O11 0.401656 0.883443 0.732697
O O12 0.422721 0.044530 0.541378
#
# Coordination Sequence:
#
# PCOD8120918 Si02
#       6
#     4   4   4   2   4   4
#     4  10  22  36  58  96 138 178 203 240 329 412
#     4  11  20  37  61  92 130 169 208 259 313 397
#     4  12  25  38  62 106 138 161 203 273 342 393
#     4  10  26  50  64  94 114 184 236 268 320 368
#     4  11  25  44  71  90 130 171 224 274 327 381
#     4  11  21  36  58  95 141 170 204 247 322 414
#
# _framework density 21.450811999999999
#
# number of rings (size 3 to 8) (size 9 to 14) (size 15 to 20)
#    0.000    1.091    1.818    6.545    7.636    0.000 
#    0.000    0.000    0.000    3.273    0.000    0.000 
#    0.000    0.000    0.000    0.000    0.000    0.000 
#
# Total GULP energy -272668.014053 kJ/mol
# GULP energy per Si atom -12394.000639 kJ/mol
# Density = 2.140199 g / cm^3
# Si number density = 21.450812 Si / 1000 Ang^3
#
#
#
# Elastic Constant Matrix: (Units=GPa)
#
#
# Indices 1 2 3 4 5 6 
#
# 1 97.8192 46.9587 38.8675 0.0000 -30.6491 0.0000
# 2 46.9587 158.2367 23.4140 0.0000 -16.2058 0.0000
# 3 38.8675 23.4140 68.4893 0.0000 -18.9064 0.0000
# 4 0.0000 0.0000 0.0000 11.7530 0.0000 -16.4629
# 5 -30.6491 -16.2058 -18.9064 0.0000 33.5585 0.0000
# 6 0.0000 0.0000 0.0000 -16.4629 0.0000 22.1672
#
#
#
# Elastic Compliance Matrix: (Units=1/GPa)
#
#
# Indices 1 2 3 4 5 6 
#
# 1 0.017586 -0.003212 -0.005775 0.000000 0.011257 0.000000
# 2 -0.003212 0.007395 -0.000627 0.000000 0.000285 0.000000
# 3 -0.005775 -0.000627 0.019601 0.000000 0.005466 0.000000
# 4 0.000000 0.000000 0.000000 -2.112020 0.000000 -1.568531
# 5 0.011257 0.000285 0.005466 0.000000 0.043297 0.000000
# 6 0.000000 0.000000 0.000000 -1.568531 0.000000 -1.119787
#
#
# Mechanical properties :
#
#
# Convention : Reuss Voigt Hill
#
# Bulk Modulus (GPa) = 39.43833 60.33616 49.88724
# Shear Modulus (GPa) = -1.60449 27.84939 13.12245
#
# Velocity S-wave (km/s) = -0.86580 3.60709 2.47603
# Velocity P-wave (km/s) = 4.17443 6.74810 5.61083
#
# Compressibility (1/GPa) = 0.02535604
#
# Stress axis : x y z
#
# Youngs Moduli (GPa) = 56.86204 135.23336 51.01724
#
# Poissons Ratio (x) = 0.43431 0.29461
# Poissons Ratio (y) = 0.18262 0.03198
# Poissons Ratio (z) = 0.32836 0.08476
#
# Static dielectric constant tensor:
#      x y z
#    x 4.218240 0.000000 -0.368360 
#    y 0.000000 4.313510 0.000000 
#    z -0.368360 0.000000 3.709160 
# 
# 
# High freq. dielectric constant tensor:
#      x y z
#    x 1.839480 0.000000 -0.041320 
#    y 0.000000 1.855920 0.000000 
#    z -0.041320 0.000000 1.826140 
# 
# From -- ./inp_files/18659.got.cif
#   From: 2010.06.25/outbox.cif.g09.slc.cpg/sg13_10_cif.got.tgz:18659.got - 2010.06.28 04:50:58.
