data_PCOD8120368
_publ_section_title
;
Structure prediction by ZEFSAII (Michael W. Deem and Ramdas Pophale) SiO2 
 PCOD8120368
Probable space group: P 2/C
;
_chemical_formula_sum "Si O2"
_cell_formula_units_Z 30
_cell_length_a 15.131727
_cell_length_b 16.068750
_cell_length_c 10.480747
_cell_angle_alpha 90.000000
_cell_angle_beta 33.599356
_cell_angle_gamma 90.000000
_cell_volume 1410.223685
_symmetry_space_group_name_H-M "P 2/C"
_symmetry_group_IT_number 13
_symmetry_cell_setting 'monoclinic'
loop_
_space_group_symop_operation_xyz
x,y,z
-x,y,1/2-z
-x,-y,-z
x,-y,1/2+z
loop_
_atom_site_type_symbol
_atom_site_label
_atom_site_fract_x
_atom_site_fract_y
_atom_site_fract_z
Si Si1 0.323814 0.927627 0.587553
Si Si2 0.737774 0.786977 0.224040
Si Si3 0.677273 0.286324 0.061540
Si Si4 0.896448 0.435644 0.759880
Si Si5 0.169832 0.607701 0.750003
Si Si6 0.000000 0.702069 0.750000
Si Si7 0.611884 0.251753 0.412628
Si Si8 0.311440 0.037024 0.825680
O O1 0.326348 0.826473 0.577731
O O2 0.499757 0.966695 0.378301
O O3 0.236121 0.958298 0.560927
O O4 0.246225 0.960488 0.815104
O O5 0.743175 0.771440 0.369299
O O6 0.581043 0.742500 0.350938
O O7 0.731028 0.884336 0.209527
O O8 0.904237 0.756874 0.966495
O O9 0.500000 0.318887 0.250000
O O10 0.676620 0.232992 0.192307
O O11 0.777291 0.369590 0.963015
O O12 0.796615 0.508673 0.808180
O O13 0.000000 0.475796 0.750000
O O14 0.011517 0.384927 0.526534
O O15 0.132296 0.646186 0.658507
O O16 0.320935 0.658871 0.622208
#
# Coordination Sequence:
#
# PCOD8120368 Si02
#       8
#     4   4   4   4   4   2   4   4
#     4   9  18  32  56  89 120 158 200 249 306 359
#     4  10  22  38  60  88 123 159 204 251 301 364
#     4  10  21  39  61  89 119 154 205 257 306 359
#     4  11  21  41  60  86 117 154 202 249 303 374
#     4  11  23  37  61  85 116 159 196 248 303 363
#     4  12  22  38  58  82 118 162 202 238 298 370
#     4  10  21  39  62  90 122 157 204 258 305 361
#     4   9  18  33  55  86 124 155 202 250 300 365
#
# _framework density 21.273222000000001
#
# number of rings (size 3 to 8) (size 9 to 14) (size 15 to 20)
#    0.000    1.867    3.333    0.800    1.867    1.600 
#    2.400    1.333    0.000    4.800    0.000    0.000 
#    0.000    0.000    0.000    0.000    0.000    0.000 
#
# Total GULP energy -371758.909309 kJ/mol
# GULP energy per Si atom -12391.963644 kJ/mol
# Density = 2.122480 g / cm^3
# Si number density = 21.273222 Si / 1000 Ang^3
#
#
#
# Elastic Constant Matrix: (Units=GPa)
#
#
# Indices 1 2 3 4 5 6 
#
# 1 88.3003 35.5926 20.8387 0.0000 25.0225 0.0000
# 2 35.5926 87.4308 20.3991 0.0000 3.1675 0.0000
# 3 20.8387 20.3991 72.0713 0.0000 18.2885 0.0000
# 4 0.0000 0.0000 0.0000 23.2735 0.0000 6.3133
# 5 25.0225 3.1675 18.2885 0.0000 29.2919 0.0000
# 6 0.0000 0.0000 0.0000 6.3133 0.0000 23.6854
#
#
#
# Elastic Compliance Matrix: (Units=1/GPa)
#
#
# Indices 1 2 3 4 5 6 
#
# 1 0.018365 -0.007054 0.000563 0.000000 -0.015277 0.000000
# 2 -0.007054 0.014981 -0.003943 0.000000 0.006868 0.000000
# 3 0.000563 -0.003943 0.017637 0.000000 -0.011066 0.000000
# 4 0.000000 0.000000 0.000000 0.046316 0.000000 -0.012345
# 5 -0.015277 0.006868 -0.011066 0.000000 0.053356 0.000000
# 6 0.000000 0.000000 0.000000 -0.012345 0.000000 0.045511
#
#
# Mechanical properties :
#
#
# Convention : Reuss Voigt Hill
#
# Bulk Modulus (GPa) = 33.20787 44.60703 38.90745
# Shear Modulus (GPa) = 22.01960 26.64828 24.33394
#
# Velocity S-wave (km/s) = 3.22076 3.54314 3.38579
# Velocity P-wave (km/s) = 5.42910 6.14432 5.79775
#
# Compressibility (1/GPa) = 0.03011334
#
# Stress axis : x y z
#
# Youngs Moduli (GPa) = 54.45255 66.75333 56.70056
#
# Poissons Ratio (x) = 0.47088 -0.03194
# Poissons Ratio (y) = 0.38411 0.22359
# Poissons Ratio (z) = -0.03067 0.26323
#
# Static dielectric constant tensor:
#      x y z
#    x 4.024840 0.000000 0.399310 
#    y 0.000000 3.642250 0.000000 
#    z 0.399310 0.000000 3.784420 
# 
# 
# High freq. dielectric constant tensor:
#      x y z
#    x 1.834690 0.000000 0.031460 
#    y 0.000000 1.823010 0.000000 
#    z 0.031460 0.000000 1.812550 
# 
# From -- ./inp_files/39391.got.cif
#   From: 2010.06.25/outbox.cif.g09.slc.cpg/sg13_20_cif.got.tgz:39391.got - 2010.06.28 04:50:58.
