data_PCOD8120855
_publ_section_title
;
Structure prediction by ZEFSAII (Michael W. Deem and Ramdas Pophale) SiO2 
 PCOD8120855
Probable space group: P 2/C
;
_chemical_formula_sum "Si O2"
_cell_formula_units_Z 30
_cell_length_a 12.593829
_cell_length_b 15.229417
_cell_length_c 9.266390
_cell_angle_alpha 90.000000
_cell_angle_beta 57.601243
_cell_angle_gamma 90.000000
_cell_volume 1500.613253
_symmetry_space_group_name_H-M "P 2/C"
_symmetry_group_IT_number 13
_symmetry_cell_setting 'monoclinic'
loop_
_space_group_symop_operation_xyz
x,y,z
-x,y,1/2-z
-x,-y,-z
x,-y,1/2+z
loop_
_atom_site_type_symbol
_atom_site_label
_atom_site_fract_x
_atom_site_fract_y
_atom_site_fract_z
Si Si1 0.756705 0.670602 0.225259
Si Si2 0.491360 0.100984 0.976131
Si Si3 0.406814 0.509271 0.203376
Si Si4 0.500000 0.798608 0.750000
Si Si5 0.692474 0.158838 0.609518
Si Si6 0.709920 0.670453 0.592229
Si Si7 0.977208 0.741660 0.431141
Si Si8 0.965305 0.911522 0.941134
O O1 0.713403 0.572092 0.223531
O O2 0.701482 0.738158 0.146302
O O3 0.704832 0.686009 0.423870
O O4 0.907922 0.678234 0.106346
O O5 0.590442 0.115271 0.781491
O O6 0.355206 0.140283 0.020605
O O7 0.541074 0.143988 0.085568
O O8 0.500000 0.000000 0.000000
O O9 0.500000 0.552749 0.250000
O O10 0.346312 0.420445 0.309373
O O11 0.500000 0.500000 0.000000
O O12 0.617439 0.742938 0.723368
O O13 0.818130 0.106665 0.555441
O O14 0.851722 0.684172 0.545317
O O15 0.000000 0.772647 0.250000
O O16 0.963811 0.828530 0.538730
O O17 0.000000 0.921545 0.750000
O O18 0.000000 0.000000 0.000000
#
# Coordination Sequence:
#
# PCOD8120855 Si02
#       8
#     4   4   4   2   4   4   4   4
#     4  10  21  44  64  94 130 165 219 264 322 391
#     4  11  25  41  62  96 128 170 215 271 328 388
#     4  12  24  40  67  99 130 168 218 266 322 394
#     4  12  22  38  68  90 132 168 214 274 322 394
#     4  10  24  44  65  91 131 175 214 266 334 382
#     4  11  22  41  66  97 127 168 217 262 330 380
#     4   9  22  43  69  91 126 177 215 266 327 384
#     4  11  25  43  66  96 129 170 223 270 321 388
#
# _framework density 19.991826
#
# number of rings (size 3 to 8) (size 9 to 14) (size 15 to 20)
#    0.000    1.333    3.333    1.200    5.600    1.600 
#    2.400    0.000    0.000    0.000    0.000    0.000 
#    0.000    0.000    0.000    0.000    0.000    0.000 
#
# Total GULP energy -371747.056889 kJ/mol
# GULP energy per Si atom -12391.568563 kJ/mol
# Density = 1.994632 g / cm^3
# Si number density = 19.991826 Si / 1000 Ang^3
#
#
#
# Elastic Constant Matrix: (Units=GPa)
#
#
# Indices 1 2 3 4 5 6 
#
# 1 121.6496 67.4596 41.0378 0.0000 -1.4724 0.0000
# 2 67.4596 137.5255 44.0484 0.0000 0.8945 0.0000
# 3 41.0378 44.0484 79.9051 0.0000 5.8807 0.0000
# 4 0.0000 0.0000 0.0000 35.5637 0.0000 4.3198
# 5 -1.4724 0.8945 5.8807 0.0000 34.6701 0.0000
# 6 0.0000 0.0000 0.0000 4.3198 0.0000 38.0975
#
#
#
# Elastic Compliance Matrix: (Units=1/GPa)
#
#
# Indices 1 2 3 4 5 6 
#
# 1 0.012129 -0.004776 -0.003689 0.000000 0.001264 0.000000
# 2 -0.004776 0.010724 -0.003467 0.000000 0.000109 0.000000
# 3 -0.003689 -0.003467 0.016532 0.000000 -0.002871 0.000000
# 4 0.000000 0.000000 0.000000 0.028511 0.000000 -0.003233
# 5 0.001264 0.000109 -0.002871 0.000000 0.029381 0.000000
# 6 0.000000 0.000000 0.000000 -0.003233 0.000000 0.026615
#
#
# Mechanical properties :
#
#
# Convention : Reuss Voigt Hill
#
# Bulk Modulus (GPa) = 64.43107 71.57464 68.00285
# Shear Modulus (GPa) = 32.69484 34.10188 33.39836
#
# Velocity S-wave (km/s) = 4.04841 4.13460 4.09173
# Velocity P-wave (km/s) = 7.35877 7.65983 7.51081
#
# Compressibility (1/GPa) = 0.01552046
#
# Stress axis : x y z
#
# Youngs Moduli (GPa) = 82.44934 93.25085 60.48881
#
# Poissons Ratio (x) = 0.44536 0.22316
# Poissons Ratio (y) = 0.39378 0.20970
# Poissons Ratio (z) = 0.30418 0.32327
#
# Static dielectric constant tensor:
#      x y z
#    x 4.549090 0.000000 0.273610 
#    y 0.000000 3.557710 0.000000 
#    z 0.273610 0.000000 3.766280 
# 
# 
# High freq. dielectric constant tensor:
#      x y z
#    x 1.794390 0.000000 0.001590 
#    y 0.000000 1.777920 0.000000 
#    z 0.001590 0.000000 1.784300 
# 
# From -- ./inp_files/16723.got.cif
#   From: 2010.06.25/outbox.cif.g09.slc.cpg/sg13_9_cif.got.tgz:16723.got - 2010.06.28 04:50:58.
