data_PCOD8120126
_publ_section_title
;
Structure prediction by ZEFSAII (Michael W. Deem and Ramdas Pophale) SiO2 
 PCOD8120126
Probable space group: P 2/C
;
_chemical_formula_sum "Si O2"
_cell_formula_units_Z 20
_cell_length_a 9.062939
_cell_length_b 11.074104
_cell_length_c 9.876681
_cell_angle_alpha 90.000000
_cell_angle_beta 97.804828
_cell_angle_gamma 90.000000
_cell_volume 982.079852
_symmetry_space_group_name_H-M "P 2/C"
_symmetry_group_IT_number 13
_symmetry_cell_setting 'monoclinic'
loop_
_space_group_symop_operation_xyz
x,y,z
-x,y,1/2-z
-x,-y,-z
x,-y,1/2+z
loop_
_atom_site_type_symbol
_atom_site_label
_atom_site_fract_x
_atom_site_fract_y
_atom_site_fract_z
Si Si1 0.146115 0.632822 0.044855
Si Si2 0.168064 0.779103 0.786220
Si Si3 0.195753 0.365366 0.023677
Si Si4 0.338558 0.747010 0.288104
Si Si5 0.603551 0.014340 0.141976
O O1 0.221253 0.501997 0.078103
O O2 0.219212 0.725579 0.156672
O O3 0.172906 0.669391 0.892732
O O4 0.971160 0.637536 0.056129
O O5 0.225039 0.727983 0.649697
O O6 0.000000 0.828864 0.750000
O O7 0.268297 0.886296 0.858742
O O8 0.309700 0.332676 0.918106
O O9 0.500000 0.714718 0.250000
O O10 0.318955 0.887198 0.319858
O O11 0.500000 0.058606 0.250000
O O12 0.500000 0.000000 0.000000
#
# Coordination Sequence:
#
# PCOD8120126 Si02
#       5
#     4   4   4   4   4
#     4  10  21  39  61  87 118 152 190 236 293 345
#     4  10  21  37  61  90 115 149 199 243 283 343
#     4  10  21  39  62  86 118 154 189 238 292 342
#     4  11  23  38  58  86 116 154 197 236 284 344
#     4  11  23  41  60  81 118 159 192 237 296 345
#
# _framework density 20.364941999999999
#
# number of rings (size 3 to 8) (size 9 to 14) (size 15 to 20)
#    0.000    1.600    0.000    5.400    0.000    5.600 
#    0.000    9.000    0.000    0.000    0.000    0.000 
#    0.000    0.000    0.000    0.000    0.000    0.000 
#
# Total GULP energy -248069.062145 kJ/mol
# GULP energy per Si atom -12403.453107 kJ/mol
# Density = 2.031859 g / cm^3
# Si number density = 20.364942 Si / 1000 Ang^3
#
#
#
# Elastic Constant Matrix: (Units=GPa)
#
#
# Indices 1 2 3 4 5 6 
#
# 1 89.2208 64.5761 54.2036 0.0000 -6.8367 0.0000
# 2 64.5761 120.4996 37.7103 0.0000 10.7471 0.0000
# 3 54.2036 37.7103 121.2722 0.0000 -0.0167 0.0000
# 4 0.0000 0.0000 0.0000 31.5354 0.0000 1.7034
# 5 -6.8367 10.7471 -0.0167 0.0000 42.0594 0.0000
# 6 0.0000 0.0000 0.0000 1.7034 0.0000 29.8957
#
#
#
# Elastic Compliance Matrix: (Units=1/GPa)
#
#
# Indices 1 2 3 4 5 6 
#
# 1 0.024506 -0.011434 -0.007397 0.000000 0.006902 0.000000
# 2 -0.011434 0.014766 0.000518 0.000000 -0.005631 0.000000
# 3 -0.007397 0.000518 0.011391 0.000000 -0.001330 0.000000
# 4 0.000000 0.000000 0.000000 0.031808 0.000000 -0.001812
# 5 0.006902 -0.005631 -0.001330 0.000000 0.026336 0.000000
# 6 0.000000 0.000000 0.000000 -0.001812 0.000000 0.033553
#
#
# Mechanical properties :
#
#
# Convention : Reuss Voigt Hill
#
# Bulk Modulus (GPa) = 71.23541 71.55252 71.39396
# Shear Modulus (GPa) = 27.22338 32.33161 29.77749
#
# Velocity S-wave (km/s) = 3.66016 3.98881 3.82801
# Velocity P-wave (km/s) = 7.27446 7.51169 7.39403
#
# Compressibility (1/GPa) = 0.01403796
#
# Stress axis : x y z
#
# Youngs Moduli (GPa) = 40.80577 67.72174 87.79013
#
# Poissons Ratio (x) = 0.77431 0.64938
# Poissons Ratio (y) = 0.46656 -0.04547
# Poissons Ratio (z) = 0.30184 -0.03508
#
# Static dielectric constant tensor:
#      x y z
#    x 3.678820 0.000000 -0.080190 
#    y 0.000000 3.646860 0.000000 
#    z -0.080190 0.000000 3.773700 
# 
# 
# High freq. dielectric constant tensor:
#      x y z
#    x 1.790210 0.000000 -0.002520 
#    y 0.000000 1.797820 0.000000 
#    z -0.002520 0.000000 1.811460 
# 
# From -- ./inp_files/11691.got.cif
#   From: 2010.06.25/outbox.cif.g09.slc.cpg/sg13_6_cif.got.tgz:11691.got - 2010.06.28 04:50:58.
