data_PCOD8120956
_publ_section_title
;
Structure prediction by ZEFSAII (Michael W. Deem and Ramdas Pophale) SiO2 
 PCOD8120956
Probable space group: P 2/C
;
_chemical_formula_sum "Si O2"
_cell_formula_units_Z 26
_cell_length_a 18.474083
_cell_length_b 9.101786
_cell_length_c 19.733485
_cell_angle_alpha 90.000000
_cell_angle_beta 23.653650
_cell_angle_gamma 90.000000
_cell_volume 1331.256391
_symmetry_space_group_name_H-M "P 2/C"
_symmetry_group_IT_number 13
_symmetry_cell_setting 'monoclinic'
loop_
_space_group_symop_operation_xyz
x,y,z
-x,y,1/2-z
-x,-y,-z
x,-y,1/2+z
loop_
_atom_site_type_symbol
_atom_site_label
_atom_site_fract_x
_atom_site_fract_y
_atom_site_fract_z
Si Si1 0.940447 0.150250 0.963738
Si Si2 0.122288 0.575869 0.339685
Si Si3 0.233970 0.052256 0.252806
Si Si4 0.625490 0.212027 0.792514
Si Si5 0.000000 0.197418 0.250000
Si Si6 0.707102 0.057469 0.590837
Si Si7 0.741910 0.687252 0.863930
O O1 0.995875 0.319119 0.901293
O O2 0.889238 0.134450 0.086325
O O3 0.109936 0.040972 0.806981
O O4 0.777565 0.102285 0.054587
O O5 0.258947 0.679103 0.261844
O O6 0.233852 0.465209 0.196524
O O7 0.000000 0.500000 0.500000
O O8 0.313290 0.184765 0.141437
O O9 0.385035 0.946515 0.158505
O O10 0.723482 0.178378 0.636802
O O11 0.439213 0.299329 0.935304
O O12 0.078814 0.293689 0.244378
O O13 0.830466 0.102664 0.421561
O O14 0.500000 0.036079 0.750000
#
# Coordination Sequence:
#
# PCOD8120956 Si02
#       7
#     4   4   4   4   2   4   4
#     4   9  18  35  59  89 114 154 201 250 307 352
#     4  11  21  37  61  87 125 161 201 256 315 366
#     4   9  17  33  60  89 115 146 200 259 299 344
#     4  10  22  37  62  94 118 155 209 262 304 361
#     4  12  24  38  62  92 118 164 202 248 314 380
#     4  11  21  40  64  90 122 159 213 260 305 374
#     4  12  21  37  60  91 124 161 203 248 311 379
#
# _framework density 19.530422999999999
#
# number of rings (size 3 to 8) (size 9 to 14) (size 15 to 20)
#    0.000    1.538    4.615    2.769    0.000    0.000 
#    0.000    0.769    3.385    0.000    0.000    0.000 
#    0.000    0.000    0.000    0.000    0.000    0.000 
#
# Total GULP energy -322192.849671 kJ/mol
# GULP energy per Si atom -12392.032680 kJ/mol
# Density = 1.948597 g / cm^3
# Si number density = 19.530423 Si / 1000 Ang^3
#
#
#
# Elastic Constant Matrix: (Units=GPa)
#
#
# Indices 1 2 3 4 5 6 
#
# 1 87.8623 39.4821 27.9566 0.0000 -12.5381 0.0000
# 2 39.4821 124.9661 47.1241 0.0000 -2.4270 0.0000
# 3 27.9566 47.1241 88.3496 0.0000 -7.3444 0.0000
# 4 0.0000 0.0000 0.0000 29.0576 0.0000 -2.5596
# 5 -12.5381 -2.4270 -7.3444 0.0000 31.5091 0.0000
# 6 0.0000 0.0000 0.0000 -2.5596 0.0000 25.3396
#
#
#
# Elastic Compliance Matrix: (Units=1/GPa)
#
#
# Indices 1 2 3 4 5 6 
#
# 1 0.014421 -0.003623 -0.002220 0.000000 0.004942 0.000000
# 2 -0.003623 0.010934 -0.004829 0.000000 -0.001725 0.000000
# 3 -0.002220 -0.004829 0.014779 0.000000 0.002189 0.000000
# 4 0.000000 0.000000 0.000000 0.034723 0.000000 0.003507
# 5 0.004942 -0.001725 0.002189 0.000000 0.034081 0.000000
# 6 0.000000 0.000000 0.000000 0.003507 0.000000 0.039818
#
#
# Mechanical properties :
#
#
# Convention : Reuss Voigt Hill
#
# Bulk Modulus (GPa) = 53.21988 58.92262 56.07125
# Shear Modulus (GPa) = 28.35033 29.62227 28.98630
#
# Velocity S-wave (km/s) = 3.81412 3.89874 3.85666
# Velocity P-wave (km/s) = 6.83415 7.10648 6.97164
#
# Compressibility (1/GPa) = 0.01878997
#
# Stress axis : x y z
#
# Youngs Moduli (GPa) = 69.34266 91.45431 67.66384
#
# Poissons Ratio (x) = 0.33135 0.15021
# Poissons Ratio (y) = 0.25124 0.32676
# Poissons Ratio (z) = 0.15394 0.44165
#
# Static dielectric constant tensor:
#      x y z
#    x 3.493770 0.000000 -0.089520 
#    y 0.000000 3.710520 0.000000 
#    z -0.089520 0.000000 3.711670 
# 
# 
# High freq. dielectric constant tensor:
#      x y z
#    x 1.747810 0.000000 -0.008890 
#    y 0.000000 1.744780 0.000000 
#    z -0.008890 0.000000 1.766390 
# 
# From -- ./inp_files/69630.got.cif
#   From: 2010.06.25/outbox.cif.g09.slc.cpg/sg13_35_cif.got.tgz:69630.got - 2010.06.28 04:50:58.
