data_PCOD8120116
_publ_section_title
;
Structure prediction by ZEFSAII (Michael W. Deem and Ramdas Pophale) SiO2 
 PCOD8120116
Probable space group: P 2/C
;
_chemical_formula_sum "Si O2"
_cell_formula_units_Z 20
_cell_length_a 26.843709
_cell_length_b 6.842857
_cell_length_c 5.269949
_cell_angle_alpha 90.000000
_cell_angle_beta 119.880064
_cell_angle_gamma 90.000000
_cell_volume 839.345239
_symmetry_space_group_name_H-M "P 2/C"
_symmetry_group_IT_number 13
_symmetry_cell_setting 'monoclinic'
loop_
_space_group_symop_operation_xyz
x,y,z
-x,y,1/2-z
-x,-y,-z
x,-y,1/2+z
loop_
_atom_site_type_symbol
_atom_site_label
_atom_site_fract_x
_atom_site_fract_y
_atom_site_fract_z
Si Si1 0.524735 0.281450 0.562676
Si Si2 0.819557 0.287959 0.847558
Si Si3 0.229132 0.278084 0.275569
Si Si4 0.647666 0.130133 0.855833
Si Si5 0.063305 0.875529 0.939010
O O1 0.500000 0.172791 0.750000
O O2 0.500000 0.500000 0.500000
O O3 0.593594 0.275630 0.738245
O O4 0.500000 0.172598 0.250000
O O5 0.788445 0.174395 0.535050
O O6 0.793882 0.502596 0.823630
O O7 0.803285 0.176056 0.068589
O O8 0.888336 0.290399 0.980600
O O9 0.297305 0.270816 0.486563
O O10 0.647190 0.024059 0.583326
O O11 0.000000 0.779174 0.750000
O O12 0.070697 0.040600 0.741498
#
# Coordination Sequence:
#
# PCOD8120116 Si02
#       5
#     4   4   4   4   4
#     4  10  23  42  67  93 123 165 202 245 305 370
#     4  10  21  39  62  87 123 165 208 250 302 370
#     4  10  23  40  60  90 124 163 204 251 305 367
#     4  12  26  42  64  95 127 158 202 258 309 361
#     4  10  21  37  60  91 125 161 203 255 311 362
#
# _framework density 23.828097
#
# number of rings (size 3 to 8) (size 9 to 14) (size 15 to 20)
#    0.000    1.600    0.000    3.600    0.000   13.600 
#    0.000    4.000    0.000    0.000    0.000    0.000 
#    0.000    0.000    0.000    0.000    0.000    0.000 
#
# Total GULP energy -247846.512142 kJ/mol
# GULP energy per Si atom -12392.325607 kJ/mol
# Density = 2.377386 g / cm^3
# Si number density = 23.828097 Si / 1000 Ang^3
#
#
#
# Elastic Constant Matrix: (Units=GPa)
#
#
# Indices 1 2 3 4 5 6 
#
# 1 164.7027 8.9190 66.8730 0.0000 8.2920 0.0000
# 2 8.9190 62.9966 -2.0122 0.0000 24.3147 0.0000
# 3 66.8730 -2.0122 142.7185 0.0000 -16.3953 0.0000
# 4 0.0000 0.0000 0.0000 8.1681 0.0000 25.9883
# 5 8.2920 24.3147 -16.3953 0.0000 90.6868 0.0000
# 6 0.0000 0.0000 0.0000 25.9883 0.0000 29.0830
#
#
#
# Elastic Compliance Matrix: (Units=1/GPa)
#
#
# Indices 1 2 3 4 5 6 
#
# 1 0.007695 -0.000754 -0.003752 0.000000 -0.001180 0.000000
# 2 -0.000754 0.017793 0.000065 0.000000 -0.004690 0.000000
# 3 -0.003752 0.000065 0.008990 0.000000 0.001951 0.000000
# 4 0.000000 0.000000 0.000000 -0.066424 0.000000 0.059356
# 5 -0.001180 -0.004690 0.001951 0.000000 0.012745 0.000000
# 6 0.000000 0.000000 0.000000 0.059356 0.000000 -0.018656
#
#
# Mechanical properties :
#
#
# Convention : Reuss Voigt Hill
#
# Bulk Modulus (GPa) = 39.06717 57.55304 48.31011
# Shear Modulus (GPa) = -244.57467 45.36346 -99.60561
#
# Velocity S-wave (km/s) = -10.14219 4.36797 -6.47244
# Velocity P-wave (km/s) = 10.98732 7.04590 5.96139
#
# Compressibility (1/GPa) = 0.02559694
#
# Stress axis : x y z
#
# Youngs Moduli (GPa) = 129.95296 56.20243 111.23722
#
# Poissons Ratio (x) = 0.04237 0.41734
# Poissons Ratio (y) = 0.09798 -0.00727
# Poissons Ratio (z) = 0.48756 -0.00367
#
# Static dielectric constant tensor:
#      x y z
#    x 2.934570 0.000000 1.830660 
#    y 0.000000 3.831500 0.000000 
#    z 1.830660 0.000000 2.361520 
# 
# 
# High freq. dielectric constant tensor:
#      x y z
#    x 1.971060 0.000000 -0.019320 
#    y 0.000000 1.909700 0.000000 
#    z -0.019320 0.000000 1.975370 
# 
# From -- ./inp_files/7364.got.cif
#   From: 2010.06.25/outbox.cif.g09.slc.cpg/sg13_4_cif.got.tgz:7364.got - 2010.06.28 04:50:58.
