data_PCOD8120359
_publ_section_title
;
Structure prediction by ZEFSAII (Michael W. Deem and Ramdas Pophale) SiO2 
 PCOD8120359
Probable space group: P 2/C
;
_chemical_formula_sum "Si O2"
_cell_formula_units_Z 28
_cell_length_a 22.901926
_cell_length_b 5.235787
_cell_length_c 10.973373
_cell_angle_alpha 90.000000
_cell_angle_beta 50.429733
_cell_angle_gamma 90.000000
_cell_volume 1014.286330
_symmetry_space_group_name_H-M "P 2/C"
_symmetry_group_IT_number 13
_symmetry_cell_setting 'monoclinic'
loop_
_space_group_symop_operation_xyz
x,y,z
-x,y,1/2-z
-x,-y,-z
x,-y,1/2+z
loop_
_atom_site_type_symbol
_atom_site_label
_atom_site_fract_x
_atom_site_fract_y
_atom_site_fract_z
Si Si1 0.112364 0.971499 0.810631
Si Si2 0.190717 0.727739 0.908113
Si Si3 0.549191 0.794937 0.302847
Si Si4 0.070178 0.463083 0.745616
Si Si5 0.723248 0.967654 0.512462
Si Si6 0.693737 0.538398 0.921240
Si Si7 0.414360 0.300908 0.148061
O O1 0.131571 0.933021 0.929016
O O2 0.065926 0.727531 0.823528
O O3 0.064085 0.229017 0.851411
O O4 0.188958 0.997442 0.633984
O O5 0.222809 0.558107 0.752643
O O6 0.148787 0.552981 0.063563
O O7 0.267696 0.863509 0.859600
O O8 0.500000 0.864005 0.250000
O O9 0.588722 0.515850 0.240308
O O10 0.499499 0.763454 0.492083
O O11 0.609937 0.030609 0.250800
O O12 0.000000 0.441163 0.750000
O O13 0.684838 0.746078 0.482433
O O14 0.682672 0.241531 0.541009
O O15 0.629088 0.597411 0.910485
#
# Coordination Sequence:
#
# PCOD8120359 Si02
#       7
#     4   4   4   4   4   4   4
#     4  10  22  40  60  85 114 149 193 237 289 349
#     4  10  22  39  61  82 117 154 186 238 295 340
#     4  10  21  39  61  84 118 157 191 235 287 334
#     4  11  24  40  60  87 115 149 196 241 287 350
#     4  10  22  38  58  85 116 150 190 236 285 346
#     4  11  23  38  59  88 117 150 194 237 286 343
#     4  10  22  38  58  88 118 149 196 240 277 341
#
# _framework density 27.605616000000001
#
# number of rings (size 3 to 8) (size 9 to 14) (size 15 to 20)
#    0.000    1.714    0.000    5.143    0.000   13.714 
#    0.000    0.000    0.000    0.000    0.000    0.000 
#    0.000    0.000    0.000    0.000    0.000    0.000 
#
# Total GULP energy -347206.033175 kJ/mol
# GULP energy per Si atom -12400.215471 kJ/mol
# Density = 2.754278 g / cm^3
# Si number density = 27.605616 Si / 1000 Ang^3
#
#
#
# Elastic Constant Matrix: (Units=GPa)
#
#
# Indices 1 2 3 4 5 6 
#
# 1 149.5639 64.3254 9.5045 0.0000 22.0449 0.0000
# 2 64.3254 197.2476 33.0745 0.0000 5.6214 0.0000
# 3 9.5045 33.0745 70.5686 0.0000 6.6336 0.0000
# 4 0.0000 0.0000 0.0000 11.3620 0.0000 12.4457
# 5 22.0449 5.6214 6.6336 0.0000 33.7751 0.0000
# 6 0.0000 0.0000 0.0000 12.4457 0.0000 47.0860
#
#
#
# Elastic Compliance Matrix: (Units=1/GPa)
#
#
# Indices 1 2 3 4 5 6 
#
# 1 0.008614 -0.002765 0.000632 0.000000 -0.005287 0.000000
# 2 -0.002765 0.006395 -0.002745 0.000000 0.001279 0.000000
# 3 0.000632 -0.002745 0.015657 0.000000 -0.003031 0.000000
# 4 0.000000 0.000000 0.000000 0.123880 0.000000 -0.032744
# 5 -0.005287 0.001279 -0.003031 0.000000 0.033441 0.000000
# 6 0.000000 0.000000 0.000000 -0.032744 0.000000 0.029893
#
#
# Mechanical properties :
#
#
# Convention : Reuss Voigt Hill
#
# Bulk Modulus (GPa) = 47.82030 70.13211 58.97620
# Shear Modulus (GPa) = 21.31247 39.14300 30.22773
#
# Velocity S-wave (km/s) = 2.78156 3.76963 3.31265
# Velocity P-wave (km/s) = 5.26084 6.66386 6.00348
#
# Compressibility (1/GPa) = 0.02091162
#
# Stress axis : x y z
#
# Youngs Moduli (GPa) = 116.08837 156.36704 63.86916
#
# Poissons Ratio (x) = 0.43229 -0.04040
# Poissons Ratio (y) = 0.32094 0.17534
# Poissons Ratio (z) = -0.07342 0.42927
#
# Static dielectric constant tensor:
#      x y z
#    x 5.213740 0.000000 -0.084810 
#    y 0.000000 5.604140 0.000000 
#    z -0.084810 0.000000 5.318760 
# 
# 
# High freq. dielectric constant tensor:
#      x y z
#    x 2.125110 0.000000 -0.015830 
#    y 0.000000 2.123880 0.000000 
#    z -0.015830 0.000000 2.136710 
# 
# From -- ./inp_files/39831.got.cif
#   From: 2010.06.25/outbox.cif.g09.slc.cpg/sg13_20_cif.got.tgz:39831.got - 2010.06.28 04:50:58.
