data_PCOD8120186
_publ_section_title
;
Structure prediction by ZEFSAII (Michael W. Deem and Ramdas Pophale) SiO2 
 PCOD8120186
Probable space group: P 2/C
;
_chemical_formula_sum "Si O2"
_cell_formula_units_Z 26
_cell_length_a 16.291265
_cell_length_b 11.628580
_cell_length_c 9.333532
_cell_angle_alpha 90.000000
_cell_angle_beta 50.101148
_cell_angle_gamma 90.000000
_cell_volume 1356.512052
_symmetry_space_group_name_H-M "P 2/C"
_symmetry_group_IT_number 13
_symmetry_cell_setting 'monoclinic'
loop_
_space_group_symop_operation_xyz
x,y,z
-x,y,1/2-z
-x,-y,-z
x,-y,1/2+z
loop_
_atom_site_type_symbol
_atom_site_label
_atom_site_fract_x
_atom_site_fract_y
_atom_site_fract_z
Si Si1 0.106355 0.570902 0.397047
Si Si2 0.823991 0.753542 0.403701
Si Si3 0.082985 0.994001 0.282279
Si Si4 0.837494 0.781016 0.722859
Si Si5 0.614704 0.383188 0.172921
Si Si6 0.693260 0.579237 0.886532
Si Si7 0.000000 0.688463 0.750000
O O1 0.110434 0.659975 0.260497
O O2 0.206359 0.487292 0.292000
O O3 0.000000 0.500000 0.500000
O O4 0.099963 0.621409 0.565696
O O5 0.849354 0.876988 0.307141
O O6 0.858594 0.760127 0.530691
O O7 0.699243 0.716083 0.533771
O O8 0.000000 0.022281 0.250000
O O9 0.178312 0.086698 0.209859
O O10 0.000000 0.000000 0.500000
O O11 0.737505 0.703849 0.890177
O O12 0.950645 0.755208 0.671733
O O13 0.500000 0.337599 0.250000
O O14 0.610610 0.401644 0.348581
O O15 0.638388 0.507500 0.074111
#
# Coordination Sequence:
#
# PCOD8120186 Si02
#       7
#     4   4   4   4   4   4   2
#     4  11  23  33  54  81 123 155 185 230 287 356
#     4  10  25  40  55  83 117 154 198 242 292 348
#     4  12  23  37  57  82 120 163 198 230 282 348
#     4  11  22  37  54  80 118 157 192 234 278 342
#     4  10  21  41  66  86 111 150 195 251 302 346
#     4  10  21  38  57  87 117 147 192 235 297 352
#     4  12  22  30  50  82 118 160 192 218 272 352
#
# _framework density 19.166803999999999
#
# number of rings (size 3 to 8) (size 9 to 14) (size 15 to 20)
#    0.000    1.231    3.846    2.308    4.308    0.000 
#    0.000    0.000    0.000    4.615    0.000    0.000 
#    0.000    0.000    0.000    0.000    0.000    0.000 
#
# Total GULP energy -322114.918882 kJ/mol
# GULP energy per Si atom -12389.035342 kJ/mol
# Density = 1.912318 g / cm^3
# Si number density = 19.166804 Si / 1000 Ang^3
#
#
#
# Elastic Constant Matrix: (Units=GPa)
#
#
# Indices 1 2 3 4 5 6 
#
# 1 126.0357 56.0553 38.4025 0.0000 4.9963 0.0000
# 2 56.0553 132.5551 41.3707 0.0000 2.7891 0.0000
# 3 38.4025 41.3707 70.3637 0.0000 5.8234 0.0000
# 4 0.0000 0.0000 0.0000 26.7483 0.0000 3.3152
# 5 4.9963 2.7891 5.8234 0.0000 26.8522 0.0000
# 6 0.0000 0.0000 0.0000 3.3152 0.0000 25.4803
#
#
#
# Elastic Compliance Matrix: (Units=1/GPa)
#
#
# Indices 1 2 3 4 5 6 
#
# 1 0.010574 -0.003275 -0.003779 0.000000 -0.000808 0.000000
# 2 -0.003275 0.010255 -0.004281 0.000000 0.000473 0.000000
# 3 -0.003779 -0.004281 0.019038 0.000000 -0.002981 0.000000
# 4 0.000000 0.000000 0.000000 0.037998 0.000000 -0.004944
# 5 -0.000808 0.000473 -0.002981 0.000000 0.037989 0.000000
# 6 0.000000 0.000000 0.000000 -0.004944 0.000000 0.039889
#
#
# Mechanical properties :
#
#
# Convention : Reuss Voigt Hill
#
# Bulk Modulus (GPa) = 58.14830 66.73461 62.44146
# Shear Modulus (GPa) = 27.15228 28.69121 27.92175
#
# Velocity S-wave (km/s) = 3.76790 3.87321 3.82091
# Velocity P-wave (km/s) = 7.02377 7.40916 7.21904
#
# Compressibility (1/GPa) = 0.01719741
#
# Stress axis : x y z
#
# Youngs Moduli (GPa) = 94.56835 97.50977 52.52672
#
# Poissons Ratio (x) = 0.31939 0.19847
# Poissons Ratio (y) = 0.30975 0.22488
# Poissons Ratio (z) = 0.35733 0.41746
#
# Static dielectric constant tensor:
#      x y z
#    x 3.557840 0.000000 0.261380 
#    y 0.000000 3.569680 0.000000 
#    z 0.261380 0.000000 3.353680 
# 
# 
# High freq. dielectric constant tensor:
#      x y z
#    x 1.737240 0.000000 0.028530 
#    y 0.000000 1.746290 0.000000 
#    z 0.028530 0.000000 1.739540 
# 
# From -- ./inp_files/18707.got.cif
#   From: 2010.06.25/outbox.cif.g09.slc.cpg/sg13_10_cif.got.tgz:18707.got - 2010.06.28 04:50:58.
