data_PCOD8120457
_publ_section_title
;
Structure prediction by ZEFSAII (Michael W. Deem and Ramdas Pophale) SiO2 
 PCOD8120457
Probable space group: P 2/C
;
_chemical_formula_sum "Si O2"
_cell_formula_units_Z 26
_cell_length_a 12.862999
_cell_length_b 17.036876
_cell_length_c 10.281781
_cell_angle_alpha 90.000000
_cell_angle_beta 145.953174
_cell_angle_gamma 90.000000
_cell_volume 1261.502014
_symmetry_space_group_name_H-M "P 2/C"
_symmetry_group_IT_number 13
_symmetry_cell_setting 'monoclinic'
loop_
_space_group_symop_operation_xyz
x,y,z
-x,y,1/2-z
-x,-y,-z
x,-y,1/2+z
loop_
_atom_site_type_symbol
_atom_site_label
_atom_site_fract_x
_atom_site_fract_y
_atom_site_fract_z
Si Si1 0.500000 0.070884 0.750000
Si Si2 0.010207 0.259860 0.109710
Si Si3 0.993641 0.588406 0.038492
Si Si4 0.715501 0.359630 0.462717
Si Si5 0.346755 0.832411 0.854266
Si Si6 0.710248 0.795550 0.100867
Si Si7 0.789563 0.061210 0.509549
O O1 0.453315 0.124635 0.579933
O O2 0.325486 0.018276 0.608230
O O3 0.208775 0.232768 0.264092
O O4 0.000000 0.238903 0.250000
O O5 0.990459 0.353377 0.068215
O O6 0.848609 0.214425 0.865211
O O7 0.805673 0.613846 0.919862
O O8 0.177823 0.594001 0.314946
O O9 0.000000 0.500000 0.000000
O O10 0.751350 0.266782 0.527860
O O11 0.500000 0.382951 0.250000
O O12 0.235258 0.896090 0.654075
O O13 0.498263 0.784397 0.927119
O O14 0.726446 0.882788 0.061687
O O15 0.000000 0.036218 0.750000
#
# Coordination Sequence:
#
# PCOD8120457 Si02
#       7
#     2   4   4   4   4   4   4
#     4  12  28  42  62  98 138 174 214 284 350 386
#     4  11  24  41  67  96 131 177 217 267 334 403
#     4  10  23  40  67  98 136 171 211 270 332 394
#     4  10  21  39  67  99 127 171 224 268 319 393
#     4  12  24  45  66  92 135 171 228 277 333 397
#     4  11  22  41  70  97 124 172 229 274 324 392
#     4  12  24  40  67  95 127 174 223 282 333 392
#
# _framework density 20.610351000000001
#
# number of rings (size 3 to 8) (size 9 to 14) (size 15 to 20)
#    0.000    0.923    3.077    4.154    4.308    3.077 
#    0.000    0.000    1.692    0.000    0.000    0.000 
#    0.000    0.000    0.000    0.000    0.000    0.000 
#
# Total GULP energy -322499.758131 kJ/mol
# GULP energy per Si atom -12403.836851 kJ/mol
# Density = 2.056344 g / cm^3
# Si number density = 20.610351 Si / 1000 Ang^3
#
#
#
# Elastic Constant Matrix: (Units=GPa)
#
#
# Indices 1 2 3 4 5 6 
#
# 1 75.2782 5.2712 33.5572 0.0000 4.9593 0.0000
# 2 5.2712 79.6276 21.5345 0.0000 -4.1078 0.0000
# 3 33.5572 21.5345 128.1336 0.0000 9.8344 0.0000
# 4 0.0000 0.0000 0.0000 16.8248 0.0000 11.9112
# 5 4.9593 -4.1078 9.8344 0.0000 45.9558 0.0000
# 6 0.0000 0.0000 0.0000 11.9112 0.0000 5.6753
#
#
#
# Elastic Compliance Matrix: (Units=1/GPa)
#
#
# Indices 1 2 3 4 5 6 
#
# 1 0.015068 0.000013 -0.003888 0.000000 -0.000793 0.000000
# 2 0.000013 0.013285 -0.002366 0.000000 0.001692 0.000000
# 3 -0.003888 -0.002366 0.009358 0.000000 -0.001794 0.000000
# 4 0.000000 0.000000 0.000000 -0.122337 0.000000 0.256758
# 5 -0.000793 0.001692 -0.001794 0.000000 0.022381 0.000000
# 6 0.000000 0.000000 0.000000 0.256758 0.000000 -0.362675
#
#
# Mechanical properties :
#
#
# Convention : Reuss Voigt Hill
#
# Bulk Modulus (GPa) = 39.63569 44.86279 42.24924
# Shear Modulus (GPa) = -12.37535 28.53628 8.08046
#
# Velocity S-wave (km/s) = -2.45305 3.72501 1.98219
# Velocity P-wave (km/s) = 3.35401 6.34943 5.07763
#
# Compressibility (1/GPa) = 0.02522979
#
# Stress axis : x y z
#
# Youngs Moduli (GPa) = 66.36405 75.27420 106.86220
#
# Poissons Ratio (x) = -0.00098 0.41544
# Poissons Ratio (y) = -0.00086 0.25283
# Poissons Ratio (z) = 0.25800 0.17810
#
# Static dielectric constant tensor:
#      x y z
#    x 3.734870 0.000000 0.016530 
#    y 0.000000 3.575410 0.000000 
#    z 0.016530 0.000000 4.085200 
# 
# 
# High freq. dielectric constant tensor:
#      x y z
#    x 1.805870 0.000000 0.001670 
#    y 0.000000 1.796640 0.000000 
#    z 0.001670 0.000000 1.827410 
# 
# From -- ./inp_files/37599.got.cif
#   From: 2010.06.25/outbox.cif.g09.slc.cpg/sg13_19_cif.got.tgz:37599.got - 2010.06.28 04:50:58.
