data_PCOD8120827
_publ_section_title
;
Structure prediction by ZEFSAII (Michael W. Deem and Ramdas Pophale) SiO2 
 PCOD8120827
Probable space group: P 2/C
;
_chemical_formula_sum "Si O2"
_cell_formula_units_Z 20
_cell_length_a 8.686977
_cell_length_b 7.615813
_cell_length_c 18.071247
_cell_angle_alpha 90.000000
_cell_angle_beta 128.831335
_cell_angle_gamma 90.000000
_cell_volume 931.339075
_symmetry_space_group_name_H-M "P 2/C"
_symmetry_group_IT_number 13
_symmetry_cell_setting 'monoclinic'
loop_
_space_group_symop_operation_xyz
x,y,z
-x,y,1/2-z
-x,-y,-z
x,-y,1/2+z
loop_
_atom_site_type_symbol
_atom_site_label
_atom_site_fract_x
_atom_site_fract_y
_atom_site_fract_z
Si Si1 0.666811 0.273435 0.699633
Si Si2 0.293016 0.974908 0.897375
Si Si3 0.230705 0.181223 0.612841
Si Si4 0.040619 0.165015 0.094700
Si Si5 0.207635 0.351087 0.276508
O O1 0.447907 0.204413 0.646488
O O2 0.794546 0.265879 0.813764
O O3 0.657197 0.476895 0.672876
O O4 0.763610 0.150109 0.665951
O O5 0.315689 0.811142 0.848419
O O6 0.115745 0.938473 0.900523
O O7 0.500000 0.000000 0.000000
O O8 0.074760 0.263220 0.507050
O O9 0.193576 0.972710 0.605966
O O10 0.169035 0.305920 0.178671
O O11 0.000000 0.396905 0.250000
#
# Coordination Sequence:
#
# PCOD8120827 Si02
#       5
#     4   4   4   4   4
#     4  11  23  42  64  95 129 167 212 263 320 382
#     4  11  22  43  69  91 126 172 219 263 310 380
#     4  10  22  41  65  93 131 164 210 261 324 381
#     4  10  21  43  67  94 127 170 213 262 322 379
#     4  10  24  41  66  95 127 168 220 265 312 378
#
# _framework density 21.474456
#
# number of rings (size 3 to 8) (size 9 to 14) (size 15 to 20)
#    0.000    1.600    4.000    0.000    2.800    1.600 
#    7.200    0.000    0.000    0.000    0.000    0.000 
#    0.000    0.000    0.000    0.000    0.000    0.000 
#
# Total GULP energy -247998.725948 kJ/mol
# GULP energy per Si atom -12399.936297 kJ/mol
# Density = 2.142558 g / cm^3
# Si number density = 21.474456 Si / 1000 Ang^3
#
#
#
# Elastic Constant Matrix: (Units=GPa)
#
#
# Indices 1 2 3 4 5 6 
#
# 1 56.9179 34.9553 32.8185 0.0000 5.0097 0.0000
# 2 34.9553 141.5618 69.4058 0.0000 -0.0654 0.0000
# 3 32.8185 69.4058 150.4989 0.0000 -10.6682 0.0000
# 4 0.0000 0.0000 0.0000 14.4394 0.0000 0.4049
# 5 5.0097 -0.0654 -10.6682 0.0000 29.5976 0.0000
# 6 0.0000 0.0000 0.0000 0.4049 0.0000 20.0202
#
#
#
# Elastic Compliance Matrix: (Units=1/GPa)
#
#
# Indices 1 2 3 4 5 6 
#
# 1 0.022362 -0.003822 -0.003471 0.000000 -0.005045 0.000000
# 2 -0.003822 0.009850 -0.003758 0.000000 -0.000686 0.000000
# 3 -0.003471 -0.003758 0.009416 0.000000 0.003973 0.000000
# 4 0.000000 0.000000 0.000000 0.069294 0.000000 -0.001402
# 5 -0.005045 -0.000686 0.003973 0.000000 0.036071 0.000000
# 6 0.000000 0.000000 0.000000 -0.001402 0.000000 0.049978
#
#
# Mechanical properties :
#
#
# Convention : Reuss Voigt Hill
#
# Bulk Modulus (GPa) = 51.21420 69.25975 60.23698
# Shear Modulus (GPa) = 22.16493 26.93139 24.54816
#
# Velocity S-wave (km/s) = 3.21620 3.54519 3.38469
# Velocity P-wave (km/s) = 6.13943 7.00571 6.58683
#
# Compressibility (1/GPa) = 0.01952583
#
# Stress axis : x y z
#
# Youngs Moduli (GPa) = 44.71869 101.52472 106.20161
#
# Poissons Ratio (x) = 0.38805 0.36865
# Poissons Ratio (y) = 0.17092 0.39906
# Poissons Ratio (z) = 0.15523 0.38149
#
# Static dielectric constant tensor:
#      x y z
#    x 3.725070 0.000000 -0.275820 
#    y 0.000000 3.665750 0.000000 
#    z -0.275820 0.000000 4.294200 
# 
# 
# High freq. dielectric constant tensor:
#      x y z
#    x 1.835070 0.000000 -0.010790 
#    y 0.000000 1.824710 0.000000 
#    z -0.010790 0.000000 1.860850 
# 
# From -- ./inp_files/63920.got.cif
#   From: 2010.06.25/outbox.cif.g09.slc.cpg/sg13_32_cif.got.tgz:63920.got - 2010.06.28 04:50:58.
