data_PCOD8120182
_publ_section_title
;
Structure prediction by ZEFSAII (Michael W. Deem and Ramdas Pophale) SiO2 
 PCOD8120182
Probable space group: P 2/C
;
_chemical_formula_sum "Si O2"
_cell_formula_units_Z 32
_cell_length_a 14.695616
_cell_length_b 9.146763
_cell_length_c 23.700491
_cell_angle_alpha 90.000000
_cell_angle_beta 152.430659
_cell_angle_gamma 90.000000
_cell_volume 1474.437389
_symmetry_space_group_name_H-M "P 2/C"
_symmetry_group_IT_number 13
_symmetry_cell_setting 'monoclinic'
loop_
_space_group_symop_operation_xyz
x,y,z
-x,y,1/2-z
-x,-y,-z
x,-y,1/2+z
loop_
_atom_site_type_symbol
_atom_site_label
_atom_site_fract_x
_atom_site_fract_y
_atom_site_fract_z
Si Si1 0.232181 0.852852 0.735717
Si Si2 0.631503 0.540518 0.676813
Si Si3 0.789443 0.428681 0.881900
Si Si4 0.353164 0.087166 0.084509
Si Si5 0.875723 0.118453 0.964478
Si Si6 0.922430 0.387507 0.767118
Si Si7 0.004796 0.947151 0.191381
Si Si8 0.735616 0.582979 0.964208
O O1 0.298559 0.702953 0.800476
O O2 0.413789 0.922735 0.800061
O O3 0.035680 0.810354 0.593828
O O4 0.171201 0.971544 0.747796
O O5 0.686955 0.488460 0.770156
O O6 0.703407 0.440977 0.664128
O O7 0.395911 0.544974 0.552810
O O8 0.686027 0.477878 0.883928
O O9 0.793300 0.251154 0.881046
O O10 0.000000 0.500000 0.000000
O O11 0.299849 0.250445 0.076598
O O12 0.215021 0.050548 0.954925
O O13 0.305622 0.965666 0.105606
O O14 0.000000 0.000000 0.000000
O O15 0.914225 0.215313 0.757477
O O16 0.000000 0.454137 0.750000
O O17 0.046801 0.437882 0.890738
O O18 0.000000 0.022359 0.250000
#
# Coordination Sequence:
#
# PCOD8120182 Si02
#       8
#     4   4   4   4   4   4   4   4
#     4  10  21  38  57  83 115 151 196 239 290 349
#     4  11  23  38  61  88 117 158 198 244 298 350
#     4  12  21  38  61  86 121 155 193 244 294 351
#     4   9  21  38  58  83 118 155 193 241 291 350
#     4  11  23  37  57  83 116 154 191 233 288 346
#     4  10  21  39  61  85 117 156 198 250 300 350
#     4   9  20  38  60  84 114 154 197 243 297 348
#     4  10  21  40  60  86 121 156 199 240 297 356
#
# _framework density 21.703194
#
# number of rings (size 3 to 8) (size 9 to 14) (size 15 to 20)
#    0.000    1.750    2.500    1.125    3.500    3.000 
#    2.250    0.000    0.000    0.000    0.000    0.000 
#    0.000    0.000    0.000    0.000    0.000    0.000 
#
# Total GULP energy -396607.578972 kJ/mol
# GULP energy per Si atom -12393.986843 kJ/mol
# Density = 2.165380 g / cm^3
# Si number density = 21.703194 Si / 1000 Ang^3
#
#
#
# Elastic Constant Matrix: (Units=GPa)
#
#
# Indices 1 2 3 4 5 6 
#
# 1 107.3527 37.2576 10.2959 0.0000 10.3020 0.0000
# 2 37.2576 90.6104 13.0619 0.0000 3.3149 0.0000
# 3 10.2959 13.0619 26.4846 0.0000 10.9258 0.0000
# 4 0.0000 0.0000 0.0000 19.8990 0.0000 5.7752
# 5 10.3020 3.3149 10.9258 0.0000 36.3169 0.0000
# 6 0.0000 0.0000 0.0000 5.7752 0.0000 40.2759
#
#
#
# Elastic Compliance Matrix: (Units=1/GPa)
#
#
# Indices 1 2 3 4 5 6 
#
# 1 0.011164 -0.004328 -0.001213 0.000000 -0.002407 0.000000
# 2 -0.004328 0.013578 -0.005719 0.000000 0.001709 0.000000
# 3 -0.001213 -0.005719 0.046458 0.000000 -0.013111 0.000000
# 4 0.000000 0.000000 0.000000 0.052436 0.000000 -0.007519
# 5 -0.002407 0.001709 -0.013111 0.000000 0.032007 0.000000
# 6 0.000000 0.000000 0.000000 -0.007519 0.000000 0.025907
#
#
# Mechanical properties :
#
#
# Convention : Reuss Voigt Hill
#
# Bulk Modulus (GPa) = 20.54164 38.40873 29.47519
# Shear Modulus (GPa) = 22.69679 30.22052 26.45865
#
# Velocity S-wave (km/s) = 3.23736 3.73560 3.49537
# Velocity P-wave (km/s) = 4.84349 6.02843 5.46815
#
# Compressibility (1/GPa) = 0.04868159
#
# Stress axis : x y z
#
# Youngs Moduli (GPa) = 89.57062 73.65045 21.52468
#
# Poissons Ratio (x) = 0.31874 0.02610
# Poissons Ratio (y) = 0.38764 0.12310
# Poissons Ratio (z) = 0.10863 0.42120
#
# Static dielectric constant tensor:
#      x y z
#    x 4.114490 0.000000 0.192660 
#    y 0.000000 4.120460 0.000000 
#    z 0.192660 0.000000 2.999830 
# 
# 
# High freq. dielectric constant tensor:
#      x y z
#    x 1.857830 0.000000 0.015930 
#    y 0.000000 1.848770 0.000000 
#    z 0.015930 0.000000 1.840850 
# 
# From -- ./inp_files/87434.got.cif
#   From: 2010.06.25/outbox.cif.g09.slc.cpg/sg13_44_cif.got.tgz:87434.got - 2010.06.28 04:50:58.
