data_PCOD8120636
_publ_section_title
;
Structure prediction by ZEFSAII (Michael W. Deem and Ramdas Pophale) SiO2 
 PCOD8120636
Probable space group: P 2/C
;
_chemical_formula_sum "Si O2"
_cell_formula_units_Z 26
_cell_length_a 15.463869
_cell_length_b 10.329674
_cell_length_c 21.120570
_cell_angle_alpha 90.000000
_cell_angle_beta 157.915131
_cell_angle_gamma 90.000000
_cell_volume 1268.453805
_symmetry_space_group_name_H-M "P 2/C"
_symmetry_group_IT_number 13
_symmetry_cell_setting 'monoclinic'
loop_
_space_group_symop_operation_xyz
x,y,z
-x,y,1/2-z
-x,-y,-z
x,-y,1/2+z
loop_
_atom_site_type_symbol
_atom_site_label
_atom_site_fract_x
_atom_site_fract_y
_atom_site_fract_z
Si Si1 0.302278 0.340248 0.163133
Si Si2 0.524759 0.573803 0.390378
Si Si3 0.000000 0.451280 0.750000
Si Si4 0.329452 0.955588 0.330202
Si Si5 0.855484 0.324861 0.779342
Si Si6 0.931305 0.867842 0.919176
Si Si7 0.425909 0.166626 0.766636
O O1 0.500000 0.296428 0.250000
O O2 0.386251 0.463668 0.259398
O O3 0.269132 0.217096 0.185812
O O4 0.066341 0.370978 0.966171
O O5 0.785020 0.537547 0.583320
O O6 0.378898 0.608310 0.354576
O O7 0.559792 0.700353 0.370502
O O8 0.907613 0.361389 0.743155
O O9 0.178449 0.829870 0.244004
O O10 0.453792 0.931286 0.345578
O O11 0.500000 0.000000 0.500000
O O12 0.163715 0.081901 0.212759
O O13 0.163387 0.784416 0.076498
O O14 0.000000 0.000000 0.000000
O O15 0.500000 0.100853 0.750000
#
# Coordination Sequence:
#
# PCOD8120636 Si02
#       7
#     4   4   2   4   4   4   4
#     4  12  22  40  72  97 126 176 234 271 325 398
#     4  11  24  42  68  96 136 175 215 284 334 402
#     4  12  26  42  62 104 138 174 222 272 348 422
#     4  10  23  45  66  94 138 173 219 284 347 391
#     4  11  24  46  64  99 133 174 227 272 342 400
#     4  10  21  41  62  92 130 171 221 281 317 394
#     4  10  22  43  66  96 128 174 229 266 330 405
#
# _framework density 20.497395999999998
#
# number of rings (size 3 to 8) (size 9 to 14) (size 15 to 20)
#    0.000    1.231    6.154    1.385    2.154    2.462 
#    8.308    0.000    0.000    0.000    0.000    0.000 
#    0.000    0.000    0.000    0.000    0.000    0.000 
#
# Total GULP energy -322164.846440 kJ/mol
# GULP energy per Si atom -12390.955632 kJ/mol
# Density = 2.045074 g / cm^3
# Si number density = 20.497396 Si / 1000 Ang^3
#
#
#
# Elastic Constant Matrix: (Units=GPa)
#
#
# Indices 1 2 3 4 5 6 
#
# 1 133.0305 28.9312 42.8750 0.0000 -4.4334 0.0000
# 2 28.9312 76.4601 33.7270 0.0000 -12.7512 0.0000
# 3 42.8750 33.7270 122.7475 0.0000 -18.5989 0.0000
# 4 0.0000 0.0000 0.0000 31.8635 0.0000 -7.3319
# 5 -4.4334 -12.7512 -18.5989 0.0000 37.9056 0.0000
# 6 0.0000 0.0000 0.0000 -7.3319 0.0000 23.9301
#
#
#
# Elastic Compliance Matrix: (Units=1/GPa)
#
#
# Indices 1 2 3 4 5 6 
#
# 1 0.008833 -0.002372 -0.002591 0.000000 -0.001036 0.000000
# 2 -0.002372 0.015898 -0.002994 0.000000 0.003601 0.000000
# 3 -0.002591 -0.002994 0.010453 0.000000 0.003819 0.000000
# 4 0.000000 0.000000 0.000000 0.033764 0.000000 0.010345
# 5 -0.001036 0.003601 0.003819 0.000000 0.029345 0.000000
# 6 0.000000 0.000000 0.000000 0.010345 0.000000 0.044958
#
#
# Mechanical properties :
#
#
# Convention : Reuss Voigt Hill
#
# Bulk Modulus (GPa) = 51.89328 60.36716 56.13022
# Shear Modulus (GPa) = 30.19532 33.85350 32.02441
#
# Velocity S-wave (km/s) = 3.84230 4.06840 3.95696
# Velocity P-wave (km/s) = 6.71240 7.18222 6.95128
#
# Compressibility (1/GPa) = 0.01927032
#
# Stress axis : x y z
#
# Youngs Moduli (GPa) = 113.20621 62.90266 95.66740
#
# Poissons Ratio (x) = 0.14924 0.24783
# Poissons Ratio (y) = 0.26858 0.28640
# Poissons Ratio (z) = 0.29327 0.18831
#
# Static dielectric constant tensor:
#      x y z
#    x 3.910720 0.000000 -0.053870 
#    y 0.000000 3.847180 0.000000 
#    z -0.053870 0.000000 4.365880 
# 
# 
# High freq. dielectric constant tensor:
#      x y z
#    x 1.797400 0.000000 -0.002810 
#    y 0.000000 1.802330 0.000000 
#    z -0.002810 0.000000 1.808830 
# 
# From -- ./inp_files/88078.got.cif
#   From: 2010.06.25/outbox.cif.g09.slc.cpg/sg13_45_cif.got.tgz:88078.got - 2010.06.28 04:50:58.
