data_PCOD8120618
_publ_section_title
;
Structure prediction by ZEFSAII (Michael W. Deem and Ramdas Pophale) SiO2 
 PCOD8120618
Probable space group: P 2/C
;
_chemical_formula_sum "Si O2"
_cell_formula_units_Z 32
_cell_length_a 8.695455
_cell_length_b 11.176378
_cell_length_c 29.565076
_cell_angle_alpha 90.000000
_cell_angle_beta 148.390767
_cell_angle_gamma 90.000000
_cell_volume 1505.933302
_symmetry_space_group_name_H-M "P 2/C"
_symmetry_group_IT_number 13
_symmetry_cell_setting 'monoclinic'
loop_
_space_group_symop_operation_xyz
x,y,z
-x,y,1/2-z
-x,-y,-z
x,-y,1/2+z
loop_
_atom_site_type_symbol
_atom_site_label
_atom_site_fract_x
_atom_site_fract_y
_atom_site_fract_z
Si Si1 0.229231 0.152838 0.920557
Si Si2 0.270769 0.152837 0.079443
Si Si3 0.608316 0.306376 0.228083
Si Si4 0.250000 0.037811 0.500000
Si Si5 0.129731 0.557170 0.832223
Si Si6 0.891684 0.693625 0.271917
Si Si7 0.750000 0.339424 0.500000
Si Si8 0.629730 0.442829 0.832223
O O1 0.947665 0.198336 0.821326
O O2 0.138023 0.041077 0.929272
O O3 0.482653 0.120255 0.948593
O O4 0.345288 0.258533 0.981568
O O5 0.552335 0.198336 0.178674
O O6 0.154712 0.258533 0.018432
O O7 0.017346 0.120255 0.051406
O O8 0.361977 0.041076 0.070728
O O9 0.500000 0.264704 0.250000
O O10 0.429668 0.422887 0.165100
O O11 0.953240 0.342716 0.317370
O O12 0.475373 0.577289 0.919577
O O13 0.000000 0.569495 0.750000
O O14 0.070333 0.422886 0.834900
O O15 0.546760 0.657284 0.182630
O O16 0.000000 0.735297 0.250000
O O17 0.024627 0.422711 0.580423
O O18 0.500000 0.430505 0.750000
#
# Coordination Sequence:
#
# PCOD8120618 Si02
#       8
#     4   4   4   4   4   4   4   4
#     4  10  21  41  64  88 122 170 207 267 317 353
#     4  10  21  41  64  88 122 170 207 267 317 353
#     4  10  22  39  62  91 135 165 200 261 310 378
#     4   9  22  41  64  88 124 157 232 271 294 372
#     4  10  21  41  59  97 136 161 207 248 307 394
#     4  10  22  39  62  91 135 165 200 261 310 378
#     4  11  22  37  70  90 126 175 200 253 324 374
#     4  10  21  41  59  97 136 161 207 248 307 394
#
# _framework density 21.249282999999998
#
# number of rings (size 3 to 8) (size 9 to 14) (size 15 to 20)
#    0.000    2.000    2.500    0.000    3.500    2.000 
#    0.000    1.250    0.000    0.000    0.000    0.000 
#    0.000    0.000    0.000    0.000    0.000    0.000 
#
# Total GULP energy -396725.544635 kJ/mol
# GULP energy per Si atom -12397.673270 kJ/mol
# Density = 2.120092 g / cm^3
# Si number density = 21.249283 Si / 1000 Ang^3
#
#
#
# Elastic Constant Matrix: (Units=GPa)
#
#
# Indices 1 2 3 4 5 6 
#
# 1 116.6302 32.9561 43.0375 0.0000 7.8214 0.0000
# 2 32.9561 72.2470 45.1605 0.0000 8.1632 0.0000
# 3 43.0375 45.1605 123.2034 0.0000 18.2059 0.0000
# 4 0.0000 0.0000 0.0000 18.9267 0.0000 9.1665
# 5 7.8214 8.1632 18.2059 0.0000 37.6001 0.0000
# 6 0.0000 0.0000 0.0000 9.1665 0.0000 18.1574
#
#
#
# Elastic Compliance Matrix: (Units=1/GPa)
#
#
# Indices 1 2 3 4 5 6 
#
# 1 0.010388 -0.003196 -0.002413 0.000000 -0.000299 0.000000
# 2 -0.003196 0.018960 -0.005733 0.000000 -0.000675 0.000000
# 3 -0.002413 -0.005733 0.011636 0.000000 -0.003887 0.000000
# 4 0.000000 0.000000 0.000000 0.069934 0.000000 -0.035305
# 5 -0.000299 -0.000675 -0.003887 0.000000 0.028687 0.000000
# 6 0.000000 0.000000 0.000000 -0.035305 0.000000 0.072898
#
#
# Mechanical properties :
#
#
# Convention : Reuss Voigt Hill
#
# Bulk Modulus (GPa) = 54.65216 61.59877 58.12547
# Shear Modulus (GPa) = 20.72231 27.66526 24.19378
#
# Velocity S-wave (km/s) = 3.12621 3.61215 3.37793
# Velocity P-wave (km/s) = 6.22947 6.81531 6.52896
#
# Compressibility (1/GPa) = 0.01829754
#
# Stress axis : x y z
#
# Youngs Moduli (GPa) = 96.26746 52.74370 85.94384
#
# Poissons Ratio (x) = 0.16859 0.20737
# Poissons Ratio (y) = 0.30772 0.49274
# Poissons Ratio (z) = 0.23228 0.30240
#
# Static dielectric constant tensor:
#      x y z
#    x 4.131140 0.000000 -0.062390 
#    y 0.000000 3.859450 0.000000 
#    z -0.062390 0.000000 3.531400 
# 
# 
# High freq. dielectric constant tensor:
#      x y z
#    x 1.854970 0.000000 -0.008570 
#    y 0.000000 1.820330 0.000000 
#    z -0.008570 0.000000 1.805240 
# 
# From -- ./inp_files/96169.got.cif
#   From: 2010.06.25/outbox.cif.g09.slc.cpg/sg13_49_cif.got.tgz:96169.got - 2010.06.28 04:50:58.
