data_PCOD8120079
_publ_section_title
;
Structure prediction by ZEFSAII (Michael W. Deem and Ramdas Pophale) SiO2 
 PCOD8120079
Probable space group: P 2/C
;
_chemical_formula_sum "Si O2"
_cell_formula_units_Z 18
_cell_length_a 10.433964
_cell_length_b 6.105484
_cell_length_c 21.924556
_cell_angle_alpha 90.000000
_cell_angle_beta 141.083862
_cell_angle_gamma 90.000000
_cell_volume 877.376278
_symmetry_space_group_name_H-M "P 2/C"
_symmetry_group_IT_number 13
_symmetry_cell_setting 'monoclinic'
loop_
_space_group_symop_operation_xyz
x,y,z
-x,y,1/2-z
-x,-y,-z
x,-y,1/2+z
loop_
_atom_site_type_symbol
_atom_site_label
_atom_site_fract_x
_atom_site_fract_y
_atom_site_fract_z
Si Si1 0.487441 0.623230 0.351478
Si Si2 0.238592 0.090331 0.842475
Si Si3 0.764950 0.995772 0.925707
Si Si4 0.411768 0.242970 0.027732
Si Si5 0.500000 0.311597 0.250000
O O1 0.306466 0.784704 0.305698
O O2 0.670679 0.760500 0.388303
O O3 0.570394 0.490236 0.441021
O O4 0.404946 0.456650 0.269585
O O5 0.000000 0.036670 0.750000
O O6 0.361967 0.862680 0.894835
O O7 0.292913 0.246958 0.919670
O O8 0.723607 0.902688 0.977306
O O9 0.677823 0.841230 0.840743
O O10 0.000000 0.000000 0.000000
#
# Coordination Sequence:
#
# PCOD8120079 Si02
#       5
#     4   4   4   4   2
#     4  10  21  38  58  83 119 154 192 241 293 349
#     4  10  21  37  59  84 114 154 196 240 291 345
#     4  10  22  38  59  86 118 155 195 243 294 348
#     4   9  21  38  55  84 119 149 194 246 286 344
#     4  10  22  38  58  86 118 150 196 246 290 350
#
# _framework density 20.515716000000001
#
# number of rings (size 3 to 8) (size 9 to 14) (size 15 to 20)
#    0.000    2.222    0.000    1.333    0.000   13.333 
#    0.000    0.000    0.000    0.000    0.000    0.000 
#    0.000    0.000    0.000    0.000    0.000    0.000 
#
# Total GULP energy -223230.901723 kJ/mol
# GULP energy per Si atom -12401.716762 kJ/mol
# Density = 2.046902 g / cm^3
# Si number density = 20.515716 Si / 1000 Ang^3
#
#
#
# Elastic Constant Matrix: (Units=GPa)
#
#
# Indices 1 2 3 4 5 6 
#
# 1 106.3439 36.7233 72.4368 0.0000 19.8504 0.0000
# 2 36.7233 102.0686 42.0025 0.0000 6.2329 0.0000
# 3 72.4368 42.0025 126.4084 0.0000 15.2411 0.0000
# 4 0.0000 0.0000 0.0000 17.8465 0.0000 -7.1247
# 5 19.8504 6.2329 15.2411 0.0000 42.3072 0.0000
# 6 0.0000 0.0000 0.0000 -7.1247 0.0000 24.9383
#
#
#
# Elastic Compliance Matrix: (Units=1/GPa)
#
#
# Indices 1 2 3 4 5 6 
#
# 1 0.016652 -0.002332 -0.008224 0.000000 -0.004507 0.000000
# 2 -0.002332 0.011680 -0.002581 0.000000 0.000303 0.000000
# 3 -0.008224 -0.002581 0.013559 0.000000 -0.000646 0.000000
# 4 0.000000 0.000000 0.000000 0.063247 0.000000 0.018069
# 5 -0.004507 0.000303 -0.000646 0.000000 0.025939 0.000000
# 6 0.000000 0.000000 0.000000 0.018069 0.000000 0.045261
#
#
# Mechanical properties :
#
#
# Convention : Reuss Voigt Hill
#
# Bulk Modulus (GPa) = 64.03370 70.79403 67.41386
# Shear Modulus (GPa) = 24.05954 29.26227 26.66091
#
# Velocity S-wave (km/s) = 3.42824 3.78078 3.60882
# Velocity P-wave (km/s) = 6.85202 7.32402 7.09195
#
# Compressibility (1/GPa) = 0.01561678
#
# Stress axis : x y z
#
# Youngs Moduli (GPa) = 60.05425 85.61631 73.75143
#
# Poissons Ratio (x) = 0.19963 0.60652
# Poissons Ratio (y) = 0.14003 0.19038
# Poissons Ratio (z) = 0.49388 0.22101
#
# Static dielectric constant tensor:
#      x y z
#    x 4.243870 0.000000 -0.484090 
#    y 0.000000 3.877010 0.000000 
#    z -0.484090 0.000000 3.579880 
# 
# 
# High freq. dielectric constant tensor:
#      x y z
#    x 1.811540 0.000000 -0.020210 
#    y 0.000000 1.809570 0.000000 
#    z -0.020210 0.000000 1.780910 
# 
# From -- ./inp_files/31287.got.cif
#   From: 2010.06.25/outbox.cif.g09.slc.cpg/sg13_16_cif.got.tgz:31287.got - 2010.06.28 04:50:58.
