data_PCOD8120558
_publ_section_title
;
Structure prediction by ZEFSAII (Michael W. Deem and Ramdas Pophale) SiO2 
 PCOD8120558
Probable space group: P 2/C
;
_chemical_formula_sum "Si O2"
_cell_formula_units_Z 26
_cell_length_a 8.069519
_cell_length_b 16.920628
_cell_length_c 14.403557
_cell_angle_alpha 90.000000
_cell_angle_beta 140.707835
_cell_angle_gamma 90.000000
_cell_volume 1245.449886
_symmetry_space_group_name_H-M "P 2/C"
_symmetry_group_IT_number 13
_symmetry_cell_setting 'monoclinic'
loop_
_space_group_symop_operation_xyz
x,y,z
-x,y,1/2-z
-x,-y,-z
x,-y,1/2+z
loop_
_atom_site_type_symbol
_atom_site_label
_atom_site_fract_x
_atom_site_fract_y
_atom_site_fract_z
Si Si1 0.023915 0.082719 0.959453
Si Si2 0.500000 0.179056 0.250000
Si Si3 0.374247 0.729424 0.364207
Si Si4 0.500000 0.818044 0.250000
Si Si5 0.213935 0.595985 0.169661
Si Si6 0.747123 0.720840 0.689995
Si Si7 0.000000 0.131195 0.750000
Si Si8 0.211648 0.416660 0.165316
O O1 0.757235 0.129623 0.857398
O O2 0.064114 0.074233 0.865461
O O3 0.272021 0.126285 0.109151
O O4 0.000000 0.000000 0.000000
O O5 0.374593 0.229372 0.278686
O O6 0.557209 0.758605 0.359743
O O7 0.189237 0.657802 0.245465
O O8 0.531560 0.699252 0.520189
O O9 0.236097 0.810276 0.332789
O O10 0.500000 0.602197 0.250000
O O11 0.161326 0.505866 0.178253
O O12 0.991676 0.616013 0.998938
O O13 0.838172 0.636286 0.766631
O O14 0.000000 0.762361 0.750000
O O15 0.500000 0.405067 0.250000
#
# Coordination Sequence:
#
# PCOD8120558 Si02
#       8
#     4   2   4   2   4   4   2   4
#     4  11  24  48  71 100 139 179 216 285 354 415
#     4  12  25  46  73 106 142 180 232 290 351 410
#     4  11  22  40  66  96 130 178 228 280 337 414
#     4  10  23  42  71  98 134 176 224 276 339 424
#     4  10  21  40  65  93 134 189 232 285 353 404
#     4  12  25  41  68 104 138 182 235 296 346 409
#     4  10  24  42  66 104 130 168 232 266 340 434
#     4  10  23  40  63  96 137 182 238 294 342 404
#
# _framework density 20.875989000000001
#
# number of rings (size 3 to 8) (size 9 to 14) (size 15 to 20)
#    0.000    1.231    3.077    2.308    6.462    0.615 
#    5.538    2.308    0.000    0.000    0.000    0.000 
#    0.000    0.000    0.000    0.000    0.000    0.000 
#
# Total GULP energy -322248.189310 kJ/mol
# GULP energy per Si atom -12394.161127 kJ/mol
# Density = 2.082847 g / cm^3
# Si number density = 20.875989 Si / 1000 Ang^3
#
#
#
# Elastic Constant Matrix: (Units=GPa)
#
#
# Indices 1 2 3 4 5 6 
#
# 1 113.6955 53.5081 66.3040 0.0000 -18.8822 0.0000
# 2 53.5081 128.5137 75.3092 0.0000 -28.4063 0.0000
# 3 66.3040 75.3092 193.1988 0.0000 -20.2976 0.0000
# 4 0.0000 0.0000 0.0000 34.8323 0.0000 4.3143
# 5 -18.8822 -28.4063 -20.2976 0.0000 42.2148 0.0000
# 6 0.0000 0.0000 0.0000 4.3143 0.0000 -11.3646
#
#
#
# Elastic Compliance Matrix: (Units=1/GPa)
#
#
# Indices 1 2 3 4 5 6 
#
# 1 0.012173 -0.002961 -0.002802 0.000000 0.002105 0.000000
# 2 -0.002961 0.011997 -0.003108 0.000000 0.005254 0.000000
# 3 -0.002802 -0.003108 0.007370 0.000000 0.000199 0.000000
# 4 0.000000 0.000000 0.000000 0.027420 0.000000 0.010409
# 5 0.002105 0.005254 0.000199 0.000000 0.028261 0.000000
# 6 0.000000 0.000000 0.000000 0.010409 0.000000 -0.084041
#
#
# Mechanical properties :
#
#
# Convention : Reuss Voigt Hill
#
# Bulk Modulus (GPa) = 72.47985 91.73898 82.10941
# Shear Modulus (GPa) = 195.91647 29.15560 112.53604
#
# Velocity S-wave (km/s) = 9.69801 3.74118 7.35010
# Velocity P-wave (km/s) = 12.65688 7.91846 10.55696
#
# Compressibility (1/GPa) = 0.01379694
#
# Stress axis : x y z
#
# Youngs Moduli (GPa) = 82.15138 83.35582 135.68123
#
# Poissons Ratio (x) = 0.24680 0.38021
# Poissons Ratio (y) = 0.24323 0.42173
# Poissons Ratio (z) = 0.23021 0.25909
#
# Static dielectric constant tensor:
#      x y z
#    x 4.266670 0.000000 -0.198170 
#    y 0.000000 3.911360 0.000000 
#    z -0.198170 0.000000 4.005670 
# 
# 
# High freq. dielectric constant tensor:
#      x y z
#    x 1.821140 0.000000 -0.001860 
#    y 0.000000 1.813300 0.000000 
#    z -0.001860 0.000000 1.834510 
# 
# From -- ./inp_files/47843.got.cif
#   From: 2010.06.25/outbox.cif.g09.slc.cpg/sg13_24_cif.got.tgz:47843.got - 2010.06.28 04:50:58.
