data_PCOD8120501
_publ_section_title
;
Structure prediction by ZEFSAII (Michael W. Deem and Ramdas Pophale) SiO2 
 PCOD8120501
Probable space group: P 2/C
;
_chemical_formula_sum "Si O2"
_cell_formula_units_Z 32
_cell_length_a 12.299125
_cell_length_b 8.753126
_cell_length_c 17.717139
_cell_angle_alpha 90.000000
_cell_angle_beta 129.075744
_cell_angle_gamma 90.000000
_cell_volume 1480.703260
_symmetry_space_group_name_H-M "P 2/C"
_symmetry_group_IT_number 13
_symmetry_cell_setting 'monoclinic'
loop_
_space_group_symop_operation_xyz
x,y,z
-x,y,1/2-z
-x,-y,-z
x,-y,1/2+z
loop_
_atom_site_type_symbol
_atom_site_label
_atom_site_fract_x
_atom_site_fract_y
_atom_site_fract_z
Si Si1 0.915002 0.866865 0.636203
Si Si2 0.341652 0.893497 0.669709
Si Si3 0.660544 0.956574 0.081939
Si Si4 0.169043 0.941353 0.201330
Si Si5 0.599767 0.403650 0.224870
Si Si6 0.839771 0.408040 0.760934
Si Si7 0.871609 0.523389 0.603591
Si Si8 0.651833 0.704324 0.970668
O O1 0.865380 0.703078 0.584206
O O2 0.000000 0.839995 0.750000
O O3 0.769517 0.956581 0.575957
O O4 0.024271 0.963972 0.633875
O O5 0.500000 0.950752 0.750000
O O6 0.313192 0.744859 0.710344
O O7 0.313437 0.843480 0.571562
O O8 0.238218 0.032064 0.649049
O O9 0.710327 0.998609 0.187850
O O10 0.668434 0.775870 0.062381
O O11 0.500000 0.000000 0.000000
O O12 0.140448 0.772005 0.218438
O O13 0.500000 0.459100 0.250000
O O14 0.701940 0.538639 0.244836
O O15 0.505013 0.357642 0.111317
O O16 0.841485 0.471418 0.676492
O O17 0.977005 0.475029 0.860540
O O18 0.755651 0.437695 0.502627
#
# Coordination Sequence:
#
# PCOD8120501 Si02
#       8
#     4   4   4   4   4   4   4   4
#     4  10  22  38  60  85 125 162 202 247 313 376
#     4   9  20  40  63  85 123 170 204 246 310 376
#     4  11  22  35  59  91 121 153 202 260 303 360
#     4  11  22  39  62  88 120 168 203 249 307 375
#     4   9  21  41  61  86 125 171 203 246 312 376
#     4  11  22  37  63  91 122 161 208 257 310 368
#     4  11  22  38  60  94 122 157 208 262 312 364
#     4  10  21  40  61  92 128 155 207 260 307 360
#
# _framework density 21.611352
#
# number of rings (size 3 to 8) (size 9 to 14) (size 15 to 20)
#    0.000    2.000    2.500    3.000    7.000    2.000 
#    0.000   10.625    0.000    0.000    0.000    0.000 
#    0.000    0.000    0.000    0.000    0.000    0.000 
#
# Total GULP energy -396457.670267 kJ/mol
# GULP energy per Si atom -12389.302196 kJ/mol
# Density = 2.156216 g / cm^3
# Si number density = 21.611352 Si / 1000 Ang^3
#
#
#
# Elastic Constant Matrix: (Units=GPa)
#
#
# Indices 1 2 3 4 5 6 
#
# 1 110.6596 46.1025 15.2051 0.0000 23.0357 0.0000
# 2 46.1025 107.1831 14.4078 0.0000 17.8067 0.0000
# 3 15.2051 14.4078 58.1386 0.0000 23.6741 0.0000
# 4 0.0000 0.0000 0.0000 21.0037 0.0000 6.5247
# 5 23.0357 17.8067 23.6741 0.0000 29.7381 0.0000
# 6 0.0000 0.0000 0.0000 6.5247 0.0000 38.5365
#
#
#
# Elastic Compliance Matrix: (Units=1/GPa)
#
#
# Indices 1 2 3 4 5 6 
#
# 1 0.012234 -0.004098 0.001000 0.000000 -0.007819 0.000000
# 2 -0.004098 0.011733 -0.000396 0.000000 -0.003536 0.000000
# 3 0.001000 -0.000396 0.025533 0.000000 -0.020863 0.000000
# 4 0.000000 0.000000 0.000000 0.050254 0.000000 -0.008509
# 5 -0.007819 -0.003536 -0.020863 0.000000 0.058410 0.000000
# 6 0.000000 0.000000 0.000000 -0.008509 0.000000 0.027390
#
#
# Mechanical properties :
#
#
# Convention : Reuss Voigt Hill
#
# Bulk Modulus (GPa) = 23.52281 47.49025 35.50653
# Shear Modulus (GPa) = 24.18821 31.20672 27.69747
#
# Velocity S-wave (km/s) = 3.34913 3.80412 3.58385
# Velocity P-wave (km/s) = 5.08563 6.42787 5.79574
#
# Compressibility (1/GPa) = 0.04251193
#
# Stress axis : x y z
#
# Youngs Moduli (GPa) = 81.73819 85.22933 39.16574
#
# Poissons Ratio (x) = 0.34924 -0.03916
# Poissons Ratio (y) = 0.33493 0.01551
# Poissons Ratio (z) = -0.08172 0.03376
#
# Static dielectric constant tensor:
#      x y z
#    x 3.772650 0.000000 0.180850 
#    y 0.000000 3.834370 0.000000 
#    z 0.180850 0.000000 3.846740 
# 
# 
# High freq. dielectric constant tensor:
#      x y z
#    x 1.840350 0.000000 0.021050 
#    y 0.000000 1.843030 0.000000 
#    z 0.021050 0.000000 1.840350 
# 
# From -- ./inp_files/78311.got.cif
#   From: 2010.06.25/outbox.cif.g09.slc.cpg/sg13_40_cif.got.tgz:78311.got - 2010.06.28 04:50:58.
