data_PCOD8120653
_publ_section_title
;
Structure prediction by ZEFSAII (Michael W. Deem and Ramdas Pophale) SiO2 
 PCOD8120653
Probable space group: P 2/C
;
_chemical_formula_sum "Si O2"
_cell_formula_units_Z 28
_cell_length_a 11.070188
_cell_length_b 8.631529
_cell_length_c 25.429294
_cell_angle_alpha 90.000000
_cell_angle_beta 32.850872
_cell_angle_gamma 90.000000
_cell_volume 1318.075256
_symmetry_space_group_name_H-M "P 2/C"
_symmetry_group_IT_number 13
_symmetry_cell_setting 'monoclinic'
loop_
_space_group_symop_operation_xyz
x,y,z
-x,y,1/2-z
-x,-y,-z
x,-y,1/2+z
loop_
_atom_site_type_symbol
_atom_site_label
_atom_site_fract_x
_atom_site_fract_y
_atom_site_fract_z
Si Si1 0.340035 0.948150 0.354396
Si Si2 0.998922 0.533274 0.423376
Si Si3 0.656060 0.392084 0.620339
Si Si4 0.213550 0.513777 0.739270
Si Si5 0.000000 0.259921 0.750000
Si Si6 0.237819 0.013366 0.593941
Si Si7 0.136387 0.124085 0.517710
Si Si8 0.000000 0.764530 0.750000
O O1 0.500000 0.012472 0.250000
O O2 0.432515 0.784295 0.343160
O O3 0.099514 0.923702 0.418495
O O4 0.329036 0.073152 0.405773
O O5 0.860986 0.400661 0.504094
O O6 0.854993 0.691615 0.477039
O O7 0.244253 0.555023 0.359680
O O8 0.031768 0.475821 0.352170
O O9 0.460576 0.505573 0.672881
O O10 0.186344 0.661489 0.711381
O O11 0.170149 0.359719 0.722027
O O12 0.840695 0.162028 0.845444
O O13 0.164818 0.028944 0.560600
O O14 0.500000 0.000000 0.500000
O O15 0.126582 0.862352 0.659751
#
# Coordination Sequence:
#
# PCOD8120653 Si02
#       8
#     4   4   4   4   2   4   4   2
#     4  10  22  40  65  95 123 164 207 260 328 389
#     4  10  21  41  63  98 129 162 212 263 320 395
#     4  10  22  38  67  93 126 168 207 257 337 383
#     4  11  22  42  65  92 132 169 212 273 315 386
#     4  10  24  42  64  94 122 172 220 262 320 382
#     4  11  25  44  66  91 129 173 217 272 321 378
#     4  10  22  41  64  94 126 162 213 263 318 386
#     4  10  28  42  62 102 126 170 234 260 318 382
#
# _framework density 21.243096000000001
#
# number of rings (size 3 to 8) (size 9 to 14) (size 15 to 20)
#    0.000    1.714    1.429    2.143    6.000    1.143 
#    0.000    3.571    0.000    0.000    0.000    0.000 
#    0.000    0.000    0.000    0.000    0.000    0.000 
#
# Total GULP energy -347282.939854 kJ/mol
# GULP energy per Si atom -12402.962138 kJ/mol
# Density = 2.119475 g / cm^3
# Si number density = 21.243096 Si / 1000 Ang^3
#
#
#
# Elastic Constant Matrix: (Units=GPa)
#
#
# Indices 1 2 3 4 5 6 
#
# 1 96.1531 49.1309 32.1552 0.0000 18.9648 0.0000
# 2 49.1309 88.9814 38.3794 0.0000 6.4337 0.0000
# 3 32.1552 38.3794 100.8277 0.0000 20.2702 0.0000
# 4 0.0000 0.0000 0.0000 26.7509 0.0000 2.4189
# 5 18.9648 6.4337 20.2702 0.0000 40.9711 0.0000
# 6 0.0000 0.0000 0.0000 2.4189 0.0000 14.2898
#
#
#
# Elastic Compliance Matrix: (Units=1/GPa)
#
#
# Indices 1 2 3 4 5 6 
#
# 1 0.015893 -0.007981 -0.000892 0.000000 -0.005662 0.000000
# 2 -0.007981 0.017462 -0.004767 0.000000 0.003311 0.000000
# 3 -0.000892 -0.004767 0.013085 0.000000 -0.005312 0.000000
# 4 0.000000 0.000000 0.000000 0.037963 0.000000 -0.006426
# 5 -0.005662 0.003311 -0.005312 0.000000 0.029137 0.000000
# 6 0.000000 0.000000 0.000000 -0.006426 0.000000 0.071068
#
#
# Mechanical properties :
#
#
# Convention : Reuss Voigt Hill
#
# Bulk Modulus (GPa) = 52.19472 58.36592 55.28032
# Shear Modulus (GPa) = 22.90687 27.48879 25.19783
#
# Velocity S-wave (km/s) = 3.28734 3.60114 3.44781
# Velocity P-wave (km/s) = 6.24759 6.69521 6.47527
#
# Compressibility (1/GPa) = 0.01915903
#
# Stress axis : x y z
#
# Youngs Moduli (GPa) = 62.91938 57.26769 76.42373
#
# Poissons Ratio (x) = 0.45707 0.06819
# Poissons Ratio (y) = 0.50217 0.36431
# Poissons Ratio (z) = 0.05614 0.27300
#
# Static dielectric constant tensor:
#      x y z
#    x 3.989240 0.000000 0.294550 
#    y 0.000000 3.980150 0.000000 
#    z 0.294550 0.000000 3.850940 
# 
# 
# High freq. dielectric constant tensor:
#      x y z
#    x 1.838670 0.000000 0.014020 
#    y 0.000000 1.825910 0.000000 
#    z 0.014020 0.000000 1.836570 
# 
# From -- ./inp_files/92245.got.cif
#   From: 2010.06.25/outbox.cif.g09.slc.cpg/sg13_47_cif.got.tgz:92245.got - 2010.06.28 04:50:58.
