data_PCOD8120397
_publ_section_title
;
Structure prediction by ZEFSAII (Michael W. Deem and Ramdas Pophale) SiO2 
 PCOD8120397
Probable space group: P 2/C
;
_chemical_formula_sum "Si O2"
_cell_formula_units_Z 28
_cell_length_a 12.650636
_cell_length_b 13.440803
_cell_length_c 8.712945
_cell_angle_alpha 90.000000
_cell_angle_beta 109.360299
_cell_angle_gamma 90.000000
_cell_volume 1397.727885
_symmetry_space_group_name_H-M "P 2/C"
_symmetry_group_IT_number 13
_symmetry_cell_setting 'monoclinic'
loop_
_space_group_symop_operation_xyz
x,y,z
-x,y,1/2-z
-x,-y,-z
x,-y,1/2+z
loop_
_atom_site_type_symbol
_atom_site_label
_atom_site_fract_x
_atom_site_fract_y
_atom_site_fract_z
Si Si1 0.625577 0.555854 0.864548
Si Si2 0.252800 0.051461 0.303175
Si Si3 0.603545 0.065234 0.403550
Si Si4 0.471888 0.733585 0.557191
Si Si5 0.064444 0.084906 0.626931
Si Si6 0.310301 0.366461 0.422235
Si Si7 0.888129 0.778442 0.613923
O O1 0.500000 0.529043 0.750000
O O2 0.616928 0.641702 0.994015
O O3 0.699588 0.594741 0.757297
O O4 0.681343 0.458817 0.959862
O O5 0.302777 0.101035 0.173596
O O6 0.161243 0.125240 0.325977
O O7 0.352541 0.026003 0.471431
O O8 0.189463 0.950285 0.228825
O O9 0.500000 0.026468 0.250000
O O10 0.576827 0.157613 0.507094
O O11 0.500000 0.742864 0.750000
O O12 0.582589 0.708021 0.510903
O O13 0.078231 0.187753 0.540878
O O14 0.000000 0.112308 0.750000
O O15 0.000000 0.000000 0.500000
O O16 0.200183 0.310363 0.425328
O O17 0.000000 0.740380 0.750000
#
# Coordination Sequence:
#
# PCOD8120397 Si02
#       7
#     4   4   4   4   4   4   4
#     4   9  17  38  66  90 120 158 196 239 301 371
#     4  12  21  38  59  84 121 170 203 244 301 347
#     4  11  22  35  55  87 130 164 201 239 296 365
#     4   8  16  35  59  85 119 160 197 234 291 366
#     4  12  21  42  63  87 113 155 220 261 288 349
#     4  10  21  39  63  92 117 159 198 248 307 360
#     4  12  24  41  64  87 119 161 209 258 305 360
#
# _framework density 20.032513000000002
#
# number of rings (size 3 to 8) (size 9 to 14) (size 15 to 20)
#    0.000    1.714    4.286    4.714    0.000    0.000 
#    5.143    1.429    0.000    0.000    0.000    0.000 
#    0.000    0.000    0.000    0.000    0.000    0.000 
#
# Total GULP energy -347082.945222 kJ/mol
# GULP energy per Si atom -12395.819472 kJ/mol
# Density = 1.998692 g / cm^3
# Si number density = 20.032513 Si / 1000 Ang^3
#
#
#
# Elastic Constant Matrix: (Units=GPa)
#
#
# Indices 1 2 3 4 5 6 
#
# 1 121.2756 63.2944 46.3212 0.0000 -13.4383 0.0000
# 2 63.2944 89.5141 37.1069 0.0000 2.5798 0.0000
# 3 46.3212 37.1069 62.5165 0.0000 -3.8534 0.0000
# 4 0.0000 0.0000 0.0000 26.3736 0.0000 2.9904
# 5 -13.4383 2.5798 -3.8534 0.0000 37.0314 0.0000
# 6 0.0000 0.0000 0.0000 2.9904 0.0000 40.7701
#
#
#
# Elastic Compliance Matrix: (Units=1/GPa)
#
#
# Indices 1 2 3 4 5 6 
#
# 1 0.015821 -0.008804 -0.006144 0.000000 0.005715 0.000000
# 2 -0.008804 0.019860 -0.005582 0.000000 -0.005159 0.000000
# 3 -0.006144 -0.005582 0.023901 0.000000 0.000646 0.000000
# 4 0.000000 0.000000 0.000000 0.038235 0.000000 -0.002804
# 5 0.005715 -0.005159 0.000646 0.000000 0.029505 0.000000
# 6 0.000000 0.000000 0.000000 -0.002804 0.000000 0.024733
#
#
# Mechanical properties :
#
#
# Convention : Reuss Voigt Hill
#
# Bulk Modulus (GPa) = 53.99474 62.97234 58.48354
# Shear Modulus (GPa) = 25.08910 29.27395 27.18153
#
# Velocity S-wave (km/s) = 3.54279 3.82687 3.68757
# Velocity P-wave (km/s) = 6.61417 7.14352 6.88394
#
# Compressibility (1/GPa) = 0.01852032
#
# Stress axis : x y z
#
# Youngs Moduli (GPa) = 63.20796 50.35330 41.83858
#
# Poissons Ratio (x) = 0.44333 0.25706
# Poissons Ratio (y) = 0.55651 0.23355
# Poissons Ratio (z) = 0.38836 0.28108
#
# Static dielectric constant tensor:
#      x y z
#    x 3.755490 0.000000 -0.111280 
#    y 0.000000 3.967180 0.000000 
#    z -0.111280 0.000000 3.531710 
# 
# 
# High freq. dielectric constant tensor:
#      x y z
#    x 1.783210 0.000000 -0.015510 
#    y 0.000000 1.767620 0.000000 
#    z -0.015510 0.000000 1.758830 
# 
# From -- ./inp_files/16531.got.cif
#   From: 2010.06.25/outbox.cif.g09.slc.cpg/sg13_9_cif.got.tgz:16531.got - 2010.06.28 04:50:58.
