data_PCOD8120518
_publ_section_title
;
Structure prediction by ZEFSAII (Michael W. Deem and Ramdas Pophale) SiO2 
 PCOD8120518
Probable space group: P 2/C
;
_chemical_formula_sum "Si O2"
_cell_formula_units_Z 20
_cell_length_a 11.846182
_cell_length_b 5.692613
_cell_length_c 27.859137
_cell_angle_alpha 90.000000
_cell_angle_beta 28.102751
_cell_angle_gamma 90.000000
_cell_volume 884.970171
_symmetry_space_group_name_H-M "P 2/C"
_symmetry_group_IT_number 13
_symmetry_cell_setting 'monoclinic'
loop_
_space_group_symop_operation_xyz
x,y,z
-x,y,1/2-z
-x,-y,-z
x,-y,1/2+z
loop_
_atom_site_type_symbol
_atom_site_label
_atom_site_fract_x
_atom_site_fract_y
_atom_site_fract_z
Si Si1 0.654757 0.785352 0.313974
Si Si2 0.018483 0.926140 0.866072
Si Si3 0.202684 0.917234 0.959552
Si Si4 0.435492 0.401235 0.222799
Si Si5 0.459498 0.252454 0.988210
O O1 0.704629 0.559786 0.262578
O O2 0.642962 0.735315 0.374820
O O3 0.885115 0.950255 0.218471
O O4 0.407943 0.887554 0.385973
O O5 0.246416 0.804406 0.806310
O O6 0.814045 0.742267 0.927253
O O7 0.910589 0.115108 0.944705
O O8 0.320865 0.679286 0.895508
O O9 0.000000 0.000000 0.000000
O O10 0.500000 0.520765 0.250000
O O11 0.500000 0.500000 0.000000
O O12 0.500000 0.000000 0.000000
#
# Coordination Sequence:
#
# PCOD8120518 Si02
#       5
#     4   4   4   4   4
#     4  10  26  42  68 103 137 181 243 293 353 441
#     4  10  24  45  68  99 141 184 236 302 350 438
#     4  10  21  40  62  96 145 184 228 284 351 426
#     4  11  23  39  68 106 140 189 233 285 369 435
#     4  11  28  52  76 104 140 188 245 307 367 415
#
# _framework density 22.599633000000001
#
# number of rings (size 3 to 8) (size 9 to 14) (size 15 to 20)
#    0.000    1.600    2.000    0.000   14.000    3.200 
#    0.000    0.000    0.000    0.000    0.000    0.000 
#    0.000    0.000    0.000    0.000    0.000    0.000 
#
# Total GULP energy -247834.955805 kJ/mol
# GULP energy per Si atom -12391.747790 kJ/mol
# Density = 2.254820 g / cm^3
# Si number density = 22.599633 Si / 1000 Ang^3
#
#
#
# Elastic Constant Matrix: (Units=GPa)
#
#
# Indices 1 2 3 4 5 6 
#
# 1 100.7345 36.7607 54.0666 0.0000 30.1085 0.0000
# 2 36.7607 91.5118 37.6964 0.0000 24.4499 0.0000
# 3 54.0666 37.6964 155.2242 0.0000 26.0880 0.0000
# 4 0.0000 0.0000 0.0000 26.3508 0.0000 8.0201
# 5 30.1085 24.4499 26.0880 0.0000 45.3764 0.0000
# 6 0.0000 0.0000 0.0000 8.0201 0.0000 38.0540
#
#
#
# Elastic Compliance Matrix: (Units=1/GPa)
#
#
# Indices 1 2 3 4 5 6 
#
# 1 0.014629 -0.002822 -0.003359 0.000000 -0.006255 0.000000
# 2 -0.002822 0.013994 -0.001619 0.000000 -0.004737 0.000000
# 3 -0.003359 -0.001619 0.008285 0.000000 -0.001662 0.000000
# 4 0.000000 0.000000 0.000000 0.040551 0.000000 -0.008546
# 5 -0.006255 -0.004737 -0.001662 0.000000 0.029696 0.000000
# 6 0.000000 0.000000 0.000000 -0.008546 0.000000 0.028080
#
#
# Mechanical properties :
#
#
# Convention : Reuss Voigt Hill
#
# Bulk Modulus (GPa) = 46.93168 67.16866 57.05017
# Shear Modulus (GPa) = 31.65816 36.55270 34.10543
#
# Velocity S-wave (km/s) = 3.74682 4.02606 3.88895
# Velocity P-wave (km/s) = 6.28728 7.16923 6.74269
#
# Compressibility (1/GPa) = 0.02130757
#
# Stress axis : x y z
#
# Youngs Moduli (GPa) = 68.35591 71.46066 120.70221
#
# Poissons Ratio (x) = 0.20164 0.40544
# Poissons Ratio (y) = 0.19288 0.19547
# Poissons Ratio (z) = 0.22961 0.11573
#
# Static dielectric constant tensor:
#      x y z
#    x 4.007470 0.000000 0.125190 
#    y 0.000000 3.983550 0.000000 
#    z 0.125190 0.000000 4.496610 
# 
# 
# High freq. dielectric constant tensor:
#      x y z
#    x 1.885900 0.000000 0.003510 
#    y 0.000000 1.867840 0.000000 
#    z 0.003510 0.000000 1.918250 
# 
# From -- ./inp_files/38096.got.cif
#   From: 2010.06.25/outbox.cif.g09.slc.cpg/sg13_20_cif.got.tgz:38096.got - 2010.06.28 04:50:58.
