data_PCOD8120247
_publ_section_title
;
Structure prediction by ZEFSAII (Michael W. Deem and Ramdas Pophale) SiO2 
 PCOD8120247
Probable space group: P 2/C
;
_chemical_formula_sum "Si O2"
_cell_formula_units_Z 22
_cell_length_a 18.342619
_cell_length_b 5.057393
_cell_length_c 26.864325
_cell_angle_alpha 90.000000
_cell_angle_beta 157.178242
_cell_angle_gamma 90.000000
_cell_volume 966.596646
_symmetry_space_group_name_H-M "P 2/C"
_symmetry_group_IT_number 13
_symmetry_cell_setting 'monoclinic'
loop_
_space_group_symop_operation_xyz
x,y,z
-x,y,1/2-z
-x,-y,-z
x,-y,1/2+z
loop_
_atom_site_type_symbol
_atom_site_label
_atom_site_fract_x
_atom_site_fract_y
_atom_site_fract_z
Si Si1 0.802678 0.920871 0.712419
Si Si2 0.694015 0.444529 0.985055
Si Si3 0.673947 0.384341 0.684291
Si Si4 0.000000 0.714038 0.750000
Si Si5 0.206937 0.059954 0.006516
Si Si6 0.999116 0.247105 0.964392
O O1 0.741591 0.656453 0.702605
O O2 0.835136 0.882328 0.673615
O O3 0.654840 0.159122 0.629049
O O4 0.996396 0.031058 0.855586
O O5 0.669687 0.732339 0.946604
O O6 0.894865 0.448969 0.140529
O O7 0.692535 0.224328 0.939452
O O8 0.529920 0.408891 0.920891
O O9 0.814197 0.277607 0.814680
O O10 0.186834 0.186625 0.049254
O O11 0.000000 0.500000 0.000000
O O12 0.000000 0.000000 0.000000
#
# Coordination Sequence:
#
# PCOD8120247 Si02
#       6
#     4   4   4   2   4   4
#     4  10  21  38  61  85 121 155 197 240 290 350
#     4  11  23  39  61  86 123 155 195 242 295 349
#     4  11  23  40  59  89 121 153 192 253 298 332
#     4  10  22  38  62  88 114 164 200 230 288 362
#     4  10  21  40  60  85 120 158 188 243 305 345
#     4  11  21  38  63  85 111 153 199 234 286 359
#
# _framework density 22.760269000000001
#
# number of rings (size 3 to 8) (size 9 to 14) (size 15 to 20)
#    0.000    1.455    0.000    8.727    0.000    8.000 
#    0.000    5.455    0.000    0.000    0.000    0.000 
#    0.000    0.000    0.000    0.000    0.000    0.000 
#
# Total GULP energy -272549.372475 kJ/mol
# GULP energy per Si atom -12388.607840 kJ/mol
# Density = 2.270847 g / cm^3
# Si number density = 22.760269 Si / 1000 Ang^3
#
#
#
# Elastic Constant Matrix: (Units=GPa)
#
#
# Indices 1 2 3 4 5 6 
#
# 1 142.4922 56.8481 21.4978 0.0000 24.7373 0.0000
# 2 56.8481 169.4926 15.5908 0.0000 9.0491 0.0000
# 3 21.4978 15.5908 32.3970 0.0000 12.6291 0.0000
# 4 0.0000 0.0000 0.0000 18.5998 0.0000 11.2971
# 5 24.7373 9.0491 12.6291 0.0000 35.0054 0.0000
# 6 0.0000 0.0000 0.0000 11.2971 0.0000 46.5761
#
#
#
# Elastic Compliance Matrix: (Units=1/GPa)
#
#
# Indices 1 2 3 4 5 6 
#
# 1 0.009357 -0.002597 -0.003076 0.000000 -0.004831 0.000000
# 2 -0.002597 0.006905 -0.001884 0.000000 0.000730 0.000000
# 3 -0.003076 -0.001884 0.038142 0.000000 -0.011100 0.000000
# 4 0.000000 0.000000 0.000000 0.063053 0.000000 -0.015294
# 5 -0.004831 0.000730 -0.011100 0.000000 0.035797 0.000000
# 6 0.000000 0.000000 0.000000 -0.015294 0.000000 0.025180
#
#
# Mechanical properties :
#
#
# Convention : Reuss Voigt Hill
#
# Bulk Modulus (GPa) = 25.45221 59.13947 42.29584
# Shear Modulus (GPa) = 24.19608 36.73261 30.46435
#
# Velocity S-wave (km/s) = 3.26403 4.02169 3.66250
# Velocity P-wave (km/s) = 5.04106 6.89966 6.04225
#
# Compressibility (1/GPa) = 0.03928932
#
# Stress axis : x y z
#
# Youngs Moduli (GPa) = 106.87240 144.81214 26.21798
#
# Poissons Ratio (x) = 0.37615 0.08064
# Poissons Ratio (y) = 0.27760 0.04940
# Poissons Ratio (z) = 0.32871 0.27286
#
# Static dielectric constant tensor:
#      x y z
#    x 4.473150 0.000000 -0.082190 
#    y 0.000000 4.477450 0.000000 
#    z -0.082190 0.000000 3.669170 
# 
# 
# High freq. dielectric constant tensor:
#      x y z
#    x 1.927060 0.000000 0.017660 
#    y 0.000000 1.913200 0.000000 
#    z 0.017660 0.000000 1.855880 
# 
# From -- ./inp_files/87023.got.cif
#   From: 2010.06.25/outbox.cif.g09.slc.cpg/sg13_44_cif.got.tgz:87023.got - 2010.06.28 04:50:58.
