data_PCOD8120038
_publ_section_title
;
Structure prediction by ZEFSAII (Michael W. Deem and Ramdas Pophale) SiO2 
 PCOD8120038
Probable space group: P 2/C
;
_chemical_formula_sum "Si O2"
_cell_formula_units_Z 20
_cell_length_a 12.245461
_cell_length_b 16.217768
_cell_length_c 5.093287
_cell_angle_alpha 90.000000
_cell_angle_beta 100.469020
_cell_angle_gamma 90.000000
_cell_volume 994.658391
_symmetry_space_group_name_H-M "P 2/C"
_symmetry_group_IT_number 13
_symmetry_cell_setting 'monoclinic'
loop_
_space_group_symop_operation_xyz
x,y,z
-x,y,1/2-z
-x,-y,-z
x,-y,1/2+z
loop_
_atom_site_type_symbol
_atom_site_label
_atom_site_fract_x
_atom_site_fract_y
_atom_site_fract_z
Si Si1 0.500000 0.942915 0.250000
Si Si2 0.065516 0.195036 0.522897
Si Si3 0.681860 0.807124 0.359014
Si Si4 0.788947 0.553844 0.795177
Si Si5 0.627893 0.703623 0.832584
Si Si6 0.000000 0.353912 0.250000
O O1 0.609152 0.887389 0.278919
O O2 0.500000 0.000000 0.500000
O O3 0.190888 0.163958 0.602793
O O4 0.000000 0.167780 0.750000
O O5 0.066025 0.295054 0.485323
O O6 0.000000 0.153279 0.250000
O O7 0.658538 0.774296 0.639768
O O8 0.653638 0.736837 0.134477
O O9 0.773010 0.518975 0.496158
O O10 0.697977 0.622684 0.807708
O O11 0.912706 0.591021 0.872871
O O12 0.500000 0.678902 0.750000
#
# Coordination Sequence:
#
# PCOD8120038 Si02
#       6
#     2   4   4   4   4   2
#     4  12  26  44  72 110 138 160 202 256 338 392
#     4  10  21  36  66  96 122 165 229 269 304 379
#     4  12  22  44  70  97 133 170 211 272 314 390
#     4  12  26  38  57  87 130 173 219 286 341 364
#     4  12  23  42  66  90 122 178 235 263 318 396
#     4  10  22  38  60  86 124 164 230 276 324 376
#
# _framework density 20.107406000000001
#
# number of rings (size 3 to 8) (size 9 to 14) (size 15 to 20)
#    0.600    0.000    4.000    5.400    2.800    0.800 
#    0.000    0.000    0.000    3.600    0.000    0.000 
#    0.000    0.000    0.000    0.000    0.000    0.000 
#
# Total GULP energy -248069.248093 kJ/mol
# GULP energy per Si atom -12403.462405 kJ/mol
# Density = 2.006164 g / cm^3
# Si number density = 20.107406 Si / 1000 Ang^3
#
#
#
# Elastic Constant Matrix: (Units=GPa)
#
#
# Indices 1 2 3 4 5 6 
#
# 1 199.6041 59.8377 42.1496 0.0000 2.9652 0.0000
# 2 59.8377 74.9662 23.0495 0.0000 -1.8830 0.0000
# 3 42.1496 23.0495 107.7078 0.0000 -4.8600 0.0000
# 4 0.0000 0.0000 0.0000 19.4052 0.0000 12.6362
# 5 2.9652 -1.8830 -4.8600 0.0000 35.5308 0.0000
# 6 0.0000 0.0000 0.0000 12.6362 0.0000 -10.4945
#
#
#
# Elastic Compliance Matrix: (Units=1/GPa)
#
#
# Indices 1 2 3 4 5 6 
#
# 1 0.006878 -0.005004 -0.001669 0.000000 -0.001068 0.000000
# 2 -0.005004 0.017923 -0.001827 0.000000 0.001118 0.000000
# 3 -0.001669 -0.001827 0.010395 0.000000 0.001464 0.000000
# 4 0.000000 0.000000 0.000000 0.028885 0.000000 0.034780
# 5 -0.001068 0.001118 0.001464 0.000000 0.028493 0.000000
# 6 0.000000 0.000000 0.000000 0.034780 0.000000 -0.053411
#
#
# Mechanical properties :
#
#
# Convention : Reuss Voigt Hill
#
# Bulk Modulus (GPa) = 54.95618 70.26133 62.60875
# Shear Modulus (GPa) = 80.34874 26.03772 53.19323
#
# Velocity S-wave (km/s) = 6.32823 3.60242 5.14898
# Velocity P-wave (km/s) = 8.98810 7.23340 8.15807
#
# Compressibility (1/GPa) = 0.01819632
#
# Stress axis : x y z
#
# Youngs Moduli (GPa) = 145.38505 55.79360 96.20406
#
# Poissons Ratio (x) = 0.27918 0.16057
# Poissons Ratio (y) = 0.72749 0.17576
# Poissons Ratio (z) = 0.24265 0.10193
#
# Static dielectric constant tensor:
#      x y z
#    x 3.481140 0.000000 -0.263920 
#    y 0.000000 3.395140 0.000000 
#    z -0.263920 0.000000 3.681620 
# 
# 
# High freq. dielectric constant tensor:
#      x y z
#    x 1.802660 0.000000 -0.005410 
#    y 0.000000 1.757070 0.000000 
#    z -0.005410 0.000000 1.800990 
# 
# From -- ./inp_files/3314.got.cif
#   From: 2010.06.25/outbox.cif.g09.slc.cpg/sg13_2_cif.got.tgz:3314.got - 2010.06.28 04:50:58.
