data_PCOD8120155
_publ_section_title
;
Structure prediction by ZEFSAII (Michael W. Deem and Ramdas Pophale) SiO2 
 PCOD8120155
Probable space group: P 2/C
;
_chemical_formula_sum "Si O2"
_cell_formula_units_Z 28
_cell_length_a 9.315001
_cell_length_b 8.565400
_cell_length_c 28.816207
_cell_angle_alpha 90.000000
_cell_angle_beta 142.315597
_cell_angle_gamma 90.000000
_cell_volume 1405.497344
_symmetry_space_group_name_H-M "P 2/C"
_symmetry_group_IT_number 13
_symmetry_cell_setting 'monoclinic'
loop_
_space_group_symop_operation_xyz
x,y,z
-x,y,1/2-z
-x,-y,-z
x,-y,1/2+z
loop_
_atom_site_type_symbol
_atom_site_label
_atom_site_fract_x
_atom_site_fract_y
_atom_site_fract_z
Si Si1 0.841018 0.973589 0.766344
Si Si2 0.448414 0.013313 0.589255
Si Si3 0.768783 0.291630 0.505231
Si Si4 0.414397 0.479191 0.873895
Si Si5 0.000000 0.708438 0.750000
Si Si6 0.755734 0.796407 0.108732
Si Si7 0.500000 0.075698 0.750000
Si Si8 0.714401 0.735990 0.388756
O O1 0.991305 0.816729 0.794522
O O2 0.678773 0.999329 0.680071
O O3 0.686869 0.958913 0.773692
O O4 0.001365 0.124956 0.813957
O O5 0.535508 0.088773 0.562950
O O6 0.263617 0.130263 0.566222
O O7 0.324575 0.849256 0.550289
O O8 0.612227 0.443930 0.457056
O O9 0.759113 0.243046 0.555873
O O10 0.030906 0.335361 0.556301
O O11 0.266759 0.359719 0.866960
O O12 0.538024 0.399033 0.861154
O O13 0.235703 0.608551 0.809763
O O14 0.383047 0.188925 0.682929
#
# Coordination Sequence:
#
# PCOD8120155 Si02
#       8
#     4   4   4   4   2   4   2   4
#     4  11  20  42  63  94 123 167 220 268 311 374
#     4  10  21  37  64  94 123 164 220 259 314 376
#     4  12  21  42  62  96 130 165 213 268 319 373
#     4  11  26  40  61  97 133 170 209 256 336 389
#     4  12  24  40  68  92 130 170 212 274 316 378
#     4  11  22  38  66  92 127 171 213 264 314 387
#     4  10  22  40  66  94 118 166 234 256 306 374
#     4  10  23  40  66  89 130 172 210 257 318 395
#
# _framework density 19.921773000000002
#
# number of rings (size 3 to 8) (size 9 to 14) (size 15 to 20)
#    0.000    1.143    4.286    1.714    6.000    0.000 
#    0.000    2.143    0.000    0.000    0.000    0.000 
#    0.000    0.000    0.000    0.000    0.000    0.000 
#
# Total GULP energy -347221.134228 kJ/mol
# GULP energy per Si atom -12400.754794 kJ/mol
# Density = 1.987643 g / cm^3
# Si number density = 19.921773 Si / 1000 Ang^3
#
#
#
# Elastic Constant Matrix: (Units=GPa)
#
#
# Indices 1 2 3 4 5 6 
#
# 1 148.0478 57.0897 49.1934 0.0000 -0.5301 0.0000
# 2 57.0897 105.9287 30.9801 0.0000 1.9078 0.0000
# 3 49.1934 30.9801 72.8124 0.0000 -2.6470 0.0000
# 4 0.0000 0.0000 0.0000 33.6622 0.0000 8.9373
# 5 -0.5301 1.9078 -2.6470 0.0000 28.2931 0.0000
# 6 0.0000 0.0000 0.0000 8.9373 0.0000 29.8590
#
#
#
# Elastic Compliance Matrix: (Units=1/GPa)
#
#
# Indices 1 2 3 4 5 6 
#
# 1 0.009929 -0.003870 -0.005063 0.000000 -0.000027 0.000000
# 2 -0.003870 0.012329 -0.002673 0.000000 -0.001154 0.000000
# 3 -0.005063 -0.002673 0.018357 0.000000 0.001803 0.000000
# 4 0.000000 0.000000 0.000000 0.032271 0.000000 -0.009659
# 5 -0.000027 -0.001154 0.001803 0.000000 0.035590 0.000000
# 6 0.000000 0.000000 0.000000 -0.009659 0.000000 0.036382
#
#
# Mechanical properties :
#
#
# Convention : Reuss Voigt Hill
#
# Bulk Modulus (GPa) = 57.45889 66.81280 62.13584
# Shear Modulus (GPa) = 28.75705 30.99793 29.87749
#
# Velocity S-wave (km/s) = 3.80346 3.94887 3.87685
# Velocity P-wave (km/s) = 6.94214 7.37576 7.16223
#
# Compressibility (1/GPa) = 0.01740375
#
# Stress axis : x y z
#
# Youngs Moduli (GPa) = 100.71451 81.11259 54.47503
#
# Poissons Ratio (x) = 0.31392 0.27578
# Poissons Ratio (y) = 0.38978 0.14560
# Poissons Ratio (z) = 0.50988 0.21679
#
# Static dielectric constant tensor:
#      x y z
#    x 4.006660 0.000000 0.104780 
#    y 0.000000 3.742220 0.000000 
#    z 0.104780 0.000000 3.464620 
# 
# 
# High freq. dielectric constant tensor:
#      x y z
#    x 1.797940 0.000000 0.009880 
#    y 0.000000 1.774000 0.000000 
#    z 0.009880 0.000000 1.766260 
# 
# From -- ./inp_files/63765.got.cif
#   From: 2010.06.25/outbox.cif.g09.slc.cpg/sg13_32_cif.got.tgz:63765.got - 2010.06.28 04:50:58.
