data_PCOD8120804
_publ_section_title
;
Structure prediction by ZEFSAII (Michael W. Deem and Ramdas Pophale) SiO2 
 PCOD8120804
Probable space group: P 2/C
;
_chemical_formula_sum "Si O2"
_cell_formula_units_Z 26
_cell_length_a 26.563935
_cell_length_b 6.415447
_cell_length_c 17.769245
_cell_angle_alpha 90.000000
_cell_angle_beta 157.677737
_cell_angle_gamma 90.000000
_cell_volume 1150.167632
_symmetry_space_group_name_H-M "P 2/C"
_symmetry_group_IT_number 13
_symmetry_cell_setting 'monoclinic'
loop_
_space_group_symop_operation_xyz
x,y,z
-x,y,1/2-z
-x,-y,-z
x,-y,1/2+z
loop_
_atom_site_type_symbol
_atom_site_label
_atom_site_fract_x
_atom_site_fract_y
_atom_site_fract_z
Si Si1 0.865127 0.311419 0.605067
Si Si2 0.409805 0.698295 0.852384
Si Si3 0.153929 0.214512 0.678663
Si Si4 0.083221 0.959856 0.717145
Si Si5 0.777677 0.560152 0.626751
Si Si6 0.424827 0.001059 0.511982
Si Si7 0.500000 0.291682 0.750000
O O1 0.740370 0.359026 0.378464
O O2 0.879215 0.067423 0.650977
O O3 0.848427 0.452886 0.654732
O O4 0.000000 0.379058 0.750000
O O5 0.476956 0.813918 0.874649
O O6 0.500000 0.500000 0.000000
O O7 0.392862 0.854978 0.897319
O O8 0.075060 0.139591 0.643670
O O9 0.176396 0.460157 0.729146
O O10 0.057342 0.168300 0.473775
O O11 0.291495 0.099546 0.858320
O O12 0.195258 0.805054 0.841391
O O13 0.619420 0.545174 0.405062
O O14 0.492990 0.143300 0.668260
#
# Coordination Sequence:
#
# PCOD8120804 Si02
#       7
#     4   4   4   4   4   4   2
#     4  11  25  44  69  97 139 189 235 286 348 424
#     4  11  26  45  66 100 142 184 240 284 357 427
#     4  10  22  38  67  98 134 174 224 289 354 417
#     4  10  21  43  63  98 135 173 231 284 350 418
#     4  11  24  39  67 105 133 182 227 291 346 426
#     4  11  25  43  67 100 135 185 228 297 350 422
#     4  12  24  44  72 102 142 180 238 294 364 408
#
# _framework density 22.605399999999999
#
# number of rings (size 3 to 8) (size 9 to 14) (size 15 to 20)
#    0.000    1.231    1.538    3.231    6.462    3.077 
#    0.000    0.000    0.000    0.000    0.000    0.000 
#    0.000    0.000    0.000    0.000    0.000    0.000 
#
# Total GULP energy -322255.510617 kJ/mol
# GULP energy per Si atom -12394.442716 kJ/mol
# Density = 2.255395 g / cm^3
# Si number density = 22.605400 Si / 1000 Ang^3
#
#
#
# Elastic Constant Matrix: (Units=GPa)
#
#
# Indices 1 2 3 4 5 6 
#
# 1 85.0790 32.8732 39.3858 0.0000 9.6663 0.0000
# 2 32.8732 91.3056 38.1889 0.0000 5.8255 0.0000
# 3 39.3858 38.1889 156.4601 0.0000 9.6803 0.0000
# 4 0.0000 0.0000 0.0000 41.1495 0.0000 -5.8690
# 5 9.6663 5.8255 9.6803 0.0000 35.5524 0.0000
# 6 0.0000 0.0000 0.0000 -5.8690 0.0000 26.9905
#
#
#
# Elastic Compliance Matrix: (Units=1/GPa)
#
#
# Indices 1 2 3 4 5 6 
#
# 1 0.014827 -0.004094 -0.002568 0.000000 -0.002661 0.000000
# 2 -0.004094 0.013379 -0.002205 0.000000 -0.000479 0.000000
# 3 -0.002568 -0.002205 0.007639 0.000000 -0.001020 0.000000
# 4 0.000000 0.000000 0.000000 0.025079 0.000000 0.005453
# 5 -0.002661 -0.000479 -0.001020 0.000000 0.029207 0.000000
# 6 0.000000 0.000000 0.000000 0.005453 0.000000 0.038236
#
#
# Mechanical properties :
#
#
# Convention : Reuss Voigt Hill
#
# Bulk Modulus (GPa) = 55.21927 61.52672 58.37300
# Shear Modulus (GPa) = 32.86424 35.56491 34.21458
#
# Velocity S-wave (km/s) = 3.81704 3.97078 3.89467
# Velocity P-wave (km/s) = 6.62623 6.94979 6.78994
#
# Compressibility (1/GPa) = 0.01810962
#
# Stress axis : x y z
#
# Youngs Moduli (GPa) = 67.44415 74.74268 130.90063
#
# Poissons Ratio (x) = 0.30601 0.33621
# Poissons Ratio (y) = 0.27613 0.28868
# Poissons Ratio (z) = 0.17323 0.16483
#
# Static dielectric constant tensor:
#      x y z
#    x 4.172510 0.000000 -0.022240 
#    y 0.000000 4.271440 0.000000 
#    z -0.022240 0.000000 4.212240 
# 
# 
# High freq. dielectric constant tensor:
#      x y z
#    x 1.883510 0.000000 0.008130 
#    y 0.000000 1.895080 0.000000 
#    z 0.008130 0.000000 1.902960 
# 
# From -- ./inp_files/82695.got.cif
#   From: 2010.06.25/outbox.cif.g09.slc.cpg/sg13_42_cif.got.tgz:82695.got - 2010.06.28 04:50:58.
