data_PCOD8120137
_publ_section_title
;
Structure prediction by ZEFSAII (Michael W. Deem and Ramdas Pophale) SiO2 
 PCOD8120137
Probable space group: P 2/C
;
_chemical_formula_sum "Si O2"
_cell_formula_units_Z 24
_cell_length_a 10.548725
_cell_length_b 15.590001
_cell_length_c 10.186150
_cell_angle_alpha 90.000000
_cell_angle_beta 43.700287
_cell_angle_gamma 90.000000
_cell_volume 1157.344344
_symmetry_space_group_name_H-M "P 2/C"
_symmetry_group_IT_number 13
_symmetry_cell_setting 'monoclinic'
loop_
_space_group_symop_operation_xyz
x,y,z
-x,y,1/2-z
-x,-y,-z
x,-y,1/2+z
loop_
_atom_site_type_symbol
_atom_site_label
_atom_site_fract_x
_atom_site_fract_y
_atom_site_fract_z
Si Si1 0.071704 0.680561 0.892408
Si Si2 0.427647 0.116021 0.443435
Si Si3 0.819284 0.732240 0.296887
Si Si4 0.697462 0.400487 0.065571
Si Si5 0.000000 0.822260 0.750000
Si Si6 0.647029 0.923348 0.031075
Si Si7 0.000000 0.466675 0.250000
O O1 0.235324 0.665662 0.872160
O O2 0.067810 0.591693 0.817442
O O3 0.108374 0.762006 0.772245
O O4 0.877779 0.703925 0.106891
O O5 0.500000 0.154593 0.250000
O O6 0.276271 0.175809 0.624954
O O7 0.591946 0.105157 0.424928
O O8 0.330369 0.025848 0.484110
O O9 0.678644 0.658611 0.450454
O O10 0.000000 0.732538 0.250000
O O11 0.500000 0.440031 0.250000
O O12 0.837996 0.476514 0.931498
O O13 0.158623 0.882584 0.571753
O O14 0.500000 0.893462 0.250000
#
# Coordination Sequence:
#
# PCOD8120137 Si02
#       7
#     4   4   4   4   2   4   2
#     4  10  23  43  61  91 128 161 205 263 317 374
#     4  10  22  40  64  94 130 168 217 274 307 366
#     4  10  21  37  62  92 123 160 205 258 315 367
#     4  11  23  39  66  92 118 162 205 257 317 376
#     4  11  24  40  65  88 126 178 209 250 326 391
#     4  10  23  43  61  93 134 171 215 265 317 373
#     4  11  22  46  63  86 132 156 199 268 308 391
#
# _framework density 20.737128999999999
#
# number of rings (size 3 to 8) (size 9 to 14) (size 15 to 20)
#    0.000    1.667    2.500    2.000    8.167    0.667 
#    0.000    5.000    0.000    0.000    0.000    0.000 
#    0.000    0.000    0.000    0.000    0.000    0.000 
#
# Total GULP energy -297523.435540 kJ/mol
# GULP energy per Si atom -12396.809814 kJ/mol
# Density = 2.068993 g / cm^3
# Si number density = 20.737129 Si / 1000 Ang^3
#
#
#
# Elastic Constant Matrix: (Units=GPa)
#
#
# Indices 1 2 3 4 5 6 
#
# 1 36.6257 11.4118 19.1050 0.0000 2.5757 0.0000
# 2 11.4118 77.2227 23.1142 0.0000 -17.5227 0.0000
# 3 19.1050 23.1142 101.3611 0.0000 -17.9225 0.0000
# 4 0.0000 0.0000 0.0000 24.2461 0.0000 -1.4257
# 5 2.5757 -17.5227 -17.9225 0.0000 37.0588 0.0000
# 6 0.0000 0.0000 0.0000 -1.4257 0.0000 9.3642
#
#
#
# Elastic Compliance Matrix: (Units=1/GPa)
#
#
# Indices 1 2 3 4 5 6 
#
# 1 0.032628 -0.004611 -0.006435 0.000000 -0.007560 0.000000
# 2 -0.004611 0.015661 -0.001461 0.000000 0.007019 0.000000
# 3 -0.006435 -0.001461 0.012432 0.000000 0.005769 0.000000
# 4 0.000000 0.000000 0.000000 0.041616 0.000000 0.006336
# 5 -0.007560 0.007019 0.005769 0.000000 0.033618 0.000000
# 6 0.000000 0.000000 0.000000 0.006336 0.000000 0.107755
#
#
# Mechanical properties :
#
#
# Convention : Reuss Voigt Hill
#
# Bulk Modulus (GPa) = 28.00620 35.83018 31.91819
# Shear Modulus (GPa) = 17.81720 24.90572 21.36146
#
# Velocity S-wave (km/s) = 2.93438 3.46933 3.21301
# Velocity P-wave (km/s) = 5.00154 5.77617 5.40276
#
# Compressibility (1/GPa) = 0.03570638
#
# Stress axis : x y z
#
# Youngs Moduli (GPa) = 30.64811 63.85289 80.43844
#
# Poissons Ratio (x) = 0.29443 0.51764
# Poissons Ratio (y) = 0.14132 0.11753
# Poissons Ratio (z) = 0.19723 0.09330
#
# Static dielectric constant tensor:
#      x y z
#    x 3.519020 0.000000 0.300750 
#    y 0.000000 3.786660 0.000000 
#    z 0.300750 0.000000 3.961250 
# 
# 
# High freq. dielectric constant tensor:
#      x y z
#    x 1.791690 0.000000 0.017200 
#    y 0.000000 1.820080 0.000000 
#    z 0.017200 0.000000 1.817990 
# 
# From -- ./inp_files/34349.got.cif
#   From: 2010.06.25/outbox.cif.g09.slc.cpg/sg13_18_cif.got.tgz:34349.got - 2010.06.28 04:50:58.
