data_PCOD8120504
_publ_section_title
;
Structure prediction by ZEFSAII (Michael W. Deem and Ramdas Pophale) SiO2 
 PCOD8120504
Probable space group: P 2/C
;
_chemical_formula_sum "Si O2"
_cell_formula_units_Z 32
_cell_length_a 16.737985
_cell_length_b 11.268742
_cell_length_c 14.258526
_cell_angle_alpha 90.000000
_cell_angle_beta 146.705250
_cell_angle_gamma 90.000000
_cell_volume 1476.328655
_symmetry_space_group_name_H-M "P 2/C"
_symmetry_group_IT_number 13
_symmetry_cell_setting 'monoclinic'
loop_
_space_group_symop_operation_xyz
x,y,z
-x,y,1/2-z
-x,-y,-z
x,-y,1/2+z
loop_
_atom_site_type_symbol
_atom_site_label
_atom_site_fract_x
_atom_site_fract_y
_atom_site_fract_z
Si Si1 0.770010 0.640309 0.721311
Si Si2 0.199489 0.166865 0.774204
Si Si3 0.336137 0.850563 0.599149
Si Si4 0.957754 0.538596 0.605177
Si Si5 0.616111 0.959539 0.191396
Si Si6 0.700445 0.397074 0.726119
Si Si7 0.476500 0.271641 0.624065
Si Si8 0.899711 0.269018 0.522393
O O1 0.930091 0.595894 0.856034
O O2 0.676314 0.523339 0.653483
O O3 0.695565 0.718050 0.566741
O O4 0.788627 0.729650 0.826260
O O5 0.239167 0.088502 0.720601
O O6 0.245514 0.302556 0.798202
O O7 0.026571 0.170820 0.628940
O O8 0.289968 0.106908 0.949309
O O9 0.500000 0.796606 0.750000
O O10 0.206274 0.758416 0.493929
O O11 0.334369 0.946198 0.681637
O O12 0.000000 0.582741 0.750000
O O13 0.804209 0.589741 0.419620
O O14 0.968993 0.396964 0.610193
O O15 0.538866 0.859884 0.178410
O O16 0.500000 0.000000 0.000000
O O17 0.546925 0.354804 0.614639
O O18 0.500000 0.323103 0.750000
#
# Coordination Sequence:
#
# PCOD8120504 Si02
#       8
#     4   4   4   4   4   4   4   4
#     4  11  21  40  66  94 137 180 211 261 339 401
#     4  11  22  43  72  94 134 168 220 281 335 397
#     4  12  25  43  69  99 125 177 232 278 339 391
#     4  11  20  38  66  94 139 179 213 263 332 398
#     4  11  24  45  69  92 128 174 220 288 343 386
#     4  10  21  40  61  98 136 175 212 266 327 396
#     4  11  24  40  63  95 130 170 225 272 324 404
#     4  11  23  42  65 104 132 176 222 274 328 402
#
# _framework density 21.675391000000001
#
# number of rings (size 3 to 8) (size 9 to 14) (size 15 to 20)
#    0.000    1.000    3.750    4.125    1.750    0.500 
#    0.000    0.000    0.000    0.000    0.000    0.000 
#    0.000    0.000    0.000    0.000    0.000    0.000 
#
# Total GULP energy -396601.298742 kJ/mol
# GULP energy per Si atom -12393.790586 kJ/mol
# Density = 2.162606 g / cm^3
# Si number density = 21.675391 Si / 1000 Ang^3
#
#
#
# Elastic Constant Matrix: (Units=GPa)
#
#
# Indices 1 2 3 4 5 6 
#
# 1 101.9176 27.1802 28.7348 0.0000 3.8205 0.0000
# 2 27.1802 45.6033 23.0939 0.0000 -0.6465 0.0000
# 3 28.7348 23.0939 92.0435 0.0000 -17.3330 0.0000
# 4 0.0000 0.0000 0.0000 29.7521 0.0000 -4.0958
# 5 3.8205 -0.6465 -17.3330 0.0000 52.0754 0.0000
# 6 0.0000 0.0000 0.0000 -4.0958 0.0000 15.5489
#
#
#
# Elastic Compliance Matrix: (Units=1/GPa)
#
#
# Indices 1 2 3 4 5 6 
#
# 1 0.012224 -0.005959 -0.002671 0.000000 -0.001860 0.000000
# 2 -0.005959 0.028204 -0.005407 0.000000 -0.001012 0.000000
# 3 -0.002671 -0.005407 0.013954 0.000000 0.004773 0.000000
# 4 0.000000 0.000000 0.000000 0.034876 0.000000 0.009187
# 5 -0.001860 -0.001012 0.004773 0.000000 0.020916 0.000000
# 6 0.000000 0.000000 0.000000 0.009187 0.000000 0.066733
#
#
# Mechanical properties :
#
#
# Convention : Reuss Voigt Hill
#
# Bulk Modulus (GPa) = 38.01235 44.17579 41.09407
# Shear Modulus (GPa) = 23.39192 30.17899 26.78545
#
# Velocity S-wave (km/s) = 3.28867 3.73542 3.51914
# Velocity P-wave (km/s) = 5.65647 6.24735 5.95924
#
# Compressibility (1/GPa) = 0.02630724
#
# Stress axis : x y z
#
# Youngs Moduli (GPa) = 81.80649 35.45643 71.66549
#
# Poissons Ratio (x) = 0.21130 0.19143
# Poissons Ratio (y) = 0.48751 0.38746
# Poissons Ratio (z) = 0.21852 0.19170
#
# Static dielectric constant tensor:
#      x y z
#    x 4.214500 0.000000 -0.046330 
#    y 0.000000 3.729750 0.000000 
#    z -0.046330 0.000000 3.904810 
# 
# 
# High freq. dielectric constant tensor:
#      x y z
#    x 1.866460 0.000000 -0.003040 
#    y 0.000000 1.825920 0.000000 
#    z -0.003040 0.000000 1.859810 
# 
# From -- ./inp_files/55839.got.cif
#   From: 2010.06.25/outbox.cif.g09.slc.cpg/sg13_28_cif.got.tgz:55839.got - 2010.06.28 04:50:58.
