data_PCOD8120988
_publ_section_title
;
Structure prediction by ZEFSAII (Michael W. Deem and Ramdas Pophale) SiO2 
 PCOD8120988
Probable space group: P 2/C
;
_chemical_formula_sum "Si O2"
_cell_formula_units_Z 18
_cell_length_a 16.976605
_cell_length_b 7.544298
_cell_length_c 21.911329
_cell_angle_alpha 90.000000
_cell_angle_beta 18.550255
_cell_angle_gamma 90.000000
_cell_volume 892.794808
_symmetry_space_group_name_H-M "P 2/C"
_symmetry_group_IT_number 13
_symmetry_cell_setting 'monoclinic'
loop_
_space_group_symop_operation_xyz
x,y,z
-x,y,1/2-z
-x,-y,-z
x,-y,1/2+z
loop_
_atom_site_type_symbol
_atom_site_label
_atom_site_fract_x
_atom_site_fract_y
_atom_site_fract_z
Si Si1 0.419640 0.707527 0.122412
Si Si2 0.905343 0.812117 0.545213
Si Si3 0.500000 0.929101 0.750000
Si Si4 0.727277 0.010949 0.465686
Si Si5 0.504005 0.681349 0.575022
O O1 0.555712 0.528552 0.045895
O O2 0.130307 0.698189 0.352732
O O3 0.456550 0.733178 0.023795
O O4 0.532961 0.880593 0.069238
O O5 0.779520 0.717574 0.696036
O O6 0.695081 0.817596 0.646929
O O7 0.000000 0.000000 0.500000
O O8 0.665941 0.047416 0.581929
O O9 0.694272 0.801275 0.474711
O O10 0.000000 0.077116 0.250000
#
# Coordination Sequence:
#
# PCOD8120988 Si02
#       5
#     4   4   2   4   4
#     4  11  22  40  64  91 120 168 205 250 314 367
#     4  11  21  40  67  88 124 164 205 251 311 363
#     4  10  22  38  60  94 118 162 206 250 308 364
#     4  11  23  38  61  89 128 161 205 254 306 363
#     4  10  23  39  62  91 122 162 207 254 308 366
#
# _framework density 20.161407000000001
#
# number of rings (size 3 to 8) (size 9 to 14) (size 15 to 20)
#    0.000    1.333    4.444    2.667    3.111    0.889 
#    0.000    6.667    0.000    0.000    0.000    0.000 
#    0.000    0.000    0.000    0.000    0.000    0.000 
#
# Total GULP energy -223112.047773 kJ/mol
# GULP energy per Si atom -12395.113765 kJ/mol
# Density = 2.011552 g / cm^3
# Si number density = 20.161407 Si / 1000 Ang^3
#
#
#
# Elastic Constant Matrix: (Units=GPa)
#
#
# Indices 1 2 3 4 5 6 
#
# 1 73.2488 23.2520 43.8551 0.0000 28.6945 0.0000
# 2 23.2520 65.5357 9.1388 0.0000 2.2498 0.0000
# 3 43.8551 9.1388 145.2310 0.0000 32.4250 0.0000
# 4 0.0000 0.0000 0.0000 -10.3664 0.0000 -35.7623
# 5 28.6945 2.2498 32.4250 0.0000 51.0973 0.0000
# 6 0.0000 0.0000 0.0000 -35.7623 0.0000 -31.2382
#
#
#
# Elastic Compliance Matrix: (Units=1/GPa)
#
#
# Indices 1 2 3 4 5 6 
#
# 1 0.022002 -0.006910 -0.004099 0.000000 -0.009450 0.000000
# 2 -0.006910 0.017564 0.000335 0.000000 0.002895 0.000000
# 3 -0.004099 0.000335 0.008845 0.000000 -0.003325 0.000000
# 4 0.000000 0.000000 0.000000 0.032706 0.000000 -0.037443
# 5 -0.009450 0.002895 -0.003325 0.000000 0.026860 0.000000
# 6 0.000000 0.000000 0.000000 -0.037443 0.000000 0.010854
#
#
# Mechanical properties :
#
#
# Convention : Reuss Voigt Hill
#
# Bulk Modulus (GPa) = 36.95126 48.50082 42.72604
# Shear Modulus (GPa) = 33.51195 15.74983 24.63089
#
# Velocity S-wave (km/s) = 4.08141 2.79800 3.49905
# Velocity P-wave (km/s) = 6.37009 5.87766 6.12882
#
# Compressibility (1/GPa) = 0.02706268
#
# Stress axis : x y z
#
# Youngs Moduli (GPa) = 45.45075 56.93307 113.06120
#
# Poissons Ratio (x) = 0.39342 0.46346
# Poissons Ratio (y) = 0.31407 -0.03789
# Poissons Ratio (z) = 0.18631 -0.01908
#
# Static dielectric constant tensor:
#      x y z
#    x 3.761120 0.000000 0.475450 
#    y 0.000000 3.526760 0.000000 
#    z 0.475450 0.000000 4.159330 
# 
# 
# High freq. dielectric constant tensor:
#      x y z
#    x 1.785280 0.000000 0.029130 
#    y 0.000000 1.771050 0.000000 
#    z 0.029130 0.000000 1.805390 
# 
# From -- ./inp_files/79738.got.cif
#   From: 2010.06.25/outbox.cif.g09.slc.cpg/sg13_40_cif.got.tgz:79738.got - 2010.06.28 04:50:58.
