data_PCOD8120763
_publ_section_title
;
Structure prediction by ZEFSAII (Michael W. Deem and Ramdas Pophale) SiO2 
 PCOD8120763
Probable space group: P 2/C
;
_chemical_formula_sum "Si O2"
_cell_formula_units_Z 24
_cell_length_a 15.088972
_cell_length_b 15.505338
_cell_length_c 9.756794
_cell_angle_alpha 90.000000
_cell_angle_beta 32.715085
_cell_angle_gamma 90.000000
_cell_volume 1233.709973
_symmetry_space_group_name_H-M "P 2/C"
_symmetry_group_IT_number 13
_symmetry_cell_setting 'monoclinic'
loop_
_space_group_symop_operation_xyz
x,y,z
-x,y,1/2-z
-x,-y,-z
x,-y,1/2+z
loop_
_atom_site_type_symbol
_atom_site_label
_atom_site_fract_x
_atom_site_fract_y
_atom_site_fract_z
Si Si1 0.841147 0.154540 0.860679
Si Si2 0.381768 0.506420 0.279005
Si Si3 0.163315 0.151193 0.956046
Si Si4 0.303267 0.663010 0.993661
Si Si5 0.615646 0.002906 0.723033
Si Si6 0.181079 0.661347 0.450758
O O1 0.875012 0.135343 0.655552
O O2 0.776214 0.251415 0.968356
O O3 0.000000 0.139479 0.750000
O O4 0.699508 0.089233 0.090750
O O5 0.500000 0.513843 0.250000
O O6 0.272701 0.418793 0.432681
O O7 0.275060 0.592474 0.419771
O O8 0.500000 0.500000 0.000000
O O9 0.259491 0.241872 0.853438
O O10 0.000000 0.163246 0.250000
O O11 0.250530 0.074167 0.919595
O O12 0.204912 0.636282 0.260035
O O13 0.500000 0.677920 0.750000
O O14 0.500000 0.031373 0.750000
O O15 0.500000 0.000000 0.000000
O O16 0.000000 0.660876 0.750000
#
# Coordination Sequence:
#
# PCOD8120763 Si02
#       6
#     4   4   4   4   4   4
#     4  11  25  43  66  93 127 172 211 257 320 381
#     4  11  21  40  65  93 124 168 212 261 317 374
#     4  10  24  45  64  90 133 165 206 266 317 374
#     4  10  21  42  67  88 128 170 212 259 318 380
#     4  12  25  41  67  97 124 165 214 260 315 378
#     4  10  22  42  63  92 129 165 206 265 318 370
#
# _framework density 19.453519
#
# number of rings (size 3 to 8) (size 9 to 14) (size 15 to 20)
#    0.000    1.333    5.000    1.000    4.667    3.333 
#    9.000    0.000    0.000    0.000    0.000    0.000 
#    0.000    0.000    0.000    0.000    0.000    0.000 
#
# Total GULP energy -297343.524846 kJ/mol
# GULP energy per Si atom -12389.313535 kJ/mol
# Density = 1.940924 g / cm^3
# Si number density = 19.453519 Si / 1000 Ang^3
#
#
#
# Elastic Constant Matrix: (Units=GPa)
#
#
# Indices 1 2 3 4 5 6 
#
# 1 108.5841 50.1625 28.2844 0.0000 14.2285 0.0000
# 2 50.1625 144.3998 34.7267 0.0000 13.1928 0.0000
# 3 28.2844 34.7267 127.5011 0.0000 25.9845 0.0000
# 4 0.0000 0.0000 0.0000 29.3816 0.0000 -10.4886
# 5 14.2285 13.1928 25.9845 0.0000 27.9838 0.0000
# 6 0.0000 0.0000 0.0000 -10.4886 0.0000 31.3295
#
#
#
# Elastic Compliance Matrix: (Units=1/GPa)
#
#
# Indices 1 2 3 4 5 6 
#
# 1 0.011489 -0.003463 -0.000922 0.000000 -0.003353 0.000000
# 2 -0.003463 0.008546 -0.001353 0.000000 -0.001012 0.000000
# 3 -0.000922 -0.001353 0.010102 0.000000 -0.008274 0.000000
# 4 0.000000 0.000000 0.000000 0.038655 0.000000 0.012941
# 5 -0.003353 -0.001012 -0.008274 0.000000 0.045599 0.000000
# 6 0.000000 0.000000 0.000000 0.012941 0.000000 0.036251
#
#
# Mechanical properties :
#
#
# Convention : Reuss Voigt Hill
#
# Bulk Modulus (GPa) = 53.58931 67.42581 60.50756
# Shear Modulus (GPa) = 29.70195 35.55974 32.63085
#
# Velocity S-wave (km/s) = 3.91169 4.28007 4.10002
# Velocity P-wave (km/s) = 6.92885 7.69159 7.32016
#
# Compressibility (1/GPa) = 0.01866044
#
# Stress axis : x y z
#
# Youngs Moduli (GPa) = 87.04153 117.01275 98.98641
#
# Poissons Ratio (x) = 0.40521 0.09128
# Poissons Ratio (y) = 0.30142 0.13395
# Poissons Ratio (z) = 0.08027 0.15835
#
# Static dielectric constant tensor:
#      x y z
#    x 3.238440 0.000000 0.146640 
#    y 0.000000 3.818870 0.000000 
#    z 0.146640 0.000000 3.727880 
# 
# 
# High freq. dielectric constant tensor:
#      x y z
#    x 1.734500 0.000000 0.011600 
#    y 0.000000 1.782790 0.000000 
#    z 0.011600 0.000000 1.778540 
# 
# From -- ./inp_files/19506.got.cif
#   From: 2010.06.25/outbox.cif.g09.slc.cpg/sg13_10_cif.got.tgz:19506.got - 2010.06.28 04:50:58.
