data_PCOD8120720
_publ_section_title
;
Structure prediction by ZEFSAII (Michael W. Deem and Ramdas Pophale) SiO2 
 PCOD8120720
Probable space group: P 2/C
;
_chemical_formula_sum "Si O2"
_cell_formula_units_Z 20
_cell_length_a 14.654314
_cell_length_b 4.916801
_cell_length_c 12.860583
_cell_angle_alpha 90.000000
_cell_angle_beta 84.977185
_cell_angle_gamma 90.000000
_cell_volume 923.076814
_symmetry_space_group_name_H-M "P 2/C"
_symmetry_group_IT_number 13
_symmetry_cell_setting 'monoclinic'
loop_
_space_group_symop_operation_xyz
x,y,z
-x,y,1/2-z
-x,-y,-z
x,-y,1/2+z
loop_
_atom_site_type_symbol
_atom_site_label
_atom_site_fract_x
_atom_site_fract_y
_atom_site_fract_z
Si Si1 0.386205 0.709386 0.468779
Si Si2 0.103368 0.044351 0.608837
Si Si3 0.518308 0.802005 0.630145
Si Si4 0.820950 0.453840 0.506577
Si Si5 0.928534 0.289079 0.683668
O O1 0.421792 0.816822 0.577796
O O2 0.420674 0.412580 0.436984
O O3 0.277823 0.684605 0.483358
O O4 0.424609 0.916748 0.377674
O O5 0.172197 0.239133 0.535503
O O6 0.125983 0.090437 0.730068
O O7 0.995139 0.112956 0.600154
O O8 0.118352 0.733123 0.575646
O O9 0.500000 0.717018 0.750000
O O10 0.858440 0.459556 0.621466
O O11 0.000000 0.468801 0.750000
#
# Coordination Sequence:
#
# PCOD8120720 Si02
#       5
#     4   4   4   4   4
#     4  10  23  35  61  86 109 142 190 221 275 339
#     4   9  23  35  57  79 114 151 184 225 278 313
#     4  10  21  42  57  82 114 146 174 231 283 327
#     4  12  20  39  57  84 113 145 185 234 268 324
#     4   8  22  38  55  83 112 152 190 221 272 330
#
# _framework density 21.666668999999999
#
# number of rings (size 3 to 8) (size 9 to 14) (size 15 to 20)
#    1.200    0.800    0.000    3.000    0.000    8.000 
#    0.000    0.000    0.000    0.000    0.000    0.000 
#    0.000    0.000    0.000    0.000    0.000    0.000 
#
# Total GULP energy -247784.928706 kJ/mol
# GULP energy per Si atom -12389.246435 kJ/mol
# Density = 2.161736 g / cm^3
# Si number density = 21.666669 Si / 1000 Ang^3
#
#
#
# Elastic Constant Matrix: (Units=GPa)
#
#
# Indices 1 2 3 4 5 6 
#
# 1 99.5799 5.8863 27.4977 0.0000 7.9953 0.0000
# 2 5.8863 60.0293 3.7744 0.0000 8.3311 0.0000
# 3 27.4977 3.7744 106.8860 0.0000 12.1325 0.0000
# 4 0.0000 0.0000 0.0000 20.8153 0.0000 -7.4116
# 5 7.9953 8.3311 12.1325 0.0000 15.3015 0.0000
# 6 0.0000 0.0000 0.0000 -7.4116 0.0000 -6.5403
#
#
#
# Elastic Compliance Matrix: (Units=1/GPa)
#
#
# Indices 1 2 3 4 5 6 
#
# 1 0.011023 -0.000428 -0.002410 0.000000 -0.003616 0.000000
# 2 -0.000428 0.018064 0.000619 0.000000 -0.010102 0.000000
# 3 -0.002410 0.000619 0.010823 0.000000 -0.007659 0.000000
# 4 0.000000 0.000000 0.000000 0.034230 0.000000 -0.038790
# 5 -0.003616 -0.010102 -0.007659 0.000000 0.078816 0.000000
# 6 0.000000 0.000000 0.000000 -0.038790 0.000000 -0.108941
#
#
# Mechanical properties :
#
#
# Convention : Reuss Voigt Hill
#
# Bulk Modulus (GPa) = 28.19108 37.86800 33.02954
# Shear Modulus (GPa) = 82.94921 21.20442 52.07681
#
# Velocity S-wave (km/s) = 6.19414 3.13176 4.90791
# Velocity P-wave (km/s) = 8.01224 5.53106 6.88435
#
# Compressibility (1/GPa) = 0.03547221
#
# Stress axis : x y z
#
# Youngs Moduli (GPa) = 90.71634 55.36007 92.39229
#
# Poissons Ratio (x) = 0.02367 0.22270
# Poissons Ratio (y) = 0.03878 -0.05717
# Poissons Ratio (z) = 0.21866 -0.03426
#
# Static dielectric constant tensor:
#      x y z
#    x 3.737030 0.000000 0.084090 
#    y 0.000000 3.602000 0.000000 
#    z 0.084090 0.000000 3.822800 
# 
# 
# High freq. dielectric constant tensor:
#      x y z
#    x 1.830120 0.000000 -0.001520 
#    y 0.000000 1.840990 0.000000 
#    z -0.001520 0.000000 1.854550 
# 
# From -- ./inp_files/35316.got.cif
#   From: 2010.06.25/outbox.cif.g09.slc.cpg/sg13_18_cif.got.tgz:35316.got - 2010.06.28 04:50:58.
