data_PCOD8120793
_publ_section_title
;
Structure prediction by ZEFSAII (Michael W. Deem and Ramdas Pophale) SiO2 
 PCOD8120793
Probable space group: P 2/C
;
_chemical_formula_sum "Si O2"
_cell_formula_units_Z 24
_cell_length_a 10.622217
_cell_length_b 12.390803
_cell_length_c 11.361206
_cell_angle_alpha 90.000000
_cell_angle_beta 52.972789
_cell_angle_gamma 90.000000
_cell_volume 1193.801639
_symmetry_space_group_name_H-M "P 2/C"
_symmetry_group_IT_number 13
_symmetry_cell_setting 'monoclinic'
loop_
_space_group_symop_operation_xyz
x,y,z
-x,y,1/2-z
-x,-y,-z
x,-y,1/2+z
loop_
_atom_site_type_symbol
_atom_site_label
_atom_site_fract_x
_atom_site_fract_y
_atom_site_fract_z
Si Si1 0.667693 0.641878 0.462015
Si Si2 0.896342 0.080767 0.629294
Si Si3 0.420956 0.582805 0.408598
Si Si4 0.642102 0.930083 0.872360
Si Si5 0.662600 0.805235 0.093266
Si Si6 0.500000 0.211473 0.250000
Si Si7 0.000000 0.754539 0.250000
O O1 0.546088 0.648274 0.421314
O O2 0.678090 0.512790 0.477094
O O3 0.606203 0.712427 0.606577
O O4 0.842694 0.681538 0.331485
O O5 0.801301 0.146648 0.588473
O O6 0.005580 0.166736 0.634908
O O7 0.786353 0.013004 0.779181
O O8 0.000000 0.000000 0.500000
O O9 0.500000 0.528061 0.250000
O O10 0.307123 0.676659 0.426102
O O11 0.607140 0.867545 0.769757
O O12 0.679527 0.843128 0.950064
O O13 0.500000 0.000000 0.000000
O O14 0.500000 0.837562 0.250000
#
# Coordination Sequence:
#
# PCOD8120793 Si02
#       7
#     4   4   4   4   4   2   2
#     4  11  23  42  68  98 127 168 215 271 331 383
#     4  12  25  42  60  93 133 174 213 265 327 389
#     4  10  21  42  70  96 125 166 221 271 321 389
#     4  12  22  39  63  95 125 171 218 264 315 385
#     4  11  21  40  65  95 123 169 215 268 321 383
#     4  12  22  40  64 102 126 164 226 270 314 384
#     4  12  24  44  62  94 136 174 206 270 336 386
#
# _framework density 20.103842
#
# number of rings (size 3 to 8) (size 9 to 14) (size 15 to 20)
#    0.000    0.667    4.167    6.000    0.000    0.000 
#    0.000    5.000    0.000    0.000    0.000    0.000 
#    0.000    0.000    0.000    0.000    0.000    0.000 
#
# Total GULP energy -297500.627591 kJ/mol
# GULP energy per Si atom -12395.859483 kJ/mol
# Density = 2.005809 g / cm^3
# Si number density = 20.103842 Si / 1000 Ang^3
#
#
#
# Elastic Constant Matrix: (Units=GPa)
#
#
# Indices 1 2 3 4 5 6 
#
# 1 98.3471 61.1237 38.2390 0.0000 9.1018 0.0000
# 2 61.1237 126.3777 46.4813 0.0000 -7.6596 0.0000
# 3 38.2390 46.4813 96.2910 0.0000 1.7226 0.0000
# 4 0.0000 0.0000 0.0000 49.7227 0.0000 -2.1609
# 5 9.1018 -7.6596 1.7226 0.0000 40.7508 0.0000
# 6 0.0000 0.0000 0.0000 -2.1609 0.0000 45.3773
#
#
#
# Elastic Compliance Matrix: (Units=1/GPa)
#
#
# Indices 1 2 3 4 5 6 
#
# 1 0.016101 -0.007000 -0.002929 0.000000 -0.004788 0.000000
# 2 -0.007000 0.012831 -0.003488 0.000000 0.004123 0.000000
# 3 -0.002929 -0.003488 0.013242 0.000000 -0.000561 0.000000
# 4 0.000000 0.000000 0.000000 0.020153 0.000000 0.000960
# 5 -0.004788 0.004123 -0.000561 0.000000 0.026407 0.000000
# 6 0.000000 0.000000 0.000000 0.000960 0.000000 0.022083
#
#
# Mechanical properties :
#
#
# Convention : Reuss Voigt Hill
#
# Bulk Modulus (GPa) = 65.18937 68.07821 66.63379
# Shear Modulus (GPa) = 35.02260 38.84826 36.93543
#
# Velocity S-wave (km/s) = 4.17836 4.40065 4.29094
# Velocity P-wave (km/s) = 7.46826 7.73032 7.60042
#
# Compressibility (1/GPa) = 0.01533992
#
# Stress axis : x y z
#
# Youngs Moduli (GPa) = 62.10888 77.93568 75.51726
#
# Poissons Ratio (x) = 0.54556 0.22120
# Poissons Ratio (y) = 0.43477 0.26338
# Poissons Ratio (z) = 0.18193 0.27181
#
# Static dielectric constant tensor:
#      x y z
#    x 4.069270 0.000000 0.362590 
#    y 0.000000 4.036060 0.000000 
#    z 0.362590 0.000000 3.837530 
# 
# 
# High freq. dielectric constant tensor:
#      x y z
#    x 1.780450 0.000000 0.025520 
#    y 0.000000 1.806880 0.000000 
#    z 0.025520 0.000000 1.783350 
# 
# From -- ./inp_files/33757.got.cif
#   From: 2010.06.25/outbox.cif.g09.slc.cpg/sg13_17_cif.got.tgz:33757.got - 2010.06.28 04:50:58.
