data_PCOD8120235
_publ_section_title
;
Structure prediction by ZEFSAII (Michael W. Deem and Ramdas Pophale) SiO2 
 PCOD8120235
Probable space group: P 2/C
;
_chemical_formula_sum "Si O2"
_cell_formula_units_Z 24
_cell_length_a 14.804701
_cell_length_b 8.875823
_cell_length_c 9.263128
_cell_angle_alpha 90.000000
_cell_angle_beta 105.133561
_cell_angle_gamma 90.000000
_cell_volume 1174.998161
_symmetry_space_group_name_H-M "P 2/C"
_symmetry_group_IT_number 13
_symmetry_cell_setting 'monoclinic'
loop_
_space_group_symop_operation_xyz
x,y,z
-x,y,1/2-z
-x,-y,-z
x,-y,1/2+z
loop_
_atom_site_type_symbol
_atom_site_label
_atom_site_fract_x
_atom_site_fract_y
_atom_site_fract_z
Si Si1 0.432977 0.953794 0.095530
Si Si2 0.319904 0.327904 0.527366
Si Si3 0.255106 0.415998 0.186498
Si Si4 0.235848 0.880097 0.498570
Si Si5 0.171799 0.857592 0.140783
Si Si6 0.061953 0.584224 0.138155
O O1 0.500000 0.997795 0.250000
O O2 0.412135 0.774585 0.081186
O O3 0.500000 0.000000 0.000000
O O4 0.339029 0.052717 0.063376
O O5 0.305336 0.358840 0.351525
O O6 0.327448 0.479640 0.625853
O O7 0.234830 0.233837 0.555351
O O8 0.163111 0.506870 0.197864
O O9 0.227384 0.283820 0.065018
O O10 0.214612 0.874748 0.319339
O O11 0.160492 0.980312 0.558407
O O12 0.075393 0.762800 0.109365
O O13 0.000000 0.567853 0.250000
O O14 0.000000 0.500000 0.000000
#
# Coordination Sequence:
#
# PCOD8120235 Si02
#       6
#     4   4   4   4   4   4
#     4  11  22  39  61  89 120 155 203 262 309 353
#     4  10  21  38  60  87 119 162 205 243 302 378
#     4  11  21  39  63  87 119 165 205 246 306 378
#     4  11  21  39  64  89 122 165 206 248 303 379
#     4  10  21  38  60  89 119 161 204 240 299 377
#     4  11  22  39  61  89 121 154 199 257 306 353
#
# _framework density 20.425564999999999
#
# number of rings (size 3 to 8) (size 9 to 14) (size 15 to 20)
#    0.000    1.333    0.000   10.000    0.000    0.000 
#    0.000    8.333    0.000    0.000    0.000    0.000 
#    0.000    0.000    0.000    0.000    0.000    0.000 
#
# Total GULP energy -297375.580370 kJ/mol
# GULP energy per Si atom -12390.649182 kJ/mol
# Density = 2.037908 g / cm^3
# Si number density = 20.425565 Si / 1000 Ang^3
#
#
#
# Elastic Constant Matrix: (Units=GPa)
#
#
# Indices 1 2 3 4 5 6 
#
# 1 82.0405 41.1861 30.2641 0.0000 -5.9202 0.0000
# 2 41.1861 125.9614 32.3772 0.0000 -18.6934 0.0000
# 3 30.2641 32.3772 117.0323 0.0000 -21.4331 0.0000
# 4 0.0000 0.0000 0.0000 42.5307 0.0000 -5.0869
# 5 -5.9202 -18.6934 -21.4331 0.0000 33.2472 0.0000
# 6 0.0000 0.0000 0.0000 -5.0869 0.0000 48.0837
#
#
#
# Elastic Compliance Matrix: (Units=1/GPa)
#
#
# Indices 1 2 3 4 5 6 
#
# 1 0.015469 -0.004532 -0.003071 0.000000 -0.001773 0.000000
# 2 -0.004532 0.010300 -0.000867 0.000000 0.004425 0.000000
# 3 -0.003071 -0.000867 0.010646 0.000000 0.005829 0.000000
# 4 0.000000 0.000000 0.000000 0.023814 0.000000 0.002519
# 5 -0.001773 0.004425 0.005829 0.000000 0.036008 0.000000
# 6 0.000000 0.000000 0.000000 0.002519 0.000000 0.021064
#
#
# Mechanical properties :
#
#
# Convention : Reuss Voigt Hill
#
# Bulk Modulus (GPa) = 51.34754 59.18767 55.26760
# Shear Modulus (GPa) = 35.52822 39.51944 37.52383
#
# Velocity S-wave (km/s) = 4.17514 4.40341 4.29079
# Velocity P-wave (km/s) = 6.95958 7.40902 7.18781
#
# Compressibility (1/GPa) = 0.01947513
#
# Stress axis : x y z
#
# Youngs Moduli (GPa) = 64.64477 97.08379 93.92955
#
# Poissons Ratio (x) = 0.43996 0.28849
# Poissons Ratio (y) = 0.29295 0.08146
# Poissons Ratio (z) = 0.19855 0.08420
#
# Static dielectric constant tensor:
#      x y z
#    x 3.857870 0.000000 -0.193080 
#    y 0.000000 4.216250 0.000000 
#    z -0.193080 0.000000 3.721310 
# 
# 
# High freq. dielectric constant tensor:
#      x y z
#    x 1.779130 0.000000 -0.021830 
#    y 0.000000 1.815300 0.000000 
#    z -0.021830 0.000000 1.817380 
# 
# From -- ./inp_files/18178.got.cif
#   From: 2010.06.25/outbox.cif.g09.slc.cpg/sg13_10_cif.got.tgz:18178.got - 2010.06.28 04:50:58.
