data_PCOD8120971
_publ_section_title
;
Structure prediction by ZEFSAII (Michael W. Deem and Ramdas Pophale) SiO2 
 PCOD8120971
Probable space group: P 2/C
;
_chemical_formula_sum "Si O2"
_cell_formula_units_Z 24
_cell_length_a 10.182828
_cell_length_b 8.913896
_cell_length_c 20.905556
_cell_angle_alpha 90.000000
_cell_angle_beta 146.303323
_cell_angle_gamma 90.000000
_cell_volume 1052.764306
_symmetry_space_group_name_H-M "P 2/C"
_symmetry_group_IT_number 13
_symmetry_cell_setting 'monoclinic'
loop_
_space_group_symop_operation_xyz
x,y,z
-x,y,1/2-z
-x,-y,-z
x,-y,1/2+z
loop_
_atom_site_type_symbol
_atom_site_label
_atom_site_fract_x
_atom_site_fract_y
_atom_site_fract_z
Si Si1 0.962075 0.260043 0.661120
Si Si2 0.522132 0.743056 0.904714
Si Si3 0.718918 0.000001 0.741799
Si Si4 0.690549 0.501753 0.251465
Si Si5 0.818515 0.228758 0.394165
Si Si6 0.624859 0.228006 0.862887
O O1 0.093201 0.384212 0.670857
O O2 0.000000 0.298690 0.750000
O O3 0.684244 0.268881 0.532796
O O4 0.042841 0.092108 0.675667
O O5 0.328611 0.875627 0.832277
O O6 0.371284 0.590484 0.837663
O O7 0.673955 0.777600 0.901483
O O8 0.746813 0.913840 0.821563
O O9 0.501088 0.116989 0.638190
O O10 0.756536 0.386244 0.334811
O O11 0.451442 0.597520 0.166668
O O12 0.094683 0.218558 0.522719
O O13 0.500000 0.156150 0.750000
#
# Coordination Sequence:
#
# PCOD8120971 Si02
#       6
#     4   4   4   4   4   4
#     4  11  25  42  59  82 115 158 201 237 279 334
#     4  11  22  38  61  88 120 151 185 237 291 345
#     4  10  22  38  58  86 116 149 192 240 287 338
#     4  10  22  38  58  86 116 149 192 240 287 338
#     4  11  21  37  61  91 121 147 183 234 298 353
#     4  11  20  31  53  85 120 154 183 222 283 350
#
# _framework density 22.797124
#
# number of rings (size 3 to 8) (size 9 to 14) (size 15 to 20)
#    0.000    1.333    0.000    8.000    0.000    5.333 
#    0.000    3.333    0.000    0.000    0.000    0.000 
#    0.000    0.000    0.000    0.000    0.000    0.000 
#
# Total GULP energy -297330.232302 kJ/mol
# GULP energy per Si atom -12388.759679 kJ/mol
# Density = 2.274524 g / cm^3
# Si number density = 22.797124 Si / 1000 Ang^3
#
#
#
# Elastic Constant Matrix: (Units=GPa)
#
#
# Indices 1 2 3 4 5 6 
#
# 1 21.3595 4.6684 -0.6832 0.0000 -9.1754 0.0000
# 2 4.6684 135.5220 48.0914 0.0000 6.2408 0.0000
# 3 -0.6832 48.0914 160.8786 0.0000 1.3641 0.0000
# 4 0.0000 0.0000 0.0000 19.7433 0.0000 1.5362
# 5 -9.1754 6.2408 1.3641 0.0000 34.2928 0.0000
# 6 0.0000 0.0000 0.0000 1.5362 0.0000 13.8052
#
#
#
# Elastic Compliance Matrix: (Units=1/GPa)
#
#
# Indices 1 2 3 4 5 6 
#
# 1 0.053881 -0.002885 0.000965 0.000000 0.014903 0.000000
# 2 -0.002885 0.008477 -0.002528 0.000000 -0.002214 0.000000
# 3 0.000965 -0.002528 0.006972 0.000000 0.000441 0.000000
# 4 0.000000 0.000000 0.000000 0.051092 0.000000 -0.005685
# 5 0.014903 -0.002214 0.000441 0.000000 0.033533 0.000000
# 6 0.000000 0.000000 0.000000 -0.005685 0.000000 0.073069
#
#
# Mechanical properties :
#
#
# Convention : Reuss Voigt Hill
#
# Bulk Modulus (GPa) = 16.54673 46.87924 31.71299
# Shear Modulus (GPa) = 19.52632 31.28051 25.40341
#
# Velocity S-wave (km/s) = 2.92982 3.70824 3.34177
# Velocity P-wave (km/s) = 4.32656 6.24043 5.36946
#
# Compressibility (1/GPa) = 0.06043488
#
# Stress axis : x y z
#
# Youngs Moduli (GPa) = 18.55944 117.96451 143.43535
#
# Poissons Ratio (x) = 0.34030 -0.13838
# Poissons Ratio (y) = 0.05354 0.36254
# Poissons Ratio (z) = -0.01791 0.29816
#
# Static dielectric constant tensor:
#      x y z
#    x 3.599190 0.000000 0.129970 
#    y 0.000000 4.504440 0.000000 
#    z 0.129970 0.000000 4.347010 
# 
# 
# High freq. dielectric constant tensor:
#      x y z
#    x 1.838700 0.000000 0.008950 
#    y 0.000000 1.933650 0.000000 
#    z 0.008950 0.000000 1.911900 
# 
# From -- ./inp_files/86255.got.cif
#   From: 2010.06.25/outbox.cif.g09.slc.cpg/sg13_44_cif.got.tgz:86255.got - 2010.06.28 04:50:58.
