data_PCOD8120212
_publ_section_title
;
Structure prediction by ZEFSAII (Michael W. Deem and Ramdas Pophale) SiO2 
 PCOD8120212
Probable space group: P 2/C
;
_chemical_formula_sum "Si O2"
_cell_formula_units_Z 28
_cell_length_a 16.032178
_cell_length_b 16.435437
_cell_length_c 5.273964
_cell_angle_alpha 90.000000
_cell_angle_beta 62.074813
_cell_angle_gamma 90.000000
_cell_volume 1227.854520
_symmetry_space_group_name_H-M "P 2/C"
_symmetry_group_IT_number 13
_symmetry_cell_setting 'monoclinic'
loop_
_space_group_symop_operation_xyz
x,y,z
-x,y,1/2-z
-x,-y,-z
x,-y,1/2+z
loop_
_atom_site_type_symbol
_atom_site_label
_atom_site_fract_x
_atom_site_fract_y
_atom_site_fract_z
Si Si1 0.614826 0.459175 0.702535
Si Si2 0.892092 0.207544 0.387309
Si Si3 0.822493 0.037527 0.613017
Si Si4 0.175023 0.473774 0.539335
Si Si5 0.500000 0.305962 0.750000
Si Si6 0.109180 0.696003 0.112198
Si Si7 0.604901 0.958740 0.474869
Si Si8 0.500000 0.197590 0.250000
O O1 0.569797 0.507542 0.527562
O O2 0.726978 0.478080 0.541701
O O3 0.589926 0.363672 0.695638
O O4 0.827548 0.130957 0.531825
O O5 0.869165 0.271832 0.638569
O O6 0.000000 0.179292 0.250000
O O7 0.867638 0.239973 0.142129
O O8 0.713756 0.017372 0.806515
O O9 0.870475 0.984767 0.315848
O O10 0.119057 0.515887 0.385449
O O11 0.181790 0.378248 0.469849
O O12 0.525076 0.252202 0.463722
O O13 0.000000 0.667490 0.250000
O O14 0.586744 0.861673 0.542722
O O15 0.559346 0.005419 0.781798
#
# Coordination Sequence:
#
# PCOD8120212 Si02
#       8
#     4   4   4   4   2   4   4   2
#     4  10  21  41  62  80 117 164 195 244 306 364
#     4  10  21  38  59  89 126 161 198 249 308 351
#     4  10  21  38  61  88 122 162 204 242 291 359
#     4  10  21  38  59  87 111 154 208 242 299 366
#     4  12  24  40  62  90 128 152 202 256 308 356
#     4  10  21  38  59  86 123 159 199 256 307 351
#     4  10  21  41  64  87 124 164 200 245 299 352
#     4  12  24  40  62 100 118 158 206 250 300 366
#
# _framework density 22.804005
#
# number of rings (size 3 to 8) (size 9 to 14) (size 15 to 20)
#    0.000    1.714    0.000    4.286    0.000    1.143 
#   15.429    0.000    0.000    0.000    0.000    0.000 
#    0.000    0.000    0.000    0.000    0.000    0.000 
#
# Total GULP energy -346929.386190 kJ/mol
# GULP energy per Si atom -12390.335221 kJ/mol
# Density = 2.275210 g / cm^3
# Si number density = 22.804005 Si / 1000 Ang^3
#
#
#
# Elastic Constant Matrix: (Units=GPa)
#
#
# Indices 1 2 3 4 5 6 
#
# 1 37.8506 24.6861 47.6677 0.0000 19.6141 0.0000
# 2 24.6861 134.3398 59.7796 0.0000 10.3446 0.0000
# 3 47.6677 59.7796 160.2927 0.0000 50.0184 0.0000
# 4 0.0000 0.0000 0.0000 45.8409 0.0000 11.5398
# 5 19.6141 10.3446 50.0184 0.0000 35.6369 0.0000
# 6 0.0000 0.0000 0.0000 11.5398 0.0000 32.2329
#
#
#
# Elastic Compliance Matrix: (Units=1/GPa)
#
#
# Indices 1 2 3 4 5 6 
#
# 1 0.045812 -0.003744 -0.008360 0.000000 -0.012394 0.000000
# 2 -0.003744 0.009514 -0.003943 0.000000 0.004833 0.000000
# 3 -0.008360 -0.003943 0.014950 0.000000 -0.015237 0.000000
# 4 0.000000 0.000000 0.000000 0.023975 0.000000 -0.008583
# 5 -0.012394 0.004833 -0.015237 0.000000 0.054866 0.000000
# 6 0.000000 0.000000 0.000000 -0.008583 0.000000 0.034097
#
#
# Mechanical properties :
#
#
# Convention : Reuss Voigt Hill
#
# Bulk Modulus (GPa) = 26.18991 66.30556 46.24773
# Shear Modulus (GPa) = 21.92641 36.09877 29.01259
#
# Velocity S-wave (km/s) = 3.10420 3.98301 3.57074
# Velocity P-wave (km/s) = 4.93536 7.09168 6.10941
#
# Compressibility (1/GPa) = 0.03818265
#
# Stress axis : x y z
#
# Youngs Moduli (GPa) = 21.82831 105.10586 66.89048
#
# Poissons Ratio (x) = 0.39352 0.55919
# Poissons Ratio (y) = 0.08173 0.26375
# Poissons Ratio (z) = 0.18248 0.41443
#
# Static dielectric constant tensor:
#      x y z
#    x 4.138910 0.000000 0.583000 
#    y 0.000000 3.874980 0.000000 
#    z 0.583000 0.000000 5.045110 
# 
# 
# High freq. dielectric constant tensor:
#      x y z
#    x 1.891420 0.000000 0.025680 
#    y 0.000000 1.888430 0.000000 
#    z 0.025680 0.000000 1.936720 
# 
# From -- ./inp_files/6255.got.cif
#   From: 2010.06.25/outbox.cif.g09.slc.cpg/sg13_4_cif.got.tgz:6255.got - 2010.06.28 04:50:58.
