data_PCOD8120839
_publ_section_title
;
Structure prediction by ZEFSAII (Michael W. Deem and Ramdas Pophale) SiO2 
 PCOD8120839
Probable space group: P 2/C
;
_chemical_formula_sum "Si O2"
_cell_formula_units_Z 22
_cell_length_a 15.884095
_cell_length_b 9.744900
_cell_length_c 8.035552
_cell_angle_alpha 90.000000
_cell_angle_beta 52.992690
_cell_angle_gamma 90.000000
_cell_volume 993.258833
_symmetry_space_group_name_H-M "P 2/C"
_symmetry_group_IT_number 13
_symmetry_cell_setting 'monoclinic'
loop_
_space_group_symop_operation_xyz
x,y,z
-x,y,1/2-z
-x,-y,-z
x,-y,1/2+z
loop_
_atom_site_type_symbol
_atom_site_label
_atom_site_fract_x
_atom_site_fract_y
_atom_site_fract_z
Si Si1 0.225188 0.436488 0.251088
Si Si2 0.500000 0.722669 0.250000
Si Si3 0.701499 0.153228 0.372454
Si Si4 0.270338 0.142380 0.545035
Si Si5 0.113227 0.640571 0.196219
Si Si6 0.581332 0.635646 0.501186
O O1 0.226038 0.285422 0.163764
O O2 0.119797 0.523497 0.329042
O O3 0.208564 0.413128 0.465662
O O4 0.336371 0.509788 0.085812
O O5 0.408674 0.828136 0.404963
O O6 0.525274 0.629665 0.385055
O O7 0.685251 0.147916 0.194258
O O8 0.752483 0.012674 0.373114
O O9 0.154242 0.211051 0.707032
O O10 0.355717 0.219809 0.559779
O O11 0.000000 0.655819 0.250000
O O12 0.500000 0.620343 0.750000
#
# Coordination Sequence:
#
# PCOD8120839 Si02
#       6
#     4   2   4   4   4   4
#     4  10  23  41  63  98 131 163 217 277 324 390
#     4  12  24  36  68  94 130 188 220 254 326 396
#     4  11  23  39  60  92 131 176 219 263 323 382
#     4  10  23  42  61  92 134 169 222 277 316 388
#     4  10  21  43  69  93 124 169 216 277 338 391
#     4  11  23  42  65  97 137 177 221 267 324 386
#
# _framework density 22.149311999999998
#
# number of rings (size 3 to 8) (size 9 to 14) (size 15 to 20)
#    0.000    1.455    1.818    2.727    2.545    3.636 
#    0.000    4.545    0.000    0.000    0.000    0.000 
#    0.000    0.000    0.000    0.000    0.000    0.000 
#
# Total GULP energy -272674.951686 kJ/mol
# GULP energy per Si atom -12394.315986 kJ/mol
# Density = 2.209890 g / cm^3
# Si number density = 22.149312 Si / 1000 Ang^3
#
#
#
# Elastic Constant Matrix: (Units=GPa)
#
#
# Indices 1 2 3 4 5 6 
#
# 1 131.2435 57.4930 33.8623 0.0000 1.5284 0.0000
# 2 57.4930 170.5582 34.5074 0.0000 4.4515 0.0000
# 3 33.8623 34.5074 60.2187 0.0000 10.2602 0.0000
# 4 0.0000 0.0000 0.0000 25.4866 0.0000 7.1574
# 5 1.5284 4.4515 10.2602 0.0000 29.7563 0.0000
# 6 0.0000 0.0000 0.0000 7.1574 0.0000 25.1572
#
#
#
# Elastic Compliance Matrix: (Units=1/GPa)
#
#
# Indices 1 2 3 4 5 6 
#
# 1 0.009800 -0.002463 -0.004331 0.000000 0.001358 0.000000
# 2 -0.002463 0.007254 -0.002772 0.000000 -0.000003 0.000000
# 3 -0.004331 -0.002772 0.021802 0.000000 -0.006880 0.000000
# 4 0.000000 0.000000 0.000000 0.042643 0.000000 -0.012132
# 5 0.001358 -0.000003 -0.006880 0.000000 0.035909 0.000000
# 6 0.000000 0.000000 0.000000 -0.012132 0.000000 0.043202
#
#
# Mechanical properties :
#
#
# Convention : Reuss Voigt Hill
#
# Bulk Modulus (GPa) = 50.69522 68.19399 59.44460
# Shear Modulus (GPa) = 26.83617 31.82388 29.33002
#
# Velocity S-wave (km/s) = 3.48458 3.79461 3.64290
# Velocity P-wave (km/s) = 6.25519 7.07488 6.67762
#
# Compressibility (1/GPa) = 0.01972573
#
# Stress axis : x y z
#
# Youngs Moduli (GPa) = 102.04278 137.85443 45.86735
#
# Poissons Ratio (x) = 0.33948 0.19865
# Poissons Ratio (y) = 0.25129 0.12712
# Poissons Ratio (z) = 0.44194 0.38207
#
# Static dielectric constant tensor:
#      x y z
#    x 3.811720 0.000000 0.252530 
#    y 0.000000 4.366640 0.000000 
#    z 0.252530 0.000000 4.016890 
# 
# 
# High freq. dielectric constant tensor:
#      x y z
#    x 1.855760 0.000000 0.014630 
#    y 0.000000 1.885370 0.000000 
#    z 0.014630 0.000000 1.871540 
# 
# From -- ./inp_files/21055.got.cif
#   From: 2010.06.25/outbox.cif.g09.slc.cpg/sg13_11_cif.got.tgz:21055.got - 2010.06.28 04:50:58.
