data_PCOD8120421
_publ_section_title
;
Structure prediction by ZEFSAII (Michael W. Deem and Ramdas Pophale) SiO2 
 PCOD8120421
Probable space group: P 2/C
;
_chemical_formula_sum "Si O2"
_cell_formula_units_Z 30
_cell_length_a 21.126716
_cell_length_b 5.365784
_cell_length_c 12.923522
_cell_angle_alpha 90.000000
_cell_angle_beta 74.939151
_cell_angle_gamma 90.000000
_cell_volume 1414.705353
_symmetry_space_group_name_H-M "P 2/C"
_symmetry_group_IT_number 13
_symmetry_cell_setting 'monoclinic'
loop_
_space_group_symop_operation_xyz
x,y,z
-x,y,1/2-z
-x,-y,-z
x,-y,1/2+z
loop_
_atom_site_type_symbol
_atom_site_label
_atom_site_fract_x
_atom_site_fract_y
_atom_site_fract_z
Si Si1 0.051150 0.099490 0.558676
Si Si2 0.184844 0.318978 0.492269
Si Si3 0.721903 0.800391 0.371539
Si Si4 0.521086 0.749300 0.123304
Si Si5 0.579596 0.250769 0.014539
Si Si6 0.240542 0.715921 0.749660
Si Si7 0.000000 0.421330 0.750000
Si Si8 0.122987 0.708877 0.660298
O O1 0.117367 0.201845 0.477921
O O2 0.006893 0.294200 0.636764
O O3 0.075679 0.916124 0.636183
O O4 0.000000 0.000000 0.500000
O O5 0.218531 0.159559 0.571174
O O6 0.234957 0.328793 0.375126
O O7 0.165973 0.586750 0.548893
O O8 0.656472 0.771607 0.465019
O O9 0.731291 0.543180 0.305276
O O10 0.715035 0.041054 0.298071
O O11 0.500000 0.734804 0.250000
O O12 0.566141 0.508307 0.081116
O O13 0.558551 0.009438 0.089519
O O14 0.456375 0.741903 0.080487
O O15 0.171107 0.794028 0.730558
O O16 0.929719 0.542335 0.758411
#
# Coordination Sequence:
#
# PCOD8120421 Si02
#       8
#     4   4   4   4   4   4   2   4
#     4  11  24  38  61  83 113 152 199 255 319 378
#     4  10  25  40  60  87 120 160 207 258 314 371
#     4  11  24  44  62  95 124 168 213 253 302 369
#     4  10  21  39  64  99 131 170 203 254 306 355
#     4  10  22  39  64  93 135 164 210 257 297 359
#     4  11  25  41  66  85 126 164 207 259 313 362
#     4  10  24  38  56  88 110 150 194 254 320 384
#     4  10  23  42  57  86 119 150 205 259 315 382
#
# _framework density 21.205829000000001
#
# number of rings (size 3 to 8) (size 9 to 14) (size 15 to 20)
#    0.000    1.600    1.333    1.600    7.467    3.200 
#    0.000    0.000    0.000    0.000    0.000    0.000 
#    0.000    0.000    0.000    0.000    0.000    0.000 
#
# Total GULP energy -371722.190097 kJ/mol
# GULP energy per Si atom -12390.739670 kJ/mol
# Density = 2.115756 g / cm^3
# Si number density = 21.205829 Si / 1000 Ang^3
#
#
#
# Elastic Constant Matrix: (Units=GPa)
#
#
# Indices 1 2 3 4 5 6 
#
# 1 38.3273 5.7999 21.1289 0.0000 -13.4095 0.0000
# 2 5.7999 118.1622 40.5876 0.0000 -9.6945 0.0000
# 3 21.1289 40.5876 128.3289 0.0000 -17.2828 0.0000
# 4 0.0000 0.0000 0.0000 41.0110 0.0000 -11.4324
# 5 -13.4095 -9.6945 -17.2828 0.0000 23.2436 0.0000
# 6 0.0000 0.0000 0.0000 -11.4324 0.0000 25.4517
#
#
#
# Elastic Compliance Matrix: (Units=1/GPa)
#
#
# Indices 1 2 3 4 5 6 
#
# 1 0.033984 0.000982 -0.003568 0.000000 0.017362 0.000000
# 2 0.000982 0.009600 -0.002870 0.000000 0.002437 0.000000
# 3 -0.003568 -0.002870 0.009834 0.000000 0.004057 0.000000
# 4 0.000000 0.000000 0.000000 0.027874 0.000000 0.012520
# 5 0.017362 0.002437 0.004057 0.000000 0.057072 0.000000
# 6 0.000000 0.000000 0.000000 0.012520 0.000000 0.044914
#
#
# Mechanical properties :
#
#
# Convention : Reuss Voigt Hill
#
# Bulk Modulus (GPa) = 23.52557 46.65013 35.08785
# Shear Modulus (GPa) = 23.99714 32.42807 28.21260
#
# Velocity S-wave (km/s) = 3.36762 3.91475 3.65145
# Velocity P-wave (km/s) = 5.12242 6.51768 5.86171
#
# Compressibility (1/GPa) = 0.04250694
#
# Stress axis : x y z
#
# Youngs Moduli (GPa) = 29.42580 104.16174 101.68891
#
# Poissons Ratio (x) = -0.10227 0.36278
# Poissons Ratio (y) = -0.02889 0.29184
# Poissons Ratio (z) = 0.10498 0.29893
#
# Static dielectric constant tensor:
#      x y z
#    x 3.708140 0.000000 -0.111580 
#    y 0.000000 4.239860 0.000000 
#    z -0.111580 0.000000 3.697460 
# 
# 
# High freq. dielectric constant tensor:
#      x y z
#    x 1.828930 0.000000 -0.008170 
#    y 0.000000 1.838990 0.000000 
#    z -0.008170 0.000000 1.833940 
# 
# From -- ./inp_files/40110.got.cif
#   From: 2010.06.25/outbox.cif.g09.slc.cpg/sg13_21_cif.got.tgz:40110.got - 2010.06.28 04:50:58.
