data_PCOD8120082
_publ_section_title
;
Structure prediction by ZEFSAII (Michael W. Deem and Ramdas Pophale) SiO2 
 PCOD8120082
Probable space group: P 2/C
;
_chemical_formula_sum "Si O2"
_cell_formula_units_Z 30
_cell_length_a 6.597849
_cell_length_b 8.194956
_cell_length_c 27.915842
_cell_angle_alpha 90.000000
_cell_angle_beta 87.219584
_cell_angle_gamma 90.000000
_cell_volume 1507.607074
_symmetry_space_group_name_H-M "P 2/C"
_symmetry_group_IT_number 13
_symmetry_cell_setting 'monoclinic'
loop_
_space_group_symop_operation_xyz
x,y,z
-x,y,1/2-z
-x,-y,-z
x,-y,1/2+z
loop_
_atom_site_type_symbol
_atom_site_label
_atom_site_fract_x
_atom_site_fract_y
_atom_site_fract_z
Si Si1 0.301723 0.564795 0.027156
Si Si2 0.456831 0.811124 0.103067
Si Si3 0.061051 0.624895 0.936713
Si Si4 0.661506 0.721146 0.705676
Si Si5 0.937832 0.135308 0.835584
Si Si6 0.226922 0.589486 0.350678
Si Si7 0.260512 0.916064 0.882920
Si Si8 0.000000 0.928543 0.750000
O O1 0.379130 0.713173 0.058298
O O2 0.179975 0.423141 0.058378
O O3 0.500000 0.500000 0.000000
O O4 0.146438 0.629967 0.989395
O O5 0.260173 0.877332 0.131057
O O6 0.580615 0.702258 0.139694
O O7 0.589606 0.971247 0.086326
O O8 0.170237 0.492701 0.901962
O O9 0.108395 0.803550 0.915494
O O10 0.500000 0.731318 0.750000
O O11 0.706805 0.534442 0.691775
O O12 0.600723 0.812667 0.656608
O O13 0.862107 0.808605 0.721289
O O14 0.029117 0.318636 0.831348
O O15 0.877765 0.052626 0.785832
O O16 0.119866 0.037573 0.856417
#
# Coordination Sequence:
#
# PCOD8120082 Si02
#       8
#     4   4   4   4   4   4   4   2
#     4  11  22  37  63  87 117 155 198 245 300 354
#     4  11  21  38  61  87 115 158 200 237 299 363
#     4  10  21  40  58  87 121 151 193 254 288 349
#     4  10  21  39  58  87 119 153 196 248 286 351
#     4  10  21  39  59  86 119 156 192 247 291 355
#     4  10  21  37  59  85 118 151 195 242 294 345
#     4   9  22  39  60  86 122 157 195 244 303 346
#     4  10  22  38  58  82 118 156 194 234 300 346
#
# _framework density 19.899083999999998
#
# number of rings (size 3 to 8) (size 9 to 14) (size 15 to 20)
#    0.000    1.867    2.667    0.800    0.000    4.267 
#    2.400    2.667    0.000    0.000    0.000    0.000 
#    0.000    0.000    0.000    0.000    0.000    0.000 
#
# Total GULP energy -371757.952683 kJ/mol
# GULP energy per Si atom -12391.931756 kJ/mol
# Density = 1.985379 g / cm^3
# Si number density = 19.899084 Si / 1000 Ang^3
#
#
#
# Elastic Constant Matrix: (Units=GPa)
#
#
# Indices 1 2 3 4 5 6 
#
# 1 71.5013 32.7215 21.3799 0.0000 -23.4768 0.0000
# 2 32.7215 113.7483 38.1783 0.0000 -7.9233 0.0000
# 3 21.3799 38.1783 83.8978 0.0000 -15.2502 0.0000
# 4 0.0000 0.0000 0.0000 12.1317 0.0000 -3.4073
# 5 -23.4768 -7.9233 -15.2502 0.0000 38.9989 0.0000
# 6 0.0000 0.0000 0.0000 -3.4073 0.0000 32.5218
#
#
#
# Elastic Compliance Matrix: (Units=1/GPa)
#
#
# Indices 1 2 3 4 5 6 
#
# 1 0.019911 -0.004642 -0.001028 0.000000 0.010641 0.000000
# 2 -0.004642 0.011461 -0.004432 0.000000 -0.002199 0.000000
# 3 -0.001028 -0.004432 0.014987 0.000000 0.004342 0.000000
# 4 0.000000 0.000000 0.000000 0.084927 0.000000 0.008898
# 5 0.010641 -0.002199 0.004342 0.000000 0.033299 0.000000
# 6 0.000000 0.000000 0.000000 0.008898 0.000000 0.031681
#
#
# Mechanical properties :
#
#
# Convention : Reuss Voigt Hill
#
# Bulk Modulus (GPa) = 38.23128 50.41187 44.32158
# Shear Modulus (GPa) = 22.20364 28.52167 25.36266
#
# Velocity S-wave (km/s) = 3.34400 3.79002 3.57398
# Velocity P-wave (km/s) = 5.84501 6.67391 6.27317
#
# Compressibility (1/GPa) = 0.02615659
#
# Stress axis : x y z
#
# Youngs Moduli (GPa) = 50.22293 87.25198 66.72354
#
# Poissons Ratio (x) = 0.40499 0.06856
# Poissons Ratio (y) = 0.23312 0.29574
# Poissons Ratio (z) = 0.05160 0.38673
#
# Static dielectric constant tensor:
#      x y z
#    x 3.653910 0.000000 -0.055160 
#    y 0.000000 5.355750 0.000000 
#    z -0.055160 0.000000 3.570770 
# 
# 
# High freq. dielectric constant tensor:
#      x y z
#    x 1.774640 0.000000 -0.005810 
#    y 0.000000 1.784260 0.000000 
#    z -0.005810 0.000000 1.772870 
# 
# From -- ./inp_files/94888.got.cif
#   From: 2010.06.25/outbox.cif.g09.slc.cpg/sg13_48_cif.got.tgz:94888.got - 2010.06.28 04:50:58.
