data_PCOD8120431
_publ_section_title
;
Structure prediction by ZEFSAII (Michael W. Deem and Ramdas Pophale) SiO2 
 PCOD8120431
Probable space group: P 2/C
;
_chemical_formula_sum "Si O2"
_cell_formula_units_Z 18
_cell_length_a 7.805029
_cell_length_b 19.008911
_cell_length_c 5.504750
_cell_angle_alpha 90.000000
_cell_angle_beta 59.970989
_cell_angle_gamma 90.000000
_cell_volume 707.087170
_symmetry_space_group_name_H-M "P 2/C"
_symmetry_group_IT_number 13
_symmetry_cell_setting 'monoclinic'
loop_
_space_group_symop_operation_xyz
x,y,z
-x,y,1/2-z
-x,-y,-z
x,-y,1/2+z
loop_
_atom_site_type_symbol
_atom_site_label
_atom_site_fract_x
_atom_site_fract_y
_atom_site_fract_z
Si Si1 0.263574 0.965069 0.933675
Si Si2 0.184553 0.682583 0.795014
Si Si3 0.778899 0.527248 0.634232
Si Si4 0.283126 0.190158 0.512880
Si Si5 0.500000 0.255280 0.750000
O O1 0.500000 0.969657 0.750000
O O2 0.186909 0.885318 0.025652
O O3 0.180788 0.994482 0.734140
O O4 0.216493 0.610796 0.920075
O O5 0.142675 0.748913 0.002622
O O6 0.394631 0.694199 0.515760
O O7 0.000000 0.673114 0.750000
O O8 0.673936 0.492796 0.469247
O O9 0.000000 0.500000 0.500000
O O10 0.500000 0.193514 0.250000
O O11 0.323827 0.205331 0.768652
#
# Coordination Sequence:
#
# PCOD8120431 Si02
#       5
#     4   4   4   4   2
#     4   9  18  30  56  89 127 171 217 266 327 384
#     4  11  23  41  68  94 129 175 219 271 336 394
#     4  10  21  39  65  95 128 166 217 273 327 391
#     4   9  21  37  59  93 131 169 222 272 321 394
#     4  10  24  40  62  94 136 166 226 276 324 392
#
# _framework density 25.456548999999999
#
# number of rings (size 3 to 8) (size 9 to 14) (size 15 to 20)
#    0.000    2.222    2.222    0.000   14.000    0.889 
#    0.000    1.111    0.000    1.333    0.000    0.000 
#    0.000    0.000    0.000    0.000    0.000    0.000 
#
# Total GULP energy -223054.121762 kJ/mol
# GULP energy per Si atom -12391.895653 kJ/mol
# Density = 2.539861 g / cm^3
# Si number density = 25.456549 Si / 1000 Ang^3
#
#
#
# Elastic Constant Matrix: (Units=GPa)
#
#
# Indices 1 2 3 4 5 6 
#
# 1 78.6791 37.2327 28.3943 0.0000 31.4756 0.0000
# 2 37.2327 240.3205 47.1740 0.0000 34.5941 0.0000
# 3 28.3943 47.1740 126.6184 0.0000 34.5520 0.0000
# 4 0.0000 0.0000 0.0000 48.0435 0.0000 8.8023
# 5 31.4756 34.5941 34.5520 0.0000 38.8082 0.0000
# 6 0.0000 0.0000 0.0000 8.8023 0.0000 22.8064
#
#
#
# Elastic Compliance Matrix: (Units=1/GPa)
#
#
# Indices 1 2 3 4 5 6 
#
# 1 0.018958 -0.000836 0.000069 0.000000 -0.014693 0.000000
# 2 -0.000836 0.004875 -0.000830 0.000000 -0.002929 0.000000
# 3 0.000069 -0.000830 0.010574 0.000000 -0.008731 0.000000
# 4 0.000000 0.000000 0.000000 0.022398 0.000000 -0.008645
# 5 -0.014693 -0.002929 -0.008731 0.000000 0.048069 0.000000
# 6 0.000000 0.000000 0.000000 -0.008645 0.000000 0.047184
#
#
# Mechanical properties :
#
#
# Convention : Reuss Voigt Hill
#
# Bulk Modulus (GPa) = 32.03544 74.57999 53.30771
# Shear Modulus (GPa) = 30.18314 44.11943 37.15128
#
# Velocity S-wave (km/s) = 3.44710 4.16760 3.82435
# Velocity P-wave (km/s) = 5.33432 7.24701 6.36294
#
# Compressibility (1/GPa) = 0.03121543
#
# Stress axis : x y z
#
# Youngs Moduli (GPa) = 52.74755 205.12385 94.57363
#
# Poissons Ratio (x) = 0.17143 -0.00657
# Poissons Ratio (y) = 0.04408 0.07845
# Poissons Ratio (z) = -0.00366 0.17015
#
# Static dielectric constant tensor:
#      x y z
#    x 5.982250 0.000000 1.700720 
#    y 0.000000 4.832110 0.000000 
#    z 1.700720 0.000000 6.078390 
# 
# 
# High freq. dielectric constant tensor:
#      x y z
#    x 2.008750 0.000000 0.008880 
#    y 0.000000 2.015230 0.000000 
#    z 0.008880 0.000000 2.022550 
# 
# From -- ./inp_files/1500.got.cif
#   From: 2010.06.25/outbox.cif.g09.slc.cpg/sg13_1_cif.got.tgz:1500.got - 2010.06.28 04:50:58.
