data_PCOD8120736
_publ_section_title
;
Structure prediction by ZEFSAII (Michael W. Deem and Ramdas Pophale) SiO2 
 PCOD8120736
Probable space group: P 2/C
;
_chemical_formula_sum "Si O2"
_cell_formula_units_Z 28
_cell_length_a 8.968191
_cell_length_b 18.311607
_cell_length_c 15.908555
_cell_angle_alpha 90.000000
_cell_angle_beta 31.862257
_cell_angle_gamma 90.000000
_cell_volume 1379.102042
_symmetry_space_group_name_H-M "P 2/C"
_symmetry_group_IT_number 13
_symmetry_cell_setting 'monoclinic'
loop_
_space_group_symop_operation_xyz
x,y,z
-x,y,1/2-z
-x,-y,-z
x,-y,1/2+z
loop_
_atom_site_type_symbol
_atom_site_label
_atom_site_fract_x
_atom_site_fract_y
_atom_site_fract_z
Si Si1 0.276740 0.677915 0.074183
Si Si2 0.232951 0.593684 0.420587
Si Si3 0.169380 0.925667 0.918977
Si Si4 0.851446 0.851190 0.743705
Si Si5 0.192467 0.162696 0.575780
Si Si6 0.839413 0.304031 0.399800
Si Si7 0.693899 0.565954 0.580506
O O1 0.173975 0.749783 0.071834
O O2 0.000000 0.643945 0.250000
O O3 0.508469 0.702430 0.033044
O O4 0.395564 0.614924 0.956176
O O5 0.500000 0.631815 0.250000
O O6 0.101040 0.652483 0.544804
O O7 0.339752 0.520952 0.419624
O O8 0.019460 0.576721 0.447921
O O9 0.500000 0.941942 0.750000
O O10 0.070601 0.883469 0.883482
O O11 0.088051 0.879036 0.041424
O O12 0.000000 0.000000 0.000000
O O13 0.000000 0.894696 0.750000
O O14 0.988936 0.771155 0.673883
O O15 0.523401 0.854848 0.926568
O O16 0.000000 0.139646 0.750000
O O17 0.000000 0.349122 0.250000
O O18 0.500000 0.591788 0.750000
#
# Coordination Sequence:
#
# PCOD8120736 Si02
#       7
#     4   4   4   4   4   4   4
#     4  11  22  37  59  88 117 154 205 249 306 360
#     4  10  22  39  55  84 120 155 204 252 307 359
#     4  10  24  44  67  97 127 165 206 239 301 370
#     4  10  21  42  63  93 129 161 202 255 301 360
#     4  10  22  41  65  93 128 161 203 255 302 359
#     4  11  21  38  59  86 117 155 203 249 302 359
#     4  10  22  37  58  83 116 161 201 249 307 367
#
# _framework density 20.303066000000001
#
# number of rings (size 3 to 8) (size 9 to 14) (size 15 to 20)
#    0.000    1.714    2.857    1.714    2.000    3.429 
#    0.000    2.857    0.000    0.000    0.000    0.000 
#    0.000    0.000    0.000    0.000    0.000    0.000 
#
# Total GULP energy -346919.559926 kJ/mol
# GULP energy per Si atom -12389.984283 kJ/mol
# Density = 2.025686 g / cm^3
# Si number density = 20.303066 Si / 1000 Ang^3
#
#
#
# Elastic Constant Matrix: (Units=GPa)
#
#
# Indices 1 2 3 4 5 6 
#
# 1 107.4909 42.3659 41.7832 0.0000 16.7295 0.0000
# 2 42.3659 76.2908 31.6036 0.0000 17.8643 0.0000
# 3 41.7832 31.6036 127.1565 0.0000 11.2928 0.0000
# 4 0.0000 0.0000 0.0000 27.7448 0.0000 -1.5595
# 5 16.7295 17.8643 11.2928 0.0000 35.0816 0.0000
# 6 0.0000 0.0000 0.0000 -1.5595 0.0000 22.2567
#
#
#
# Elastic Compliance Matrix: (Units=1/GPa)
#
#
# Indices 1 2 3 4 5 6 
#
# 1 0.012878 -0.005467 -0.002650 0.000000 -0.002504 0.000000
# 2 -0.005467 0.018507 -0.002262 0.000000 -0.006089 0.000000
# 3 -0.002650 -0.002262 0.009350 0.000000 -0.000594 0.000000
# 4 0.000000 0.000000 0.000000 0.036185 0.000000 0.002536
# 5 -0.002504 -0.006089 -0.000594 0.000000 0.032991 0.000000
# 6 0.000000 0.000000 0.000000 0.002536 0.000000 0.045108
#
#
# Mechanical properties :
#
#
# Convention : Reuss Voigt Hill
#
# Bulk Modulus (GPa) = 50.06292 60.27150 55.16721
# Shear Modulus (GPa) = 27.40672 30.02898 28.71785
#
# Velocity S-wave (km/s) = 3.67806 3.85000 3.76501
# Velocity P-wave (km/s) = 6.53826 7.03659 6.79200
#
# Compressibility (1/GPa) = 0.01997486
#
# Stress axis : x y z
#
# Youngs Moduli (GPa) = 77.65271 54.03457 106.94831
#
# Poissons Ratio (x) = 0.29541 0.28346
# Poissons Ratio (y) = 0.42453 0.24197
# Poissons Ratio (z) = 0.20582 0.12225
#
# Static dielectric constant tensor:
#      x y z
#    x 3.598250 0.000000 -0.195380 
#    y 0.000000 3.561410 0.000000 
#    z -0.195380 0.000000 3.661900 
# 
# 
# High freq. dielectric constant tensor:
#      x y z
#    x 1.790090 0.000000 -0.004250 
#    y 0.000000 1.773310 0.000000 
#    z -0.004250 0.000000 1.811440 
# 
# From -- ./inp_files/48215.got.cif
#   From: 2010.06.25/outbox.cif.g09.slc.cpg/sg13_25_cif.got.tgz:48215.got - 2010.06.28 04:50:58.
