data_PCOD8120625
_publ_section_title
;
Structure prediction by ZEFSAII (Michael W. Deem and Ramdas Pophale) SiO2 
 PCOD8120625
Probable space group: P 2/C
;
_chemical_formula_sum "Si O2"
_cell_formula_units_Z 22
_cell_length_a 19.988329
_cell_length_b 7.314622
_cell_length_c 16.144661
_cell_angle_alpha 90.000000
_cell_angle_beta 153.493494
_cell_angle_gamma 90.000000
_cell_volume 1053.473561
_symmetry_space_group_name_H-M "P 2/C"
_symmetry_group_IT_number 13
_symmetry_cell_setting 'monoclinic'
loop_
_space_group_symop_operation_xyz
x,y,z
-x,y,1/2-z
-x,-y,-z
x,-y,1/2+z
loop_
_atom_site_type_symbol
_atom_site_label
_atom_site_fract_x
_atom_site_fract_y
_atom_site_fract_z
Si Si1 0.741279 0.721928 0.086807
Si Si2 0.500000 0.463940 0.750000
Si Si3 0.540816 0.183168 0.499623
Si Si4 0.953755 0.418614 0.607575
Si Si5 0.257609 0.116254 0.090144
Si Si6 0.307416 0.697503 0.181496
O O1 0.892825 0.605432 0.274918
O O2 0.607531 0.578823 0.927803
O O3 0.692413 0.840991 0.112457
O O4 0.753065 0.855855 0.020784
O O5 0.608692 0.346963 0.810994
O O6 0.402377 0.229148 0.284983
O O7 0.576257 0.326296 0.612837
O O8 0.500000 0.000000 0.500000
O O9 0.883273 0.216412 0.525167
O O10 0.835490 0.574170 0.450516
O O11 0.000000 0.478248 0.750000
O O12 0.251661 0.906032 0.109533
#
# Coordination Sequence:
#
# PCOD8120625 Si02
#       6
#     4   2   4   4   4   4
#     4  11  21  42  65  88 128 169 203 259 318 367
#     4  12  22  38  66  90 116 170 210 252 320 364
#     4  10  22  39  63  96 127 163 214 259 309 367
#     4  10  21  41  61  91 125 164 210 249 316 371
#     4  10  21  41  65  87 130 163 205 264 307 370
#     4  11  24  39  63  95 122 160 216 260 305 379
#
# _framework density 20.883296000000001
#
# number of rings (size 3 to 8) (size 9 to 14) (size 15 to 20)
#    0.000    1.455    5.455    0.000    5.091    5.818 
#    0.000    3.636    0.000    0.000    0.000    0.000 
#    0.000    0.000    0.000    0.000    0.000    0.000 
#
# Total GULP energy -272544.067500 kJ/mol
# GULP energy per Si atom -12388.366705 kJ/mol
# Density = 2.083576 g / cm^3
# Si number density = 20.883296 Si / 1000 Ang^3
#
#
#
# Elastic Constant Matrix: (Units=GPa)
#
#
# Indices 1 2 3 4 5 6 
#
# 1 104.9128 34.0481 57.4103 0.0000 12.8098 0.0000
# 2 34.0481 98.7956 44.5906 0.0000 10.0811 0.0000
# 3 57.4103 44.5906 99.7832 0.0000 23.8485 0.0000
# 4 0.0000 0.0000 0.0000 34.8296 0.0000 4.8727
# 5 12.8098 10.0811 23.8485 0.0000 31.1911 0.0000
# 6 0.0000 0.0000 0.0000 4.8727 0.0000 19.1175
#
#
#
# Elastic Compliance Matrix: (Units=1/GPa)
#
#
# Indices 1 2 3 4 5 6 
#
# 1 0.014092 -0.001496 -0.007552 0.000000 0.000470 0.000000
# 2 -0.001496 0.012840 -0.004934 0.000000 0.000237 0.000000
# 3 -0.007552 -0.004934 0.018903 0.000000 -0.009757 0.000000
# 4 0.000000 0.000000 0.000000 0.029773 0.000000 -0.007589
# 5 0.000470 0.000237 -0.009757 0.000000 0.039251 0.000000
# 6 0.000000 0.000000 0.000000 -0.007589 0.000000 0.054242
#
#
# Mechanical properties :
#
#
# Convention : Reuss Voigt Hill
#
# Bulk Modulus (GPa) = 55.95139 63.95439 59.95289
# Shear Modulus (GPa) = 24.62772 28.19049 26.40910
#
# Velocity S-wave (km/s) = 3.43782 3.67809 3.55999
# Velocity P-wave (km/s) = 6.52754 6.98061 6.75787
#
# Compressibility (1/GPa) = 0.01787266
#
# Stress axis : x y z
#
# Youngs Moduli (GPa) = 70.96032 77.88060 52.90047
#
# Poissons Ratio (x) = 0.11653 0.39949
# Poissons Ratio (y) = 0.10617 0.26099
# Poissons Ratio (z) = 0.53588 0.38424
#
# Static dielectric constant tensor:
#      x y z
#    x 3.872200 0.000000 -0.014070 
#    y 0.000000 3.537240 0.000000 
#    z -0.014070 0.000000 4.667480 
# 
# 
# High freq. dielectric constant tensor:
#      x y z
#    x 1.812240 0.000000 0.004910 
#    y 0.000000 1.802740 0.000000 
#    z 0.004910 0.000000 1.830470 
# 
# From -- ./inp_files/55359.got.cif
#   From: 2010.06.25/outbox.cif.g09.slc.cpg/sg13_28_cif.got.tgz:55359.got - 2010.06.28 04:50:58.
