data_PCOD8120844
_publ_section_title
;
Structure prediction by ZEFSAII (Michael W. Deem and Ramdas Pophale) SiO2 
 PCOD8120844
Probable space group: P 2/C
;
_chemical_formula_sum "Si O2"
_cell_formula_units_Z 32
_cell_length_a 30.218197
_cell_length_b 4.998481
_cell_length_c 14.624346
_cell_angle_alpha 90.000000
_cell_angle_beta 39.403679
_cell_angle_gamma 90.000000
_cell_volume 1402.188403
_symmetry_space_group_name_H-M "P 2/C"
_symmetry_group_IT_number 13
_symmetry_cell_setting 'monoclinic'
loop_
_space_group_symop_operation_xyz
x,y,z
-x,y,1/2-z
-x,-y,-z
x,-y,1/2+z
loop_
_atom_site_type_symbol
_atom_site_label
_atom_site_fract_x
_atom_site_fract_y
_atom_site_fract_z
Si Si1 0.483531 0.395731 0.177294
Si Si2 0.646539 0.065758 0.134028
Si Si3 0.827859 0.529313 0.636584
Si Si4 0.148848 0.402996 0.097801
Si Si5 0.935025 0.922762 0.224317
Si Si6 0.268269 0.427642 0.049855
Si Si7 0.564045 0.802356 0.397251
Si Si8 0.087637 0.026870 0.950033
O O1 0.500000 0.523614 0.250000
O O2 0.431243 0.142612 0.278794
O O3 0.442358 0.591296 0.175456
O O4 0.558362 0.327601 0.007779
O O5 0.635356 0.961746 0.258191
O O6 0.696205 0.319934 0.055260
O O7 0.679711 0.824237 0.022136
O O8 0.809160 0.483560 0.560389
O O9 0.758161 0.483646 0.807719
O O10 0.890424 0.332677 0.567024
O O11 0.851590 0.833797 0.611986
O O12 0.091800 0.623946 0.216607
O O13 0.202829 0.346282 0.092582
O O14 0.107581 0.127946 0.143415
O O15 0.922643 0.018255 0.140820
O O16 0.016941 0.947200 0.116669
O O17 0.500000 0.000000 0.500000
#
# Coordination Sequence:
#
# PCOD8120844 Si02
#       8
#     4   4   4   4   4   4   4   4
#     4  10  21  43  72 106 138 171 216 280 333 384
#     4  11  23  44  68  97 133 181 218 261 327 382
#     4  12  25  43  66  95 131 177 222 280 333 391
#     4  12  25  43  67  94 128 179 224 276 339 392
#     4  11  22  41  68  97 126 173 221 277 358 399
#     4  12  24  46  64  89 142 180 221 270 316 395
#     4   9  20  41  69  99 137 172 210 267 334 387
#     4  11  22  41  68  95 131 167 220 287 345 405
#
# _framework density 22.821469
#
# number of rings (size 3 to 8) (size 9 to 14) (size 15 to 20)
#    0.000    1.000    3.750    3.000    0.000    7.000 
#    4.500    0.000    0.000    0.000    0.000    0.000 
#    0.000    0.000    0.000    0.000    0.000    0.000 
#
# Total GULP energy -396682.340842 kJ/mol
# GULP energy per Si atom -12396.323151 kJ/mol
# Density = 2.276953 g / cm^3
# Si number density = 22.821469 Si / 1000 Ang^3
#
#
#
# Elastic Constant Matrix: (Units=GPa)
#
#
# Indices 1 2 3 4 5 6 
#
# 1 41.2746 9.4536 35.9487 0.0000 15.8519 0.0000
# 2 9.4536 107.0230 33.9273 0.0000 -3.3405 0.0000
# 3 35.9487 33.9273 139.1598 0.0000 4.9710 0.0000
# 4 0.0000 0.0000 0.0000 49.4830 0.0000 -3.7031
# 5 15.8519 -3.3405 4.9710 0.0000 29.8822 0.0000
# 6 0.0000 0.0000 0.0000 -3.7031 0.0000 22.3554
#
#
#
# Elastic Compliance Matrix: (Units=1/GPa)
#
#
# Indices 1 2 3 4 5 6 
#
# 1 0.040393 -0.001204 -0.009427 0.000000 -0.019994 0.000000
# 2 -0.001204 0.010234 -0.002261 0.000000 0.002159 0.000000
# 3 -0.009427 -0.002261 0.010063 0.000000 0.003074 0.000000
# 4 0.000000 0.000000 0.000000 0.020463 0.000000 0.003390
# 5 -0.019994 0.002159 0.003074 0.000000 0.043801 0.000000
# 6 0.000000 0.000000 0.000000 0.003390 0.000000 0.045293
#
#
# Mechanical properties :
#
#
# Convention : Reuss Voigt Hill
#
# Bulk Modulus (GPa) = 28.64810 49.56851 39.10831
# Shear Modulus (GPa) = 24.07703 34.21930 29.14817
#
# Velocity S-wave (km/s) = 3.25163 3.87645 3.57771
# Velocity P-wave (km/s) = 5.16506 6.46553 5.85154
#
# Compressibility (1/GPa) = 0.03490632
#
# Stress axis : x y z
#
# Youngs Moduli (GPa) = 24.75668 97.71014 99.37676
#
# Poissons Ratio (x) = 0.11761 0.93682
# Poissons Ratio (y) = 0.02980 0.22472
# Poissons Ratio (z) = 0.23338 0.22095
#
# Static dielectric constant tensor:
#      x y z
#    x 3.637970 0.000000 0.231980 
#    y 0.000000 4.642050 0.000000 
#    z 0.231980 0.000000 4.833310 
# 
# 
# High freq. dielectric constant tensor:
#      x y z
#    x 1.848850 0.000000 0.013770 
#    y 0.000000 1.915180 0.000000 
#    z 0.013770 0.000000 1.926060 
# 
# From -- ./inp_files/59756.got.cif
#   From: 2010.06.25/outbox.cif.g09.slc.cpg/sg13_30_cif.got.tgz:59756.got - 2010.06.28 04:50:58.
