data_PCOD8120171
_publ_section_title
;
Structure prediction by ZEFSAII (Michael W. Deem and Ramdas Pophale) SiO2 
 PCOD8120171
Probable space group: P 2/C
;
_chemical_formula_sum "Si O2"
_cell_formula_units_Z 32
_cell_length_a 13.675821
_cell_length_b 18.336323
_cell_length_c 16.357978
_cell_angle_alpha 90.000000
_cell_angle_beta 155.906670
_cell_angle_gamma 90.000000
_cell_volume 1674.534176
_symmetry_space_group_name_H-M "P 2/C"
_symmetry_group_IT_number 13
_symmetry_cell_setting 'monoclinic'
loop_
_space_group_symop_operation_xyz
x,y,z
-x,y,1/2-z
-x,-y,-z
x,-y,1/2+z
loop_
_atom_site_type_symbol
_atom_site_label
_atom_site_fract_x
_atom_site_fract_y
_atom_site_fract_z
Si Si1 0.254541 0.747845 0.016871
Si Si2 0.016178 0.641779 0.586789
Si Si3 0.787832 0.478226 0.153338
Si Si4 0.412579 0.110088 0.892351
Si Si5 0.134094 0.009724 0.268864
Si Si6 0.323248 0.398362 0.814176
Si Si7 0.608850 0.739511 0.565284
Si Si8 0.241767 0.888602 0.086327
O O1 0.500000 0.767198 0.250000
O O2 0.253622 0.742064 0.918057
O O3 0.114195 0.821617 0.937792
O O4 0.175592 0.670208 0.993177
O O5 0.147799 0.570943 0.720191
O O6 0.903417 0.615134 0.416682
O O7 0.206225 0.709189 0.724736
O O8 0.753076 0.559519 0.161548
O O9 0.000000 0.478420 0.250000
O O10 0.535638 0.443462 0.928495
O O11 0.503123 0.182358 0.009384
O O12 0.276540 0.135570 0.706803
O O13 0.224752 0.067760 0.805102
O O14 0.639089 0.061074 0.041448
O O15 0.000000 0.994000 0.250000
O O16 0.947680 0.045173 0.062538
O O17 0.394687 0.317460 0.894505
O O18 0.500000 0.915003 0.250000
#
# Coordination Sequence:
#
# PCOD8120171 Si02
#       8
#     4   4   4   4   4   4   4   4
#     4  11  18  30  53  80 110 138 174 229 289 338
#     4  11  20  32  55  81 114 144 175 227 289 336
#     4  10  22  36  56  82 109 149 190 224 273 330
#     4  11  22  36  56  83 110 151 190 231 293 343
#     4  11  22  36  55  80 113 148 193 240 281 345
#     4  10  21  38  54  80 115 143 183 234 275 332
#     4  11  20  34  52  80 110 143 184 227 283 344
#     4  11  19  35  56  80 116 148 181 230 295 347
#
# _framework density 19.109791999999999
#
# number of rings (size 3 to 8) (size 9 to 14) (size 15 to 20)
#    0.000    1.250    5.000    3.375    0.000    0.000 
#    0.000    0.625    0.000    0.000    0.000    1.750 
#    0.000    0.000    0.000    0.000    0.000    0.000 
#
# Total GULP energy -396621.599724 kJ/mol
# GULP energy per Si atom -12394.424991 kJ/mol
# Density = 1.906630 g / cm^3
# Si number density = 19.109792 Si / 1000 Ang^3
#
#
#
# Elastic Constant Matrix: (Units=GPa)
#
#
# Indices 1 2 3 4 5 6 
#
# 1 56.3535 34.9847 28.3669 0.0000 8.3188 0.0000
# 2 34.9847 119.6046 28.0653 0.0000 2.6436 0.0000
# 3 28.3669 28.0653 86.8046 0.0000 -13.4189 0.0000
# 4 0.0000 0.0000 0.0000 34.8430 0.0000 6.2479
# 5 8.3188 2.6436 -13.4189 0.0000 26.5551 0.0000
# 6 0.0000 0.0000 0.0000 6.2479 0.0000 26.3078
#
#
#
# Elastic Compliance Matrix: (Units=1/GPa)
#
#
# Indices 1 2 3 4 5 6 
#
# 1 0.027813 -0.005686 -0.009231 0.000000 -0.012812 0.000000
# 2 -0.005686 0.010376 -0.001498 0.000000 -0.000008 0.000000
# 3 -0.009231 -0.001498 0.016804 0.000000 0.011532 0.000000
# 4 0.000000 0.000000 0.000000 0.029977 0.000000 -0.007119
# 5 -0.012812 -0.000008 0.011532 0.000000 0.047499 0.000000
# 6 0.000000 0.000000 0.000000 -0.007119 0.000000 0.039702
#
#
# Mechanical properties :
#
#
# Convention : Reuss Voigt Hill
#
# Bulk Modulus (GPa) = 45.12131 49.51072 47.31601
# Shear Modulus (GPa) = 23.54173 28.96422 26.25297
#
# Velocity S-wave (km/s) = 3.51368 3.89739 3.71050
# Velocity P-wave (km/s) = 6.33436 6.79836 6.57046
#
# Compressibility (1/GPa) = 0.02216248
#
# Stress axis : x y z
#
# Youngs Moduli (GPa) = 35.95425 96.37869 59.51038
#
# Poissons Ratio (x) = 0.54802 0.54935
# Poissons Ratio (y) = 0.20444 0.08913
# Poissons Ratio (z) = 0.33190 0.14435
#
# Static dielectric constant tensor:
#      x y z
#    x 3.098540 0.000000 0.076250 
#    y 0.000000 3.660230 0.000000 
#    z 0.076250 0.000000 3.769450 
# 
# 
# High freq. dielectric constant tensor:
#      x y z
#    x 1.690590 0.000000 0.000820 
#    y 0.000000 1.751530 0.000000 
#    z 0.000820 0.000000 1.763540 
# 
# From -- ./inp_files/51678.got.cif
#   From: 2010.06.25/outbox.cif.g09.slc.cpg/sg13_26_cif.got.tgz:51678.got - 2010.06.28 04:50:58.
