data_PCOD8120514
_publ_section_title
;
Structure prediction by ZEFSAII (Michael W. Deem and Ramdas Pophale) SiO2 
 PCOD8120514
Probable space group: P 2/C
;
_chemical_formula_sum "Si O2"
_cell_formula_units_Z 22
_cell_length_a 22.647186
_cell_length_b 9.201141
_cell_length_c 8.822127
_cell_angle_alpha 90.000000
_cell_angle_beta 34.263973
_cell_angle_gamma 90.000000
_cell_volume 1035.005467
_symmetry_space_group_name_H-M "P 2/C"
_symmetry_group_IT_number 13
_symmetry_cell_setting 'monoclinic'
loop_
_space_group_symop_operation_xyz
x,y,z
-x,y,1/2-z
-x,-y,-z
x,-y,1/2+z
loop_
_atom_site_type_symbol
_atom_site_label
_atom_site_fract_x
_atom_site_fract_y
_atom_site_fract_z
Si Si1 0.294539 0.111266 0.818336
Si Si2 0.000000 0.733394 0.750000
Si Si3 0.386173 0.127373 0.927830
Si Si4 0.805385 0.321219 0.102977
Si Si5 0.894343 0.087723 0.705996
Si Si6 0.164559 0.383873 0.115327
O O1 0.342044 0.029573 0.573963
O O2 0.388834 0.125178 0.739980
O O3 0.249992 0.269435 0.869400
O O4 0.201711 0.023347 0.100599
O O5 0.948826 0.638864 0.723751
O O6 0.094905 0.829120 0.477745
O O7 0.311350 0.256985 0.141814
O O8 0.500000 0.161261 0.750000
O O9 0.848718 0.369477 0.175312
O O10 0.882477 0.199526 0.870633
O O11 0.796261 0.455996 0.008039
O O12 0.000000 0.000000 0.500000
#
# Coordination Sequence:
#
# PCOD8120514 Si02
#       6
#     4   2   4   4   4   4
#     4  10  21  40  62  92 124 155 203 256 307 363
#     4  12  24  36  64  90 122 168 212 238 308 364
#     4  10  21  41  66  92 120 159 205 259 314 364
#     4  10  25  43  61  88 128 163 206 258 307 364
#     4  11  23  39  62  91 125 165 203 251 304 369
#     4  11  23  42  59  89 127 165 206 251 303 364
#
# _framework density 21.255925000000001
#
# number of rings (size 3 to 8) (size 9 to 14) (size 15 to 20)
#    0.000    1.455    1.818    2.727    5.091    5.091 
#    0.000    4.545    0.000    0.000    0.000    0.000 
#    0.000    0.000    0.000    0.000    0.000    0.000 
#
# Total GULP energy -272849.275112 kJ/mol
# GULP energy per Si atom -12402.239778 kJ/mol
# Density = 2.120755 g / cm^3
# Si number density = 21.255925 Si / 1000 Ang^3
#
#
#
# Elastic Constant Matrix: (Units=GPa)
#
#
# Indices 1 2 3 4 5 6 
#
# 1 124.4374 38.1875 30.8344 0.0000 -9.1520 0.0000
# 2 38.1875 121.9252 27.5560 0.0000 1.6977 0.0000
# 3 30.8344 27.5560 63.7100 0.0000 -1.5035 0.0000
# 4 0.0000 0.0000 0.0000 22.5505 0.0000 7.2988
# 5 -9.1520 1.6977 -1.5035 0.0000 34.6153 0.0000
# 6 0.0000 0.0000 0.0000 7.2988 0.0000 24.9144
#
#
#
# Elastic Compliance Matrix: (Units=1/GPa)
#
#
# Indices 1 2 3 4 5 6 
#
# 1 0.009845 -0.002278 -0.003719 0.000000 0.002553 0.000000
# 2 -0.002278 0.009631 -0.003091 0.000000 -0.001209 0.000000
# 3 -0.003719 -0.003091 0.018833 0.000000 -0.000014 0.000000
# 4 0.000000 0.000000 0.000000 0.048990 0.000000 -0.014352
# 5 0.002553 -0.001209 -0.000014 0.000000 0.029623 0.000000
# 6 0.000000 0.000000 0.000000 -0.014352 0.000000 0.044342
#
#
# Mechanical properties :
#
#
# Convention : Reuss Voigt Hill
#
# Bulk Modulus (GPa) = 49.67496 55.91426 52.79461
# Shear Modulus (GPa) = 26.85998 30.64903 28.75451
#
# Velocity S-wave (km/s) = 3.55864 3.80136 3.68200
# Velocity P-wave (km/s) = 6.34869 6.75496 6.55497
#
# Compressibility (1/GPa) = 0.02013087
#
# Stress axis : x y z
#
# Youngs Moduli (GPa) = 101.57792 103.83277 53.09897
#
# Poissons Ratio (x) = 0.23658 0.19747
# Poissons Ratio (y) = 0.23144 0.16415
# Poissons Ratio (z) = 0.37776 0.32099
#
# Static dielectric constant tensor:
#      x y z
#    x 3.892420 0.000000 0.310110 
#    y 0.000000 4.041850 0.000000 
#    z 0.310110 0.000000 4.230970 
# 
# 
# High freq. dielectric constant tensor:
#      x y z
#    x 1.841840 0.000000 0.012220 
#    y 0.000000 1.837820 0.000000 
#    z 0.012220 0.000000 1.814650 
# 
# From -- ./inp_files/21060.got.cif
#   From: 2010.06.25/outbox.cif.g09.slc.cpg/sg13_11_cif.got.tgz:21060.got - 2010.06.28 04:50:58.
