data_PCOD8120821
_publ_section_title
;
Structure prediction by ZEFSAII (Michael W. Deem and Ramdas Pophale) SiO2 
 PCOD8120821
Probable space group: P 2/C
;
_chemical_formula_sum "Si O2"
_cell_formula_units_Z 26
_cell_length_a 16.506751
_cell_length_b 16.886761
_cell_length_c 8.390360
_cell_angle_alpha 90.000000
_cell_angle_beta 149.701278
_cell_angle_gamma 90.000000
_cell_volume 1179.931849
_symmetry_space_group_name_H-M "P 2/C"
_symmetry_group_IT_number 13
_symmetry_cell_setting 'monoclinic'
loop_
_space_group_symop_operation_xyz
x,y,z
-x,y,1/2-z
-x,-y,-z
x,-y,1/2+z
loop_
_atom_site_type_symbol
_atom_site_label
_atom_site_fract_x
_atom_site_fract_y
_atom_site_fract_z
Si Si1 0.861201 0.768894 0.283528
Si Si2 0.521357 0.252368 0.111810
Si Si3 0.178999 0.973828 0.753296
Si Si4 0.000000 0.352974 0.250000
Si Si5 0.335989 0.398168 0.703927
Si Si6 0.000000 0.866513 0.250000
Si Si7 0.500000 0.499216 0.250000
Si Si8 0.303095 0.112619 0.773287
O O1 0.947965 0.693252 0.502634
O O2 0.983823 0.816007 0.382301
O O3 0.815262 0.819133 0.363046
O O4 0.713647 0.746062 0.912922
O O5 0.500000 0.289395 0.250000
O O6 0.411582 0.308487 0.812487
O O7 0.470831 0.158646 0.026931
O O8 0.156186 0.921007 0.553725
O O9 0.299409 0.044871 0.905295
O O10 0.254482 0.923174 0.022236
O O11 0.000000 0.000000 0.500000
O O12 0.151172 0.402963 0.444236
O O13 0.356974 0.443458 0.571711
O O14 0.440007 0.443786 0.009120
#
# Coordination Sequence:
#
# PCOD8120821 Si02
#       8
#     4   4   4   2   4   2   2   4
#     4  11  23  40  62  95 124 167 220 271 325 387
#     4  10  21  43  66  90 127 172 213 258 325 389
#     4  12  21  36  59  89 123 165 218 277 333 379
#     4  12  22  39  74  99 132 170 220 262 324 377
#     4  11  22  43  70 101 133 179 206 266 311 396
#     4  12  24  35  60  87 130 166 212 288 328 371
#     4  10  24  44  70 100 144 168 212 246 330 384
#     4  11  21  39  64  84 120 173 219 267 328 388
#
# _framework density 22.035170000000001
#
# number of rings (size 3 to 8) (size 9 to 14) (size 15 to 20)
#    0.000    0.923    6.923    0.923    0.000    1.846 
#    0.000   12.308    0.000    0.000    0.000    0.000 
#    0.000    0.000    0.000    0.000    0.000    0.000 
#
# Total GULP energy -322112.848212 kJ/mol
# GULP energy per Si atom -12388.955700 kJ/mol
# Density = 2.198502 g / cm^3
# Si number density = 22.035170 Si / 1000 Ang^3
#
#
#
# Elastic Constant Matrix: (Units=GPa)
#
#
# Indices 1 2 3 4 5 6 
#
# 1 55.3407 34.6072 18.5365 0.0000 1.1840 0.0000
# 2 34.6072 85.6155 26.3933 0.0000 9.0705 0.0000
# 3 18.5365 26.3933 72.4773 0.0000 12.8889 0.0000
# 4 0.0000 0.0000 0.0000 11.3443 0.0000 20.1398
# 5 1.1840 9.0705 12.8889 0.0000 34.3870 0.0000
# 6 0.0000 0.0000 0.0000 20.1398 0.0000 14.5464
#
#
#
# Elastic Compliance Matrix: (Units=1/GPa)
#
#
# Indices 1 2 3 4 5 6 
#
# 1 0.025028 -0.009341 -0.003519 0.000000 0.002921 0.000000
# 2 -0.009341 0.016748 -0.003194 0.000000 -0.002899 0.000000
# 3 -0.003519 -0.003194 0.016810 0.000000 -0.005337 0.000000
# 4 0.000000 0.000000 0.000000 -0.060461 0.000000 0.083709
# 5 0.002921 -0.002899 -0.005337 0.000000 0.031745 0.000000
# 6 0.000000 0.000000 0.000000 0.083709 0.000000 -0.047152
#
#
# Mechanical properties :
#
#
# Convention : Reuss Voigt Hill
#
# Bulk Modulus (GPa) = 37.76938 41.38972 39.57955
# Shear Modulus (GPa) = 211.39920 20.98199 116.19059
#
# Velocity S-wave (km/s) = 9.80538 3.08913 7.26939
# Velocity P-wave (km/s) = 12.05702 5.61675 9.40530
#
# Compressibility (1/GPa) = 0.02647647
#
# Stress axis : x y z
#
# Youngs Moduli (GPa) = 39.95600 59.70909 59.48954
#
# Poissons Ratio (x) = 0.55776 0.20933
# Poissons Ratio (y) = 0.37324 0.19003
# Poissons Ratio (z) = 0.14059 0.19073
#
# Static dielectric constant tensor:
#      x y z
#    x 3.934820 0.000000 -0.008540 
#    y 0.000000 4.148270 0.000000 
#    z -0.008540 0.000000 4.171740 
# 
# 
# High freq. dielectric constant tensor:
#      x y z
#    x 1.852650 0.000000 -0.004420 
#    y 0.000000 1.866560 0.000000 
#    z -0.004420 0.000000 1.854830 
# 
# From -- ./inp_files/22068.got.cif
#   From: 2010.06.25/outbox.cif.g09.slc.cpg/sg13_12_cif.got.tgz:22068.got - 2010.06.28 04:50:58.
