data_PCOD8120863
_publ_section_title
;
Structure prediction by ZEFSAII (Michael W. Deem and Ramdas Pophale) SiO2 
 PCOD8120863
Probable space group: P 2/C
;
_chemical_formula_sum "Si O2"
_cell_formula_units_Z 28
_cell_length_a 11.475201
_cell_length_b 8.865829
_cell_length_c 13.849099
_cell_angle_alpha 90.000000
_cell_angle_beta 64.224274
_cell_angle_gamma 90.000000
_cell_volume 1268.780148
_symmetry_space_group_name_H-M "P 2/C"
_symmetry_group_IT_number 13
_symmetry_cell_setting 'monoclinic'
loop_
_space_group_symop_operation_xyz
x,y,z
-x,y,1/2-z
-x,-y,-z
x,-y,1/2+z
loop_
_atom_site_type_symbol
_atom_site_label
_atom_site_fract_x
_atom_site_fract_y
_atom_site_fract_z
Si Si1 0.790699 0.774934 0.769006
Si Si2 0.130256 0.655222 0.339065
Si Si3 0.701479 0.891657 0.323137
Si Si4 0.062394 0.159311 0.475569
Si Si5 0.500000 0.989812 0.250000
Si Si6 0.000000 0.424498 0.250000
Si Si7 0.644139 0.442182 0.191391
Si Si8 0.333161 0.190024 0.456072
O O1 0.893162 0.796106 0.646414
O O2 0.872447 0.679808 0.819240
O O3 0.669626 0.679968 0.769069
O O4 0.743909 0.934796 0.827140
O O5 0.175784 0.786341 0.247932
O O6 0.038095 0.530996 0.324703
O O7 0.257201 0.579830 0.338901
O O8 0.044370 0.720379 0.455276
O O9 0.600425 0.884627 0.271239
O O10 0.629356 0.829586 0.445019
O O11 0.183074 0.144544 0.504432
O O12 0.000000 0.000000 0.500000
O O13 0.422995 0.090283 0.354668
O O14 0.500000 0.508011 0.250000
O O15 0.656834 0.363049 0.082140
#
# Coordination Sequence:
#
# PCOD8120863 Si02
#       8
#     4   4   4   4   2   2   4   4
#     4  10  22  40  68  96 139 185 231 288 358 417
#     4  11  24  41  68 102 144 179 240 291 353 421
#     4  12  24  41  72 106 132 186 242 305 340 424
#     4  11  21  41  66 100 133 185 225 294 358 408
#     4  12  22  46  66 104 140 180 242 298 350 416
#     4  10  24  40  60 102 142 180 224 286 344 442
#     4  10  21  44  67  92 146 196 221 289 359 418
#     4  11  23  40  73  94 139 190 235 286 361 416
#
# _framework density 22.068439999999999
#
# number of rings (size 3 to 8) (size 9 to 14) (size 15 to 20)
#    0.000    1.143    5.000    1.286    3.000    6.857 
#    0.000    0.714    0.000    0.000    0.000    0.000 
#    0.000    0.000    0.000    0.000    0.000    0.000 
#
# Total GULP energy -347142.402625 kJ/mol
# GULP energy per Si atom -12397.942951 kJ/mol
# Density = 2.201821 g / cm^3
# Si number density = 22.068440 Si / 1000 Ang^3
#
#
#
# Elastic Constant Matrix: (Units=GPa)
#
#
# Indices 1 2 3 4 5 6 
#
# 1 122.8945 45.2308 35.9968 0.0000 -12.1700 0.0000
# 2 45.2308 104.4443 21.2298 0.0000 -4.3930 0.0000
# 3 35.9968 21.2298 103.8680 0.0000 -1.5720 0.0000
# 4 0.0000 0.0000 0.0000 24.1486 0.0000 -1.7350
# 5 -12.1700 -4.3930 -1.5720 0.0000 29.8164 0.0000
# 6 0.0000 0.0000 0.0000 -1.7350 0.0000 36.4798
#
#
#
# Elastic Compliance Matrix: (Units=1/GPa)
#
#
# Indices 1 2 3 4 5 6 
#
# 1 0.010792 -0.003934 -0.002881 0.000000 0.003674 0.000000
# 2 -0.003934 0.011479 -0.000982 0.000000 0.000034 0.000000
# 3 -0.002881 -0.000982 0.010815 0.000000 -0.000750 0.000000
# 4 0.000000 0.000000 0.000000 0.041552 0.000000 0.001976
# 5 0.003674 0.000034 -0.000750 0.000000 0.035003 0.000000
# 6 0.000000 0.000000 0.000000 0.001976 0.000000 0.027506
#
#
# Mechanical properties :
#
#
# Convention : Reuss Voigt Hill
#
# Bulk Modulus (GPa) = 57.16469 59.56906 58.36688
# Shear Modulus (GPa) = 31.53106 33.33893 32.43499
#
# Velocity S-wave (km/s) = 3.78403 3.89100 3.83789
# Velocity P-wave (km/s) = 6.71204 6.87299 6.79299
#
# Compressibility (1/GPa) = 0.01749332
#
# Stress axis : x y z
#
# Youngs Moduli (GPa) = 92.65774 87.11447 92.46103
#
# Poissons Ratio (x) = 0.34268 0.26635
# Poissons Ratio (y) = 0.36449 0.09084
# Poissons Ratio (z) = 0.26691 0.08559
#
# Static dielectric constant tensor:
#      x y z
#    x 4.178490 0.000000 -0.086500 
#    y 0.000000 3.441790 0.000000 
#    z -0.086500 0.000000 3.645710 
# 
# 
# High freq. dielectric constant tensor:
#      x y z
#    x 1.880020 0.000000 -0.010080 
#    y 0.000000 1.874930 0.000000 
#    z -0.010080 0.000000 1.844140 
# 
# From -- ./inp_files/50282.got.cif
#   From: 2010.06.25/outbox.cif.g09.slc.cpg/sg13_26_cif.got.tgz:50282.got - 2010.06.28 04:50:58.
