data_PCOD8120203
_publ_section_title
;
Structure prediction by ZEFSAII (Michael W. Deem and Ramdas Pophale) SiO2 
 PCOD8120203
Probable space group: P 2/C
;
_chemical_formula_sum "Si O2"
_cell_formula_units_Z 18
_cell_length_a 7.660955
_cell_length_b 6.548090
_cell_length_c 19.808621
_cell_angle_alpha 90.000000
_cell_angle_beta 127.273054
_cell_angle_gamma 90.000000
_cell_volume 790.738744
_symmetry_space_group_name_H-M "P 2/C"
_symmetry_group_IT_number 13
_symmetry_cell_setting 'monoclinic'
loop_
_space_group_symop_operation_xyz
x,y,z
-x,y,1/2-z
-x,-y,-z
x,-y,1/2+z
loop_
_atom_site_type_symbol
_atom_site_label
_atom_site_fract_x
_atom_site_fract_y
_atom_site_fract_z
Si Si1 0.212852 0.653413 0.625798
Si Si2 0.321509 0.723751 0.796961
Si Si3 0.279737 0.371972 0.895266
Si Si4 0.000000 0.925540 0.250000
Si Si5 0.244198 0.629445 0.014132
O O1 0.241403 0.601371 0.711525
O O2 0.420477 0.784920 0.648010
O O3 0.217919 0.440589 0.585517
O O4 0.973800 0.761946 0.556787
O O5 0.269859 0.580341 0.848462
O O6 0.196769 0.937240 0.768739
O O7 0.244036 0.430081 0.964649
O O8 0.090265 0.214912 0.831309
O O9 0.519701 0.262143 0.941290
#
# Coordination Sequence:
#
# PCOD8120203 Si02
#       5
#     4   4   4   2   4
#     4   9  18  37  58  81 115 149 183 230 289 335
#     4  10  21  38  59  82 115 152 188 237 282 330
#     4  10  21  38  61  86 112 148 195 236 278 340
#     4  12  22  36  58  84 110 152 198 228 276 348
#     4   9  18  37  63  85 112 151 187 235 293 332
#
# _framework density 22.763521999999998
#
# number of rings (size 3 to 8) (size 9 to 14) (size 15 to 20)
#    0.000    2.222    0.000    3.333    0.000    0.000 
#    0.000   42.222    0.000    0.000    0.000    0.000 
#    0.000    0.000    0.000    0.000    0.000    0.000 
#
# Total GULP energy -222991.351644 kJ/mol
# GULP energy per Si atom -12388.408425 kJ/mol
# Density = 2.271171 g / cm^3
# Si number density = 22.763522 Si / 1000 Ang^3
#
#
#
# Elastic Constant Matrix: (Units=GPa)
#
#
# Indices 1 2 3 4 5 6 
#
# 1 109.6934 31.2072 39.3516 0.0000 27.1394 0.0000
# 2 31.2072 55.2794 30.6540 0.0000 14.9655 0.0000
# 3 39.3516 30.6540 116.1705 0.0000 17.4305 0.0000
# 4 0.0000 0.0000 0.0000 10.8897 0.0000 7.5963
# 5 27.1394 14.9655 17.4305 0.0000 62.9804 0.0000
# 6 0.0000 0.0000 0.0000 7.5963 0.0000 18.3343
#
#
#
# Elastic Compliance Matrix: (Units=1/GPa)
#
#
# Indices 1 2 3 4 5 6 
#
# 1 0.012136 -0.004591 -0.002377 0.000000 -0.003481 0.000000
# 2 -0.004591 0.023758 -0.004344 0.000000 -0.002465 0.000000
# 3 -0.002377 -0.004344 0.010695 0.000000 -0.000903 0.000000
# 4 0.000000 0.000000 0.000000 0.129160 0.000000 -0.053514
# 5 -0.003481 -0.002465 -0.000903 0.000000 0.018214 0.000000
# 6 0.000000 0.000000 0.000000 -0.053514 0.000000 0.076714
#
#
# Mechanical properties :
#
#
# Convention : Reuss Voigt Hill
#
# Bulk Modulus (GPa) = 41.72770 53.72989 47.72879
# Shear Modulus (GPa) = 16.59531 30.43625 23.51578
#
# Velocity S-wave (km/s) = 2.70299 3.66055 3.21759
# Velocity P-wave (km/s) = 5.30210 6.44367 5.90056
#
# Compressibility (1/GPa) = 0.02396490
#
# Stress axis : x y z
#
# Youngs Moduli (GPa) = 82.39618 42.09154 93.50007
#
# Poissons Ratio (x) = 0.19323 0.22229
# Poissons Ratio (y) = 0.37826 0.40617
# Poissons Ratio (z) = 0.19589 0.18285
#
# Static dielectric constant tensor:
#      x y z
#    x 4.576470 0.000000 0.488790 
#    y 0.000000 3.226210 0.000000 
#    z 0.488790 0.000000 4.682200 
# 
# 
# High freq. dielectric constant tensor:
#      x y z
#    x 1.927860 0.000000 0.017800 
#    y 0.000000 1.804710 0.000000 
#    z 0.017800 0.000000 1.931250 
# 
# From -- ./inp_files/62157.got.cif
#   From: 2010.06.25/outbox.cif.g09.slc.cpg/sg13_32_cif.got.tgz:62157.got - 2010.06.28 04:50:58.
