data_PCOD8120338
_publ_section_title
;
Structure prediction by ZEFSAII (Michael W. Deem and Ramdas Pophale) SiO2 
 PCOD8120338
Probable space group: P 2/C
;
_chemical_formula_sum "Si O2"
_cell_formula_units_Z 30
_cell_length_a 13.098235
_cell_length_b 13.334553
_cell_length_c 9.164105
_cell_angle_alpha 90.000000
_cell_angle_beta 110.682311
_cell_angle_gamma 90.000000
_cell_volume 1497.441088
_symmetry_space_group_name_H-M "P 2/C"
_symmetry_group_IT_number 13
_symmetry_cell_setting 'monoclinic'
loop_
_space_group_symop_operation_xyz
x,y,z
-x,y,1/2-z
-x,-y,-z
x,-y,1/2+z
loop_
_atom_site_type_symbol
_atom_site_label
_atom_site_fract_x
_atom_site_fract_y
_atom_site_fract_z
Si Si1 0.183208 0.925869 0.054898
Si Si2 0.823781 0.843575 0.881123
Si Si3 0.620524 0.590737 0.466981
Si Si4 0.533836 0.099359 0.435883
Si Si5 0.752182 0.198195 0.640426
Si Si6 0.625143 0.401985 0.636708
Si Si7 0.665480 0.801228 0.568658
Si Si8 0.000000 0.132682 0.250000
O O1 0.181601 0.848230 0.190202
O O2 0.190399 0.036249 0.123409
O O3 0.285067 0.890385 0.007164
O O4 0.074682 0.929778 0.900237
O O5 0.712083 0.803726 0.755681
O O6 0.920542 0.806176 0.819849
O O7 0.838051 0.794294 0.048609
O O8 0.676096 0.495970 0.574826
O O9 0.500636 0.614103 0.475307
O O10 0.620286 0.562438 0.299282
O O11 0.691905 0.691855 0.517343
O O12 0.500000 0.090736 0.250000
O O13 0.660498 0.121888 0.531221
O O14 0.464395 0.185810 0.482350
O O15 0.500000 0.000000 0.500000
O O16 0.700370 0.304997 0.651994
#
# Coordination Sequence:
#
# PCOD8120338 Si02
#       8
#     4   4   4   4   4   4   4   2
#     4  11  23  41  63  90 124 161 209 256 310 368
#     4  11  23  39  61  92 121 164 204 253 308 373
#     4  10  21  39  57  84 124 170 212 249 303 343
#     4  12  25  36  54  84 131 183 209 238 295 358
#     4  12  23  37  60  93 126 162 215 250 297 373
#     4  10  22  37  59  86 121 168 211 258 290 357
#     4  11  22  38  57  86 131 169 201 251 297 364
#     4  10  24  44  64  86 122 164 198 272 322 352
#
# _framework density 20.034178000000001
#
# number of rings (size 3 to 8) (size 9 to 14) (size 15 to 20)
#    0.000    1.067    4.000    3.600    3.733    0.533 
#    0.000    0.000    0.000    0.000    0.000   14.933 
#    0.000    0.000    0.000    0.000    0.000    0.000 
#
# Total GULP energy -371730.234518 kJ/mol
# GULP energy per Si atom -12391.007817 kJ/mol
# Density = 1.998858 g / cm^3
# Si number density = 20.034178 Si / 1000 Ang^3
#
#
#
# Elastic Constant Matrix: (Units=GPa)
#
#
# Indices 1 2 3 4 5 6 
#
# 1 70.8427 21.7480 33.5681 0.0000 -13.7003 0.0000
# 2 21.7480 108.1644 38.2201 0.0000 -5.5620 0.0000
# 3 33.5681 38.2201 122.0017 0.0000 -8.8763 0.0000
# 4 0.0000 0.0000 0.0000 28.0508 0.0000 -7.1132
# 5 -13.7003 -5.5620 -8.8763 0.0000 38.8225 0.0000
# 6 0.0000 0.0000 0.0000 -7.1132 0.0000 11.9166
#
#
#
# Elastic Compliance Matrix: (Units=1/GPa)
#
#
# Indices 1 2 3 4 5 6 
#
# 1 0.017496 -0.001898 -0.003854 0.000000 0.005021 0.000000
# 2 -0.001898 0.010624 -0.002790 0.000000 0.000214 0.000000
# 3 -0.003854 -0.002790 0.010172 0.000000 0.000566 0.000000
# 4 0.000000 0.000000 0.000000 0.042008 0.000000 0.025075
# 5 0.005021 0.000214 0.000566 0.000000 0.027690 0.000000
# 6 0.000000 0.000000 0.000000 0.025075 0.000000 0.098884
#
#
# Mechanical properties :
#
#
# Convention : Reuss Voigt Hill
#
# Bulk Modulus (GPa) = 47.15333 54.23125 50.69229
# Shear Modulus (GPa) = 21.64244 29.58950 25.61597
#
# Velocity S-wave (km/s) = 3.29032 3.84728 3.57965
# Velocity P-wave (km/s) = 6.16624 6.84570 6.51483
#
# Compressibility (1/GPa) = 0.02120741
#
# Stress axis : x y z
#
# Youngs Moduli (GPa) = 57.15742 94.12845 98.30566
#
# Poissons Ratio (x) = 0.17863 0.37887
# Poissons Ratio (y) = 0.10847 0.27431
# Poissons Ratio (z) = 0.22028 0.26266
#
# Static dielectric constant tensor:
#      x y z
#    x 3.724670 0.000000 -0.146080 
#    y 0.000000 3.271500 0.000000 
#    z -0.146080 0.000000 3.858710 
# 
# 
# High freq. dielectric constant tensor:
#      x y z
#    x 1.760350 0.000000 -0.021040 
#    y 0.000000 1.758010 0.000000 
#    z -0.021040 0.000000 1.800420 
# 
# From -- ./inp_files/19079.got.cif
#   From: 2010.06.25/outbox.cif.g09.slc.cpg/sg13_10_cif.got.tgz:19079.got - 2010.06.28 04:50:58.
