data_PCOD8120664
_publ_section_title
;
Structure prediction by ZEFSAII (Michael W. Deem and Ramdas Pophale) SiO2 
 PCOD8120664
Probable space group: P 2/C
;
_chemical_formula_sum "Si O2"
_cell_formula_units_Z 28
_cell_length_a 14.382165
_cell_length_b 13.231949
_cell_length_c 9.643841
_cell_angle_alpha 90.000000
_cell_angle_beta 50.116538
_cell_angle_gamma 90.000000
_cell_volume 1408.288966
_symmetry_space_group_name_H-M "P 2/C"
_symmetry_group_IT_number 13
_symmetry_cell_setting 'monoclinic'
loop_
_space_group_symop_operation_xyz
x,y,z
-x,y,1/2-z
-x,-y,-z
x,-y,1/2+z
loop_
_atom_site_type_symbol
_atom_site_label
_atom_site_fract_x
_atom_site_fract_y
_atom_site_fract_z
Si Si1 0.972755 0.736338 0.625808
Si Si2 0.083725 0.483767 0.294495
Si Si3 0.635751 0.771549 0.167298
Si Si4 0.634166 0.787058 0.611729
Si Si5 0.219453 0.666542 0.250687
Si Si6 0.751425 0.152794 0.277777
Si Si7 0.371989 0.051557 0.603597
O O1 0.890649 0.636055 0.739802
O O2 0.892353 0.818681 0.620404
O O3 0.000000 0.784561 0.750000
O O4 0.090451 0.714473 0.419379
O O5 0.203791 0.550939 0.210920
O O6 0.000000 0.524377 0.250000
O O7 0.000000 0.500000 0.500000
O O8 0.500000 0.745602 0.250000
O O9 0.690802 0.676175 0.201736
O O10 0.645670 0.867657 0.258544
O O11 0.712539 0.796727 0.959164
O O12 0.500000 0.738032 0.750000
O O13 0.726994 0.720956 0.434724
O O14 0.675620 0.795663 0.729210
O O15 0.628101 0.897505 0.547382
O O16 0.734321 0.031938 0.292320
O O17 0.500000 0.000000 0.500000
#
# Coordination Sequence:
#
# PCOD8120664 Si02
#       7
#     4   4   4   4   4   4   4
#     4  10  21  41  64  95 119 162 211 256 315 369
#     4   9  20  38  67  94 115 158 210 250 301 380
#     4  11  21  37  62  89 121 165 210 254 309 368
#     4  11  23  38  59  95 125 160 209 258 314 367
#     4  10  22  40  63  93 130 158 201 261 316 376
#     4  12  22  34  63  88 123 158 211 264 301 364
#     4  11  21  38  61  89 118 163 217 259 301 366
#
# _framework density 19.882283000000001
#
# number of rings (size 3 to 8) (size 9 to 14) (size 15 to 20)
#    0.000    1.429    4.286    1.714    4.000    0.000 
#    0.000    2.857    0.000    5.143    0.000    0.000 
#    0.000    0.000    0.000    0.000    0.000    0.000 
#
# Total GULP energy -346984.709201 kJ/mol
# GULP energy per Si atom -12392.311043 kJ/mol
# Density = 1.983703 g / cm^3
# Si number density = 19.882283 Si / 1000 Ang^3
#
#
#
# Elastic Constant Matrix: (Units=GPa)
#
#
# Indices 1 2 3 4 5 6 
#
# 1 134.0996 64.1740 36.3163 0.0000 4.6022 0.0000
# 2 64.1740 84.1704 25.1687 0.0000 -8.2130 0.0000
# 3 36.3163 25.1687 102.2180 0.0000 7.1379 0.0000
# 4 0.0000 0.0000 0.0000 23.7716 0.0000 -5.1209
# 5 4.6022 -8.2130 7.1379 0.0000 44.8733 0.0000
# 6 0.0000 0.0000 0.0000 -5.1209 0.0000 37.1947
#
#
#
# Elastic Compliance Matrix: (Units=1/GPa)
#
#
# Indices 1 2 3 4 5 6 
#
# 1 0.012478 -0.009177 -0.001989 0.000000 -0.002643 0.000000
# 2 -0.009177 0.019953 -0.001996 0.000000 0.004911 0.000000
# 3 -0.001989 -0.001996 0.011116 0.000000 -0.001929 0.000000
# 4 0.000000 0.000000 0.000000 0.043353 0.000000 0.005969
# 5 -0.002643 0.004911 -0.001929 0.000000 0.023762 0.000000
# 6 0.000000 0.000000 0.000000 0.005969 0.000000 0.027707
#
#
# Mechanical properties :
#
#
# Convention : Reuss Voigt Hill
#
# Bulk Modulus (GPa) = 58.05796 63.53399 60.79598
# Shear Modulus (GPa) = 29.33700 34.15651 31.74675
#
# Velocity S-wave (km/s) = 3.84544 4.14930 4.00025
# Velocity P-wave (km/s) = 6.99862 7.41485 7.20974
#
# Compressibility (1/GPa) = 0.01722417
#
# Stress axis : x y z
#
# Youngs Moduli (GPa) = 80.14021 50.11738 89.96199
#
# Poissons Ratio (x) = 0.45992 0.17895
# Poissons Ratio (y) = 0.73543 0.17952
# Poissons Ratio (z) = 0.15941 0.10001
#
# Static dielectric constant tensor:
#      x y z
#    x 3.298840 0.000000 0.144710 
#    y 0.000000 3.411480 0.000000 
#    z 0.144710 0.000000 3.699740 
# 
# 
# High freq. dielectric constant tensor:
#      x y z
#    x 1.780740 0.000000 0.016570 
#    y 0.000000 1.752490 0.000000 
#    z 0.016570 0.000000 1.786160 
# 
# From -- ./inp_files/16667.got.cif
#   From: 2010.06.25/outbox.cif.g09.slc.cpg/sg13_9_cif.got.tgz:16667.got - 2010.06.28 04:50:58.
