data_PCOD8120473
_publ_section_title
;
Structure prediction by ZEFSAII (Michael W. Deem and Ramdas Pophale) SiO2 
 PCOD8120473
Probable space group: P 2/C
;
_chemical_formula_sum "Si O2"
_cell_formula_units_Z 20
_cell_length_a 10.006931
_cell_length_b 9.796339
_cell_length_c 9.036543
_cell_angle_alpha 90.000000
_cell_angle_beta 115.300088
_cell_angle_gamma 90.000000
_cell_volume 800.893560
_symmetry_space_group_name_H-M "P 2/C"
_symmetry_group_IT_number 13
_symmetry_cell_setting 'monoclinic'
loop_
_space_group_symop_operation_xyz
x,y,z
-x,y,1/2-z
-x,-y,-z
x,-y,1/2+z
loop_
_atom_site_type_symbol
_atom_site_label
_atom_site_fract_x
_atom_site_fract_y
_atom_site_fract_z
Si Si1 0.840496 0.659096 0.252070
Si Si2 0.153051 0.074140 0.583313
Si Si3 0.730626 0.160492 0.179014
Si Si4 0.548828 0.647086 0.970120
Si Si5 0.820483 0.385855 0.414351
O O1 0.900721 0.795424 0.351437
O O2 0.864773 0.532043 0.373359
O O3 0.666874 0.691086 0.150441
O O4 0.908478 0.632898 0.114945
O O5 0.218270 0.118792 0.458319
O O6 0.272960 0.975672 0.721392
O O7 0.000000 0.000000 0.500000
O O8 0.571719 0.233590 0.093069
O O9 0.849941 0.267466 0.307429
O O10 0.641433 0.627153 0.859348
O O11 0.500000 0.500000 0.000000
#
# Coordination Sequence:
#
# PCOD8120473 Si02
#       5
#     4   4   4   4   4
#     4  10  22  41  72 109 148 186 232 289 366 424
#     4  12  28  49  68  95 142 198 255 303 341 411
#     4  12  24  45  71 101 144 193 236 297 370 424
#     4  10  21  39  73 110 156 174 227 290 375 439
#     4  10  21  40  71 114 147 180 227 289 366 440
#
# _framework density 24.972106
#
# number of rings (size 3 to 8) (size 9 to 14) (size 15 to 20)
#    1.200    0.000    2.000    4.800    0.000    3.200 
#    3.600    1.000    0.000    2.400    0.000    0.000 
#    0.000    0.000    0.000    0.000    0.000    0.000 
#
# Total GULP energy -247898.941958 kJ/mol
# GULP energy per Si atom -12394.947098 kJ/mol
# Density = 2.491527 g / cm^3
# Si number density = 24.972106 Si / 1000 Ang^3
#
#
#
# Elastic Constant Matrix: (Units=GPa)
#
#
# Indices 1 2 3 4 5 6 
#
# 1 126.8971 74.9893 73.6888 0.0000 -12.1790 0.0000
# 2 74.9893 234.0835 120.6973 0.0000 -13.7967 0.0000
# 3 73.6888 120.6973 190.9210 0.0000 -6.8066 0.0000
# 4 0.0000 0.0000 0.0000 69.1284 0.0000 -2.0191
# 5 -12.1790 -13.7967 -6.8066 0.0000 27.7648 0.0000
# 6 0.0000 0.0000 0.0000 -2.0191 0.0000 45.7681
#
#
#
# Elastic Compliance Matrix: (Units=1/GPa)
#
#
# Indices 1 2 3 4 5 6 
#
# 1 0.010982 -0.001785 -0.002996 0.000000 0.003196 0.000000
# 2 -0.001785 0.006762 -0.003525 0.000000 0.001713 0.000000
# 3 -0.002996 -0.003525 0.008589 0.000000 -0.000961 0.000000
# 4 0.000000 0.000000 0.000000 0.014484 0.000000 0.000639
# 5 0.003196 0.001713 -0.000961 0.000000 0.038035 0.000000
# 6 0.000000 0.000000 0.000000 0.000639 0.000000 0.021877
#
#
# Mechanical properties :
#
#
# Convention : Reuss Voigt Hill
#
# Bulk Modulus (GPa) = 102.87837 121.18360 112.03099
# Shear Modulus (GPa) = 41.46573 47.36733 44.41653
#
# Velocity S-wave (km/s) = 4.07932 4.35996 4.22197
# Velocity P-wave (km/s) = 7.96709 8.60108 8.29015
#
# Compressibility (1/GPa) = 0.00972022
#
# Stress axis : x y z
#
# Youngs Moduli (GPa) = 91.06007 147.87889 116.43429
#
# Poissons Ratio (x) = 0.26392 0.34888
# Poissons Ratio (y) = 0.16252 0.41044
# Poissons Ratio (z) = 0.27285 0.52129
#
# Static dielectric constant tensor:
#      x y z
#    x 4.814370 0.000000 0.466870 
#    y 0.000000 4.864130 0.000000 
#    z 0.466870 0.000000 4.837950 
# 
# 
# High freq. dielectric constant tensor:
#      x y z
#    x 2.011200 0.000000 0.017970 
#    y 0.000000 2.005740 0.000000 
#    z 0.017970 0.000000 2.023650 
# 
# From -- ./inp_files/14983.got.cif
#   From: 2010.06.25/outbox.cif.g09.slc.cpg/sg13_8_cif.got.tgz:14983.got - 2010.06.28 04:50:58.
