data_PCOD8120916
_publ_section_title
;
Structure prediction by ZEFSAII (Michael W. Deem and Ramdas Pophale) SiO2 
 PCOD8120916
Probable space group: P 2/C
;
_chemical_formula_sum "Si O2"
_cell_formula_units_Z 26
_cell_length_a 22.813413
_cell_length_b 6.717929
_cell_length_c 18.029096
_cell_angle_alpha 90.000000
_cell_angle_beta 153.052459
_cell_angle_gamma 90.000000
_cell_volume 1252.175225
_symmetry_space_group_name_H-M "P 2/C"
_symmetry_group_IT_number 13
_symmetry_cell_setting 'monoclinic'
loop_
_space_group_symop_operation_xyz
x,y,z
-x,y,1/2-z
-x,-y,-z
x,-y,1/2+z
loop_
_atom_site_type_symbol
_atom_site_label
_atom_site_fract_x
_atom_site_fract_y
_atom_site_fract_z
Si Si1 0.212959 0.004298 0.455108
Si Si2 0.489859 0.285713 0.521071
Si Si3 0.723925 0.707679 0.603905
Si Si4 0.103995 0.385383 0.758428
Si Si5 0.000000 0.693551 0.750000
Si Si6 0.685637 0.020220 0.277994
Si Si7 0.917232 0.163392 0.445959
O O1 0.275416 0.109472 0.453677
O O2 0.317393 0.946679 0.636104
O O3 0.123261 0.163773 0.396560
O O4 0.135690 0.806291 0.344482
O O5 0.500000 0.500000 0.500000
O O6 0.416625 0.290838 0.517603
O O7 0.633803 0.200522 0.698654
O O8 0.416923 0.166431 0.374711
O O9 0.759484 0.493116 0.608084
O O10 0.829801 0.731417 0.786909
O O11 0.013205 0.549863 0.694555
O O12 0.018416 0.321236 0.592327
O O13 0.830055 0.059784 0.411077
O O14 0.000000 0.000000 0.500000
#
# Coordination Sequence:
#
# PCOD8120916 Si02
#       7
#     4   4   4   4   2   4   4
#     4  11  22  40  61  92 132 161 211 263 320 387
#     4  10  24  45  65  87 121 167 222 267 311 382
#     4  10  24  39  61  96 124 168 218 264 312 380
#     4  11  22  37  62  93 134 170 205 258 328 382
#     4  10  22  36  58  94 130 172 206 254 314 396
#     4  10  24  41  65  89 121 168 208 261 325 371
#     4  11  21  38  63  94 129 165 206 260 316 384
#
# _framework density 20.763867000000001
#
# number of rings (size 3 to 8) (size 9 to 14) (size 15 to 20)
#    0.000    1.538    1.538    2.769    4.308    6.769 
#    0.000    0.000    0.000    0.000    0.000    0.000 
#    0.000    0.000    0.000    0.000    0.000    0.000 
#
# Total GULP energy -322325.034347 kJ/mol
# GULP energy per Si atom -12397.116706 kJ/mol
# Density = 2.071661 g / cm^3
# Si number density = 20.763867 Si / 1000 Ang^3
#
#
#
# Elastic Constant Matrix: (Units=GPa)
#
#
# Indices 1 2 3 4 5 6 
#
# 1 100.3492 47.9820 34.8226 0.0000 -14.0578 0.0000
# 2 47.9820 122.7649 22.1290 0.0000 -3.9624 0.0000
# 3 34.8226 22.1290 65.1006 0.0000 -16.0618 0.0000
# 4 0.0000 0.0000 0.0000 20.0434 0.0000 -5.2721
# 5 -14.0578 -3.9624 -16.0618 0.0000 34.5160 0.0000
# 6 0.0000 0.0000 0.0000 -5.2721 0.0000 35.4343
#
#
#
# Elastic Compliance Matrix: (Units=1/GPa)
#
#
# Indices 1 2 3 4 5 6 
#
# 1 0.014444 -0.004567 -0.005481 0.000000 0.002808 0.000000
# 2 -0.004567 0.010127 -0.001324 0.000000 -0.001313 0.000000
# 3 -0.005481 -0.001324 0.020509 0.000000 0.007159 0.000000
# 4 0.000000 0.000000 0.000000 0.051924 0.000000 0.007725
# 5 0.002808 -0.001313 0.007159 0.000000 0.033297 0.000000
# 6 0.000000 0.000000 0.000000 0.007725 0.000000 0.029371
#
#
# Mechanical properties :
#
#
# Convention : Reuss Voigt Hill
#
# Bulk Modulus (GPa) = 44.76860 55.34245 50.05552
# Shear Modulus (GPa) = 26.33524 30.21748 28.27636
#
# Velocity S-wave (km/s) = 3.56521 3.81897 3.69427
# Velocity P-wave (km/s) = 6.20929 6.79390 6.50816
#
# Compressibility (1/GPa) = 0.02233709
#
# Stress axis : x y z
#
# Youngs Moduli (GPa) = 69.23186 98.74844 48.75900
#
# Poissons Ratio (x) = 0.45096 0.26725
# Poissons Ratio (y) = 0.31617 0.06453
# Poissons Ratio (z) = 0.37947 0.13069
#
# Static dielectric constant tensor:
#      x y z
#    x 4.025680 0.000000 -0.029790 
#    y 0.000000 3.808660 0.000000 
#    z -0.029790 0.000000 3.582940 
# 
# 
# High freq. dielectric constant tensor:
#      x y z
#    x 1.818680 0.000000 -0.011870 
#    y 0.000000 1.823500 0.000000 
#    z -0.011870 0.000000 1.801790 
# 
# From -- ./inp_files/70197.got.cif
#   From: 2010.06.25/outbox.cif.g09.slc.cpg/sg13_36_cif.got.tgz:70197.got - 2010.06.28 04:50:58.
