data_PCOD8120935
_publ_section_title
;
Structure prediction by ZEFSAII (Michael W. Deem and Ramdas Pophale) SiO2 
 PCOD8120935
Probable space group: P 2/C
;
_chemical_formula_sum "Si O2"
_cell_formula_units_Z 18
_cell_length_a 9.122202
_cell_length_b 5.245371
_cell_length_c 24.345663
_cell_angle_alpha 90.000000
_cell_angle_beta 39.367372
_cell_angle_gamma 90.000000
_cell_volume 738.899914
_symmetry_space_group_name_H-M "P 2/C"
_symmetry_group_IT_number 13
_symmetry_cell_setting 'monoclinic'
loop_
_space_group_symop_operation_xyz
x,y,z
-x,y,1/2-z
-x,-y,-z
x,-y,1/2+z
loop_
_atom_site_type_symbol
_atom_site_label
_atom_site_fract_x
_atom_site_fract_y
_atom_site_fract_z
Si Si1 0.000000 0.741725 0.250000
Si Si2 0.671031 0.110379 0.406071
Si Si3 0.087042 0.566999 0.821471
Si Si4 0.529636 0.222244 0.151968
Si Si5 0.703848 0.289135 0.648411
O O1 0.160762 0.575207 0.243470
O O2 0.157178 0.894858 0.163318
O O3 0.530902 0.206270 0.394342
O O4 0.828663 0.325355 0.389548
O O5 0.500000 0.000000 0.500000
O O6 0.299219 0.777110 0.759473
O O7 0.076593 0.373499 0.876970
O O8 0.675375 0.482799 0.112904
O O9 0.701748 0.987564 0.119817
O O10 0.500000 0.307831 0.750000
#
# Coordination Sequence:
#
# PCOD8120935 Si02
#       5
#     2   4   4   4   4
#     4  12  22  44  76  94 150 182 250 298 368 430
#     4  12  26  43  71 106 145 190 247 305 368 436
#     4  11  23  42  70 107 136 196 245 301 368 441
#     4  11  21  43  66 101 138 187 233 300 355 436
#     4  10  22  36  70 100 136 181 243 288 364 429
#
# _framework density 24.36054
#
# number of rings (size 3 to 8) (size 9 to 14) (size 15 to 20)
#    0.000    0.889    4.444    4.667    3.111    0.889 
#    0.000    2.222    0.000    0.000    0.000    0.000 
#    0.000    0.000    0.000    0.000    0.000    0.000 
#
# Total GULP energy -222988.806099 kJ/mol
# GULP energy per Si atom -12388.267005 kJ/mol
# Density = 2.430509 g / cm^3
# Si number density = 24.360540 Si / 1000 Ang^3
#
#
#
# Elastic Constant Matrix: (Units=GPa)
#
#
# Indices 1 2 3 4 5 6 
#
# 1 141.9652 45.1605 11.9750 0.0000 15.1681 0.0000
# 2 45.1605 130.3625 15.2675 0.0000 3.5193 0.0000
# 3 11.9750 15.2675 80.6421 0.0000 -4.8018 0.0000
# 4 0.0000 0.0000 0.0000 41.1386 0.0000 -0.2578
# 5 15.1681 3.5193 -4.8018 0.0000 14.8065 0.0000
# 6 0.0000 0.0000 0.0000 -0.2578 0.0000 51.2960
#
#
#
# Elastic Compliance Matrix: (Units=1/GPa)
#
#
# Indices 1 2 3 4 5 6 
#
# 1 0.008982 -0.002710 -0.001356 0.000000 -0.008997 0.000000
# 2 -0.002710 0.008746 -0.001236 0.000000 0.000296 0.000000
# 3 -0.001356 -0.001236 0.013191 0.000000 0.005961 0.000000
# 4 0.000000 0.000000 0.000000 0.024309 0.000000 0.000122
# 5 -0.008997 0.000296 0.005961 0.000000 0.078617 0.000000
# 6 0.000000 0.000000 0.000000 0.000122 0.000000 0.019495
#
#
# Mechanical properties :
#
#
# Convention : Reuss Voigt Hill
#
# Bulk Modulus (GPa) = 49.22521 55.30843 52.26682
# Shear Modulus (GPa) = 29.28845 40.15268 34.72056
#
# Velocity S-wave (km/s) = 3.47117 4.06429 3.77938
# Velocity P-wave (km/s) = 6.02629 6.69164 6.36766
#
# Compressibility (1/GPa) = 0.02031479
#
# Stress axis : x y z
#
# Youngs Moduli (GPa) = 111.33828 114.33322 75.81023
#
# Poissons Ratio (x) = 0.30981 0.10283
# Poissons Ratio (y) = 0.30169 0.09369
# Poissons Ratio (z) = 0.15102 0.14130
#
# Static dielectric constant tensor:
#      x y z
#    x 8.409500 0.000000 -0.707780 
#    y 0.000000 4.857490 0.000000 
#    z -0.707780 0.000000 4.052320 
# 
# 
# High freq. dielectric constant tensor:
#      x y z
#    x 1.995880 0.000000 0.024750 
#    y 0.000000 1.978610 0.000000 
#    z 0.024750 0.000000 1.908890 
# 
# From -- ./inp_files/74362.got.cif
#   From: 2010.06.25/outbox.cif.g09.slc.cpg/sg13_38_cif.got.tgz:74362.got - 2010.06.28 04:50:58.
