data_PCOD8120459
_publ_section_title
;
Structure prediction by ZEFSAII (Michael W. Deem and Ramdas Pophale) SiO2 
 PCOD8120459
Probable space group: P 2/C
;
_chemical_formula_sum "Si O2"
_cell_formula_units_Z 14
_cell_length_a 7.545836
_cell_length_b 10.560424
_cell_length_c 10.930872
_cell_angle_alpha 90.000000
_cell_angle_beta 134.534826
_cell_angle_gamma 90.000000
_cell_volume 620.906224
_symmetry_space_group_name_H-M "P 2/C"
_symmetry_group_IT_number 13
_symmetry_cell_setting 'monoclinic'
loop_
_space_group_symop_operation_xyz
x,y,z
-x,y,1/2-z
-x,-y,-z
x,-y,1/2+z
loop_
_atom_site_type_symbol
_atom_site_label
_atom_site_fract_x
_atom_site_fract_y
_atom_site_fract_z
Si Si1 0.226734 0.906238 0.635129
Si Si2 0.869943 0.337445 0.558902
Si Si3 0.000000 0.773787 0.750000
Si Si4 0.728678 0.403398 0.939533
O O1 0.500000 0.972522 0.750000
O O2 0.244455 0.792653 0.545239
O O3 0.172779 0.857571 0.745245
O O4 0.000000 0.000000 0.500000
O O5 0.674068 0.455486 0.470756
O O6 0.000000 0.309210 0.750000
O O7 0.051601 0.397789 0.549716
O O8 0.793013 0.690245 0.581499
O O9 0.500000 0.351793 0.750000
#
# Coordination Sequence:
#
# PCOD8120459 Si02
#       4
#     4   4   2   4
#     4  11  27  47  71 100 135 190 240 284 348 405
#     4  10  22  40  64 103 134 173 229 278 342 421
#     4  10  24  46  68 108 142 168 234 290 340 424
#     4  10  21  39  68 100 139 177 211 280 359 410
#
# _framework density 22.547688000000001
#
# number of rings (size 3 to 8) (size 9 to 14) (size 15 to 20)
#    0.000    1.714    1.429    0.857    6.000    6.857 
#    0.000    0.000    0.000    0.000    0.000    0.000 
#    0.000    0.000    0.000    0.000    0.000    0.000 
#
# Total GULP energy -173438.938194 kJ/mol
# GULP energy per Si atom -12388.495585 kJ/mol
# Density = 2.249637 g / cm^3
# Si number density = 22.547688 Si / 1000 Ang^3
#
#
#
# Elastic Constant Matrix: (Units=GPa)
#
#
# Indices 1 2 3 4 5 6 
#
# 1 84.3114 57.1976 49.4468 0.0000 -0.0515 0.0000
# 2 57.1976 104.3396 55.4802 0.0000 7.0957 0.0000
# 3 49.4468 55.4802 166.7833 0.0000 0.0234 0.0000
# 4 0.0000 0.0000 0.0000 76.9897 0.0000 -53.4314
# 5 -0.0515 7.0957 0.0234 0.0000 51.6192 0.0000
# 6 0.0000 0.0000 0.0000 -53.4314 0.0000 93.4516
#
#
#
# Elastic Compliance Matrix: (Units=1/GPa)
#
#
# Indices 1 2 3 4 5 6 
#
# 1 0.019965 -0.009583 -0.002731 0.000000 0.001338 0.000000
# 2 -0.009583 0.016377 -0.002606 0.000000 -0.002260 0.000000
# 3 -0.002731 -0.002606 0.007673 0.000000 0.000352 0.000000
# 4 0.000000 0.000000 0.000000 0.021533 0.000000 0.012312
# 5 0.001338 -0.002260 0.000352 0.000000 0.019684 0.000000
# 6 0.000000 0.000000 0.000000 0.012312 0.000000 0.017740
#
#
# Mechanical properties :
#
#
# Convention : Reuss Voigt Hill
#
# Bulk Modulus (GPa) = 70.55865 75.52040 73.03952
# Shear Modulus (GPa) = 36.35370 57.29942 46.82656
#
# Velocity S-wave (km/s) = 4.01970 5.04655 4.56211
# Velocity P-wave (km/s) = 7.27359 8.21726 7.75978
#
# Compressibility (1/GPa) = 0.01417261
#
# Stress axis : x y z
#
# Youngs Moduli (GPa) = 50.08821 61.06151 130.33508
#
# Poissons Ratio (x) = 0.58516 0.35600
# Poissons Ratio (y) = 0.48000 0.33969
# Poissons Ratio (z) = 0.13681 0.15915
#
# Static dielectric constant tensor:
#      x y z
#    x 4.071610 0.000000 -0.128820 
#    y 0.000000 4.194800 0.000000 
#    z -0.128820 0.000000 3.957870 
# 
# 
# High freq. dielectric constant tensor:
#      x y z
#    x 1.888210 0.000000 -0.011400 
#    y 0.000000 1.885410 0.000000 
#    z -0.011400 0.000000 1.896030 
# 
# From -- ./inp_files/27919.got.cif
#   From: 2010.06.25/outbox.cif.g09.slc.cpg/sg13_14_cif.got.tgz:27919.got - 2010.06.28 04:50:58.
