data_PCOD8120753
_publ_section_title
;
Structure prediction by ZEFSAII (Michael W. Deem and Ramdas Pophale) SiO2 
 PCOD8120753
Probable space group: P 2/C
;
_chemical_formula_sum "Si O2"
_cell_formula_units_Z 28
_cell_length_a 8.197759
_cell_length_b 16.035934
_cell_length_c 10.755052
_cell_angle_alpha 90.000000
_cell_angle_beta 63.063794
_cell_angle_gamma 90.000000
_cell_volume 1260.459360
_symmetry_space_group_name_H-M "P 2/C"
_symmetry_group_IT_number 13
_symmetry_cell_setting 'monoclinic'
loop_
_space_group_symop_operation_xyz
x,y,z
-x,y,1/2-z
-x,-y,-z
x,-y,1/2+z
loop_
_atom_site_type_symbol
_atom_site_label
_atom_site_fract_x
_atom_site_fract_y
_atom_site_fract_z
Si Si1 0.000000 0.195858 0.250000
Si Si2 0.684932 0.901951 0.992930
Si Si3 0.847333 0.754043 0.551505
Si Si4 0.818393 0.683612 0.195139
Si Si5 0.635662 0.437428 0.589719
Si Si6 0.500000 0.792783 0.250000
Si Si7 0.677393 0.388422 0.975517
Si Si8 0.371460 0.920115 0.911839
O O1 0.153286 0.134551 0.144365
O O2 0.081058 0.254595 0.331275
O O3 0.494544 0.897757 0.986399
O O4 0.649406 0.845564 0.124514
O O5 0.738068 0.994975 0.019180
O O6 0.691147 0.684501 0.576337
O O7 0.773172 0.847350 0.561472
O O8 0.008871 0.742167 0.393916
O O9 0.792485 0.625949 0.081424
O O10 0.630410 0.734607 0.289135
O O11 0.833799 0.629710 0.316709
O O12 0.500000 0.457096 0.750000
O O13 0.526876 0.395995 0.511041
O O14 0.732272 0.523367 0.517075
O O15 0.500000 0.935914 0.750000
#
# Coordination Sequence:
#
# PCOD8120753 Si02
#       8
#     2   4   4   4   4   2   4   4
#     4  12  26  48  64 104 146 182 234 294 342 414
#     4  11  25  46  72  99 138 184 232 290 352 408
#     4  12  26  43  68 102 142 182 228 288 342 412
#     4  11  22  43  69 105 138 179 235 282 346 420
#     4   9  20  42  71 100 137 178 228 287 349 416
#     4  12  20  42  74  96 136 186 232 280 346 412
#     4  10  21  42  66 102 134 179 228 283 343 413
#     4  11  24  47  71 100 134 183 236 284 348 418
#
# _framework density 22.214123000000001
#
# number of rings (size 3 to 8) (size 9 to 14) (size 15 to 20)
#    0.000    1.143    5.714    1.286    0.000    1.714 
#   18.000    0.000    0.000    0.000    0.000    0.000 
#    0.000    0.000    0.000    0.000    0.000    0.000 
#
# Total GULP energy -347146.849347 kJ/mol
# GULP energy per Si atom -12398.101762 kJ/mol
# Density = 2.216356 g / cm^3
# Si number density = 22.214123 Si / 1000 Ang^3
#
#
#
# Elastic Constant Matrix: (Units=GPa)
#
#
# Indices 1 2 3 4 5 6 
#
# 1 67.8047 54.7236 27.5625 0.0000 13.0651 0.0000
# 2 54.7236 128.0995 56.1236 0.0000 12.1959 0.0000
# 3 27.5625 56.1236 98.7998 0.0000 -6.7760 0.0000
# 4 0.0000 0.0000 0.0000 41.2510 0.0000 -6.4973
# 5 13.0651 12.1959 -6.7760 0.0000 39.4116 0.0000
# 6 0.0000 0.0000 0.0000 -6.4973 0.0000 6.2456
#
#
#
# Elastic Compliance Matrix: (Units=1/GPa)
#
#
# Indices 1 2 3 4 5 6 
#
# 1 0.023647 -0.008683 -0.002042 0.000000 -0.005503 0.000000
# 2 -0.008683 0.014348 -0.005905 0.000000 -0.002577 0.000000
# 3 -0.002042 -0.005905 0.014387 0.000000 0.004978 0.000000
# 4 0.000000 0.000000 0.000000 0.028992 0.000000 0.030160
# 5 -0.005503 -0.002577 0.004978 0.000000 0.028851 0.000000
# 6 0.000000 0.000000 0.000000 0.030160 0.000000 0.191488
#
#
# Mechanical properties :
#
#
# Convention : Reuss Voigt Hill
#
# Bulk Modulus (GPa) = 52.29593 63.50260 57.89926
# Shear Modulus (GPa) = 14.64789 27.80128 21.22459
#
# Velocity S-wave (km/s) = 2.57066 3.54151 3.09440
# Velocity P-wave (km/s) = 5.69244 6.73585 6.23601
#
# Compressibility (1/GPa) = 0.01912195
#
# Stress axis : x y z
#
# Youngs Moduli (GPa) = 42.28940 69.69442 69.50859
#
# Poissons Ratio (x) = 0.60518 0.14191
# Poissons Ratio (y) = 0.36721 0.41044
# Poissons Ratio (z) = 0.08634 0.41154
#
# Static dielectric constant tensor:
#      x y z
#    x 4.188780 0.000000 0.254740 
#    y 0.000000 4.136100 0.000000 
#    z 0.254740 0.000000 3.995630 
# 
# 
# High freq. dielectric constant tensor:
#      x y z
#    x 1.877970 0.000000 0.016010 
#    y 0.000000 1.879570 0.000000 
#    z 0.016010 0.000000 1.865440 
# 
# From -- ./inp_files/30325.got.cif
#   From: 2010.06.25/outbox.cif.g09.slc.cpg/sg13_16_cif.got.tgz:30325.got - 2010.06.28 04:50:58.
