data_PCOD8120813
_publ_section_title
;
Structure prediction by ZEFSAII (Michael W. Deem and Ramdas Pophale) SiO2 
 PCOD8120813
Probable space group: P 2/C
;
_chemical_formula_sum "Si O2"
_cell_formula_units_Z 22
_cell_length_a 18.684710
_cell_length_b 8.272348
_cell_length_c 10.246977
_cell_angle_alpha 90.000000
_cell_angle_beta 137.680216
_cell_angle_gamma 90.000000
_cell_volume 1066.347623
_symmetry_space_group_name_H-M "P 2/C"
_symmetry_group_IT_number 13
_symmetry_cell_setting 'monoclinic'
loop_
_space_group_symop_operation_xyz
x,y,z
-x,y,1/2-z
-x,-y,-z
x,-y,1/2+z
loop_
_atom_site_type_symbol
_atom_site_label
_atom_site_fract_x
_atom_site_fract_y
_atom_site_fract_z
Si Si1 0.745050 0.910848 0.828584
Si Si2 0.000000 0.621689 0.750000
Si Si3 0.271563 0.665053 0.369548
Si Si4 0.918312 0.876154 0.453819
Si Si5 0.621126 0.033715 0.423710
Si Si6 0.217402 0.547121 0.556233
O O1 0.673368 0.973547 0.850987
O O2 0.781630 0.726950 0.887583
O O3 0.849261 0.025243 0.967345
O O4 0.681194 0.917362 0.606045
O O5 0.990191 0.735919 0.611506
O O6 0.901621 0.504222 0.634004
O O7 0.167736 0.783360 0.254791
O O8 0.373584 0.782569 0.512163
O O9 0.278182 0.539119 0.498821
O O10 0.271630 0.575814 0.231045
O O11 0.000000 0.000000 0.500000
O O12 0.500000 0.977246 0.250000
#
# Coordination Sequence:
#
# PCOD8120813 Si02
#       6
#     4   2   4   4   4   4
#     4  10  23  38  63  90 121 155 203 258 292 359
#     4  10  24  34  56  84 122 172 196 238 286 362
#     4   9  22  40  56  87 120 157 194 255 291 360
#     4  10  23  36  57  87 122 164 206 240 291 350
#     4  10  21  43  65  88 115 155 205 259 308 355
#     4  10  22  38  56  85 125 157 200 238 302 347
#
# _framework density 20.631170999999998
#
# number of rings (size 3 to 8) (size 9 to 14) (size 15 to 20)
#    0.000    2.182    0.000    0.545   12.727    4.364 
#    0.000    4.545    0.000    0.000    0.000    0.000 
#    0.000    0.000    0.000    0.000    0.000    0.000 
#
# Total GULP energy -272688.888435 kJ/mol
# GULP energy per Si atom -12394.949474 kJ/mol
# Density = 2.058421 g / cm^3
# Si number density = 20.631171 Si / 1000 Ang^3
#
#
#
# Elastic Constant Matrix: (Units=GPa)
#
#
# Indices 1 2 3 4 5 6 
#
# 1 89.6815 39.8748 28.9650 0.0000 1.9694 0.0000
# 2 39.8748 86.7238 34.0346 0.0000 1.8253 0.0000
# 3 28.9650 34.0346 87.1668 0.0000 0.1433 0.0000
# 4 0.0000 0.0000 0.0000 31.4590 0.0000 -7.4020
# 5 1.9694 1.8253 0.1433 0.0000 26.3161 0.0000
# 6 0.0000 0.0000 0.0000 -7.4020 0.0000 30.5347
#
#
#
# Elastic Compliance Matrix: (Units=1/GPa)
#
#
# Indices 1 2 3 4 5 6 
#
# 1 0.014517 -0.005630 -0.002624 0.000000 -0.000682 0.000000
# 2 -0.005630 0.015823 -0.004306 0.000000 -0.000653 0.000000
# 3 -0.002624 -0.004306 0.014025 0.000000 0.000419 0.000000
# 4 0.000000 0.000000 0.000000 0.033710 0.000000 0.008172
# 5 -0.000682 -0.000653 0.000419 0.000000 0.038094 0.000000
# 6 0.000000 0.000000 0.000000 0.008172 0.000000 0.034731
#
#
# Mechanical properties :
#
#
# Convention : Reuss Voigt Hill
#
# Bulk Modulus (GPa) = 51.96659 52.14677 52.05668
# Shear Modulus (GPa) = 27.40696 28.37513 27.89104
#
# Velocity S-wave (km/s) = 3.64871 3.71260 3.68079
# Velocity P-wave (km/s) = 6.55697 6.61124 6.58416
#
# Compressibility (1/GPa) = 0.01924313
#
# Stress axis : x y z
#
# Youngs Moduli (GPa) = 68.88709 63.19761 71.30123
#
# Poissons Ratio (x) = 0.35582 0.18711
# Poissons Ratio (y) = 0.38786 0.30704
# Poissons Ratio (z) = 0.18078 0.27215
#
# Static dielectric constant tensor:
#      x y z
#    x 3.550040 0.000000 -0.126370 
#    y 0.000000 3.824020 0.000000 
#    z -0.126370 0.000000 3.996500 
# 
# 
# High freq. dielectric constant tensor:
#      x y z
#    x 1.783270 0.000000 -0.013050 
#    y 0.000000 1.813030 0.000000 
#    z -0.013050 0.000000 1.817780 
# 
# From -- ./inp_files/21263.got.cif
#   From: 2010.06.25/outbox.cif.g09.slc.cpg/sg13_11_cif.got.tgz:21263.got - 2010.06.28 04:50:58.
