data_PCOD8120910
_publ_section_title
;
Structure prediction by ZEFSAII (Michael W. Deem and Ramdas Pophale) SiO2 
 PCOD8120910
Probable space group: P 2/C
;
_chemical_formula_sum "Si O2"
_cell_formula_units_Z 30
_cell_length_a 15.962544
_cell_length_b 12.053203
_cell_length_c 9.225738
_cell_angle_alpha 90.000000
_cell_angle_beta 121.972878
_cell_angle_gamma 90.000000
_cell_volume 1505.755897
_symmetry_space_group_name_H-M "P 2/C"
_symmetry_group_IT_number 13
_symmetry_cell_setting 'monoclinic'
loop_
_space_group_symop_operation_xyz
x,y,z
-x,y,1/2-z
-x,-y,-z
x,-y,1/2+z
loop_
_atom_site_type_symbol
_atom_site_label
_atom_site_fract_x
_atom_site_fract_y
_atom_site_fract_z
Si Si1 0.219782 0.258027 0.806543
Si Si2 0.115458 0.091057 0.525499
Si Si3 0.859593 0.463497 0.877192
Si Si4 0.000000 0.513126 0.750000
Si Si5 0.387043 0.122182 0.317940
Si Si6 0.886503 0.108991 0.294762
Si Si7 0.389397 0.098127 0.985938
Si Si8 0.785030 0.289880 0.359774
O O1 0.130246 0.193673 0.647255
O O2 0.227876 0.377849 0.737367
O O3 0.320261 0.195077 0.862246
O O4 0.197807 0.269820 0.955715
O O5 0.164210 0.104751 0.410963
O O6 0.000290 0.078928 0.390736
O O7 0.163278 0.981939 0.644225
O O8 0.938646 0.447230 0.817431
O O9 0.802349 0.580858 0.838494
O O10 0.916198 0.424186 0.077494
O O11 0.375913 0.082898 0.143752
O O12 0.502222 0.142783 0.458618
O O13 0.320715 0.233899 0.285506
O O14 0.355222 0.018946 0.388043
O O15 0.870985 0.229842 0.348627
#
# Coordination Sequence:
#
# PCOD8120910 Si02
#       8
#     4   4   4   2   4   4   4   4
#     4  11  23  37  57  83 113 148 193 240 286 343
#     4  10  22  36  53  78 111 148 185 229 286 344
#     4  11  24  40  59  86 114 156 201 242 291 338
#     4  10  24  42  60  78 116 158 204 242 282 338
#     4   9  19  38  62  87 115 148 186 233 291 350
#     4  10  22  36  53  78 111 148 185 229 286 344
#     4   9  19  38  62  87 115 148 186 233 291 350
#     4  11  23  37  57  83 113 148 193 240 286 343
#
# _framework density 19.923549000000001
#
# number of rings (size 3 to 8) (size 9 to 14) (size 15 to 20)
#    0.000    1.867    1.333    1.600    5.600    4.800 
#    0.000    0.667    0.000    0.000    0.000    0.000 
#    0.000    0.000    0.000    0.000    0.000    0.000 
#
# Total GULP energy -371659.708627 kJ/mol
# GULP energy per Si atom -12388.656954 kJ/mol
# Density = 1.987820 g / cm^3
# Si number density = 19.923549 Si / 1000 Ang^3
#
#
#
# Elastic Constant Matrix: (Units=GPa)
#
#
# Indices 1 2 3 4 5 6 
#
# 1 69.9036 41.1148 45.3536 0.0000 -2.9408 0.0000
# 2 41.1148 138.4943 65.7290 0.0000 -5.8706 0.0000
# 3 45.3536 65.7290 120.2793 0.0000 -8.4077 0.0000
# 4 0.0000 0.0000 0.0000 33.2951 0.0000 -1.2414
# 5 -2.9408 -5.8706 -8.4077 0.0000 23.3482 0.0000
# 6 0.0000 0.0000 0.0000 -1.2414 0.0000 16.4755
#
#
#
# Elastic Compliance Matrix: (Units=1/GPa)
#
#
# Indices 1 2 3 4 5 6 
#
# 1 0.019923 -0.003177 -0.005803 0.000000 -0.000379 0.000000
# 2 -0.003177 0.010262 -0.004368 0.000000 0.000607 0.000000
# 3 -0.005803 -0.004368 0.013091 0.000000 0.002885 0.000000
# 4 0.000000 0.000000 0.000000 0.030119 0.000000 0.002269
# 5 -0.000379 0.000607 0.002885 0.000000 0.043974 0.000000
# 6 0.000000 0.000000 0.000000 0.002269 0.000000 0.060867
#
#
# Mechanical properties :
#
#
# Convention : Reuss Voigt Hill
#
# Bulk Modulus (GPa) = 60.30922 70.34133 65.32528
# Shear Modulus (GPa) = 23.75788 26.38909 25.07349
#
# Velocity S-wave (km/s) = 3.45694 3.64334 3.55136
# Velocity P-wave (km/s) = 6.80220 7.28566 7.04808
#
# Compressibility (1/GPa) = 0.01658121
#
# Stress axis : x y z
#
# Youngs Moduli (GPa) = 50.19403 97.44507 76.39097
#
# Poissons Ratio (x) = 0.30953 0.44329
# Poissons Ratio (y) = 0.15944 0.33366
# Poissons Ratio (z) = 0.29127 0.42562
#
# Static dielectric constant tensor:
#      x y z
#    x 3.618820 0.000000 -0.095200 
#    y 0.000000 3.555800 0.000000 
#    z -0.095200 0.000000 4.071550 
# 
# 
# High freq. dielectric constant tensor:
#      x y z
#    x 1.764580 0.000000 -0.009520 
#    y 0.000000 1.760440 0.000000 
#    z -0.009520 0.000000 1.795670 
# 
# From -- ./inp_files/21743.got.cif
#   From: 2010.06.25/outbox.cif.g09.slc.cpg/sg13_11_cif.got.tgz:21743.got - 2010.06.28 04:50:58.
