data_PCOD8120238
_publ_section_title
;
Structure prediction by ZEFSAII (Michael W. Deem and Ramdas Pophale) SiO2 
 PCOD8120238
Probable space group: P 2/C
;
_chemical_formula_sum "Si O2"
_cell_formula_units_Z 32
_cell_length_a 21.154599
_cell_length_b 8.746126
_cell_length_c 27.455800
_cell_angle_alpha 90.000000
_cell_angle_beta 18.172412
_cell_angle_gamma 90.000000
_cell_volume 1584.304411
_symmetry_space_group_name_H-M "P 2/C"
_symmetry_group_IT_number 13
_symmetry_cell_setting 'monoclinic'
loop_
_space_group_symop_operation_xyz
x,y,z
-x,y,1/2-z
-x,-y,-z
x,-y,1/2+z
loop_
_atom_site_type_symbol
_atom_site_label
_atom_site_fract_x
_atom_site_fract_y
_atom_site_fract_z
Si Si1 0.685041 0.718086 0.647111
Si Si2 0.035084 0.628318 0.134756
Si Si3 0.430735 0.454385 0.401278
Si Si4 0.643912 0.543944 0.938497
Si Si5 0.182979 0.070326 0.722381
Si Si6 0.781691 0.939916 0.047384
Si Si7 0.511199 0.801928 0.316523
Si Si8 0.514415 0.127400 0.555497
O O1 0.500000 0.659230 0.750000
O O2 0.883099 0.631668 0.480975
O O3 0.620922 0.656390 0.747503
O O4 0.712865 0.899062 0.621663
O O5 0.876694 0.491572 0.255636
O O6 0.928053 0.790609 0.223388
O O7 0.214977 0.611385 0.041886
O O8 0.432025 0.452626 0.458588
O O9 0.457105 0.624156 0.360153
O O10 0.500000 0.500000 0.000000
O O11 0.640669 0.722502 0.950506
O O12 0.300123 0.127324 0.684700
O O13 0.343151 0.010846 0.565627
O O14 0.018989 0.943239 0.859912
O O15 0.725839 0.816312 0.130269
O O16 0.658593 0.896872 0.088784
O O17 0.531381 0.883234 0.353885
#
# Coordination Sequence:
#
# PCOD8120238 Si02
#       8
#     4   4   4   4   4   4   4   4
#     4   9  18  37  58  88 120 149 193 255 297 355
#     4  10  21  38  63  88 118 157 203 252 296 360
#     4  10  23  38  64  91 119 159 206 247 306 364
#     4  11  22  42  61  88 125 162 202 253 303 359
#     4  10  22  42  62  88 121 163 205 247 307 357
#     4  10  21  38  60  89 119 155 200 249 303 359
#     4  10  22  38  61  92 122 156 199 251 311 360
#     4  10  23  42  60  86 126 163 201 252 302 370
#
# _framework density 20.198139000000001
#
# number of rings (size 3 to 8) (size 9 to 14) (size 15 to 20)
#    0.000    2.000    2.500    0.375    7.000    2.000 
#    4.500    0.625    0.000    0.000    0.000    0.000 
#    0.000    0.000    0.000    0.000    0.000    0.000 
#
# Total GULP energy -396683.917752 kJ/mol
# GULP energy per Si atom -12396.372430 kJ/mol
# Density = 2.015217 g / cm^3
# Si number density = 20.198139 Si / 1000 Ang^3
#
#
#
# Elastic Constant Matrix: (Units=GPa)
#
#
# Indices 1 2 3 4 5 6 
#
# 1 120.9705 40.0875 29.2941 0.0000 16.5071 0.0000
# 2 40.0875 67.8039 23.3391 0.0000 2.0511 0.0000
# 3 29.2941 23.3391 68.9077 0.0000 4.8020 0.0000
# 4 0.0000 0.0000 0.0000 43.5216 0.0000 2.1564
# 5 16.5071 2.0511 4.8020 0.0000 18.7975 0.0000
# 6 0.0000 0.0000 0.0000 2.1564 0.0000 26.6228
#
#
#
# Elastic Compliance Matrix: (Units=1/GPa)
#
#
# Indices 1 2 3 4 5 6 
#
# 1 0.012147 -0.006051 -0.002461 0.000000 -0.009378 0.000000
# 2 -0.006051 0.019712 -0.004403 0.000000 0.004288 0.000000
# 3 -0.002461 -0.004403 0.017171 0.000000 -0.001745 0.000000
# 4 0.000000 0.000000 0.000000 0.023070 0.000000 -0.001869
# 5 -0.009378 0.004288 -0.001745 0.000000 0.061412 0.000000
# 6 0.000000 0.000000 0.000000 -0.001869 0.000000 0.037713
#
#
# Mechanical properties :
#
#
# Convention : Reuss Voigt Hill
#
# Bulk Modulus (GPa) = 43.10226 49.23595 46.16910
# Shear Modulus (GPa) = 24.41545 28.78582 26.60064
#
# Velocity S-wave (km/s) = 3.48055 3.77924 3.63297
# Velocity P-wave (km/s) = 6.12685 6.59340 6.36440
#
# Compressibility (1/GPa) = 0.02320064
#
# Stress axis : x y z
#
# Youngs Moduli (GPa) = 82.32240 50.73125 58.23696
#
# Poissons Ratio (x) = 0.30697 0.14332
# Poissons Ratio (y) = 0.49813 0.25640
# Poissons Ratio (z) = 0.20260 0.22336
#
# Static dielectric constant tensor:
#      x y z
#    x 3.676190 0.000000 0.256790 
#    y 0.000000 3.807860 0.000000 
#    z 0.256790 0.000000 4.000860 
# 
# 
# High freq. dielectric constant tensor:
#      x y z
#    x 1.771270 0.000000 0.013410 
#    y 0.000000 1.789240 0.000000 
#    z 0.013410 0.000000 1.800060 
# 
# From -- ./inp_files/93568.got.cif
#   From: 2010.06.25/outbox.cif.g09.slc.cpg/sg13_47_cif.got.tgz:93568.got - 2010.06.28 04:50:58.
