data_PCOD8120704
_publ_section_title
;
Structure prediction by ZEFSAII (Michael W. Deem and Ramdas Pophale) SiO2 
 PCOD8120704
Probable space group: P 2/C
;
_chemical_formula_sum "Si O2"
_cell_formula_units_Z 26
_cell_length_a 20.963856
_cell_length_b 5.287314
_cell_length_c 12.781590
_cell_angle_alpha 90.000000
_cell_angle_beta 61.311919
_cell_angle_gamma 90.000000
_cell_volume 1242.832414
_symmetry_space_group_name_H-M "P 2/C"
_symmetry_group_IT_number 13
_symmetry_cell_setting 'monoclinic'
loop_
_space_group_symop_operation_xyz
x,y,z
-x,y,1/2-z
-x,-y,-z
x,-y,1/2+z
loop_
_atom_site_type_symbol
_atom_site_label
_atom_site_fract_x
_atom_site_fract_y
_atom_site_fract_z
Si Si1 0.975830 0.253867 0.151550
Si Si2 0.309135 0.196525 0.092540
Si Si3 0.745123 0.677952 0.264018
Si Si4 0.639719 0.228846 0.671304
Si Si5 0.556331 0.145966 0.384639
Si Si6 0.500000 0.534891 0.750000
Si Si7 0.910470 0.753702 0.117866
O O1 0.936263 0.523118 0.170874
O O2 0.000000 0.216201 0.250000
O O3 0.922371 0.022298 0.165335
O O4 0.047889 0.248029 0.024548
O O5 0.257046 0.437442 0.155844
O O6 0.386918 0.276901 0.081427
O O7 0.279381 0.936358 0.162320
O O8 0.314143 0.139485 0.965052
O O9 0.693332 0.615657 0.205528
O O10 0.826172 0.717288 0.158311
O O11 0.574170 0.387311 0.675578
O O12 0.603998 0.002805 0.762830
O O13 0.505436 0.325650 0.356596
O O14 0.500000 0.000000 0.500000
#
# Coordination Sequence:
#
# PCOD8120704 Si02
#       7
#     4   4   4   4   4   2   4
#     4  10  21  41  69 101 130 170 214 263 313 377
#     4  11  25  43  64  90 130 171 217 269 327 391
#     4  11  25  44  63  95 135 174 211 266 327 385
#     4  11  26  41  62  95 123 169 224 270 327 393
#     4  11  24  41  63  92 122 166 220 286 334 381
#     4  12  22  40  68  88 120 168 224 276 330 382
#     4  10  22  40  66  99 135 168 216 261 314 387
#
# _framework density 20.919958000000001
#
# number of rings (size 3 to 8) (size 9 to 14) (size 15 to 20)
#    0.000    1.231    1.538    3.692    6.462    3.692 
#    0.000    0.000    0.000    0.000    0.000    0.000 
#    0.000    0.000    0.000    0.000    0.000    0.000 
#
# Total GULP energy -322333.614425 kJ/mol
# GULP energy per Si atom -12397.446709 kJ/mol
# Density = 2.087234 g / cm^3
# Si number density = 20.919958 Si / 1000 Ang^3
#
#
#
# Elastic Constant Matrix: (Units=GPa)
#
#
# Indices 1 2 3 4 5 6 
#
# 1 80.0703 17.7616 47.8056 0.0000 -13.1099 0.0000
# 2 17.7616 111.9604 34.3149 0.0000 -3.4283 0.0000
# 3 47.8056 34.3149 107.9174 0.0000 7.9939 0.0000
# 4 0.0000 0.0000 0.0000 29.1595 0.0000 -0.4295
# 5 -13.1099 -3.4283 7.9939 0.0000 33.2029 0.0000
# 6 0.0000 0.0000 0.0000 -0.4295 0.0000 28.7487
#
#
#
# Elastic Compliance Matrix: (Units=1/GPa)
#
#
# Indices 1 2 3 4 5 6 
#
# 1 0.019846 0.000097 -0.009574 0.000000 0.010151 0.000000
# 2 0.000097 0.010005 -0.003364 0.000000 0.001881 0.000000
# 3 -0.009574 -0.003364 0.015153 0.000000 -0.007776 0.000000
# 4 0.000000 0.000000 0.000000 0.034302 0.000000 0.000512
# 5 0.010151 0.001881 -0.007776 0.000000 0.036192 0.000000
# 6 0.000000 0.000000 0.000000 0.000512 0.000000 0.034792
#
#
# Mechanical properties :
#
#
# Convention : Reuss Voigt Hill
#
# Bulk Modulus (GPa) = 51.75423 55.52361 53.63892
# Shear Modulus (GPa) = 27.41057 31.55996 29.48526
#
# Velocity S-wave (km/s) = 3.62368 3.88829 3.75831
# Velocity P-wave (km/s) = 6.50392 6.83791 6.67300
#
# Compressibility (1/GPa) = 0.01932209
#
# Stress axis : x y z
#
# Youngs Moduli (GPa) = 50.38877 99.95149 65.99362
#
# Poissons Ratio (x) = -0.00968 0.63182
# Poissons Ratio (y) = -0.00488 0.22197
# Poissons Ratio (z) = 0.48242 0.33619
#
# Static dielectric constant tensor:
#      x y z
#    x 3.847500 0.000000 -0.031130 
#    y 0.000000 3.918500 0.000000 
#    z -0.031130 0.000000 3.703000 
# 
# 
# High freq. dielectric constant tensor:
#      x y z
#    x 1.819500 0.000000 0.001870 
#    y 0.000000 1.823400 0.000000 
#    z 0.001870 0.000000 1.828950 
# 
# From -- ./inp_files/39812.got.cif
#   From: 2010.06.25/outbox.cif.g09.slc.cpg/sg13_20_cif.got.tgz:39812.got - 2010.06.28 04:50:58.
