data_PCOD8120597
_publ_section_title
;
Structure prediction by ZEFSAII (Michael W. Deem and Ramdas Pophale) SiO2 
 PCOD8120597
Probable space group: P 2/C
;
_chemical_formula_sum "Si O2"
_cell_formula_units_Z 30
_cell_length_a 11.544225
_cell_length_b 9.020056
_cell_length_c 27.628510
_cell_angle_alpha 90.000000
_cell_angle_beta 150.612305
_cell_angle_gamma 90.000000
_cell_volume 1411.764522
_symmetry_space_group_name_H-M "P 2/C"
_symmetry_group_IT_number 13
_symmetry_cell_setting 'monoclinic'
loop_
_space_group_symop_operation_xyz
x,y,z
-x,y,1/2-z
-x,-y,-z
x,-y,1/2+z
loop_
_atom_site_type_symbol
_atom_site_label
_atom_site_fract_x
_atom_site_fract_y
_atom_site_fract_z
Si Si1 0.501958 0.653698 0.092691
Si Si2 0.117464 0.392461 0.610940
Si Si3 0.680975 0.834839 0.745428
Si Si4 0.354017 0.567380 0.617521
Si Si5 0.339376 0.045139 0.581046
Si Si6 0.000000 0.432158 0.750000
Si Si7 0.939691 0.603121 0.629832
Si Si8 0.147140 0.065690 0.618668
O O1 0.501388 0.515725 0.129540
O O2 0.408008 0.798249 0.084497
O O3 0.772209 0.673098 0.174190
O O4 0.331697 0.622005 0.985083
O O5 0.321360 0.459887 0.651443
O O6 0.190816 0.229722 0.657078
O O7 0.890291 0.374448 0.493644
O O8 0.076930 0.498384 0.641843
O O9 0.494207 0.706788 0.689307
O O10 0.930837 0.763241 0.821217
O O11 0.567674 0.937193 0.661832
O O12 0.704006 0.941101 0.799941
O O13 0.236794 0.070253 0.596882
O O14 0.128635 0.971345 0.474031
O O15 0.056184 0.536191 0.815664
#
# Coordination Sequence:
#
# PCOD8120597 Si02
#       8
#     4   4   4   4   4   2   4   4
#     4  11  23  48  71 101 137 185 232 294 344 413
#     4  10  22  40  67 102 140 182 221 287 349 427
#     4  12  24  40  65 103 142 185 220 280 346 426
#     4  10  21  40  69 101 140 177 233 279 350 421
#     4  11  24  40  64 103 147 182 218 277 350 426
#     4  12  26  48  74  98 132 186 250 294 336 390
#     4  11  26  44  74 100 132 179 242 296 347 401
#     4  11  23  39  65 102 152 185 215 267 357 434
#
# _framework density 21.250001000000001
#
# number of rings (size 3 to 8) (size 9 to 14) (size 15 to 20)
#    0.000    1.067    5.333    0.800    5.600    0.000 
#    2.400    0.667    0.000    2.400    0.000    0.000 
#    0.000    0.000    0.000    0.000    0.000    0.000 
#
# Total GULP energy -372032.303535 kJ/mol
# GULP energy per Si atom -12401.076784 kJ/mol
# Density = 2.120164 g / cm^3
# Si number density = 21.250001 Si / 1000 Ang^3
#
#
#
# Elastic Constant Matrix: (Units=GPa)
#
#
# Indices 1 2 3 4 5 6 
#
# 1 76.1100 25.6673 47.5711 0.0000 -2.3029 0.0000
# 2 25.6673 119.8304 42.2873 0.0000 -13.4556 0.0000
# 3 47.5711 42.2873 112.4400 0.0000 -9.1421 0.0000
# 4 0.0000 0.0000 0.0000 48.2652 0.0000 2.6675
# 5 -2.3029 -13.4556 -9.1421 0.0000 27.3523 0.0000
# 6 0.0000 0.0000 0.0000 2.6675 0.0000 21.7020
#
#
#
# Elastic Compliance Matrix: (Units=1/GPa)
#
#
# Indices 1 2 3 4 5 6 
#
# 1 0.018118 -0.001513 -0.007229 0.000000 -0.001635 0.000000
# 2 -0.001513 0.010111 -0.002846 0.000000 0.003895 0.000000
# 3 -0.007229 -0.002846 0.013218 0.000000 0.002409 0.000000
# 4 0.000000 0.000000 0.000000 0.020861 0.000000 -0.002564
# 5 -0.001635 0.003895 0.002409 0.000000 0.039144 0.000000
# 6 0.000000 0.000000 0.000000 -0.002564 0.000000 0.046394
#
#
# Mechanical properties :
#
#
# Convention : Reuss Voigt Hill
#
# Bulk Modulus (GPa) = 54.73150 59.93687 57.33418
# Shear Modulus (GPa) = 28.23060 32.32086 30.27573
#
# Velocity S-wave (km/s) = 3.64881 3.90421 3.77867
# Velocity P-wave (km/s) = 6.60028 6.97070 6.78801
#
# Compressibility (1/GPa) = 0.01827102
#
# Stress axis : x y z
#
# Youngs Moduli (GPa) = 55.19289 98.90332 75.65268
#
# Poissons Ratio (x) = 0.14967 0.54692
# Poissons Ratio (y) = 0.08353 0.21528
# Poissons Ratio (z) = 0.39901 0.28144
#
# Static dielectric constant tensor:
#      x y z
#    x 3.470140 0.000000 0.058790 
#    y 0.000000 3.964990 0.000000 
#    z 0.058790 0.000000 4.362390 
# 
# 
# High freq. dielectric constant tensor:
#      x y z
#    x 1.790510 0.000000 0.001930 
#    y 0.000000 1.840310 0.000000 
#    z 0.001930 0.000000 1.864530 
# 
# From -- ./inp_files/96639.got.cif
#   From: 2010.06.25/outbox.cif.g09.slc.cpg/sg13_49_cif.got.tgz:96639.got - 2010.06.28 04:50:58.
