data_PCOD8120547
_publ_section_title
;
Structure prediction by ZEFSAII (Michael W. Deem and Ramdas Pophale) SiO2 
 PCOD8120547
Probable space group: P 2/C
;
_chemical_formula_sum "Si O2"
_cell_formula_units_Z 14
_cell_length_a 5.299526
_cell_length_b 16.266446
_cell_length_c 8.661862
_cell_angle_alpha 90.000000
_cell_angle_beta 60.527125
_cell_angle_gamma 90.000000
_cell_volume 650.060833
_symmetry_space_group_name_H-M "P 2/C"
_symmetry_group_IT_number 13
_symmetry_cell_setting 'monoclinic'
loop_
_space_group_symop_operation_xyz
x,y,z
-x,y,1/2-z
-x,-y,-z
x,-y,1/2+z
loop_
_atom_site_type_symbol
_atom_site_label
_atom_site_fract_x
_atom_site_fract_y
_atom_site_fract_z
Si Si1 0.835826 0.569447 0.140158
Si Si2 0.784592 0.887569 0.590530
Si Si3 0.000000 0.977048 0.250000
Si Si4 0.165161 0.247670 0.863636
O O1 0.500000 0.543209 0.250000
O O2 0.858537 0.660348 0.057264
O O3 0.000000 0.575289 0.250000
O O4 0.000000 0.500000 0.000000
O O5 0.500000 0.845661 0.750000
O O6 0.774930 0.919408 0.414814
O O7 0.029558 0.817020 0.526206
O O8 0.826939 0.967284 0.683565
O O9 0.500000 0.222955 0.750000
O O10 0.000000 0.242221 0.750000
#
# Coordination Sequence:
#
# PCOD8120547 Si02
#       4
#     4   4   2   4
#     4  10  21  40  64  94 127 169 205 258 312 371
#     4  11  23  40  64  91 123 169 216 260 322 377
#     4  10  24  40  60  92 128 158 218 270 318 368
#     4  10  23  42  64  90 132 168 207 262 321 370
#
# _framework density 21.536443999999999
#
# number of rings (size 3 to 8) (size 9 to 14) (size 15 to 20)
#    0.000    1.714    1.429    1.714    4.000    5.714 
#    2.571    0.000    0.000    0.000    0.000    0.000 
#    0.000    0.000    0.000    0.000    0.000    0.000 
#
# Total GULP energy -173455.169430 kJ/mol
# GULP energy per Si atom -12389.654959 kJ/mol
# Density = 2.148743 g / cm^3
# Si number density = 21.536444 Si / 1000 Ang^3
#
#
#
# Elastic Constant Matrix: (Units=GPa)
#
#
# Indices 1 2 3 4 5 6 
#
# 1 121.2291 36.0537 54.4153 0.0000 -32.4020 0.0000
# 2 36.0537 163.3370 94.6578 0.0000 -34.5360 0.0000
# 3 54.4153 94.6578 165.0145 0.0000 -36.1381 0.0000
# 4 0.0000 0.0000 0.0000 21.9472 0.0000 -17.5139
# 5 -32.4020 -34.5360 -36.1381 0.0000 41.8033 0.0000
# 6 0.0000 0.0000 0.0000 -17.5139 0.0000 23.7544
#
#
#
# Elastic Compliance Matrix: (Units=1/GPa)
#
#
# Indices 1 2 3 4 5 6 
#
# 1 0.011015 0.000373 -0.002355 0.000000 0.006811 0.000000
# 2 0.000373 0.009683 -0.004764 0.000000 0.004170 0.000000
# 3 -0.002355 -0.004764 0.010248 0.000000 0.003098 0.000000
# 4 0.000000 0.000000 0.000000 0.110688 0.000000 0.081609
# 5 0.006811 0.004170 0.003098 0.000000 0.035324 0.000000
# 6 0.000000 0.000000 0.000000 0.081609 0.000000 0.102267
#
#
# Mechanical properties :
#
#
# Convention : Reuss Voigt Hill
#
# Bulk Modulus (GPa) = 57.29267 91.09268 74.19268
# Shear Modulus (GPa) = 16.74853 35.13124 25.93988
#
# Velocity S-wave (km/s) = 2.79172 4.04325 3.47430
# Velocity P-wave (km/s) = 6.08704 8.01162 7.11470
#
# Compressibility (1/GPa) = 0.01745424
#
# Stress axis : x y z
#
# Youngs Moduli (GPa) = 90.78351 103.27859 97.58046
#
# Poissons Ratio (x) = -0.03857 0.22981
# Poissons Ratio (y) = -0.03390 0.46488
# Poissons Ratio (z) = 0.21380 0.49203
#
# Static dielectric constant tensor:
#      x y z
#    x 3.937590 0.000000 -0.008690 
#    y 0.000000 4.915090 0.000000 
#    z -0.008690 0.000000 4.109170 
# 
# 
# High freq. dielectric constant tensor:
#      x y z
#    x 1.838520 0.000000 -0.010580 
#    y 0.000000 1.864730 0.000000 
#    z -0.010580 0.000000 1.834500 
# 
# From -- ./inp_files/8723.got.cif
#   From: 2010.06.25/outbox.cif.g09.slc.cpg/sg13_5_cif.got.tgz:8723.got - 2010.06.28 04:50:58.
