data_PCOD8120765
_publ_section_title
;
Structure prediction by ZEFSAII (Michael W. Deem and Ramdas Pophale) SiO2 
 PCOD8120765
Probable space group: P 2/C
;
_chemical_formula_sum "Si O2"
_cell_formula_units_Z 20
_cell_length_a 8.503296
_cell_length_b 12.011930
_cell_length_c 9.956792
_cell_angle_alpha 90.000000
_cell_angle_beta 80.759790
_cell_angle_gamma 90.000000
_cell_volume 1003.799921
_symmetry_space_group_name_H-M "P 2/C"
_symmetry_group_IT_number 13
_symmetry_cell_setting 'monoclinic'
loop_
_space_group_symop_operation_xyz
x,y,z
-x,y,1/2-z
-x,-y,-z
x,-y,1/2+z
loop_
_atom_site_type_symbol
_atom_site_label
_atom_site_fract_x
_atom_site_fract_y
_atom_site_fract_z
Si Si1 0.703128 0.816053 0.334440
Si Si2 0.186235 0.578162 0.220861
Si Si3 0.105017 0.017208 0.113921
Si Si4 0.336560 0.433865 0.992311
Si Si5 0.362076 0.822233 0.465368
O O1 0.729134 0.685410 0.357396
O O2 0.547348 0.857021 0.437438
O O3 0.699190 0.833671 0.176469
O O4 0.846294 0.890860 0.364251
O O5 0.269846 0.547242 0.350820
O O6 0.000000 0.604692 0.250000
O O7 0.206775 0.476004 0.116432
O O8 0.000000 0.067011 0.250000
O O9 0.257156 0.098076 0.074557
O O10 0.000000 0.000000 0.000000
O O11 0.353200 0.303546 0.019464
O O12 0.500000 0.500000 0.000000
#
# Coordination Sequence:
#
# PCOD8120765 Si02
#       5
#     4   4   4   4   4
#     4  10  21  42  67  91 127 177 220 258 331 406
#     4  11  23  40  67  96 131 176 221 276 336 396
#     4  12  24  43  65  97 133 168 216 274 330 388
#     4  11  22  43  65  98 132 171 221 272 331 397
#     4  10  22  41  68  93 129 174 218 264 329 399
#
# _framework density 19.924288000000001
#
# number of rings (size 3 to 8) (size 9 to 14) (size 15 to 20)
#    0.000    1.200    4.000    2.400    2.800    0.800 
#    3.600    0.000    0.000    0.000    0.000    0.000 
#    0.000    0.000    0.000    0.000    0.000    0.000 
#
# Total GULP energy -247948.533549 kJ/mol
# GULP energy per Si atom -12397.426677 kJ/mol
# Density = 1.987894 g / cm^3
# Si number density = 19.924288 Si / 1000 Ang^3
#
#
#
# Elastic Constant Matrix: (Units=GPa)
#
#
# Indices 1 2 3 4 5 6 
#
# 1 119.9345 42.3607 53.5907 0.0000 3.9873 0.0000
# 2 42.3607 95.6224 60.1866 0.0000 0.2439 0.0000
# 3 53.5907 60.1866 104.1020 0.0000 -16.1129 0.0000
# 4 0.0000 0.0000 0.0000 34.9331 0.0000 -3.6369
# 5 3.9873 0.2439 -16.1129 0.0000 31.2477 0.0000
# 6 0.0000 0.0000 0.0000 -3.6369 0.0000 39.6676
#
#
#
# Elastic Compliance Matrix: (Units=1/GPa)
#
#
# Indices 1 2 3 4 5 6 
#
# 1 0.011604 -0.001468 -0.005816 0.000000 -0.004468 0.000000
# 2 -0.001468 0.017533 -0.010186 0.000000 -0.005202 0.000000
# 3 -0.005816 -0.010186 0.020231 0.000000 0.011254 0.000000
# 4 0.000000 0.000000 0.000000 0.028902 0.000000 0.002650
# 5 -0.004468 -0.005202 0.011254 0.000000 0.038416 0.000000
# 6 0.000000 0.000000 0.000000 0.002650 0.000000 0.025452
#
#
# Mechanical properties :
#
#
# Convention : Reuss Voigt Hill
#
# Bulk Modulus (GPa) = 69.31568 70.21499 69.76534
# Shear Modulus (GPa) = 27.48945 32.07107 29.78026
#
# Velocity S-wave (km/s) = 3.71845 4.01639 3.87029
# Velocity P-wave (km/s) = 7.30075 7.53830 7.42047
#
# Compressibility (1/GPa) = 0.01442675
#
# Stress axis : x y z
#
# Youngs Moduli (GPa) = 86.17739 57.03648 49.42912
#
# Poissons Ratio (x) = 0.08374 0.28750
# Poissons Ratio (y) = 0.12653 0.50348
# Poissons Ratio (z) = 0.50124 0.58096
#
# Static dielectric constant tensor:
#      x y z
#    x 3.751420 0.000000 -0.157280 
#    y 0.000000 3.906170 0.000000 
#    z -0.157280 0.000000 3.649630 
# 
# 
# High freq. dielectric constant tensor:
#      x y z
#    x 1.793990 0.000000 -0.009040 
#    y 0.000000 1.780850 0.000000 
#    z -0.009040 0.000000 1.770270 
# 
# From -- ./inp_files/11648.got.cif
#   From: 2010.06.25/outbox.cif.g09.slc.cpg/sg13_6_cif.got.tgz:11648.got - 2010.06.28 04:50:58.
