data_PCOD8120980
_publ_section_title
;
Structure prediction by ZEFSAII (Michael W. Deem and Ramdas Pophale) SiO2 
 PCOD8120980
Probable space group: P 2/C
;
_chemical_formula_sum "Si O2"
_cell_formula_units_Z 32
_cell_length_a 21.157101
_cell_length_b 13.612858
_cell_length_c 9.533559
_cell_angle_alpha 90.000000
_cell_angle_beta 37.910192
_cell_angle_gamma 90.000000
_cell_volume 1687.057183
_symmetry_space_group_name_H-M "P 2/C"
_symmetry_group_IT_number 13
_symmetry_cell_setting 'monoclinic'
loop_
_space_group_symop_operation_xyz
x,y,z
-x,y,1/2-z
-x,-y,-z
x,-y,1/2+z
loop_
_atom_site_type_symbol
_atom_site_label
_atom_site_fract_x
_atom_site_fract_y
_atom_site_fract_z
Si Si1 0.752753 0.392151 0.851797
Si Si2 0.232324 0.894209 0.766732
Si Si3 0.212670 0.090019 0.627402
Si Si4 0.063612 0.249342 0.001249
Si Si5 0.402522 0.771593 0.829608
Si Si6 0.078238 0.725328 0.998148
Si Si7 0.763205 0.585148 0.660118
Si Si8 0.403638 0.751060 0.513223
O O1 0.847393 0.328602 0.626506
O O2 0.735634 0.482001 0.777485
O O3 0.647037 0.330535 0.031487
O O4 0.774999 0.426215 0.972094
O O5 0.160591 0.810184 0.828784
O O6 0.348606 0.851727 0.558871
O O7 0.218011 0.985068 0.689806
O O8 0.203416 0.922334 0.976525
O O9 0.112612 0.149545 0.853835
O O10 0.315805 0.145590 0.491446
O O11 0.000000 0.221823 0.250000
O O12 0.982142 0.297780 0.038100
O O13 0.500000 0.802530 0.750000
O O14 0.444451 0.763171 0.598982
O O15 0.129950 0.624991 0.963571
O O16 0.000000 0.766119 0.250000
O O17 0.674827 0.661105 0.855363
O O18 0.500000 0.725321 0.250000
#
# Coordination Sequence:
#
# PCOD8120980 Si02
#       8
#     4   4   4   4   4   4   4   4
#     4  10  22  40  57  85 117 146 190 234 280 333
#     4  10  22  38  60  84 115 150 187 234 279 335
#     4  10  22  40  57  85 117 146 190 234 280 333
#     4  11  24  39  57  84 116 150 192 234 276 333
#     4   9  20  40  61  80 114 150 183 233 283 333
#     4  11  20  41  59  78 116 156 186 227 287 329
#     4  10  22  38  60  84 115 150 187 234 279 335
#     4   9  20  40  59  83 114 148 185 229 286 337
#
# _framework density 18.967939000000001
#
# number of rings (size 3 to 8) (size 9 to 14) (size 15 to 20)
#    0.000    2.000    2.500    1.500    3.500    5.000 
#    4.500    5.000    0.000    0.000    0.000    0.000 
#    0.000    0.000    0.000    0.000    0.000    0.000 
#
# Total GULP energy -396829.939201 kJ/mol
# GULP energy per Si atom -12400.935600 kJ/mol
# Density = 1.892477 g / cm^3
# Si number density = 18.967939 Si / 1000 Ang^3
#
#
#
# Elastic Constant Matrix: (Units=GPa)
#
#
# Indices 1 2 3 4 5 6 
#
# 1 48.1810 -21.4471 16.7688 0.0000 -4.9880 0.0000
# 2 -21.4471 52.9026 10.2083 0.0000 10.4734 0.0000
# 3 16.7688 10.2083 94.2094 0.0000 -0.5090 0.0000
# 4 0.0000 0.0000 0.0000 15.0018 0.0000 12.6415
# 5 -4.9880 10.4734 -0.5090 0.0000 18.1547 0.0000
# 6 0.0000 0.0000 0.0000 12.6415 0.0000 10.0974
#
#
#
# Elastic Compliance Matrix: (Units=1/GPa)
#
#
# Indices 1 2 3 4 5 6 
#
# 1 0.028781 0.012865 -0.006515 0.000000 0.000303 0.000000
# 2 0.012865 0.027638 -0.005353 0.000000 -0.012560 0.000000
# 3 -0.006515 -0.005353 0.012363 0.000000 0.001644 0.000000
# 4 0.000000 0.000000 0.000000 -1.212556 0.000000 1.518060
# 5 0.000303 -0.012560 0.001644 0.000000 0.062457 0.000000
# 6 0.000000 0.000000 0.000000 1.518060 0.000000 -1.801501
#
#
# Mechanical properties :
#
#
# Convention : Reuss Voigt Hill
#
# Bulk Modulus (GPa) = 14.12899 22.92809 18.52854
# Shear Modulus (GPa) = -1.74751 21.30166 9.77707
#
# Velocity S-wave (km/s) = -0.96088 3.35481 2.27282
# Velocity P-wave (km/s) = 2.49680 5.20772 4.08377
#
# Compressibility (1/GPa) = 0.07077646
#
# Stress axis : x y z
#
# Youngs Moduli (GPa) = 34.74543 36.18252 80.88521
#
# Poissons Ratio (x) = -0.46549 0.52699
# Poissons Ratio (y) = -0.44701 0.43294
# Poissons Ratio (z) = 0.22637 0.19367
#
# Static dielectric constant tensor:
#      x y z
#    x 3.734650 0.000000 0.115050 
#    y 0.000000 3.358420 0.000000 
#    z 0.115050 0.000000 3.526610 
# 
# 
# High freq. dielectric constant tensor:
#      x y z
#    x 1.742810 0.000000 -0.000280 
#    y 0.000000 1.731020 0.000000 
#    z -0.000280 0.000000 1.740340 
# 
# From -- ./inp_files/23550.got.cif
#   From: 2010.06.25/outbox.cif.g09.slc.cpg/sg13_12_cif.got.tgz:23550.got - 2010.06.28 04:50:58.
