data_PCOD8120094
_publ_section_title
;
Structure prediction by ZEFSAII (Michael W. Deem and Ramdas Pophale) SiO2 
 PCOD8120094
Probable space group: P 2/C
;
_chemical_formula_sum "Si O2"
_cell_formula_units_Z 32
_cell_length_a 13.277086
_cell_length_b 11.700918
_cell_length_c 11.687100
_cell_angle_alpha 90.000000
_cell_angle_beta 111.080261
_cell_angle_gamma 90.000000
_cell_volume 1694.131752
_symmetry_space_group_name_H-M "P 2/C"
_symmetry_group_IT_number 13
_symmetry_cell_setting 'monoclinic'
loop_
_space_group_symop_operation_xyz
x,y,z
-x,y,1/2-z
-x,-y,-z
x,-y,1/2+z
loop_
_atom_site_type_symbol
_atom_site_label
_atom_site_fract_x
_atom_site_fract_y
_atom_site_fract_z
Si Si1 0.217211 0.121349 0.764890
Si Si2 0.914890 0.260789 0.116095
Si Si3 0.060118 0.487160 0.898788
Si Si4 0.714080 0.879381 0.610526
Si Si5 0.200773 0.263671 0.961259
Si Si6 0.999584 0.875198 0.446149
Si Si7 0.620672 0.808354 0.801371
Si Si8 0.387566 0.073043 0.653789
O O1 0.246207 0.231937 0.854169
O O2 0.287114 0.130926 0.678166
O O3 0.089031 0.124765 0.689849
O O4 0.247392 0.004035 0.838343
O O5 0.879269 0.392778 0.093957
O O6 0.812162 0.184057 0.092687
O O7 0.000000 0.238958 0.250000
O O8 0.971507 0.224676 0.022533
O O9 0.145918 0.386488 0.945768
O O10 0.000000 0.464125 0.750000
O O11 0.000000 0.500000 0.000000
O O12 0.668914 0.803956 0.694496
O O13 0.617393 0.890124 0.479996
O O14 0.118640 0.157757 0.951452
O O15 0.300765 0.267702 0.089003
O O16 0.000000 0.000000 0.500000
O O17 0.500000 0.755858 0.750000
O O18 0.618063 0.936800 0.846060
O O19 0.500000 0.118463 0.750000
#
# Coordination Sequence:
#
# PCOD8120094 Si02
#       8
#     4   4   4   4   4   4   4   4
#     4  11  22  35  56  90 122 156 196 244 304 363
#     4  11  22  38  59  86 120 160 200 247 297 365
#     4  11  25  43  64  89 120 165 210 252 302 366
#     4  11  21  38  58  88 123 159 200 245 306 363
#     4  12  23  40  60  89 121 160 201 252 302 363
#     4  12  21  34  56  89 128 155 192 237 309 370
#     4  10  23  38  61  90 121 161 203 250 304 365
#     4  10  21  37  59  88 124 164 203 245 302 367
#
# _framework density 18.888732000000001
#
# number of rings (size 3 to 8) (size 9 to 14) (size 15 to 20)
#    0.000    1.000    3.750    4.875    3.500    1.500 
#    0.000    0.000    0.000    1.500    0.000    0.000 
#    0.000    0.000    0.000    0.000    0.000    0.000 
#
# Total GULP energy -396657.591398 kJ/mol
# GULP energy per Si atom -12395.549731 kJ/mol
# Density = 1.884574 g / cm^3
# Si number density = 18.888732 Si / 1000 Ang^3
#
#
#
# Elastic Constant Matrix: (Units=GPa)
#
#
# Indices 1 2 3 4 5 6 
#
# 1 65.9265 10.6008 37.5771 0.0000 16.7097 0.0000
# 2 10.6008 73.8792 31.1240 0.0000 5.4716 0.0000
# 3 37.5771 31.1240 152.5993 0.0000 15.3348 0.0000
# 4 0.0000 0.0000 0.0000 17.4500 0.0000 9.6056
# 5 16.7097 5.4716 15.3348 0.0000 31.2849 0.0000
# 6 0.0000 0.0000 0.0000 9.6056 0.0000 10.4140
#
#
#
# Elastic Compliance Matrix: (Units=1/GPa)
#
#
# Indices 1 2 3 4 5 6 
#
# 1 0.019610 -0.000558 -0.003863 0.000000 -0.008483 0.000000
# 2 -0.000558 0.014864 -0.002801 0.000000 -0.000929 0.000000
# 3 -0.003863 -0.002801 0.008224 0.000000 -0.001478 0.000000
# 4 0.000000 0.000000 0.000000 0.116414 0.000000 -0.107377
# 5 -0.008483 -0.000929 -0.001478 0.000000 0.037382 0.000000
# 6 0.000000 0.000000 0.000000 -0.107377 0.000000 0.195066
#
#
# Mechanical properties :
#
#
# Convention : Reuss Voigt Hill
#
# Bulk Modulus (GPa) = 35.39220 50.11209 42.75214
# Shear Modulus (GPa) = 12.03597 26.03667 19.03632
#
# Velocity S-wave (km/s) = 2.52703 3.71674 3.17805
# Velocity P-wave (km/s) = 5.22421 6.70870 6.01245
#
# Compressibility (1/GPa) = 0.02825482
#
# Stress axis : x y z
#
# Youngs Moduli (GPa) = 50.99475 67.27447 121.59417
#
# Poissons Ratio (x) = 0.03756 0.46966
# Poissons Ratio (y) = 0.02847 0.34058
# Poissons Ratio (z) = 0.19697 0.18843
#
# Static dielectric constant tensor:
#      x y z
#    x 3.576680 0.000000 -0.144190 
#    y 0.000000 3.276460 0.000000 
#    z -0.144190 0.000000 3.879150 
# 
# 
# High freq. dielectric constant tensor:
#      x y z
#    x 1.726340 0.000000 -0.008570 
#    y 0.000000 1.706230 0.000000 
#    z -0.008570 0.000000 1.760280 
# 
# From -- ./inp_files/34179.got.cif
#   From: 2010.06.25/outbox.cif.g09.slc.cpg/sg13_18_cif.got.tgz:34179.got - 2010.06.28 04:50:58.
