data_PCOD8120716
_publ_section_title
;
Structure prediction by ZEFSAII (Michael W. Deem and Ramdas Pophale) SiO2 
 PCOD8120716
Probable space group: P 2/C
;
_chemical_formula_sum "Si O2"
_cell_formula_units_Z 22
_cell_length_a 18.175454
_cell_length_b 9.301867
_cell_length_c 13.993916
_cell_angle_alpha 90.000000
_cell_angle_beta 155.221114
_cell_angle_gamma 90.000000
_cell_volume 991.586218
_symmetry_space_group_name_H-M "P 2/C"
_symmetry_group_IT_number 13
_symmetry_cell_setting 'monoclinic'
loop_
_space_group_symop_operation_xyz
x,y,z
-x,y,1/2-z
-x,-y,-z
x,-y,1/2+z
loop_
_atom_site_type_symbol
_atom_site_label
_atom_site_fract_x
_atom_site_fract_y
_atom_site_fract_z
Si Si1 0.784291 0.204432 0.412050
Si Si2 0.817167 0.849881 0.154039
Si Si3 0.335989 0.481463 0.736430
Si Si4 0.752276 0.150244 0.170977
Si Si5 0.500000 0.344075 0.750000
Si Si6 0.086480 0.652766 0.078196
O O1 0.705515 0.157344 0.422544
O O2 0.782609 0.376524 0.405949
O O3 0.680046 0.145553 0.195805
O O4 0.979601 0.143240 0.634338
O O5 0.789545 0.708031 0.187755
O O6 0.757441 0.989548 0.139943
O O7 0.391280 0.443372 0.694259
O O8 0.209139 0.358149 0.629545
O O9 0.500000 0.500000 0.000000
O O10 0.943468 0.223549 0.392158
O O11 0.626319 0.244307 0.958900
O O12 0.000000 0.500000 0.000000
#
# Coordination Sequence:
#
# PCOD8120716 Si02
#       6
#     4   4   4   4   2   4
#     4  10  21  41  72  96 137 177 231 293 342 400
#     4  10  23  41  74 103 132 178 234 287 349 414
#     4  12  25  44  67 105 146 177 235 296 339 417
#     4  11  24  47  67 101 146 178 234 288 344 427
#     4  12  28  44  68 104 148 190 228 278 368 412
#     4  11  21  43  75 104 130 184 236 288 344 405
#
# _framework density 22.186674
#
# number of rings (size 3 to 8) (size 9 to 14) (size 15 to 20)
#    0.000    1.091    5.455    2.182    5.091    5.091 
#    3.273    1.818    0.000    0.000    0.000    0.000 
#    0.000    0.000    0.000    0.000    0.000    0.000 
#
# Total GULP energy -272668.618445 kJ/mol
# GULP energy per Si atom -12394.028111 kJ/mol
# Density = 2.213618 g / cm^3
# Si number density = 22.186674 Si / 1000 Ang^3
#
#
#
# Elastic Constant Matrix: (Units=GPa)
#
#
# Indices 1 2 3 4 5 6 
#
# 1 195.5503 69.1077 41.4103 0.0000 -41.8740 0.0000
# 2 69.1077 113.6941 14.1512 0.0000 -23.0408 0.0000
# 3 41.4103 14.1512 61.8401 0.0000 -29.8809 0.0000
# 4 0.0000 0.0000 0.0000 -153.1295 0.0000 -64.3372
# 5 -41.8740 -23.0408 -29.8809 0.0000 44.4630 0.0000
# 6 0.0000 0.0000 0.0000 -64.3372 0.0000 10.3285
#
#
#
# Elastic Compliance Matrix: (Units=1/GPa)
#
#
# Indices 1 2 3 4 5 6 
#
# 1 0.007728 -0.003634 -0.002572 0.000000 0.003666 0.000000
# 2 -0.003634 0.011541 0.001523 0.000000 0.003582 0.000000
# 3 -0.002572 0.001523 0.024813 0.000000 0.015043 0.000000
# 4 0.000000 0.000000 0.000000 -0.001805 0.000000 -0.011246
# 5 0.003666 0.003582 0.015043 0.000000 0.037909 0.000000
# 6 0.000000 0.000000 0.000000 -0.011246 0.000000 0.026767
#
#
# Mechanical properties :
#
#
# Convention : Reuss Voigt Hill
#
# Bulk Modulus (GPa) = 28.80500 68.93587 48.87044
# Shear Modulus (GPa) = 39.09663 -3.23991 17.92836
#
# Velocity S-wave (km/s) = 4.20237 -1.20974 2.84574
# Velocity P-wave (km/s) = 6.04630 5.40250 5.73344
#
# Compressibility (1/GPa) = 0.03471619
#
# Stress axis : x y z
#
# Youngs Moduli (GPa) = 129.40407 86.64956 40.30191
#
# Poissons Ratio (x) = 0.31490 0.10364
# Poissons Ratio (y) = 0.47027 -0.06139
# Poissons Ratio (z) = 0.33277 -0.13199
#
# Static dielectric constant tensor:
#      x y z
#    x 4.582010 0.000000 -0.266530 
#    y 0.000000 3.857360 0.000000 
#    z -0.266530 0.000000 3.917960 
# 
# 
# High freq. dielectric constant tensor:
#      x y z
#    x 1.892570 0.000000 -0.022350 
#    y 0.000000 1.869560 0.000000 
#    z -0.022350 0.000000 1.858080 
# 
# From -- ./inp_files/55384.got.cif
#   From: 2010.06.25/outbox.cif.g09.slc.cpg/sg13_28_cif.got.tgz:55384.got - 2010.06.28 04:50:58.
