data_PCOD8120378
_publ_section_title
;
Structure prediction by ZEFSAII (Michael W. Deem and Ramdas Pophale) SiO2 
 PCOD8120378
Probable space group: P 2/C
;
_chemical_formula_sum "Si O2"
_cell_formula_units_Z 18
_cell_length_a 12.548283
_cell_length_b 5.029552
_cell_length_c 24.950410
_cell_angle_alpha 90.000000
_cell_angle_beta 29.479811
_cell_angle_gamma 90.000000
_cell_volume 774.924741
_symmetry_space_group_name_H-M "P 2/C"
_symmetry_group_IT_number 13
_symmetry_cell_setting 'monoclinic'
loop_
_space_group_symop_operation_xyz
x,y,z
-x,y,1/2-z
-x,-y,-z
x,-y,1/2+z
loop_
_atom_site_type_symbol
_atom_site_label
_atom_site_fract_x
_atom_site_fract_y
_atom_site_fract_z
Si Si1 0.218868 0.553167 0.965547
Si Si2 0.683251 0.458963 0.462632
Si Si3 0.500000 0.253717 0.250000
Si Si4 0.076978 0.049418 0.386577
Si Si5 0.935154 0.039404 0.836935
O O1 0.388506 0.553216 0.842536
O O2 0.061505 0.806408 0.029651
O O3 0.368548 0.550657 0.953804
O O4 0.055954 0.307069 0.036749
O O5 0.500000 0.500000 0.500000
O O6 0.882872 0.647453 0.357305
O O7 0.731486 0.145214 0.442076
O O8 0.319641 0.060737 0.303087
O O9 0.108990 0.018528 0.307888
O O10 0.000000 0.938157 0.750000
#
# Coordination Sequence:
#
# PCOD8120378 Si02
#       5
#     4   4   2   4   4
#     4  10  24  43  62  96 131 163 213 271 312 374
#     4  10  21  39  62  91 127 161 203 264 317 372
#     4  12  24  42  72  90 126 182 216 252 326 394
#     4  10  24  43  62  95 132 163 214 269 315 370
#     4  10  21  39  62  91 127 161 203 265 315 373
#
# _framework density 23.228062999999999
#
# number of rings (size 3 to 8) (size 9 to 14) (size 15 to 20)
#    0.000    1.778    0.000    2.667    3.111    3.556 
#    0.000    0.000    0.000    0.000    0.000    0.000 
#    0.000    0.000    0.000    0.000    0.000    0.000 
#
# Total GULP energy -223066.411086 kJ/mol
# GULP energy per Si atom -12392.578394 kJ/mol
# Density = 2.317519 g / cm^3
# Si number density = 23.228063 Si / 1000 Ang^3
#
#
#
# Elastic Constant Matrix: (Units=GPa)
#
#
# Indices 1 2 3 4 5 6 
#
# 1 196.5345 27.9588 76.3567 0.0000 4.0148 0.0000
# 2 27.9588 128.5348 34.9019 0.0000 -0.1063 0.0000
# 3 76.3567 34.9019 135.8411 0.0000 29.1495 0.0000
# 4 0.0000 0.0000 0.0000 12.1421 0.0000 1.4855
# 5 4.0148 -0.1063 29.1495 0.0000 35.3018 0.0000
# 6 0.0000 0.0000 0.0000 1.4855 0.0000 23.6074
#
#
#
# Elastic Compliance Matrix: (Units=1/GPa)
#
#
# Indices 1 2 3 4 5 6 
#
# 1 0.006751 -0.000293 -0.004320 0.000000 0.002798 0.000000
# 2 -0.000293 0.008517 -0.002475 0.000000 0.002102 0.000000
# 3 -0.004320 -0.002475 0.012545 0.000000 -0.009875 0.000000
# 4 0.000000 0.000000 0.000000 0.082997 0.000000 -0.005223
# 5 0.002798 0.002102 -0.009875 0.000000 0.036169 0.000000
# 6 0.000000 0.000000 0.000000 -0.005223 0.000000 0.042688
#
#
# Mechanical properties :
#
#
# Convention : Reuss Voigt Hill
#
# Bulk Modulus (GPa) = 73.32826 82.14947 77.73886
# Shear Modulus (GPa) = 23.99360 35.65647 29.82503
#
# Velocity S-wave (km/s) = 3.21745 3.92223 3.58719
# Velocity P-wave (km/s) = 6.74092 7.48032 7.12022
#
# Compressibility (1/GPa) = 0.01363731
#
# Stress axis : x y z
#
# Youngs Moduli (GPa) = 148.12439 117.40542 79.71562
#
# Poissons Ratio (x) = 0.03442 0.34437
# Poissons Ratio (y) = 0.04342 0.19728
# Poissons Ratio (z) = 0.63990 0.29056
#
# Static dielectric constant tensor:
#      x y z
#    x 4.177060 0.000000 0.438090 
#    y 0.000000 14.870140 0.000000 
#    z 0.438090 0.000000 3.911320 
# 
# 
# High freq. dielectric constant tensor:
#      x y z
#    x 1.943000 0.000000 0.031100 
#    y 0.000000 1.929320 0.000000 
#    z 0.031100 0.000000 1.889460 
# 
# From -- ./inp_files/76895.got.cif
#   From: 2010.06.25/outbox.cif.g09.slc.cpg/sg13_39_cif.got.tgz:76895.got - 2010.06.28 04:50:58.
