data_PCOD8120710
_publ_section_title
;
Structure prediction by ZEFSAII (Michael W. Deem and Ramdas Pophale) SiO2 
 PCOD8120710
Probable space group: P 2/C
;
_chemical_formula_sum "Si O2"
_cell_formula_units_Z 20
_cell_length_a 9.408991
_cell_length_b 6.715787
_cell_length_c 14.167382
_cell_angle_alpha 90.000000
_cell_angle_beta 81.841537
_cell_angle_gamma 90.000000
_cell_volume 886.159391
_symmetry_space_group_name_H-M "P 2/C"
_symmetry_group_IT_number 13
_symmetry_cell_setting 'monoclinic'
loop_
_space_group_symop_operation_xyz
x,y,z
-x,y,1/2-z
-x,-y,-z
x,-y,1/2+z
loop_
_atom_site_type_symbol
_atom_site_label
_atom_site_fract_x
_atom_site_fract_y
_atom_site_fract_z
Si Si1 0.933153 0.952702 0.405549
Si Si2 0.563124 0.525359 0.145513
Si Si3 0.134833 0.379363 0.823853
Si Si4 0.115135 0.389520 0.128678
Si Si5 0.672121 0.334643 0.963442
O O1 0.781957 0.842728 0.435083
O O2 0.049762 0.831596 0.332682
O O3 0.892735 0.154463 0.353539
O O4 0.000000 0.000000 0.500000
O O5 0.500000 0.442037 0.250000
O O6 0.706833 0.652888 0.151202
O O7 0.451224 0.673438 0.104893
O O8 0.599144 0.335163 0.074492
O O9 0.144352 0.478831 0.719774
O O10 0.039768 0.533379 0.896860
O O11 0.245261 0.450085 0.047723
#
# Coordination Sequence:
#
# PCOD8120710 Si02
#       5
#     4   4   4   4   4
#     4  11  23  43  71 104 134 177 231 290 339 404
#     4  11  21  42  69  92 139 189 216 280 343 408
#     4  10  22  40  67  99 133 177 224 277 345 400
#     4  10  21  41  70  96 134 172 226 286 332 401
#     4  10  23  42  69  99 135 179 232 273 345 407
#
# _framework density 22.569303999999999
#
# number of rings (size 3 to 8) (size 9 to 14) (size 15 to 20)
#    0.000    1.600    2.000    2.400    0.000    9.600 
#    0.000   11.000    0.000    0.000    0.000    0.000 
#    0.000    0.000    0.000    0.000    0.000    0.000 
#
# Total GULP energy -247775.133861 kJ/mol
# GULP energy per Si atom -12388.756693 kJ/mol
# Density = 2.251794 g / cm^3
# Si number density = 22.569304 Si / 1000 Ang^3
#
#
#
# Elastic Constant Matrix: (Units=GPa)
#
#
# Indices 1 2 3 4 5 6 
#
# 1 193.8684 64.2099 51.5319 0.0000 -0.0504 0.0000
# 2 64.2099 160.1033 44.8157 0.0000 -2.5901 0.0000
# 3 51.5319 44.8157 141.0047 0.0000 -2.8427 0.0000
# 4 0.0000 0.0000 0.0000 25.5818 0.0000 -2.1647
# 5 -0.0504 -2.5901 -2.8427 0.0000 28.6176 0.0000
# 6 0.0000 0.0000 0.0000 -2.1647 0.0000 22.5061
#
#
#
# Elastic Compliance Matrix: (Units=1/GPa)
#
#
# Indices 1 2 3 4 5 6 
#
# 1 0.006279 -0.002063 -0.001646 0.000000 -0.000339 0.000000
# 2 -0.002063 0.007538 -0.001632 0.000000 0.000517 0.000000
# 3 -0.001646 -0.001632 0.008225 0.000000 0.000666 0.000000
# 4 0.000000 0.000000 0.000000 0.039411 0.000000 0.003791
# 5 -0.000339 0.000517 0.000666 0.000000 0.035056 0.000000
# 6 0.000000 0.000000 0.000000 0.003791 0.000000 0.044797
#
#
# Mechanical properties :
#
#
# Convention : Reuss Voigt Hill
#
# Bulk Modulus (GPa) = 88.01330 90.67682 89.34506
# Shear Modulus (GPa) = 32.09766 37.63569 34.86668
#
# Velocity S-wave (km/s) = 3.77527 4.08801 3.93475
# Velocity P-wave (km/s) = 7.62136 7.90865 7.76633
#
# Compressibility (1/GPa) = 0.01136192
#
# Stress axis : x y z
#
# Youngs Moduli (GPa) = 159.26684 132.65465 121.57375
#
# Poissons Ratio (x) = 0.27365 0.20009
# Poissons Ratio (y) = 0.32855 0.19836
# Poissons Ratio (z) = 0.26213 0.21644
#
# Static dielectric constant tensor:
#      x y z
#    x 4.669900 0.000000 -0.230620 
#    y 0.000000 3.913030 0.000000 
#    z -0.230620 0.000000 4.318070 
# 
# 
# High freq. dielectric constant tensor:
#      x y z
#    x 1.912210 0.000000 -0.006960 
#    y 0.000000 1.844610 0.000000 
#    z -0.006960 0.000000 1.908080 
# 
# From -- ./inp_files/62328.got.cif
#   From: 2010.06.25/outbox.cif.g09.slc.cpg/sg13_32_cif.got.tgz:62328.got - 2010.06.28 04:50:58.
