data_PCOD8120908
_publ_section_title
;
Structure prediction by ZEFSAII (Michael W. Deem and Ramdas Pophale) SiO2 
 PCOD8120908
Probable space group: P 2/C
;
_chemical_formula_sum "Si O2"
_cell_formula_units_Z 30
_cell_length_a 13.023693
_cell_length_b 6.409936
_cell_length_c 17.988165
_cell_angle_alpha 90.000000
_cell_angle_beta 106.228886
_cell_angle_gamma 90.000000
_cell_volume 1441.833488
_symmetry_space_group_name_H-M "P 2/C"
_symmetry_group_IT_number 13
_symmetry_cell_setting 'monoclinic'
loop_
_space_group_symop_operation_xyz
x,y,z
-x,y,1/2-z
-x,-y,-z
x,-y,1/2+z
loop_
_atom_site_type_symbol
_atom_site_label
_atom_site_fract_x
_atom_site_fract_y
_atom_site_fract_z
Si Si1 0.237378 0.294237 0.141240
Si Si2 0.394715 0.407350 0.049970
Si Si3 0.077592 0.602045 0.150529
Si Si4 0.066747 0.810892 0.483694
Si Si5 0.000000 0.294917 0.250000
Si Si6 0.174157 0.980194 0.247062
Si Si7 0.745122 0.128959 0.586525
Si Si8 0.579237 0.192914 0.024720
O O1 0.347349 0.331643 0.119141
O O2 0.198638 0.508269 0.172214
O O3 0.248861 0.098656 0.200344
O O4 0.140086 0.263895 0.065047
O O5 0.519357 0.336439 0.074006
O O6 0.329011 0.307330 0.966546
O O7 0.396762 0.659497 0.042460
O O8 0.000335 0.444093 0.178540
O O9 0.017724 0.634800 0.059801
O O10 0.089935 0.827995 0.190511
O O11 0.139292 0.876578 0.428036
O O12 0.000000 0.000000 0.500000
O O13 0.106717 0.156737 0.276138
O O14 0.241702 0.845321 0.321278
O O15 0.693502 0.898220 0.569697
O O16 0.500000 0.000000 0.000000
#
# Coordination Sequence:
#
# PCOD8120908 Si02
#       8
#     4   4   4   4   2   4   4   4
#     4  10  23  36  57  86 118 157 200 248 302 351
#     4   9  20  39  61  91 113 144 200 251 299 362
#     4  11  22  36  55  77 120 163 202 242 294 349
#     4  11  21  36  55  85 120 156 198 243 286 344
#     4  10  22  36  54  78 112 170 208 246 280 350
#     4  11  22  38  54  83 121 158 202 242 297 358
#     4  10  22  35  60  84 116 156 191 243 296 354
#     4   9  19  38  65  87 111 146 192 246 304 353
#
# _framework density 20.806840000000001
#
# number of rings (size 3 to 8) (size 9 to 14) (size 15 to 20)
#    0.000    1.867    1.333    2.400    3.733    5.333 
#    0.000    0.667    0.000    0.000    0.000    0.000 
#    0.000    0.000    0.000    0.000    0.000    0.000 
#
# Total GULP energy -371686.883861 kJ/mol
# GULP energy per Si atom -12389.562795 kJ/mol
# Density = 2.075948 g / cm^3
# Si number density = 20.806840 Si / 1000 Ang^3
#
#
#
# Elastic Constant Matrix: (Units=GPa)
#
#
# Indices 1 2 3 4 5 6 
#
# 1 73.6975 24.2465 6.0524 0.0000 -20.1161 0.0000
# 2 24.2465 95.8992 24.1325 0.0000 -10.0565 0.0000
# 3 6.0524 24.1325 74.3835 0.0000 -16.0278 0.0000
# 4 0.0000 0.0000 0.0000 37.0449 0.0000 -4.9262
# 5 -20.1161 -10.0565 -16.0278 0.0000 25.6797 0.0000
# 6 0.0000 0.0000 0.0000 -4.9262 0.0000 29.3317
#
#
#
# Elastic Compliance Matrix: (Units=1/GPa)
#
#
# Indices 1 2 3 4 5 6 
#
# 1 0.018696 -0.003905 0.002971 0.000000 0.014971 0.000000
# 2 -0.003905 0.012309 -0.003808 0.000000 -0.000615 0.000000
# 3 0.002971 -0.003808 0.016889 0.000000 0.011378 0.000000
# 4 0.000000 0.000000 0.000000 0.027611 0.000000 0.004637
# 5 0.014971 -0.000615 0.011378 0.000000 0.057529 0.000000
# 6 0.000000 0.000000 0.000000 0.004637 0.000000 0.034872
#
#
# Mechanical properties :
#
#
# Convention : Reuss Voigt Hill
#
# Bulk Modulus (GPa) = 26.03443 39.20478 32.61961
# Shear Modulus (GPa) = 26.28922 31.04783 28.66853
#
# Velocity S-wave (km/s) = 3.55842 3.86708 3.71596
# Velocity P-wave (km/s) = 5.42427 6.23075 5.84145
#
# Compressibility (1/GPa) = 0.03841067
#
# Stress axis : x y z
#
# Youngs Moduli (GPa) = 53.48737 81.24366 59.20958
#
# Poissons Ratio (x) = 0.31724 -0.17594
# Poissons Ratio (y) = 0.20886 0.22548
# Poissons Ratio (z) = -0.15893 0.30939
#
# Static dielectric constant tensor:
#      x y z
#    x 3.638460 0.000000 -0.935400 
#    y 0.000000 3.767210 0.000000 
#    z -0.935400 0.000000 2.043390 
# 
# 
# High freq. dielectric constant tensor:
#      x y z
#    x 1.809050 0.000000 -0.015550 
#    y 0.000000 1.827840 0.000000 
#    z -0.015550 0.000000 1.787840 
# 
# From -- ./inp_files/67589.got.cif
#   From: 2010.06.25/outbox.cif.g09.slc.cpg/sg13_34_cif.got.tgz:67589.got - 2010.06.28 04:50:58.
