data_PCOD8120035
_publ_section_title
;
Structure prediction by ZEFSAII (Michael W. Deem and Ramdas Pophale) SiO2 
 PCOD8120035
Probable space group: P 2/C
;
_chemical_formula_sum "Si O2"
_cell_formula_units_Z 28
_cell_length_a 17.260648
_cell_length_b 6.526117
_cell_length_c 14.051848
_cell_angle_alpha 90.000000
_cell_angle_beta 54.018411
_cell_angle_gamma 90.000000
_cell_volume 1280.868061
_symmetry_space_group_name_H-M "P 2/C"
_symmetry_group_IT_number 13
_symmetry_cell_setting 'monoclinic'
loop_
_space_group_symop_operation_xyz
x,y,z
-x,y,1/2-z
-x,-y,-z
x,-y,1/2+z
loop_
_atom_site_type_symbol
_atom_site_label
_atom_site_fract_x
_atom_site_fract_y
_atom_site_fract_z
Si Si1 0.920257 0.126465 0.435110
Si Si2 0.440411 0.003789 0.885399
Si Si3 0.731351 0.800621 0.292761
Si Si4 0.483381 0.734697 0.016228
Si Si5 0.763126 0.827658 0.477453
Si Si6 0.116775 0.114122 0.353151
Si Si7 0.824089 0.496390 0.078701
O O1 0.888583 0.365699 0.460671
O O2 0.035089 0.113938 0.327652
O O3 0.854999 0.979346 0.417142
O O4 0.913670 0.054566 0.548448
O O5 0.500000 0.068223 0.750000
O O6 0.331273 0.962069 0.934687
O O7 0.437410 0.181935 0.967503
O O8 0.492172 0.812106 0.900868
O O9 0.617446 0.815232 0.368829
O O10 0.761699 0.718089 0.375435
O O11 0.760041 0.644440 0.189474
O O12 0.778674 0.030158 0.254480
O O13 0.500000 0.500000 0.000000
O O14 0.760714 0.649592 0.557577
O O15 0.116972 0.345010 0.394435
#
# Coordination Sequence:
#
# PCOD8120035 Si02
#       7
#     4   4   4   4   4   4   4
#     4   9  19  37  60  88 121 157 208 251 315 373
#     4  10  24  41  66  90 125 165 212 267 327 378
#     4  10  23  40  61  91 127 169 209 259 324 375
#     4  10  24  43  63  94 128 167 215 271 318 387
#     4  10  23  40  60  91 127 163 210 265 309 386
#     4   9  19  37  60  86 121 164 199 259 312 374
#     4  10  21  36  66  91 125 165 211 258 317 381
#
# _framework density 21.860177
#
# number of rings (size 3 to 8) (size 9 to 14) (size 15 to 20)
#    0.000    2.286    0.000    0.429    8.000    8.000 
#    0.000    0.000    0.000    0.000    0.000    0.000 
#    0.000    0.000    0.000    0.000    0.000    0.000 
#
# Total GULP energy -346881.367804 kJ/mol
# GULP energy per Si atom -12388.620279 kJ/mol
# Density = 2.181042 g / cm^3
# Si number density = 21.860177 Si / 1000 Ang^3
#
#
#
# Elastic Constant Matrix: (Units=GPa)
#
#
# Indices 1 2 3 4 5 6 
#
# 1 104.7189 33.8017 17.4523 0.0000 -4.1987 0.0000
# 2 33.8017 124.6278 11.8843 0.0000 -5.1075 0.0000
# 3 17.4523 11.8843 51.9295 0.0000 -5.3054 0.0000
# 4 0.0000 0.0000 0.0000 27.8815 0.0000 -1.7572
# 5 -4.1987 -5.1075 -5.3054 0.0000 31.2789 0.0000
# 6 0.0000 0.0000 0.0000 -1.7572 0.0000 20.9409
#
#
#
# Elastic Compliance Matrix: (Units=1/GPa)
#
#
# Indices 1 2 3 4 5 6 
#
# 1 0.010930 -0.002656 -0.003012 0.000000 0.000523 0.000000
# 2 -0.002656 0.008882 -0.001046 0.000000 0.000916 0.000000
# 3 -0.003012 -0.001046 0.020810 0.000000 0.002955 0.000000
# 4 0.000000 0.000000 0.000000 0.036057 0.000000 0.003026
# 5 0.000523 0.000916 0.002955 0.000000 0.032691 0.000000
# 6 0.000000 0.000000 0.000000 0.003026 0.000000 0.048007
#
#
# Mechanical properties :
#
#
# Convention : Reuss Voigt Hill
#
# Bulk Modulus (GPa) = 36.77384 45.28365 41.02875
# Shear Modulus (GPa) = 27.79790 30.56277 29.18033
#
# Velocity S-wave (km/s) = 3.56985 3.74318 3.65754
# Velocity P-wave (km/s) = 5.81813 6.28028 6.05362
#
# Compressibility (1/GPa) = 0.02719324
#
# Stress axis : x y z
#
# Youngs Moduli (GPa) = 91.49529 112.59352 48.05271
#
# Poissons Ratio (x) = 0.29901 0.14474
# Poissons Ratio (y) = 0.24298 0.05028
# Poissons Ratio (z) = 0.27558 0.11782
#
# Static dielectric constant tensor:
#      x y z
#    x 4.219690 0.000000 -0.196630 
#    y 0.000000 3.958520 0.000000 
#    z -0.196630 0.000000 4.249650 
# 
# 
# High freq. dielectric constant tensor:
#      x y z
#    x 1.872190 0.000000 0.003990 
#    y 0.000000 1.851350 0.000000 
#    z 0.003990 0.000000 1.845160 
# 
# From -- ./inp_files/54582.got.cif
#   From: 2010.06.25/outbox.cif.g09.slc.cpg/sg13_28_cif.got.tgz:54582.got - 2010.06.28 04:50:58.
