data_PCOD8120118
_publ_section_title
;
Structure prediction by ZEFSAII (Michael W. Deem and Ramdas Pophale) SiO2 
 PCOD8120118
Probable space group: P 2/C
;
_chemical_formula_sum "Si O2"
_cell_formula_units_Z 24
_cell_length_a 14.241262
_cell_length_b 8.343301
_cell_length_c 9.581221
_cell_angle_alpha 90.000000
_cell_angle_beta 79.788394
_cell_angle_gamma 90.000000
_cell_volume 1120.399305
_symmetry_space_group_name_H-M "P 2/C"
_symmetry_group_IT_number 13
_symmetry_cell_setting 'monoclinic'
loop_
_space_group_symop_operation_xyz
x,y,z
-x,y,1/2-z
-x,-y,-z
x,-y,1/2+z
loop_
_atom_site_type_symbol
_atom_site_label
_atom_site_fract_x
_atom_site_fract_y
_atom_site_fract_z
Si Si1 0.056308 0.393535 0.099745
Si Si2 0.477826 0.852783 0.910441
Si Si3 0.792171 0.809371 0.092553
Si Si4 0.340741 0.671818 0.592276
Si Si5 0.780423 0.619597 0.371451
Si Si6 0.269971 0.169522 0.384151
O O1 0.132576 0.499090 0.162691
O O2 0.000000 0.323864 0.250000
O O3 0.109141 0.246352 0.006780
O O4 0.000000 0.500000 0.000000
O O5 0.500000 0.912679 0.750000
O O6 0.544845 0.699791 0.931611
O O7 0.366334 0.815585 0.952164
O O8 0.500000 0.000000 0.000000
O O9 0.788836 0.755518 0.253292
O O10 0.783031 0.000332 0.092311
O O11 0.700226 0.728721 0.044992
O O12 0.317634 0.484046 0.620991
O O13 0.288274 0.783758 0.720333
O O14 0.793970 0.698667 0.521009
#
# Coordination Sequence:
#
# PCOD8120118 Si02
#       6
#     4   4   4   4   4   4
#     4  11  23  45  69  95 131 173 212 268 332 405
#     4  10  21  37  60  91 132 174 220 262 324 382
#     4  11  22  39  66  95 128 172 215 270 334 386
#     4  10  21  39  62  91 131 176 220 266 322 389
#     4  11  24  41  67  95 128 172 222 270 335 398
#     4  11  23  40  64  94 133 171 221 276 325 391
#
# _framework density 21.420935
#
# number of rings (size 3 to 8) (size 9 to 14) (size 15 to 20)
#    0.000    1.333    3.333    3.000    4.667    0.667 
#    0.000    3.333    0.000    0.000    0.000    0.000 
#    0.000    0.000    0.000    0.000    0.000    0.000 
#
# Total GULP energy -297507.514536 kJ/mol
# GULP energy per Si atom -12396.146439 kJ/mol
# Density = 2.137218 g / cm^3
# Si number density = 21.420935 Si / 1000 Ang^3
#
#
#
# Elastic Constant Matrix: (Units=GPa)
#
#
# Indices 1 2 3 4 5 6 
#
# 1 70.1730 33.0748 11.0199 0.0000 -0.4860 0.0000
# 2 33.0748 124.4049 18.1318 0.0000 -11.4458 0.0000
# 3 11.0199 18.1318 68.2749 0.0000 1.2603 0.0000
# 4 0.0000 0.0000 0.0000 38.1135 0.0000 2.4682
# 5 -0.4860 -11.4458 1.2603 0.0000 29.4452 0.0000
# 6 0.0000 0.0000 0.0000 2.4682 0.0000 33.3233
#
#
#
# Elastic Compliance Matrix: (Units=1/GPa)
#
#
# Indices 1 2 3 4 5 6 
#
# 1 0.016499 -0.004290 -0.001499 0.000000 -0.001331 0.000000
# 2 -0.004290 0.009821 -0.001986 0.000000 0.003832 0.000000
# 3 -0.001499 -0.001986 0.015443 0.000000 -0.001458 0.000000
# 4 0.000000 0.000000 0.000000 0.026364 0.000000 -0.001953
# 5 -0.001331 0.003832 -0.001458 0.000000 0.035491 0.000000
# 6 0.000000 0.000000 0.000000 -0.001953 0.000000 0.030154
#
#
# Mechanical properties :
#
#
# Convention : Reuss Voigt Hill
#
# Bulk Modulus (GPa) = 38.15159 43.03398 40.59278
# Shear Modulus (GPa) = 31.63341 33.55147 32.59244
#
# Velocity S-wave (km/s) = 3.84702 3.96194 3.90490
# Velocity P-wave (km/s) = 6.13040 6.40801 6.27074
#
# Compressibility (1/GPa) = 0.02621123
#
# Stress axis : x y z
#
# Youngs Moduli (GPa) = 60.60998 101.82253 64.75398
#
# Poissons Ratio (x) = 0.43687 0.09707
# Poissons Ratio (y) = 0.26005 0.12863
# Poissons Ratio (z) = 0.09085 0.20226
#
# Static dielectric constant tensor:
#      x y z
#    x 4.089970 0.000000 0.128520 
#    y 0.000000 3.824630 0.000000 
#    z 0.128520 0.000000 3.702940 
# 
# 
# High freq. dielectric constant tensor:
#      x y z
#    x 1.835460 0.000000 0.004950 
#    y 0.000000 1.829170 0.000000 
#    z 0.004950 0.000000 1.855490 
# 
# From -- ./inp_files/18056.got.cif
#   From: 2010.06.25/outbox.cif.g09.slc.cpg/sg13_10_cif.got.tgz:18056.got - 2010.06.28 04:50:58.
