data_PCOD8120565
_publ_section_title
;
Structure prediction by ZEFSAII (Michael W. Deem and Ramdas Pophale) SiO2 
 PCOD8120565
Probable space group: P 2/C
;
_chemical_formula_sum "Si O2"
_cell_formula_units_Z 32
_cell_length_a 14.094439
_cell_length_b 8.670484
_cell_length_c 23.774614
_cell_angle_alpha 90.000000
_cell_angle_beta 149.640398
_cell_angle_gamma 90.000000
_cell_volume 1468.458774
_symmetry_space_group_name_H-M "P 2/C"
_symmetry_group_IT_number 13
_symmetry_cell_setting 'monoclinic'
loop_
_space_group_symop_operation_xyz
x,y,z
-x,y,1/2-z
-x,-y,-z
x,-y,1/2+z
loop_
_atom_site_type_symbol
_atom_site_label
_atom_site_fract_x
_atom_site_fract_y
_atom_site_fract_z
Si Si1 0.402590 0.041262 0.314199
Si Si2 0.991029 0.945202 0.558353
Si Si3 0.284103 0.796098 0.581233
Si Si4 0.821545 0.496125 0.254826
Si Si5 0.753731 0.450433 0.531831
Si Si6 0.493442 0.728874 0.406772
Si Si7 0.905420 0.365789 0.415495
Si Si8 0.453057 0.734435 0.939194
O O1 0.183122 0.029810 0.190233
O O2 0.501636 0.144300 0.315979
O O3 0.439432 0.115448 0.393861
O O4 0.490706 0.870644 0.362030
O O5 0.944176 0.760245 0.532668
O O6 0.000000 0.000000 0.500000
O O7 0.834667 0.057940 0.504695
O O8 0.240893 0.647738 0.521969
O O9 0.238986 0.738782 0.621423
O O10 0.715713 0.658651 0.197919
O O11 0.799698 0.438569 0.308298
O O12 0.724407 0.374933 0.163624
O O13 0.033599 0.514349 0.341694
O O14 0.644759 0.607348 0.461258
O O15 0.645551 0.360650 0.526117
O O16 0.552175 0.785531 0.499008
O O17 0.000000 0.500000 0.500000
#
# Coordination Sequence:
#
# PCOD8120565 Si02
#       8
#     4   4   4   4   4   4   4   4
#     4  11  23  42  66  93 129 178 211 264 332 386
#     4  10  23  42  64  91 131 169 209 260 323 387
#     4  10  23  41  65  93 134 167 214 265 321 394
#     4  11  21  41  67  90 132 166 212 271 325 379
#     4  10  21  40  65  97 124 167 217 272 320 387
#     4  11  25  40  66  94 129 168 226 266 321 389
#     4  11  22  39  67  94 126 167 212 260 326 380
#     4  10  23  43  61  95 129 169 215 276 326 377
#
# _framework density 21.791554000000001
#
# number of rings (size 3 to 8) (size 9 to 14) (size 15 to 20)
#    0.000    1.500    2.500    2.625    3.500    4.000 
#    0.000    0.000    5.500    4.500    0.000    0.000 
#    0.000    0.000    0.000    0.000    0.000    0.000 
#
# Total GULP energy -396648.207291 kJ/mol
# GULP energy per Si atom -12395.256478 kJ/mol
# Density = 2.174196 g / cm^3
# Si number density = 21.791554 Si / 1000 Ang^3
#
#
#
# Elastic Constant Matrix: (Units=GPa)
#
#
# Indices 1 2 3 4 5 6 
#
# 1 55.1311 21.0780 31.5975 0.0000 4.4855 0.0000
# 2 21.0780 128.6827 44.6053 0.0000 -0.0487 0.0000
# 3 31.5975 44.6053 107.7123 0.0000 14.5230 0.0000
# 4 0.0000 0.0000 0.0000 25.8382 0.0000 -2.3318
# 5 4.4855 -0.0487 14.5230 0.0000 38.7886 0.0000
# 6 0.0000 0.0000 0.0000 -2.3318 0.0000 31.9029
#
#
#
# Elastic Compliance Matrix: (Units=1/GPa)
#
#
# Indices 1 2 3 4 5 6 
#
# 1 0.022090 -0.001624 -0.005753 0.000000 -0.000402 0.000000
# 2 -0.001624 0.009276 -0.003572 0.000000 0.001537 0.000000
# 3 -0.005753 -0.003572 0.013019 0.000000 -0.004214 0.000000
# 4 0.000000 0.000000 0.000000 0.038959 0.000000 0.002848
# 5 -0.000402 0.001537 -0.004214 0.000000 0.027407 0.000000
# 6 0.000000 0.000000 0.000000 0.002848 0.000000 0.031553
#
#
# Mechanical properties :
#
#
# Convention : Reuss Voigt Hill
#
# Bulk Modulus (GPa) = 44.47257 54.00976 49.24116
# Shear Modulus (GPa) = 29.12089 32.25563 30.68826
#
# Velocity S-wave (km/s) = 3.65956 3.85150 3.75676
# Velocity P-wave (km/s) = 6.18943 6.67961 6.43919
#
# Compressibility (1/GPa) = 0.02248577
#
# Stress axis : x y z
#
# Youngs Moduli (GPa) = 45.27015 107.80683 76.81043
#
# Poissons Ratio (x) = 0.17510 0.44190
# Poissons Ratio (y) = 0.07353 0.27437
# Poissons Ratio (z) = 0.26045 0.38509
#
# Static dielectric constant tensor:
#      x y z
#    x 3.832460 0.000000 0.109350 
#    y 0.000000 4.425820 0.000000 
#    z 0.109350 0.000000 3.988080 
# 
# 
# High freq. dielectric constant tensor:
#      x y z
#    x 1.842590 0.000000 -0.002460 
#    y 0.000000 1.872100 0.000000 
#    z -0.002460 0.000000 1.855920 
# 
# From -- ./inp_files/87448.got.cif
#   From: 2010.06.25/outbox.cif.g09.slc.cpg/sg13_44_cif.got.tgz:87448.got - 2010.06.28 04:50:58.
