data_PCOD8120598
_publ_section_title
;
Structure prediction by ZEFSAII (Michael W. Deem and Ramdas Pophale) SiO2 
 PCOD8120598
Probable space group: P 2/C
;
_chemical_formula_sum "Si O2"
_cell_formula_units_Z 20
_cell_length_a 9.722301
_cell_length_b 7.525360
_cell_length_c 18.678539
_cell_angle_alpha 90.000000
_cell_angle_beta 38.529260
_cell_angle_gamma 90.000000
_cell_volume 851.270321
_symmetry_space_group_name_H-M "P 2/C"
_symmetry_group_IT_number 13
_symmetry_cell_setting 'monoclinic'
loop_
_space_group_symop_operation_xyz
x,y,z
-x,y,1/2-z
-x,-y,-z
x,-y,1/2+z
loop_
_atom_site_type_symbol
_atom_site_label
_atom_site_fract_x
_atom_site_fract_y
_atom_site_fract_z
Si Si1 0.706194 0.676242 0.623731
Si Si2 0.375176 0.749888 0.534676
Si Si3 0.796267 0.261057 0.782372
Si Si4 0.499050 0.047872 0.112907
Si Si5 0.962826 0.540778 0.906685
O O1 0.500000 0.590812 0.750000
O O2 0.636593 0.872917 0.623632
O O3 0.772409 0.549757 0.531579
O O4 0.909491 0.687142 0.597053
O O5 0.600352 0.656661 0.412507
O O6 0.395384 0.785560 0.611156
O O7 0.158080 0.632652 0.610730
O O8 0.340362 0.938685 0.506543
O O9 0.135914 0.397234 0.806986
O O10 0.000000 0.208532 0.750000
O O11 0.700825 0.083555 0.781528
#
# Coordination Sequence:
#
# PCOD8120598 Si02
#       5
#     4   4   4   4   4
#     4  11  25  45  62 102 138 181 225 276 335 421
#     4   9  21  44  71 101 130 176 226 289 336 409
#     4  10  21  40  69 105 132 179 224 292 334 406
#     4   9  22  45  67  96 138 172 230 275 344 397
#     4  11  24  42  72  98 140 177 228 277 349 395
#
# _framework density 23.494299999999999
#
# number of rings (size 3 to 8) (size 9 to 14) (size 15 to 20)
#    1.200    0.800    0.000    2.400    0.000    7.200 
#    7.200    0.000    0.000    0.000    0.000    0.000 
#    0.000    0.000    0.000    0.000    0.000    0.000 
#
# Total GULP energy -247875.565972 kJ/mol
# GULP energy per Si atom -12393.778299 kJ/mol
# Density = 2.344083 g / cm^3
# Si number density = 23.494300 Si / 1000 Ang^3
#
#
#
# Elastic Constant Matrix: (Units=GPa)
#
#
# Indices 1 2 3 4 5 6 
#
# 1 108.5699 68.7867 31.9508 0.0000 -16.6385 0.0000
# 2 68.7867 86.9951 43.6078 0.0000 -12.3441 0.0000
# 3 31.9508 43.6078 102.7214 0.0000 -1.2292 0.0000
# 4 0.0000 0.0000 0.0000 26.9295 0.0000 -21.8966
# 5 -16.6385 -12.3441 -1.2292 0.0000 35.8134 0.0000
# 6 0.0000 0.0000 0.0000 -21.8966 0.0000 47.5037
#
#
#
# Elastic Compliance Matrix: (Units=1/GPa)
#
#
# Indices 1 2 3 4 5 6 
#
# 1 0.018953 -0.014632 0.000361 0.000000 0.003775 0.000000
# 2 -0.014632 0.026781 -0.006792 0.000000 0.002200 0.000000
# 3 0.000361 -0.006792 0.012485 0.000000 -0.001744 0.000000
# 4 0.000000 0.000000 0.000000 0.059395 0.000000 0.027378
# 5 0.003775 0.002200 -0.001744 0.000000 0.030375 0.000000
# 6 0.000000 0.000000 0.000000 0.027378 0.000000 0.033671
#
#
# Mechanical properties :
#
#
# Convention : Reuss Voigt Hill
#
# Bulk Modulus (GPa) = 62.13125 65.21965 63.67545
# Shear Modulus (GPa) = 21.82000 32.31205 27.06603
#
# Velocity S-wave (km/s) = 3.05082 3.71255 3.39783
# Velocity P-wave (km/s) = 6.23800 6.79687 6.52342
#
# Compressibility (1/GPa) = 0.01609496
#
# Stress axis : x y z
#
# Youngs Moduli (GPa) = 52.76250 37.34046 80.09620
#
# Poissons Ratio (x) = 0.54635 -0.02895
# Poissons Ratio (y) = 0.77200 0.54399
# Poissons Ratio (z) = -0.01907 0.25360
#
# Static dielectric constant tensor:
#      x y z
#    x 4.066270 0.000000 -0.061140 
#    y 0.000000 3.928890 0.000000 
#    z -0.061140 0.000000 4.093280 
# 
# 
# High freq. dielectric constant tensor:
#      x y z
#    x 1.928120 0.000000 -0.004710 
#    y 0.000000 1.910300 0.000000 
#    z -0.004710 0.000000 1.922200 
# 
# From -- ./inp_files/75142.got.cif
#   From: 2010.06.25/outbox.cif.g09.slc.cpg/sg13_38_cif.got.tgz:75142.got - 2010.06.28 04:50:58.
