data_PCOD8120532
_publ_section_title
;
Structure prediction by ZEFSAII (Michael W. Deem and Ramdas Pophale) SiO2 
 PCOD8120532
Probable space group: P 2/C
;
_chemical_formula_sum "Si O2"
_cell_formula_units_Z 28
_cell_length_a 18.743936
_cell_length_b 9.282849
_cell_length_c 14.800652
_cell_angle_alpha 90.000000
_cell_angle_beta 149.858596
_cell_angle_gamma 90.000000
_cell_volume 1293.135720
_symmetry_space_group_name_H-M "P 2/C"
_symmetry_group_IT_number 13
_symmetry_cell_setting 'monoclinic'
loop_
_space_group_symop_operation_xyz
x,y,z
-x,y,1/2-z
-x,-y,-z
x,-y,1/2+z
loop_
_atom_site_type_symbol
_atom_site_label
_atom_site_fract_x
_atom_site_fract_y
_atom_site_fract_z
Si Si1 0.115737 0.662226 0.120064
Si Si2 0.344862 0.520439 0.792493
Si Si3 0.333910 0.972006 0.084879
Si Si4 0.662800 0.354039 0.899042
Si Si5 0.371374 0.153813 0.294292
Si Si6 0.068924 0.525477 0.725934
Si Si7 0.693007 0.078154 0.633857
O O1 0.232718 0.534855 0.242448
O O2 0.049377 0.623672 0.146608
O O3 0.184441 0.820568 0.191610
O O4 0.006337 0.651453 0.916311
O O5 0.318840 0.421523 0.678121
O O6 0.312313 0.685498 0.732880
O O7 0.500000 0.500000 0.000000
O O8 0.500000 0.966610 0.250000
O O9 0.283039 0.810370 0.049107
O O10 0.298711 0.073780 0.130560
O O11 0.259544 0.039312 0.915619
O O12 0.500000 0.369800 0.750000
O O13 0.764556 0.435773 0.080916
O O14 0.542322 0.160530 0.473747
O O15 0.321395 0.072193 0.329449
O O16 0.000000 0.509692 0.750000
#
# Coordination Sequence:
#
# PCOD8120532 Si02
#       7
#     4   4   4   4   4   4   4
#     4  11  24  43  69  95 134 186 227 279 345 408
#     4  12  23  37  66 104 137 170 230 282 329 403
#     4   9  21  37  60  92 133 174 213 275 340 394
#     4  11  24  41  70  99 133 174 230 281 338 408
#     4  10  22  35  61 100 139 170 217 280 339 396
#     4  11  25  45  69  97 139 179 230 283 347 405
#     4  10  21  40  63  94 140 175 217 277 344 402
#
# _framework density 21.652794
#
# number of rings (size 3 to 8) (size 9 to 14) (size 15 to 20)
#    0.000    1.429    2.857    1.714   10.000    0.571 
#    0.000    0.714    0.000    0.857    0.000    0.000 
#    0.000    0.000    0.000    0.000    0.000    0.000 
#
# Total GULP energy -347173.347215 kJ/mol
# GULP energy per Si atom -12399.048115 kJ/mol
# Density = 2.160351 g / cm^3
# Si number density = 21.652794 Si / 1000 Ang^3
#
#
#
# Elastic Constant Matrix: (Units=GPa)
#
#
# Indices 1 2 3 4 5 6 
#
# 1 72.8815 31.1824 43.1252 0.0000 -24.2947 0.0000
# 2 31.1824 104.3363 19.4804 0.0000 -6.1385 0.0000
# 3 43.1252 19.4804 124.0561 0.0000 -11.6886 0.0000
# 4 0.0000 0.0000 0.0000 33.3833 0.0000 -4.1321
# 5 -24.2947 -6.1385 -11.6886 0.0000 36.7480 0.0000
# 6 0.0000 0.0000 0.0000 -4.1321 0.0000 27.1085
#
#
#
# Elastic Compliance Matrix: (Units=1/GPa)
#
#
# Indices 1 2 3 4 5 6 
#
# 1 0.024028 -0.005239 -0.006305 0.000000 0.013005 0.000000
# 2 -0.005239 0.011067 -0.000071 0.000000 -0.001637 0.000000
# 3 -0.006305 -0.000071 0.010175 0.000000 -0.000944 0.000000
# 4 0.000000 0.000000 0.000000 0.030531 0.000000 0.004654
# 5 0.013005 -0.001637 -0.000944 0.000000 0.035236 0.000000
# 6 0.000000 0.000000 0.000000 0.004654 0.000000 0.037598
#
#
# Mechanical properties :
#
#
# Convention : Reuss Voigt Hill
#
# Bulk Modulus (GPa) = 45.37070 54.31668 49.84369
# Shear Modulus (GPa) = 27.89992 33.28036 30.59014
#
# Velocity S-wave (km/s) = 3.59348 3.92471 3.76274
# Velocity P-wave (km/s) = 6.18197 6.75852 6.47666
#
# Compressibility (1/GPa) = 0.02204066
#
# Stress axis : x y z
#
# Youngs Moduli (GPa) = 41.61781 90.35858 98.28183
#
# Poissons Ratio (x) = 0.47338 0.61965
# Poissons Ratio (y) = 0.21803 0.00697
# Poissons Ratio (z) = 0.26239 0.00641
#
# Static dielectric constant tensor:
#      x y z
#    x 3.959470 0.000000 -0.277330 
#    y 0.000000 3.726490 0.000000 
#    z -0.277330 0.000000 3.836180 
# 
# 
# High freq. dielectric constant tensor:
#      x y z
#    x 1.851570 0.000000 -0.019860 
#    y 0.000000 1.842980 0.000000 
#    z -0.019860 0.000000 1.848540 
# 
# From -- ./inp_files/57511.got.cif
#   From: 2010.06.25/outbox.cif.g09.slc.cpg/sg13_29_cif.got.tgz:57511.got - 2010.06.28 04:50:58.
