data_PCOD8120217
_publ_section_title
;
Structure prediction by ZEFSAII (Michael W. Deem and Ramdas Pophale) SiO2 
 PCOD8120217
Probable space group: P 2/C
;
_chemical_formula_sum "Si O2"
_cell_formula_units_Z 14
_cell_length_a 12.859665
_cell_length_b 8.081528
_cell_length_c 5.353232
_cell_angle_alpha 90.000000
_cell_angle_beta 80.686315
_cell_angle_gamma 90.000000
_cell_volume 549.004450
_symmetry_space_group_name_H-M "P 2/C"
_symmetry_group_IT_number 13
_symmetry_cell_setting 'monoclinic'
loop_
_space_group_symop_operation_xyz
x,y,z
-x,y,1/2-z
-x,-y,-z
x,-y,1/2+z
loop_
_atom_site_type_symbol
_atom_site_label
_atom_site_fract_x
_atom_site_fract_y
_atom_site_fract_z
Si Si1 0.631573 0.954028 0.312606
Si Si2 0.000000 0.609847 0.750000
Si Si3 0.625453 0.586473 0.218305
Si Si4 0.859629 0.913777 0.740081
O O1 0.669701 0.766136 0.270312
O O2 0.565601 0.988228 0.593281
O O3 0.732716 0.075513 0.289054
O O4 0.895940 0.725374 0.773836
O O5 0.000000 0.500000 0.500000
O O6 0.500000 0.596161 0.250000
O O7 0.666314 0.470995 0.430158
O O8 0.904417 0.978528 0.456132
#
# Coordination Sequence:
#
# PCOD8120217 Si02
#       4
#     4   2   4   4
#     4  10  21  38  59  87 119 158 196 237 292 352
#     4  12  24  40  64  92 118 150 196 248 298 344
#     4  10  21  38  60  88 120 153 195 247 295 340
#     4  10  21  41  62  85 120 157 193 238 293 353
#
# _framework density 25.500706000000001
#
# number of rings (size 3 to 8) (size 9 to 14) (size 15 to 20)
#    0.000    1.714    0.000    4.286    0.000    1.143 
#    0.000   34.286    0.000    0.000    0.000    0.000 
#    0.000    0.000    0.000    0.000    0.000    0.000 
#
# Total GULP energy -173485.571084 kJ/mol
# GULP energy per Si atom -12391.826506 kJ/mol
# Density = 2.544267 g / cm^3
# Si number density = 25.500706 Si / 1000 Ang^3
#
#
#
# Elastic Constant Matrix: (Units=GPa)
#
#
# Indices 1 2 3 4 5 6 
#
# 1 52.2235 15.9237 43.4206 0.0000 9.7113 0.0000
# 2 15.9237 163.8953 106.8940 0.0000 -4.0028 0.0000
# 3 43.4206 106.8940 301.9288 0.0000 9.1941 0.0000
# 4 0.0000 0.0000 0.0000 65.3847 0.0000 3.8920
# 5 9.7113 -4.0028 9.1941 0.0000 16.2155 0.0000
# 6 0.0000 0.0000 0.0000 3.8920 0.0000 41.9649
#
#
#
# Elastic Compliance Matrix: (Units=1/GPa)
#
#
# Indices 1 2 3 4 5 6 
#
# 1 0.024150 -0.000860 -0.002769 0.000000 -0.013105 0.000000
# 2 -0.000860 0.008178 -0.002899 0.000000 0.004177 0.000000
# 3 -0.002769 -0.002899 0.004791 0.000000 -0.001773 0.000000
# 4 0.000000 0.000000 0.000000 0.015379 0.000000 -0.001426
# 5 -0.013105 0.004177 -0.001773 0.000000 0.071555 0.000000
# 6 0.000000 0.000000 0.000000 -0.001426 0.000000 0.023962
#
#
# Mechanical properties :
#
#
# Convention : Reuss Voigt Hill
#
# Bulk Modulus (GPa) = 41.55946 94.50266 68.03106
# Shear Modulus (GPa) = 29.56984 48.16699 38.86841
#
# Velocity S-wave (km/s) = 3.40894 4.35080 3.90835
# Velocity P-wave (km/s) = 5.64156 7.89801 6.86316
#
# Compressibility (1/GPa) = 0.02406191
#
# Stress axis : x y z
#
# Youngs Moduli (GPa) = 41.40710 122.28536 208.74430
#
# Poissons Ratio (x) = 0.10519 0.57811
# Poissons Ratio (y) = 0.03562 0.60508
# Poissons Ratio (z) = 0.11468 0.35446
#
# Static dielectric constant tensor:
#      x y z
#    x 4.256870 0.000000 0.133720 
#    y 0.000000 4.442550 0.000000 
#    z 0.133720 0.000000 6.557340 
# 
# 
# High freq. dielectric constant tensor:
#      x y z
#    x 2.007850 0.000000 0.010460 
#    y 0.000000 2.004820 0.000000 
#    z 0.010460 0.000000 2.069880 
# 
# From -- ./inp_files/5717.got.cif
#   From: 2010.06.25/outbox.cif.g09.slc.cpg/sg13_3_cif.got.tgz:5717.got - 2010.06.28 04:50:58.
