data_PCOD8120752
_publ_section_title
;
Structure prediction by ZEFSAII (Michael W. Deem and Ramdas Pophale) SiO2 
 PCOD8120752
Probable space group: P 2/C
;
_chemical_formula_sum "Si O2"
_cell_formula_units_Z 24
_cell_length_a 20.537130
_cell_length_b 11.163575
_cell_length_c 8.046696
_cell_angle_alpha 90.000000
_cell_angle_beta 144.113895
_cell_angle_gamma 90.000000
_cell_volume 1081.405552
_symmetry_space_group_name_H-M "P 2/C"
_symmetry_group_IT_number 13
_symmetry_cell_setting 'monoclinic'
loop_
_space_group_symop_operation_xyz
x,y,z
-x,y,1/2-z
-x,-y,-z
x,-y,1/2+z
loop_
_atom_site_type_symbol
_atom_site_label
_atom_site_fract_x
_atom_site_fract_y
_atom_site_fract_z
Si Si1 0.743491 0.988131 0.712741
Si Si2 0.736629 0.625179 0.653168
Si Si3 0.640668 0.841837 0.774651
Si Si4 0.208339 0.627341 0.368497
Si Si5 0.500000 0.277950 0.750000
Si Si6 0.157458 0.165212 0.335633
Si Si7 0.000000 0.720683 0.750000
O O1 0.705342 0.872909 0.736135
O O2 0.847393 0.939083 0.815716
O O3 0.640963 0.037246 0.385370
O O4 0.774870 0.106963 0.874314
O O5 0.736247 0.497204 0.565148
O O6 0.609344 0.643707 0.446682
O O7 0.779491 0.719005 0.604728
O O8 0.814497 0.627746 0.979484
O O9 0.519126 0.801311 0.458847
O O10 0.707179 0.734815 0.002637
O O11 0.097308 0.639730 0.028117
O O12 0.039464 0.200343 0.172338
#
# Coordination Sequence:
#
# PCOD8120752 Si02
#       7
#     4   4   4   4   2   4   2
#     4  10  21  43  67  96 150 175 223 294 329 393
#     4  11  25  46  72  98 146 168 239 289 348 404
#     4  10  21  42  66 101 140 177 227 284 335 412
#     4  11  24  45  67 102 135 180 227 299 328 421
#     4  10  22  44  72 106 128 188 226 272 366 412
#     4  11  23  43  66 103 138 183 225 291 329 413
#     4  12  26  44  74 100 132 188 238 262 380 392
#
# _framework density 22.193339999999999
#
# number of rings (size 3 to 8) (size 9 to 14) (size 15 to 20)
#    0.000    1.333    5.000    1.000    0.000    7.333 
#    0.000    0.000    0.000    0.000    0.000    0.000 
#    0.000    0.000    0.000    0.000    0.000    0.000 
#
# Total GULP energy -297326.006792 kJ/mol
# GULP energy per Si atom -12388.583616 kJ/mol
# Density = 2.214283 g / cm^3
# Si number density = 22.193340 Si / 1000 Ang^3
#
#
#
# Elastic Constant Matrix: (Units=GPa)
#
#
# Indices 1 2 3 4 5 6 
#
# 1 94.3495 46.3040 37.7399 0.0000 -16.2195 0.0000
# 2 46.3040 135.5737 47.5809 0.0000 -10.3480 0.0000
# 3 37.7399 47.5809 104.0182 0.0000 4.5367 0.0000
# 4 0.0000 0.0000 0.0000 27.6652 0.0000 -7.1175
# 5 -16.2195 -10.3480 4.5367 0.0000 20.2852 0.0000
# 6 0.0000 0.0000 0.0000 -7.1175 0.0000 38.9152
#
#
#
# Elastic Compliance Matrix: (Units=1/GPa)
#
#
# Indices 1 2 3 4 5 6 
#
# 1 0.016203 -0.002747 -0.005177 0.000000 0.012712 0.000000
# 2 -0.002747 0.009888 -0.003687 0.000000 0.003673 0.000000
# 3 -0.005177 -0.003687 0.013573 0.000000 -0.009055 0.000000
# 4 0.000000 0.000000 0.000000 0.037931 0.000000 0.006938
# 5 0.012712 0.003673 -0.009055 0.000000 0.063360 0.000000
# 6 0.000000 0.000000 0.000000 0.006938 0.000000 0.026966
#
#
# Mechanical properties :
#
#
# Convention : Reuss Voigt Hill
#
# Bulk Modulus (GPa) = 60.81262 66.35456 63.58359
# Shear Modulus (GPa) = 25.42928 30.86090 28.14509
#
# Velocity S-wave (km/s) = 3.38865 3.73305 3.56501
# Velocity P-wave (km/s) = 6.53998 6.96737 6.75705
#
# Compressibility (1/GPa) = 0.01644396
#
# Stress axis : x y z
#
# Youngs Moduli (GPa) = 61.71712 101.12777 73.67403
#
# Poissons Ratio (x) = 0.27779 0.38139
# Poissons Ratio (y) = 0.16953 0.27162
# Poissons Ratio (z) = 0.31949 0.37284
#
# Static dielectric constant tensor:
#      x y z
#    x 4.061860 0.000000 -0.351550 
#    y 0.000000 4.070690 0.000000 
#    z -0.351550 0.000000 3.961600 
# 
# 
# High freq. dielectric constant tensor:
#      x y z
#    x 1.863600 0.000000 -0.033130 
#    y 0.000000 1.891820 0.000000 
#    z -0.033130 0.000000 1.860660 
# 
# From -- ./inp_files/24176.got.cif
#   From: 2010.06.25/outbox.cif.g09.slc.cpg/sg13_13_cif.got.tgz:24176.got - 2010.06.28 04:50:58.
