data_PCOD8120892
_publ_section_title
;
Structure prediction by ZEFSAII (Michael W. Deem and Ramdas Pophale) SiO2 
 PCOD8120892
Probable space group: P 2/C
;
_chemical_formula_sum "Si O2"
_cell_formula_units_Z 24
_cell_length_a 18.037677
_cell_length_b 9.180584
_cell_length_c 16.920996
_cell_angle_alpha 90.000000
_cell_angle_beta 155.436722
_cell_angle_gamma 90.000000
_cell_volume 1164.809033
_symmetry_space_group_name_H-M "P 2/C"
_symmetry_group_IT_number 13
_symmetry_cell_setting 'monoclinic'
loop_
_space_group_symop_operation_xyz
x,y,z
-x,y,1/2-z
-x,-y,-z
x,-y,1/2+z
loop_
_atom_site_type_symbol
_atom_site_label
_atom_site_fract_x
_atom_site_fract_y
_atom_site_fract_z
Si Si1 0.109641 0.905002 0.712235
Si Si2 0.315669 0.631335 0.482816
Si Si3 0.710263 0.394191 0.360059
Si Si4 0.222439 0.915653 0.644775
Si Si5 0.420789 0.946484 0.585608
Si Si6 0.018246 0.589952 0.674547
O O1 0.193046 0.941081 0.708479
O O2 0.060222 0.736597 0.669316
O O3 0.935603 0.005307 0.557855
O O4 0.263386 0.934736 0.927093
O O5 0.263676 0.647087 0.523618
O O6 0.506304 0.556039 0.649455
O O7 0.330628 0.796714 0.465927
O O8 0.166743 0.532126 0.297041
O O9 0.771112 0.255383 0.368492
O O10 0.833479 0.531645 0.458672
O O11 0.411162 0.990119 0.805869
O O12 0.500000 0.926936 0.750000
O O13 0.000000 0.621327 0.750000
#
# Coordination Sequence:
#
# PCOD8120892 Si02
#       6
#     4   4   4   4   4   4
#     4  11  25  38  56  91 125 154 185 242 306 345
#     4   9  17  36  58  84 106 146 201 242 274 331
#     4   9  17  36  58  81 109 151 197 233 280 341
#     4  10  22  42  61  82 121 158 196 237 287 357
#     4  11  21  39  65  87 110 156 208 242 279 344
#     4  10  22  34  55  87 120 148 188 245 292 339
#
# _framework density 20.604234999999999
#
# number of rings (size 3 to 8) (size 9 to 14) (size 15 to 20)
#    0.000    2.000    3.333    1.500    2.333    2.000 
#    3.000    3.333    0.000    0.000    0.000    0.000 
#    0.000    0.000    0.000    0.000    0.000    0.000 
#
# Total GULP energy -297529.501526 kJ/mol
# GULP energy per Si atom -12397.062564 kJ/mol
# Density = 2.055734 g / cm^3
# Si number density = 20.604235 Si / 1000 Ang^3
#
#
#
# Elastic Constant Matrix: (Units=GPa)
#
#
# Indices 1 2 3 4 5 6 
#
# 1 39.8541 22.2184 27.5180 0.0000 16.8610 0.0000
# 2 22.2184 85.3215 52.4906 0.0000 13.2336 0.0000
# 3 27.5180 52.4906 115.2536 0.0000 21.7045 0.0000
# 4 0.0000 0.0000 0.0000 26.1948 0.0000 1.8833
# 5 16.8610 13.2336 21.7045 0.0000 28.7129 0.0000
# 6 0.0000 0.0000 0.0000 1.8833 0.0000 22.4393
#
#
#
# Elastic Compliance Matrix: (Units=1/GPa)
#
#
# Indices 1 2 3 4 5 6 
#
# 1 0.037496 -0.004981 -0.003463 0.000000 -0.017106 0.000000
# 2 -0.004981 0.017066 -0.006591 0.000000 0.000042 0.000000
# 3 -0.003463 -0.006591 0.013467 0.000000 -0.005109 0.000000
# 4 0.000000 0.000000 0.000000 0.038407 0.000000 -0.003224
# 5 -0.017106 0.000042 -0.005109 0.000000 0.048715 0.000000
# 6 0.000000 0.000000 0.000000 -0.003224 0.000000 0.044835
#
#
# Mechanical properties :
#
#
# Convention : Reuss Voigt Hill
#
# Bulk Modulus (GPa) = 26.34364 49.43147 37.88756
# Shear Modulus (GPa) = 20.60078 24.68287 22.64182
#
# Velocity S-wave (km/s) = 3.16544 3.46490 3.31855
# Velocity P-wave (km/s) = 5.11599 6.32854 5.75429
#
# Compressibility (1/GPa) = 0.03795982
#
# Stress axis : x y z
#
# Youngs Moduli (GPa) = 26.66944 58.59675 74.25467
#
# Poissons Ratio (x) = 0.29186 0.25713
# Poissons Ratio (y) = 0.13283 0.48941
# Poissons Ratio (z) = 0.09235 0.38621
#
# Static dielectric constant tensor:
#      x y z
#    x 3.497690 0.000000 0.343440 
#    y 0.000000 3.601610 0.000000 
#    z 0.343440 0.000000 4.064950 
# 
# 
# High freq. dielectric constant tensor:
#      x y z
#    x 1.787260 0.000000 0.025650 
#    y 0.000000 1.793910 0.000000 
#    z 0.025650 0.000000 1.816530 
# 
# From -- ./inp_files/81728.got.cif
#   From: 2010.06.25/outbox.cif.g09.slc.cpg/sg13_41_cif.got.tgz:81728.got - 2010.06.28 04:50:58.
