data_PCOD8120641
_publ_section_title
;
Structure prediction by ZEFSAII (Michael W. Deem and Ramdas Pophale) SiO2 
 PCOD8120641
Probable space group: P 2/C
;
_chemical_formula_sum "Si O2"
_cell_formula_units_Z 20
_cell_length_a 21.804493
_cell_length_b 7.641018
_cell_length_c 5.273044
_cell_angle_alpha 90.000000
_cell_angle_beta 88.689283
_cell_angle_gamma 90.000000
_cell_volume 878.304205
_symmetry_space_group_name_H-M "P 2/C"
_symmetry_group_IT_number 13
_symmetry_cell_setting 'monoclinic'
loop_
_space_group_symop_operation_xyz
x,y,z
-x,y,1/2-z
-x,-y,-z
x,-y,1/2+z
loop_
_atom_site_type_symbol
_atom_site_label
_atom_site_fract_x
_atom_site_fract_y
_atom_site_fract_z
Si Si1 0.387579 0.617632 0.750025
Si Si2 0.000000 0.111564 0.750000
Si Si3 0.277799 0.886387 0.755658
Si Si4 0.074866 0.426971 0.844362
Si Si5 0.788276 0.569805 0.677392
Si Si6 0.500000 0.119079 0.250000
O O1 0.392920 0.513964 0.485589
O O2 0.324976 0.726600 0.773703
O O3 0.440792 0.759852 0.758036
O O4 0.937681 0.227771 0.739799
O O5 0.000000 0.000000 0.500000
O O6 0.212362 0.782049 0.783744
O O7 0.285113 0.978348 0.484221
O O8 0.043739 0.540967 0.621538
O O9 0.145544 0.480464 0.872525
O O10 0.753591 0.522999 0.417016
O O11 0.500000 0.000000 0.500000
#
# Coordination Sequence:
#
# PCOD8120641 Si02
#       6
#     4   2   4   4   4   2
#     4  12  24  42  66  93 127 172 216 254 313 392
#     4  12  24  40  64  98 126 156 204 262 306 358
#     4  12  24  41  64  95 125 160 210 269 316 361
#     4  10  21  41  65  87 121 166 202 241 304 375
#     4  10  21  41  63  88 121 165 206 245 306 376
#     4  12  24  42  64  96 134 166 208 272 324 362
#
# _framework density 22.771153999999999
#
# number of rings (size 3 to 8) (size 9 to 14) (size 15 to 20)
#    0.000    0.800    0.000    8.400    0.000    0.000 
#    0.000   24.000    0.000    0.000    0.000    0.000 
#    0.000    0.000    0.000    0.000    0.000    0.000 
#
# Total GULP energy -247784.960920 kJ/mol
# GULP energy per Si atom -12389.248046 kJ/mol
# Density = 2.271933 g / cm^3
# Si number density = 22.771154 Si / 1000 Ang^3
#
#
#
# Elastic Constant Matrix: (Units=GPa)
#
#
# Indices 1 2 3 4 5 6 
#
# 1 78.5356 48.1638 10.0941 0.0000 -7.6897 0.0000
# 2 48.1638 144.2650 60.9536 0.0000 -7.8842 0.0000
# 3 10.0941 60.9536 206.6138 0.0000 -16.3013 0.0000
# 4 0.0000 0.0000 0.0000 66.8213 0.0000 -11.1453
# 5 -7.6897 -7.8842 -16.3013 0.0000 14.7832 0.0000
# 6 0.0000 0.0000 0.0000 -11.1453 0.0000 4.5683
#
#
#
# Elastic Compliance Matrix: (Units=1/GPa)
#
#
# Indices 1 2 3 4 5 6 
#
# 1 0.016842 -0.005849 0.001476 0.000000 0.007269 0.000000
# 2 -0.005849 0.009994 -0.002719 0.000000 -0.000710 0.000000
# 3 0.001476 -0.002719 0.006042 0.000000 0.005980 0.000000
# 4 0.000000 0.000000 0.000000 0.025233 0.000000 0.061562
# 5 0.007269 -0.000710 0.005980 0.000000 0.077641 0.000000
# 6 0.000000 0.000000 0.000000 0.061562 0.000000 0.369091
#
#
# Mechanical properties :
#
#
# Convention : Reuss Voigt Hill
#
# Bulk Modulus (GPa) = 53.49072 74.20413 63.84743
# Shear Modulus (GPa) = 9.51911 37.91476 23.71693
#
# Velocity S-wave (km/s) = 2.04681 4.08491 3.23078
# Velocity P-wave (km/s) = 5.39698 7.40988 6.48204
#
# Compressibility (1/GPa) = 0.01869483
#
# Stress axis : x y z
#
# Youngs Moduli (GPa) = 59.37397 100.05560 165.51620
#
# Poissons Ratio (x) = 0.58527 -0.24436
# Poissons Ratio (y) = 0.34730 0.45000
# Poissons Ratio (z) = -0.08766 0.27203
#
# Static dielectric constant tensor:
#      x y z
#    x 3.810120 0.000000 -0.394580 
#    y 0.000000 4.291260 0.000000 
#    z -0.394580 0.000000 5.357810 
# 
# 
# High freq. dielectric constant tensor:
#      x y z
#    x 1.898270 0.000000 0.002880 
#    y 0.000000 1.902790 0.000000 
#    z 0.002880 0.000000 1.944940 
# 
# From -- ./inp_files/7637.got.cif
#   From: 2010.06.25/outbox.cif.g09.slc.cpg/sg13_4_cif.got.tgz:7637.got - 2010.06.28 04:50:58.
