data_PCOD8120949
_publ_section_title
;
Structure prediction by ZEFSAII (Michael W. Deem and Ramdas Pophale) SiO2 
 PCOD8120949
Probable space group: P 2/C
;
_chemical_formula_sum "Si O2"
_cell_formula_units_Z 24
_cell_length_a 17.408539
_cell_length_b 13.584342
_cell_length_c 13.418073
_cell_angle_alpha 90.000000
_cell_angle_beta 19.934823
_cell_angle_gamma 90.000000
_cell_volume 1081.889771
_symmetry_space_group_name_H-M "P 2/C"
_symmetry_group_IT_number 13
_symmetry_cell_setting 'monoclinic'
loop_
_space_group_symop_operation_xyz
x,y,z
-x,y,1/2-z
-x,-y,-z
x,-y,1/2+z
loop_
_atom_site_type_symbol
_atom_site_label
_atom_site_fract_x
_atom_site_fract_y
_atom_site_fract_z
Si Si1 0.967014 0.051522 0.904501
Si Si2 0.558067 0.169565 0.391467
Si Si3 0.773912 0.325152 0.264478
Si Si4 0.063447 0.846717 0.476754
Si Si5 0.128452 0.604479 0.194680
Si Si6 0.500000 0.444252 0.750000
Si Si7 0.500000 0.760872 0.750000
O O1 0.000000 0.079656 0.750000
O O2 0.106397 0.125355 0.807112
O O3 0.701285 0.073933 0.253053
O O4 0.045593 0.940754 0.833876
O O5 0.668479 0.268196 0.299822
O O6 0.300983 0.168300 0.742566
O O7 0.565842 0.171759 0.262588
O O8 0.570086 0.377227 0.570997
O O9 0.902866 0.248507 0.181712
O O10 0.946645 0.405496 0.006674
O O11 0.000000 0.630369 0.250000
O O12 0.277707 0.507021 0.994276
O O13 0.287747 0.692540 0.037230
#
# Coordination Sequence:
#
# PCOD8120949 Si02
#       7
#     4   4   4   4   4   2   2
#     4  10  22  37  59  93 127 168 212 258 307 366
#     4  11  21  36  67  92 126 165 216 257 313 373
#     4  11  24  43  65  93 129 167 213 258 318 391
#     4  10  22  40  60  90 130 166 210 261 308 370
#     4  11  23  43  67  94 127 158 215 273 323 373
#     4  11  28  44  64  97 126 172 209 260 332 387
#     4  11  20  36  66 101 118 166 213 268 318 365
#
# _framework density 22.183405
#
# number of rings (size 3 to 8) (size 9 to 14) (size 15 to 20)
#    0.000    1.333    3.333    2.000    2.333    3.333 
#    0.000    0.000    0.000    0.000    0.000    0.000 
#    0.000    0.000    0.000    0.000    0.000    0.000 
#
# Total GULP energy -297503.822223 kJ/mol
# GULP energy per Si atom -12395.992593 kJ/mol
# Density = 2.213292 g / cm^3
# Si number density = 22.183405 Si / 1000 Ang^3
#
#
#
# Elastic Constant Matrix: (Units=GPa)
#
#
# Indices 1 2 3 4 5 6 
#
# 1 80.4109 23.7830 30.8749 0.0000 -7.9538 0.0000
# 2 23.7830 95.4087 41.1612 0.0000 -2.5396 0.0000
# 3 30.8749 41.1612 114.3631 0.0000 -3.4747 0.0000
# 4 0.0000 0.0000 0.0000 22.9951 0.0000 -1.9452
# 5 -7.9538 -2.5396 -3.4747 0.0000 40.6595 0.0000
# 6 0.0000 0.0000 0.0000 -1.9452 0.0000 16.2985
#
#
#
# Elastic Compliance Matrix: (Units=1/GPa)
#
#
# Indices 1 2 3 4 5 6 
#
# 1 0.014506 -0.002242 -0.003035 0.000000 0.002438 0.000000
# 2 -0.002242 0.012761 -0.003987 0.000000 0.000018 0.000000
# 3 -0.003035 -0.003987 0.011001 0.000000 0.000097 0.000000
# 4 0.000000 0.000000 0.000000 0.043931 0.000000 0.005243
# 5 0.002438 0.000018 0.000097 0.000000 0.025081 0.000000
# 6 0.000000 0.000000 0.000000 0.005243 0.000000 0.061981
#
#
# Mechanical properties :
#
#
# Convention : Reuss Voigt Hill
#
# Bulk Modulus (GPa) = 50.65853 53.53566 52.09710
# Shear Modulus (GPa) = 25.72436 28.94821 27.33629
#
# Velocity S-wave (km/s) = 3.40902 3.61633 3.51420
# Velocity P-wave (km/s) = 6.19524 6.45156 6.32470
#
# Compressibility (1/GPa) = 0.01974001
#
# Stress axis : x y z
#
# Youngs Moduli (GPa) = 68.93838 78.36658 90.89674
#
# Poissons Ratio (x) = 0.17566 0.27590
# Poissons Ratio (y) = 0.15453 0.36241
# Poissons Ratio (z) = 0.20925 0.31245
#
# Static dielectric constant tensor:
#      x y z
#    x 3.795130 0.000000 -0.293320 
#    y 0.000000 3.810320 0.000000 
#    z -0.293320 0.000000 4.079900 
# 
# 
# High freq. dielectric constant tensor:
#      x y z
#    x 1.863340 0.000000 -0.021010 
#    y 0.000000 1.864420 0.000000 
#    z -0.021010 0.000000 1.875340 
# 
# From -- ./inp_files/55885.got.cif
#   From: 2010.06.25/outbox.cif.g09.slc.cpg/sg13_28_cif.got.tgz:55885.got - 2010.06.28 04:50:58.
