data_PCOD8120017
_publ_section_title
;
Structure prediction by ZEFSAII (Michael W. Deem and Ramdas Pophale) SiO2 
 PCOD8120017
Probable space group: P 2/C
;
_chemical_formula_sum "Si O2"
_cell_formula_units_Z 18
_cell_length_a 20.521855
_cell_length_b 8.157208
_cell_length_c 21.007663
_cell_angle_alpha 90.000000
_cell_angle_beta 14.493753
_cell_angle_gamma 90.000000
_cell_volume 880.141298
_symmetry_space_group_name_H-M "P 2/C"
_symmetry_group_IT_number 13
_symmetry_cell_setting 'monoclinic'
loop_
_space_group_symop_operation_xyz
x,y,z
-x,y,1/2-z
-x,-y,-z
x,-y,1/2+z
loop_
_atom_site_type_symbol
_atom_site_label
_atom_site_fract_x
_atom_site_fract_y
_atom_site_fract_z
Si Si1 0.989590 0.376931 0.922125
Si Si2 0.235214 0.314050 0.814835
Si Si3 0.196064 0.698082 0.683774
Si Si4 0.000000 0.876237 0.750000
Si Si5 0.215163 0.190700 0.499670
O O1 0.165805 0.278669 0.806672
O O2 0.168186 0.499581 0.710482
O O3 0.776867 0.487974 0.161522
O O4 0.842756 0.244697 0.017634
O O5 0.521097 0.245714 0.559258
O O6 0.023798 0.225285 0.061104
O O7 0.162107 0.761187 0.644123
O O8 0.196250 0.992573 0.523829
O O9 0.500000 0.253658 0.250000
O O10 0.000000 0.272918 0.750000
#
# Coordination Sequence:
#
# PCOD8120017 Si02
#       5
#     4   4   4   2   4
#     4   9  21  37  62  85 111 142 187 235 278 325
#     4   9  21  34  63  86 110 138 190 233 282 319
#     4  10  21  36  61  83 114 141 187 232 276 329
#     4  10  26  38  56  82 118 152 186 222 276 338
#     4  10  25  38  57  79 118 149 187 226 275 333
#
# _framework density 20.451260999999999
#
# number of rings (size 3 to 8) (size 9 to 14) (size 15 to 20)
#    2.000    0.444    0.000    0.667    7.778    0.000 
#    0.000    2.222    0.000    0.000    0.000    0.000 
#    0.000    0.000    0.000    0.000    0.000    0.000 
#
# Total GULP energy -223026.001559 kJ/mol
# GULP energy per Si atom -12390.333420 kJ/mol
# Density = 2.040471 g / cm^3
# Si number density = 20.451261 Si / 1000 Ang^3
#
#
#
# Elastic Constant Matrix: (Units=GPa)
#
#
# Indices 1 2 3 4 5 6 
#
# 1 222.0704 57.7421 67.0128 0.0000 -29.8206 0.0000
# 2 57.7421 38.1094 22.1322 0.0000 0.4352 0.0000
# 3 67.0128 22.1322 135.9498 0.0000 -31.9759 0.0000
# 4 0.0000 0.0000 0.0000 10.5930 0.0000 4.2465
# 5 -29.8206 0.4352 -31.9759 0.0000 31.9971 0.0000
# 6 0.0000 0.0000 0.0000 4.2465 0.0000 19.8999
#
#
#
# Elastic Compliance Matrix: (Units=1/GPa)
#
#
# Indices 1 2 3 4 5 6 
#
# 1 0.009483 -0.014299 -0.000290 0.000000 0.008742 0.000000
# 2 -0.014299 0.051676 -0.006097 0.000000 -0.020122 0.000000
# 3 -0.000290 -0.006097 0.011043 0.000000 0.010848 0.000000
# 4 0.000000 0.000000 0.000000 0.103233 0.000000 -0.022029
# 5 0.008742 -0.020122 0.010848 0.000000 0.050515 0.000000
# 6 0.000000 0.000000 0.000000 -0.022029 0.000000 0.054952
#
#
# Mechanical properties :
#
#
# Convention : Reuss Voigt Hill
#
# Bulk Modulus (GPa) = 32.43729 76.65600 54.54664
# Shear Modulus (GPa) = 15.03528 29.11416 22.07472
#
# Velocity S-wave (km/s) = 2.71436 3.77714 3.28896
# Velocity P-wave (km/s) = 5.07137 7.52237 6.41502
#
# Compressibility (1/GPa) = 0.03082872
#
# Stress axis : x y z
#
# Youngs Moduli (GPa) = 105.45733 19.35126 90.55669
#
# Poissons Ratio (x) = 0.27670 0.02628
# Poissons Ratio (y) = 1.50792 0.55216
# Poissons Ratio (z) = 0.03060 0.11799
#
# Static dielectric constant tensor:
#      x y z
#    x 3.586950 0.000000 -0.033780 
#    y 0.000000 3.148650 0.000000 
#    z -0.033780 0.000000 3.434450 
# 
# 
# High freq. dielectric constant tensor:
#      x y z
#    x 1.810440 0.000000 -0.007380 
#    y 0.000000 1.749700 0.000000 
#    z -0.007380 0.000000 1.785910 
# 
# From -- ./inp_files/69383.got.cif
#   From: 2010.06.25/outbox.cif.g09.slc.cpg/sg13_35_cif.got.tgz:69383.got - 2010.06.28 04:50:58.
