data_PCOD8120896
_publ_section_title
;
Structure prediction by ZEFSAII (Michael W. Deem and Ramdas Pophale) SiO2 
 PCOD8120896
Probable space group: P 2/C
;
_chemical_formula_sum "Si O2"
_cell_formula_units_Z 24
_cell_length_a 13.709908
_cell_length_b 9.555747
_cell_length_c 14.087441
_cell_angle_alpha 90.000000
_cell_angle_beta 40.231376
_cell_angle_gamma 90.000000
_cell_volume 1192.011222
_symmetry_space_group_name_H-M "P 2/C"
_symmetry_group_IT_number 13
_symmetry_cell_setting 'monoclinic'
loop_
_space_group_symop_operation_xyz
x,y,z
-x,y,1/2-z
-x,-y,-z
x,-y,1/2+z
loop_
_atom_site_type_symbol
_atom_site_label
_atom_site_fract_x
_atom_site_fract_y
_atom_site_fract_z
Si Si1 0.748272 0.682538 0.574237
Si Si2 0.497852 0.629983 0.618234
Si Si3 0.098827 0.795142 0.458039
Si Si4 0.982826 0.470782 0.150636
Si Si5 0.930236 0.933533 0.405762
Si Si6 0.319735 0.625742 0.187490
O O1 0.622671 0.606596 0.605813
O O2 0.655680 0.715551 0.740966
O O3 0.890285 0.578713 0.482334
O O4 0.788630 0.831059 0.497399
O O5 0.586133 0.704082 0.465478
O O6 0.444358 0.472737 0.640140
O O7 0.995881 0.673455 0.581460
O O8 0.263063 0.735237 0.308578
O O9 0.031366 0.855713 0.410087
O O10 0.120246 0.915251 0.520181
O O11 0.000000 0.442686 0.250000
O O12 0.821197 0.540084 0.252146
O O13 0.000000 0.950391 0.250000
#
# Coordination Sequence:
#
# PCOD8120896 Si02
#       6
#     4   4   4   4   4   4
#     4  11  20  39  61  88 123 167 212 254 312 383
#     4  10  22  34  61  91 125 163 203 256 319 376
#     4  11  23  38  64  97 128 161 214 272 313 367
#     4  12  21  37  66  99 124 166 215 267 311 369
#     4  11  23  41  63  92 128 169 213 262 319 377
#     4  11  20  37  59  96 127 161 206 268 314 370
#
# _framework density 20.134039000000001
#
# number of rings (size 3 to 8) (size 9 to 14) (size 15 to 20)
#    0.000    1.000    5.000    3.500    0.000    0.000 
#    0.000    0.833    7.333    0.000    0.000    0.000 
#    0.000    0.000    0.000    0.000    0.000    0.000 
#
# Total GULP energy -297315.861033 kJ/mol
# GULP energy per Si atom -12388.160876 kJ/mol
# Density = 2.008821 g / cm^3
# Si number density = 20.134039 Si / 1000 Ang^3
#
#
#
# Elastic Constant Matrix: (Units=GPa)
#
#
# Indices 1 2 3 4 5 6 
#
# 1 79.2884 35.9269 44.2625 0.0000 3.1834 0.0000
# 2 35.9269 118.3937 72.3714 0.0000 8.9735 0.0000
# 3 44.2625 72.3714 187.7522 0.0000 17.7910 0.0000
# 4 0.0000 0.0000 0.0000 37.4084 0.0000 6.4770
# 5 3.1834 8.9735 17.7910 0.0000 37.4079 0.0000
# 6 0.0000 0.0000 0.0000 6.4770 0.0000 15.9975
#
#
#
# Elastic Compliance Matrix: (Units=1/GPa)
#
#
# Indices 1 2 3 4 5 6 
#
# 1 0.015417 -0.003229 -0.002450 0.000000 0.000627 0.000000
# 2 -0.003229 0.011742 -0.003690 0.000000 -0.000787 0.000000
# 3 -0.002450 -0.003690 0.007563 0.000000 -0.002503 0.000000
# 4 0.000000 0.000000 0.000000 0.028747 0.000000 -0.011639
# 5 0.000627 -0.000787 -0.002503 0.000000 0.028058 0.000000
# 6 0.000000 0.000000 0.000000 -0.011639 0.000000 0.067222
#
#
# Mechanical properties :
#
#
# Convention : Reuss Voigt Hill
#
# Bulk Modulus (GPa) = 62.55722 76.72844 69.64283
# Shear Modulus (GPa) = 27.35008 33.68768 30.51888
#
# Velocity S-wave (km/s) = 3.68965 4.09488 3.89753
# Velocity P-wave (km/s) = 7.02062 7.78132 7.41074
#
# Compressibility (1/GPa) = 0.01598536
#
# Stress axis : x y z
#
# Youngs Moduli (GPa) = 64.86174 85.16789 132.21719
#
# Poissons Ratio (x) = 0.27498 0.32388
# Poissons Ratio (y) = 0.20942 0.48791
# Poissons Ratio (z) = 0.15888 0.31429
#
# Static dielectric constant tensor:
#      x y z
#    x 3.627020 0.000000 0.194710 
#    y 0.000000 3.641710 0.000000 
#    z 0.194710 0.000000 4.483140 
# 
# 
# High freq. dielectric constant tensor:
#      x y z
#    x 1.781160 0.000000 0.012090 
#    y 0.000000 1.757180 0.000000 
#    z 0.012090 0.000000 1.816300 
# 
# From -- ./inp_files/52851.got.cif
#   From: 2010.06.25/outbox.cif.g09.slc.cpg/sg13_27_cif.got.tgz:52851.got - 2010.06.28 04:50:58.
