data_PCOD8120817
_publ_section_title
;
Structure prediction by ZEFSAII (Michael W. Deem and Ramdas Pophale) SiO2 
 PCOD8120817
Probable space group: P 2/C
;
_chemical_formula_sum "Si O2"
_cell_formula_units_Z 26
_cell_length_a 9.495065
_cell_length_b 20.388052
_cell_length_c 8.667102
_cell_angle_alpha 90.000000
_cell_angle_beta 133.129924
_cell_angle_gamma 90.000000
_cell_volume 1224.488212
_symmetry_space_group_name_H-M "P 2/C"
_symmetry_group_IT_number 13
_symmetry_cell_setting 'monoclinic'
loop_
_space_group_symop_operation_xyz
x,y,z
-x,y,1/2-z
-x,-y,-z
x,-y,1/2+z
loop_
_atom_site_type_symbol
_atom_site_label
_atom_site_fract_x
_atom_site_fract_y
_atom_site_fract_z
Si Si1 0.937112 0.065101 0.363943
Si Si2 0.500000 0.641073 0.750000
Si Si3 0.250657 0.553696 0.790544
Si Si4 0.802493 0.577129 0.404567
Si Si5 0.518738 0.072627 0.952074
Si Si6 0.154024 0.154461 0.733183
Si Si7 0.806918 0.695028 0.193541
O O1 0.000000 0.038380 0.250000
O O2 0.061651 0.127736 0.507254
O O3 0.720119 0.092865 0.182138
O O4 0.000000 0.000000 0.500000
O O5 0.384746 0.596270 0.782455
O O6 0.362676 0.690423 0.556689
O O7 0.284154 0.476486 0.779977
O O8 0.030392 0.569914 0.590748
O O9 0.300760 0.568560 0.006739
O O10 0.761062 0.648644 0.304792
O O11 0.500000 0.076640 0.750000
O O12 0.358406 0.118681 0.912661
O O13 0.500000 0.000000 0.000000
O O14 0.182533 0.231653 0.735089
O O15 0.000000 0.136426 0.750000
O O16 0.000000 0.672615 0.250000
#
# Coordination Sequence:
#
# PCOD8120817 Si02
#       7
#     4   2   4   4   4   4   4
#     4  12  23  44  72 101 137 178 226 281 343 403
#     4  12  24  44  72 102 134 180 240 278 346 404
#     4  10  22  38  71 103 131 179 232 289 339 403
#     4  10  21  43  65  98 140 179 226 285 351 397
#     4  12  25  44  72 104 138 175 227 285 342 404
#     4  11  27  46  68 102 139 186 228 281 350 411
#     4  11  25  47  67  96 143 184 225 283 345 416
#
# _framework density 21.233362
#
# number of rings (size 3 to 8) (size 9 to 14) (size 15 to 20)
#    0.000    0.923    4.615    1.385    4.308    5.538 
#    5.538    0.000    0.000    0.000    0.000    0.000 
#    0.000    0.000    0.000    0.000    0.000    0.000 
#
# Total GULP energy -322256.510608 kJ/mol
# GULP energy per Si atom -12394.481177 kJ/mol
# Density = 2.118503 g / cm^3
# Si number density = 21.233362 Si / 1000 Ang^3
#
#
#
# Elastic Constant Matrix: (Units=GPa)
#
#
# Indices 1 2 3 4 5 6 
#
# 1 127.7345 61.4279 49.8753 0.0000 -16.9036 0.0000
# 2 61.4279 157.9412 75.3886 0.0000 -13.7570 0.0000
# 3 49.8753 75.3886 142.1823 0.0000 -7.9779 0.0000
# 4 0.0000 0.0000 0.0000 46.2030 0.0000 -17.5873
# 5 -16.9036 -13.7570 -7.9779 0.0000 36.6063 0.0000
# 6 0.0000 0.0000 0.0000 -17.5873 0.0000 -10.2851
#
#
#
# Elastic Compliance Matrix: (Units=1/GPa)
#
#
# Indices 1 2 3 4 5 6 
#
# 1 0.010387 -0.002813 -0.001966 0.000000 0.003311 0.000000
# 2 -0.002813 0.009423 -0.003932 0.000000 0.001385 0.000000
# 3 -0.001966 -0.003932 0.009794 0.000000 -0.000251 0.000000
# 4 0.000000 0.000000 0.000000 0.013110 0.000000 -0.022418
# 5 0.003311 0.001385 -0.000251 0.000000 0.029312 0.000000
# 6 0.000000 0.000000 0.000000 -0.022418 0.000000 -0.058894
#
#
# Mechanical properties :
#
#
# Convention : Reuss Voigt Hill
#
# Bulk Modulus (GPa) = 82.09108 89.02685 85.55896
# Shear Modulus (GPa) = 144.44272 30.58259 87.51266
#
# Velocity S-wave (km/s) = 8.25675 3.79926 6.42683
# Velocity P-wave (km/s) = 11.38613 7.82717 9.77007
#
# Compressibility (1/GPa) = 0.01218159
#
# Stress axis : x y z
#
# Youngs Moduli (GPa) = 96.26976 106.12433 102.10678
#
# Poissons Ratio (x) = 0.29852 0.20079
# Poissons Ratio (y) = 0.27080 0.40146
# Poissons Ratio (z) = 0.18931 0.41726
#
# Static dielectric constant tensor:
#      x y z
#    x 4.219860 0.000000 0.074120 
#    y 0.000000 3.657870 0.000000 
#    z 0.074120 0.000000 4.038560 
# 
# 
# High freq. dielectric constant tensor:
#      x y z
#    x 1.844440 0.000000 0.008010 
#    y 0.000000 1.822100 0.000000 
#    z 0.008010 0.000000 1.852840 
# 
# From -- ./inp_files/13668.got.cif
#   From: 2010.06.25/outbox.cif.g09.slc.cpg/sg13_7_cif.got.tgz:13668.got - 2010.06.28 04:50:58.
