data_PCOD8120371
_publ_section_title
;
Structure prediction by ZEFSAII (Michael W. Deem and Ramdas Pophale) SiO2 
 PCOD8120371
Probable space group: P 2/C
;
_chemical_formula_sum "Si O2"
_cell_formula_units_Z 28
_cell_length_a 8.971790
_cell_length_b 13.976496
_cell_length_c 11.167024
_cell_angle_alpha 90.000000
_cell_angle_beta 117.901764
_cell_angle_gamma 90.000000
_cell_volume 1237.499071
_symmetry_space_group_name_H-M "P 2/C"
_symmetry_group_IT_number 13
_symmetry_cell_setting 'monoclinic'
loop_
_space_group_symop_operation_xyz
x,y,z
-x,y,1/2-z
-x,-y,-z
x,-y,1/2+z
loop_
_atom_site_type_symbol
_atom_site_label
_atom_site_fract_x
_atom_site_fract_y
_atom_site_fract_z
Si Si1 0.214725 0.370899 0.653182
Si Si2 0.113853 0.256265 0.007461
Si Si3 0.904331 0.137582 0.104149
Si Si4 0.307575 0.579205 0.710688
Si Si5 0.696379 0.312786 0.069536
Si Si6 0.360959 0.761229 0.400655
Si Si7 0.546175 0.057878 0.897131
O O1 0.198307 0.485484 0.641782
O O2 0.313971 0.338406 0.573201
O O3 0.316677 0.331095 0.804352
O O4 0.029850 0.327336 0.591138
O O5 0.246019 0.322782 0.127057
O O6 0.039305 0.165977 0.052397
O O7 0.206035 0.209153 0.927811
O O8 0.841655 0.234752 0.144980
O O9 0.000000 0.081067 0.250000
O O10 0.746592 0.081873 0.984142
O O11 0.500000 0.557630 0.750000
O O12 0.275695 0.593420 0.840469
O O13 0.517756 0.268320 0.043273
O O14 0.422267 0.850454 0.343876
O O15 0.500000 0.006877 0.750000
O O16 0.500000 0.000000 0.000000
#
# Coordination Sequence:
#
# PCOD8120371 Si02
#       7
#     4   4   4   4   4   4   4
#     4  11  25  38  59  89 134 186 232 286 339 393
#     4  11  23  40  62  98 129 184 229 282 338 400
#     4  10  21  43  71 101 139 181 225 281 356 412
#     4  12  23  37  59  93 134 177 242 286 324 391
#     4  10  21  39  62  85 126 180 227 274 335 401
#     4  11  22  44  69  94 132 179 224 275 348 418
#     4  11  26  50  79 110 142 179 230 288 358 446
#
# _framework density 22.626280000000001
#
# number of rings (size 3 to 8) (size 9 to 14) (size 15 to 20)
#    0.000    1.143    2.857    4.714    2.000    2.286 
#    5.143    4.286    0.000    0.000    0.000    0.000 
#    0.000    0.000    0.000    0.000    0.000    0.000 
#
# Total GULP energy -347015.603485 kJ/mol
# GULP energy per Si atom -12393.414410 kJ/mol
# Density = 2.257478 g / cm^3
# Si number density = 22.626280 Si / 1000 Ang^3
#
#
#
# Elastic Constant Matrix: (Units=GPa)
#
#
# Indices 1 2 3 4 5 6 
#
# 1 126.8544 6.8411 45.7395 0.0000 -2.8718 0.0000
# 2 6.8411 41.7367 18.3204 0.0000 -4.6247 0.0000
# 3 45.7395 18.3204 119.7857 0.0000 -2.1498 0.0000
# 4 0.0000 0.0000 0.0000 30.1270 0.0000 -2.1881
# 5 -2.8718 -4.6247 -2.1498 0.0000 30.5057 0.0000
# 6 0.0000 0.0000 0.0000 -2.1881 0.0000 21.0339
#
#
#
# Elastic Compliance Matrix: (Units=1/GPa)
#
#
# Indices 1 2 3 4 5 6 
#
# 1 0.009154 0.000106 -0.003500 0.000000 0.000631 0.000000
# 2 0.000106 0.026091 -0.003965 0.000000 0.003686 0.000000
# 3 -0.003500 -0.003965 0.010287 0.000000 -0.000206 0.000000
# 4 0.000000 0.000000 0.000000 0.033446 0.000000 0.003479
# 5 0.000631 0.003686 -0.000206 0.000000 0.033384 0.000000
# 6 0.000000 0.000000 0.000000 0.003479 0.000000 0.047904
#
#
# Mechanical properties :
#
#
# Convention : Reuss Voigt Hill
#
# Bulk Modulus (GPa) = 32.45247 47.79766 40.12506
# Shear Modulus (GPa) = 26.98971 30.83171 28.91071
#
# Velocity S-wave (km/s) = 3.45751 3.69541 3.57844
# Velocity P-wave (km/s) = 5.50574 6.27525 5.90305
#
# Compressibility (1/GPa) = 0.03081429
#
# Stress axis : x y z
#
# Youngs Moduli (GPa) = 109.24575 38.32723 97.20585
#
# Poissons Ratio (x) = -0.00406 0.34024
# Poissons Ratio (y) = -0.01157 0.38540
# Poissons Ratio (z) = 0.38238 0.15196
#
# Static dielectric constant tensor:
#      x y z
#    x 4.235850 0.000000 -0.008840 
#    y 0.000000 3.774650 0.000000 
#    z -0.008840 0.000000 4.169400 
# 
# 
# High freq. dielectric constant tensor:
#      x y z
#    x 1.908380 0.000000 0.003950 
#    y 0.000000 1.858050 0.000000 
#    z 0.003950 0.000000 1.900950 
# 
# From -- ./inp_files/30506.got.cif
#   From: 2010.06.25/outbox.cif.g09.slc.cpg/sg13_16_cif.got.tgz:30506.got - 2010.06.28 04:50:58.
