data_PCOD8120785
_publ_section_title
;
Structure prediction by ZEFSAII (Michael W. Deem and Ramdas Pophale) SiO2 
 PCOD8120785
Probable space group: P 2/C
;
_chemical_formula_sum "Si O2"
_cell_formula_units_Z 28
_cell_length_a 9.331395
_cell_length_b 13.945560
_cell_length_c 14.159868
_cell_angle_alpha 90.000000
_cell_angle_beta 132.173234
_cell_angle_gamma 90.000000
_cell_volume 1365.618155
_symmetry_space_group_name_H-M "P 2/C"
_symmetry_group_IT_number 13
_symmetry_cell_setting 'monoclinic'
loop_
_space_group_symop_operation_xyz
x,y,z
-x,y,1/2-z
-x,-y,-z
x,-y,1/2+z
loop_
_atom_site_type_symbol
_atom_site_label
_atom_site_fract_x
_atom_site_fract_y
_atom_site_fract_z
Si Si1 0.435549 0.893557 0.489883
Si Si2 0.283743 0.934394 0.613758
Si Si3 0.485635 0.438794 0.853281
Si Si4 0.785197 0.564689 0.642167
Si Si5 0.797708 0.785027 0.634263
Si Si6 0.887772 0.144724 0.976044
Si Si7 0.357819 0.225779 0.772816
O O1 0.278368 0.894812 0.503769
O O2 0.624182 0.837465 0.610459
O O3 0.355820 0.846123 0.359842
O O4 0.500000 0.000000 0.500000
O O5 0.500000 0.920544 0.750000
O O6 0.117959 0.872149 0.594573
O O7 0.223262 0.044879 0.589645
O O8 0.500000 0.464325 0.750000
O O9 0.344037 0.515283 0.836215
O O10 0.399775 0.332244 0.829880
O O11 0.694820 0.449288 0.997130
O O12 0.792565 0.676728 0.667913
O O13 0.000000 0.520887 0.750000
O O14 0.781642 0.797788 0.514046
O O15 0.000000 0.835051 0.750000
O O16 0.854066 0.212658 0.868998
O O17 0.500000 0.195291 0.750000
#
# Coordination Sequence:
#
# PCOD8120785 Si02
#       7
#     4   4   4   4   4   4   4
#     4  12  21  37  62  91 123 166 203 254 307 356
#     4  11  24  40  57  92 133 164 208 261 306 363
#     4  10  21  42  69  93 124 164 211 269 326 376
#     4  10  22  41  65  96 128 161 212 268 321 391
#     4  11  21  38  63  88 121 169 209 249 316 379
#     4  11  22  41  62  88 125 170 212 255 304 377
#     4  11  20  39  67  90 120 161 215 256 305 379
#
# _framework density 20.503534999999999
#
# number of rings (size 3 to 8) (size 9 to 14) (size 15 to 20)
#    0.000    1.143    4.286    3.000    0.000    2.286 
#    2.571    3.571    0.000    0.000    0.000    0.000 
#    0.000    0.000    0.000    0.000    0.000    0.000 
#
# Total GULP energy -347037.988128 kJ/mol
# GULP energy per Si atom -12394.213862 kJ/mol
# Density = 2.045687 g / cm^3
# Si number density = 20.503535 Si / 1000 Ang^3
#
#
#
# Elastic Constant Matrix: (Units=GPa)
#
#
# Indices 1 2 3 4 5 6 
#
# 1 77.6009 36.7816 27.7259 0.0000 -1.0910 0.0000
# 2 36.7816 84.5444 33.3423 0.0000 -3.5634 0.0000
# 3 27.7259 33.3423 128.6920 0.0000 9.8534 0.0000
# 4 0.0000 0.0000 0.0000 27.7124 0.0000 -4.8174
# 5 -1.0910 -3.5634 9.8534 0.0000 42.7419 0.0000
# 6 0.0000 0.0000 0.0000 -4.8174 0.0000 34.3227
#
#
#
# Elastic Compliance Matrix: (Units=1/GPa)
#
#
# Indices 1 2 3 4 5 6 
#
# 1 0.016647 -0.006465 -0.001937 0.000000 0.000333 0.000000
# 2 -0.006465 0.015841 -0.002850 0.000000 0.001813 0.000000
# 3 -0.001937 -0.002850 0.009109 0.000000 -0.002387 0.000000
# 4 0.000000 0.000000 0.000000 0.036987 0.000000 0.005191
# 5 0.000333 0.001813 -0.002387 0.000000 0.024106 0.000000
# 6 0.000000 0.000000 0.000000 0.005191 0.000000 0.029864
#
#
# Mechanical properties :
#
#
# Convention : Reuss Voigt Hill
#
# Bulk Modulus (GPa) = 52.37372 54.05965 53.21668
# Shear Modulus (GPa) = 30.97450 33.82124 32.39787
#
# Velocity S-wave (km/s) = 3.89098 4.06585 3.97937
# Velocity P-wave (km/s) = 6.76650 6.96166 6.86477
#
# Compressibility (1/GPa) = 0.01909355
#
# Stress axis : x y z
#
# Youngs Moduli (GPa) = 60.06965 63.12731 109.78085
#
# Poissons Ratio (x) = 0.40809 0.21266
# Poissons Ratio (y) = 0.38832 0.31290
# Poissons Ratio (z) = 0.11636 0.17993
#
# Static dielectric constant tensor:
#      x y z
#    x 3.235230 0.000000 0.190610 
#    y 0.000000 3.609780 0.000000 
#    z 0.190610 0.000000 4.322320 
# 
# 
# High freq. dielectric constant tensor:
#      x y z
#    x 1.788750 0.000000 0.000970 
#    y 0.000000 1.789970 0.000000 
#    z 0.000970 0.000000 1.822670 
# 
# From -- ./inp_files/47751.got.cif
#   From: 2010.06.25/outbox.cif.g09.slc.cpg/sg13_24_cif.got.tgz:47751.got - 2010.06.28 04:50:58.
