data_PCOD8120006
_publ_section_title
;
Structure prediction by ZEFSAII (Michael W. Deem and Ramdas Pophale) SiO2 
 PCOD8120006
Probable space group: P 2/C
;
_chemical_formula_sum "Si O2"
_cell_formula_units_Z 30
_cell_length_a 15.412583
_cell_length_b 10.551585
_cell_length_c 20.881744
_cell_angle_alpha 90.000000
_cell_angle_beta 154.290393
_cell_angle_gamma 90.000000
_cell_volume 1473.192917
_symmetry_space_group_name_H-M "P 2/C"
_symmetry_group_IT_number 13
_symmetry_cell_setting 'monoclinic'
loop_
_space_group_symop_operation_xyz
x,y,z
-x,y,1/2-z
-x,-y,-z
x,-y,1/2+z
loop_
_atom_site_type_symbol
_atom_site_label
_atom_site_fract_x
_atom_site_fract_y
_atom_site_fract_z
Si Si1 0.874309 0.564317 0.860423
Si Si2 0.500000 0.102988 0.750000
Si Si3 0.476272 0.377430 0.164103
Si Si4 0.012753 0.421910 0.826671
Si Si5 0.821315 0.848670 0.170807
Si Si6 0.899467 0.182747 0.974793
Si Si7 0.500087 0.899493 0.648364
Si Si8 0.865467 0.037227 0.832665
O O1 0.637929 0.561739 0.721660
O O2 0.909023 0.495995 0.815704
O O3 0.000000 0.500000 0.000000
O O4 0.956515 0.705910 0.906597
O O5 0.667079 0.203220 0.837409
O O6 0.414034 0.011779 0.635925
O O7 0.500000 0.440546 0.250000
O O8 0.526987 0.229190 0.205945
O O9 0.247297 0.395483 0.991676
O O10 0.000000 0.497598 0.750000
O O11 0.885923 0.293252 0.732840
O O12 0.779878 0.925696 0.207475
O O13 0.000000 0.914199 0.250000
O O14 0.626150 0.860313 0.998041
O O15 0.916792 0.161983 0.909191
O O16 0.941433 0.052586 0.042128
O O17 0.714093 0.945948 0.768538
#
# Coordination Sequence:
#
# PCOD8120006 Si02
#       8
#     4   2   4   4   4   4   4   4
#     4  12  25  43  67  95 129 176 226 275 323 384
#     4  10  22  36  62  94 128 166 206 268 334 388
#     4  12  23  41  70  97 124 170 225 273 319 399
#     4  11  25  44  66  98 134 176 225 275 326 388
#     4  11  21  37  62  90 128 161 210 255 321 387
#     4  10  22  37  60  89 125 160 209 264 322 382
#     4  11  20  37  62  93 126 161 209 258 325 395
#     4  10  21  36  59  92 124 159 203 266 323 385
#
# _framework density 20.363931999999998
#
# number of rings (size 3 to 8) (size 9 to 14) (size 15 to 20)
#    0.000    1.067    6.000    2.000    0.000    1.600 
#    0.000    2.000    0.000    0.000    0.000    0.000 
#    0.000    0.000    0.000    0.000    0.000    0.000 
#
# Total GULP energy -371727.535653 kJ/mol
# GULP energy per Si atom -12390.917855 kJ/mol
# Density = 2.031758 g / cm^3
# Si number density = 20.363932 Si / 1000 Ang^3
#
#
#
# Elastic Constant Matrix: (Units=GPa)
#
#
# Indices 1 2 3 4 5 6 
#
# 1 137.2281 46.0822 41.3624 0.0000 -11.4744 0.0000
# 2 46.0822 53.2312 25.8162 0.0000 0.3822 0.0000
# 3 41.3624 25.8162 92.3042 0.0000 -9.8855 0.0000
# 4 0.0000 0.0000 0.0000 23.5811 0.0000 -5.9229
# 5 -11.4744 0.3822 -9.8855 0.0000 42.3589 0.0000
# 6 0.0000 0.0000 0.0000 -5.9229 0.0000 25.9721
#
#
#
# Elastic Compliance Matrix: (Units=1/GPa)
#
#
# Indices 1 2 3 4 5 6 
#
# 1 0.011031 -0.008448 -0.002310 0.000000 0.002525 0.000000
# 2 -0.008448 0.028317 -0.004520 0.000000 -0.003599 0.000000
# 3 -0.002310 -0.004520 0.013405 0.000000 0.002544 0.000000
# 4 0.000000 0.000000 0.000000 0.044984 0.000000 0.010259
# 5 0.002525 -0.003599 0.002544 0.000000 0.024918 0.000000
# 6 0.000000 0.000000 0.000000 0.010259 0.000000 0.040842
#
#
# Mechanical properties :
#
#
# Convention : Reuss Voigt Hill
#
# Bulk Modulus (GPa) = 45.04773 56.58721 50.81747
# Shear Modulus (GPa) = 24.81980 29.68260 27.25120
#
# Velocity S-wave (km/s) = 3.49494 3.82200 3.66212
# Velocity P-wave (km/s) = 6.20125 6.87933 6.54907
#
# Compressibility (1/GPa) = 0.02219868
#
# Stress axis : x y z
#
# Youngs Moduli (GPa) = 90.65064 35.31462 74.59647
#
# Poissons Ratio (x) = 0.29832 0.17233
# Poissons Ratio (y) = 0.76578 0.33716
# Poissons Ratio (z) = 0.20941 0.15961
#
# Static dielectric constant tensor:
#      x y z
#    x 4.057960 0.000000 -0.051800 
#    y 0.000000 3.536510 0.000000 
#    z -0.051800 0.000000 3.827920 
# 
# 
# High freq. dielectric constant tensor:
#      x y z
#    x 1.810280 0.000000 0.005320 
#    y 0.000000 1.771370 0.000000 
#    z 0.005320 0.000000 1.802170 
# 
# From -- ./inp_files/80115.got.cif
#   From: 2010.06.25/outbox.cif.g09.slc.cpg/sg13_41_cif.got.tgz:80115.got - 2010.06.28 04:50:58.
