data_PCOD8120510
_publ_section_title
;
Structure prediction by ZEFSAII (Michael W. Deem and Ramdas Pophale) SiO2 
 PCOD8120510
Probable space group: P 2/C
;
_chemical_formula_sum "Si O2"
_cell_formula_units_Z 30
_cell_length_a 15.948516
_cell_length_b 11.186974
_cell_length_c 8.155510
_cell_angle_alpha 90.000000
_cell_angle_beta 75.360465
_cell_angle_gamma 90.000000
_cell_volume 1407.831635
_symmetry_space_group_name_H-M "P 2/C"
_symmetry_group_IT_number 13
_symmetry_cell_setting 'monoclinic'
loop_
_space_group_symop_operation_xyz
x,y,z
-x,y,1/2-z
-x,-y,-z
x,-y,1/2+z
loop_
_atom_site_type_symbol
_atom_site_label
_atom_site_fract_x
_atom_site_fract_y
_atom_site_fract_z
Si Si1 0.601879 0.718565 0.708555
Si Si2 0.307873 0.165143 0.644521
Si Si3 0.685022 0.751223 0.007319
Si Si4 0.199927 0.059171 0.185189
Si Si5 0.921663 0.077619 0.973227
Si Si6 0.000000 0.287926 0.750000
Si Si7 0.820340 0.636642 0.330645
Si Si8 0.723329 0.500824 0.612846
O O1 0.500000 0.707705 0.750000
O O2 0.632937 0.802195 0.541536
O O3 0.639275 0.584810 0.671122
O O4 0.626259 0.775977 0.874425
O O5 0.353397 0.204613 0.796176
O O6 0.213557 0.228138 0.672892
O O7 0.285480 0.024519 0.658766
O O8 0.703000 0.609870 0.001150
O O9 0.774313 0.825907 0.936758
O O10 0.165545 0.101210 0.378512
O O11 0.113564 0.993980 0.164876
O O12 0.959373 0.208224 0.914064
O O13 0.000000 0.000000 0.000000
O O14 0.920714 0.370655 0.724657
O O15 0.805465 0.583136 0.518800
O O16 0.752530 0.553736 0.268782
#
# Coordination Sequence:
#
# PCOD8120510 Si02
#       8
#     4   4   4   4   4   2   4   4
#     4  11  25  46  73 104 134 171 234 290 340 409
#     4  10  22  43  68 100 135 179 223 275 344 416
#     4  11  24  42  70 101 130 183 224 274 345 413
#     4  12  22  41  69  91 133 179 227 266 340 415
#     4  12  22  37  58  97 129 171 226 281 324 384
#     4  12  24  36  62  94 138 168 226 296 328 378
#     4  10  21  40  62  89 130 175 223 280 338 397
#     4  10  22  44  65  92 131 178 230 271 345 419
#
# _framework density 21.309365
#
# number of rings (size 3 to 8) (size 9 to 14) (size 15 to 20)
#    0.000    1.067    5.333    0.800    3.733    1.600 
#    0.000    0.667    0.000    0.000    0.000    0.000 
#    0.000    0.000    0.000    0.000    0.000    0.000 
#
# Total GULP energy -371737.857542 kJ/mol
# GULP energy per Si atom -12391.261918 kJ/mol
# Density = 2.126086 g / cm^3
# Si number density = 21.309365 Si / 1000 Ang^3
#
#
#
# Elastic Constant Matrix: (Units=GPa)
#
#
# Indices 1 2 3 4 5 6 
#
# 1 119.5410 34.6805 51.8237 0.0000 -18.1770 0.0000
# 2 34.6805 81.2719 40.1693 0.0000 -9.2154 0.0000
# 3 51.8237 40.1693 119.0415 0.0000 -4.3583 0.0000
# 4 0.0000 0.0000 0.0000 21.1890 0.0000 -0.3956
# 5 -18.1770 -9.2154 -4.3583 0.0000 34.5927 0.0000
# 6 0.0000 0.0000 0.0000 -0.3956 0.0000 21.4454
#
#
#
# Elastic Compliance Matrix: (Units=1/GPa)
#
#
# Indices 1 2 3 4 5 6 
#
# 1 0.011560 -0.002371 -0.004052 0.000000 0.004932 0.000000
# 2 -0.002371 0.015643 -0.004159 0.000000 0.002398 0.000000
# 3 -0.004052 -0.004159 0.011502 0.000000 -0.001788 0.000000
# 4 0.000000 0.000000 0.000000 0.047211 0.000000 0.000871
# 5 0.004932 0.002398 -0.001788 0.000000 0.031913 0.000000
# 6 0.000000 0.000000 0.000000 0.000871 0.000000 0.046646
#
#
# Mechanical properties :
#
#
# Convention : Reuss Voigt Hill
#
# Bulk Modulus (GPa) = 57.00476 63.68906 60.34691
# Shear Modulus (GPa) = 26.11165 28.32413 27.21789
#
# Velocity S-wave (km/s) = 3.50431 3.64976 3.57777
# Velocity P-wave (km/s) = 6.57136 6.90751 6.74153
#
# Compressibility (1/GPa) = 0.01754239
#
# Stress axis : x y z
#
# Youngs Moduli (GPa) = 86.50784 63.92443 86.93957
#
# Poissons Ratio (x) = 0.15156 0.35226
# Poissons Ratio (y) = 0.20510 0.36156
# Poissons Ratio (z) = 0.35051 0.26585
#
# Static dielectric constant tensor:
#      x y z
#    x 3.594060 0.000000 0.152350 
#    y 0.000000 3.925240 0.000000 
#    z 0.152350 0.000000 4.075580 
# 
# 
# High freq. dielectric constant tensor:
#      x y z
#    x 1.808600 0.000000 0.010750 
#    y 0.000000 1.837660 0.000000 
#    z 0.010750 0.000000 1.849010 
# 
# From -- ./inp_files/19008.got.cif
#   From: 2010.06.25/outbox.cif.g09.slc.cpg/sg13_10_cif.got.tgz:19008.got - 2010.06.28 04:50:58.
