data_PCOD8120327
_publ_section_title
;
Structure prediction by ZEFSAII (Michael W. Deem and Ramdas Pophale) SiO2 
 PCOD8120327
Probable space group: P 2/C
;
_chemical_formula_sum "Si O2"
_cell_formula_units_Z 18
_cell_length_a 14.409592
_cell_length_b 5.218115
_cell_length_c 19.209194
_cell_angle_alpha 90.000000
_cell_angle_beta 29.301139
_cell_angle_gamma 90.000000
_cell_volume 706.867883
_symmetry_space_group_name_H-M "P 2/C"
_symmetry_group_IT_number 13
_symmetry_cell_setting 'monoclinic'
loop_
_space_group_symop_operation_xyz
x,y,z
-x,y,1/2-z
-x,-y,-z
x,-y,1/2+z
loop_
_atom_site_type_symbol
_atom_site_label
_atom_site_fract_x
_atom_site_fract_y
_atom_site_fract_z
Si Si1 0.243469 0.673018 0.970766
Si Si2 0.286111 0.821855 0.367371
Si Si3 0.570635 0.510937 0.340241
Si Si4 0.000000 0.110652 0.750000
Si Si5 0.329203 0.193312 0.101754
O O1 0.178234 0.403305 0.980409
O O2 0.469648 0.663315 0.845585
O O3 0.199999 0.899818 0.942468
O O4 0.120975 0.711956 0.120050
O O5 0.500000 0.826332 0.250000
O O6 0.293050 0.735056 0.281234
O O7 0.702841 0.347065 0.305207
O O8 0.389309 0.620861 0.499865
O O9 0.865888 0.938697 0.789835
O O10 0.500000 0.000000 0.000000
#
# Coordination Sequence:
#
# PCOD8120327 Si02
#       5
#     4   4   4   2   4
#     4  11  23  39  67 101 132 182 223 282 345 408
#     4  10  21  38  68  98 134 177 226 278 345 411
#     4  10  23  43  70 104 139 183 239 286 348 422
#     4  12  24  44  70  98 144 180 240 290 352 414
#     4  11  24  44  70 103 140 188 234 292 348 413
#
# _framework density 25.464445000000001
#
# number of rings (size 3 to 8) (size 9 to 14) (size 15 to 20)
#    0.000    1.333    2.222    4.667    3.111    3.556 
#    0.000    2.222    0.000    0.000    0.000    0.000 
#    0.000    0.000    0.000    0.000    0.000    0.000 
#
# Total GULP energy -223110.218961 kJ/mol
# GULP energy per Si atom -12395.012165 kJ/mol
# Density = 2.540649 g / cm^3
# Si number density = 25.464445 Si / 1000 Ang^3
#
#
#
# Elastic Constant Matrix: (Units=GPa)
#
#
# Indices 1 2 3 4 5 6 
#
# 1 86.9181 25.0257 14.4309 0.0000 5.5304 0.0000
# 2 25.0257 132.3325 18.3753 0.0000 0.7653 0.0000
# 3 14.4309 18.3753 45.9917 0.0000 3.4489 0.0000
# 4 0.0000 0.0000 0.0000 22.5564 0.0000 8.1424
# 5 5.5304 0.7653 3.4489 0.0000 45.0542 0.0000
# 6 0.0000 0.0000 0.0000 8.1424 0.0000 27.5958
#
#
#
# Elastic Compliance Matrix: (Units=1/GPa)
#
#
# Indices 1 2 3 4 5 6 
#
# 1 0.012664 -0.001958 -0.003095 0.000000 -0.001284 0.000000
# 2 -0.001958 0.008304 -0.002726 0.000000 0.000308 0.000000
# 3 -0.003095 -0.002726 0.023909 0.000000 -0.001404 0.000000
# 4 0.000000 0.000000 0.000000 0.049618 0.000000 -0.014640
# 5 -0.001284 0.000308 -0.001404 0.000000 0.022455 0.000000
# 6 0.000000 0.000000 0.000000 -0.014640 0.000000 0.040557
#
#
# Mechanical properties :
#
#
# Convention : Reuss Voigt Hill
#
# Bulk Modulus (GPa) = 34.10858 42.32288 38.21573
# Shear Modulus (GPa) = 27.34643 32.86865 30.10754
#
# Velocity S-wave (km/s) = 3.28061 3.59662 3.44224
# Velocity P-wave (km/s) = 5.27006 5.82272 5.55327
#
# Compressibility (1/GPa) = 0.02931813
#
# Stress axis : x y z
#
# Youngs Moduli (GPa) = 78.96157 120.42732 41.82557
#
# Poissons Ratio (x) = 0.23577 0.12946
# Poissons Ratio (y) = 0.15459 0.11404
# Poissons Ratio (z) = 0.24440 0.32834
#
# Static dielectric constant tensor:
#      x y z
#    x 5.870070 0.000000 1.530710 
#    y 0.000000 5.270050 0.000000 
#    z 1.530710 0.000000 5.223320 
# 
# 
# High freq. dielectric constant tensor:
#      x y z
#    x 2.005310 0.000000 0.034860 
#    y 0.000000 2.026910 0.000000 
#    z 0.034860 0.000000 1.997130 
# 
# From -- ./inp_files/62481.got.cif
#   From: 2010.06.25/outbox.cif.g09.slc.cpg/sg13_32_cif.got.tgz:62481.got - 2010.06.28 04:50:58.
