data_PCOD8120871
_publ_section_title
;
Structure prediction by ZEFSAII (Michael W. Deem and Ramdas Pophale) SiO2 
 PCOD8120871
Probable space group: P 2/C
;
_chemical_formula_sum "Si O2"
_cell_formula_units_Z 20
_cell_length_a 9.173045
_cell_length_b 6.353127
_cell_length_c 16.976915
_cell_angle_alpha 90.000000
_cell_angle_beta 122.705737
_cell_angle_gamma 90.000000
_cell_volume 832.514104
_symmetry_space_group_name_H-M "P 2/C"
_symmetry_group_IT_number 13
_symmetry_cell_setting 'monoclinic'
loop_
_space_group_symop_operation_xyz
x,y,z
-x,y,1/2-z
-x,-y,-z
x,-y,1/2+z
loop_
_atom_site_type_symbol
_atom_site_label
_atom_site_fract_x
_atom_site_fract_y
_atom_site_fract_z
Si Si1 0.772540 1.000000 0.522540
Si Si2 0.469630 0.622702 0.572203
Si Si3 0.919364 0.208844 0.805612
Si Si4 0.174776 0.622702 0.072203
Si Si5 0.808140 0.208844 0.194388
O O1 0.399308 0.860281 0.539563
O O2 0.820182 0.860281 0.460437
O O3 0.747427 0.842650 0.587995
O O4 0.928563 0.157350 0.587995
O O5 0.500000 0.500000 0.500000
O O6 0.340725 0.500000 0.590725
O O7 0.653747 0.634268 0.674421
O O8 0.804905 0.365732 0.825579
O O9 0.000000 0.314772 0.750000
O O10 0.814511 0.000000 0.750000
O O11 0.000000 0.500000 0.000000
O O12 0.000000 0.314772 0.250000
#
# Coordination Sequence:
#
# PCOD8120871 Si02
#       5
#     4   4   4   4   4
#     4  10  21  44  75 100 150 184 256 298 369 448
#     4  12  24  42  80 113 138 194 260 307 363 462
#     4   9  21  44  73  98 150 199 225 308 386 431
#     4  12  24  42  80 113 138 194 260 307 363 462
#     4   9  21  44  73  98 150 199 225 308 386 431
#
# _framework density 24.023619
#
# number of rings (size 3 to 8) (size 9 to 14) (size 15 to 20)
#    0.000    2.000    4.000    1.200    0.000    0.000 
#    0.000   17.000   17.600    0.000    0.000    0.000 
#    0.000    0.000    0.000    0.000    0.000    0.000 
#
# Total GULP energy -247823.982206 kJ/mol
# GULP energy per Si atom -12391.199110 kJ/mol
# Density = 2.396894 g / cm^3
# Si number density = 24.023619 Si / 1000 Ang^3
#
#
#
# Elastic Constant Matrix: (Units=GPa)
#
#
# Indices 1 2 3 4 5 6 
#
# 1 213.1845 78.0447 93.5287 0.0000 1.2262 0.0000
# 2 78.0447 97.1729 47.3586 0.0000 1.4325 0.0000
# 3 93.5287 47.3586 117.0246 0.0000 3.2627 0.0000
# 4 0.0000 0.0000 0.0000 30.0674 0.0000 0.9575
# 5 1.2262 1.4325 3.2627 0.0000 46.5994 0.0000
# 6 0.0000 0.0000 0.0000 0.9575 0.0000 50.5783
#
#
#
# Elastic Compliance Matrix: (Units=1/GPa)
#
#
# Indices 1 2 3 4 5 6 
#
# 1 0.008498 -0.004379 -0.005027 0.000000 0.000263 0.000000
# 2 -0.004379 0.015076 -0.002597 0.000000 -0.000166 0.000000
# 3 -0.005027 -0.002597 0.013634 0.000000 -0.000743 0.000000
# 4 0.000000 0.000000 0.000000 0.033279 0.000000 -0.000630
# 5 0.000263 -0.000166 -0.000743 0.000000 0.021510 0.000000
# 6 0.000000 0.000000 0.000000 -0.000630 0.000000 0.019783
#
#
# Mechanical properties :
#
#
# Convention : Reuss Voigt Hill
#
# Bulk Modulus (GPa) = 75.73984 96.13843 85.93913
# Shear Modulus (GPa) = 35.66711 39.34571 37.50641
#
# Velocity S-wave (km/s) = 3.85732 4.05136 3.95553
# Velocity P-wave (km/s) = 7.17177 7.87336 7.53074
#
# Compressibility (1/GPa) = 0.01320309
#
# Stress axis : x y z
#
# Youngs Moduli (GPa) = 117.67877 66.33110 73.34470
#
# Poissons Ratio (x) = 0.29046 0.36869
# Poissons Ratio (y) = 0.51531 0.19045
# Poissons Ratio (z) = 0.59154 0.17224
#
# Static dielectric constant tensor:
#      x y z
#    x 5.217080 0.000000 0.047210 
#    y 0.000000 4.267270 0.000000 
#    z 0.047210 0.000000 4.205720 
# 
# 
# High freq. dielectric constant tensor:
#      x y z
#    x 1.964380 0.000000 0.001100 
#    y 0.000000 1.952530 0.000000 
#    z 0.001100 0.000000 1.940880 
# 
# From -- ./inp_files/74682.got.cif
#   From: 2010.06.25/outbox.cif.g09.slc.cpg/sg13_38_cif.got.tgz:74682.got - 2010.06.28 04:50:58.
