data_PCOD8120983
_publ_section_title
;
Structure prediction by ZEFSAII (Michael W. Deem and Ramdas Pophale) SiO2 
 PCOD8120983
Probable space group: P 2/C
;
_chemical_formula_sum "Si O2"
_cell_formula_units_Z 30
_cell_length_a 12.496581
_cell_length_b 17.053824
_cell_length_c 14.851154
_cell_angle_alpha 90.000000
_cell_angle_beta 28.112839
_cell_angle_gamma 90.000000
_cell_volume 1491.376379
_symmetry_space_group_name_H-M "P 2/C"
_symmetry_group_IT_number 13
_symmetry_cell_setting 'monoclinic'
loop_
_space_group_symop_operation_xyz
x,y,z
-x,y,1/2-z
-x,-y,-z
x,-y,1/2+z
loop_
_atom_site_type_symbol
_atom_site_label
_atom_site_fract_x
_atom_site_fract_y
_atom_site_fract_z
Si Si1 0.726643 0.741742 0.029867
Si Si2 0.329000 0.884440 0.158810
Si Si3 0.500000 0.483297 0.250000
Si Si4 0.787956 0.039226 0.342520
Si Si5 0.937535 0.579609 0.895040
Si Si6 0.606987 0.745341 0.911977
Si Si7 0.402720 0.429013 0.131001
Si Si8 0.988108 0.845192 0.565838
O O1 0.500000 0.716581 0.250000
O O2 0.907611 0.672609 0.910542
O O3 0.695103 0.756589 0.948265
O O4 0.822229 0.821365 0.001655
O O5 0.112783 0.864663 0.380861
O O6 0.252309 0.946841 0.140553
O O7 0.549539 0.919263 0.050074
O O8 0.392011 0.803424 0.061227
O O9 0.284148 0.538436 0.404079
O O10 0.493703 0.430434 0.165415
O O11 0.000000 0.053807 0.250000
O O12 0.854841 0.077379 0.196810
O O13 0.000000 0.545563 0.750000
O O14 0.131737 0.563334 0.824389
O O15 0.523560 0.656135 0.961172
O O16 0.803886 0.773506 0.695880
O O17 0.500000 0.500000 0.000000
#
# Coordination Sequence:
#
# PCOD8120983 Si02
#       8
#     4   4   2   4   4   4   4   4
#     4  12  20  34  64  95 126 155 200 262 335 373
#     4  10  22  40  59  88 125 160 203 254 316 373
#     4  12  26  44  64  92 130 176 214 262 322 380
#     4  10  22  38  60  88 123 160 204 254 304 376
#     4  12  22  42  66  97 127 166 213 268 327 376
#     4  11  22  39  59  91 127 162 204 266 312 373
#     4  12  25  44  68  93 133 169 218 271 319 386
#     4  11  20  35  62  94 122 154 204 261 316 371
#
# _framework density 20.115646999999999
#
# number of rings (size 3 to 8) (size 9 to 14) (size 15 to 20)
#    0.000    0.800    6.000    2.800    0.000    0.000 
#    2.400    1.333    0.000    0.000    0.000    0.000 
#    0.000    0.000    0.000    0.000    0.000    0.000 
#
# Total GULP energy -371886.448336 kJ/mol
# GULP energy per Si atom -12396.214945 kJ/mol
# Density = 2.006986 g / cm^3
# Si number density = 20.115647 Si / 1000 Ang^3
#
#
#
# Elastic Constant Matrix: (Units=GPa)
#
#
# Indices 1 2 3 4 5 6 
#
# 1 62.2193 17.0337 8.7499 0.0000 -0.7177 0.0000
# 2 17.0337 132.5669 36.2165 0.0000 1.2512 0.0000
# 3 8.7499 36.2165 117.9615 0.0000 4.3001 0.0000
# 4 0.0000 0.0000 0.0000 34.6886 0.0000 -5.7667
# 5 -0.7177 1.2512 4.3001 0.0000 27.4015 0.0000
# 6 0.0000 0.0000 0.0000 -5.7667 0.0000 24.7424
#
#
#
# Elastic Compliance Matrix: (Units=1/GPa)
#
#
# Indices 1 2 3 4 5 6 
#
# 1 0.016712 -0.001974 -0.000657 0.000000 0.000631 0.000000
# 2 -0.001974 0.008467 -0.002451 0.000000 -0.000054 0.000000
# 3 -0.000657 -0.002451 0.009329 0.000000 -0.001369 0.000000
# 4 0.000000 0.000000 0.000000 0.029990 0.000000 0.006990
# 5 0.000631 -0.000054 -0.001369 0.000000 0.036728 0.000000
# 6 0.000000 0.000000 0.000000 0.006990 0.000000 0.042045
#
#
# Mechanical properties :
#
#
# Convention : Reuss Voigt Hill
#
# Bulk Modulus (GPa) = 41.07726 48.52756 44.80241
# Shear Modulus (GPa) = 30.95021 34.08300 32.51661
#
# Velocity S-wave (km/s) = 3.92677 4.12072 4.02491
# Velocity P-wave (km/s) = 6.40502 6.84230 6.62727
#
# Compressibility (1/GPa) = 0.02434437
#
# Stress axis : x y z
#
# Youngs Moduli (GPa) = 59.83647 118.10332 107.19804
#
# Poissons Ratio (x) = 0.23313 0.07039
# Poissons Ratio (y) = 0.11811 0.26277
# Poissons Ratio (z) = 0.03929 0.28950
#
# Static dielectric constant tensor:
#      x y z
#    x 3.407970 0.000000 -0.062190 
#    y 0.000000 3.846760 0.000000 
#    z -0.062190 0.000000 3.878480 
# 
# 
# High freq. dielectric constant tensor:
#      x y z
#    x 1.742770 0.000000 -0.008920 
#    y 0.000000 1.795340 0.000000 
#    z -0.008920 0.000000 1.799530 
# 
# From -- ./inp_files/51615.got.cif
#   From: 2010.06.25/outbox.cif.g09.slc.cpg/sg13_26_cif.got.tgz:51615.got - 2010.06.28 04:50:58.
