data_PCOD8120393
_publ_section_title
;
Structure prediction by ZEFSAII (Michael W. Deem and Ramdas Pophale) SiO2 
 PCOD8120393
Probable space group: P 2/C
;
_chemical_formula_sum "Si O2"
_cell_formula_units_Z 20
_cell_length_a 12.796502
_cell_length_b 5.188874
_cell_length_c 21.352824
_cell_angle_alpha 90.000000
_cell_angle_beta 137.196560
_cell_angle_gamma 90.000000
_cell_volume 963.384857
_symmetry_space_group_name_H-M "P 2/C"
_symmetry_group_IT_number 13
_symmetry_cell_setting 'monoclinic'
loop_
_space_group_symop_operation_xyz
x,y,z
-x,y,1/2-z
-x,-y,-z
x,-y,1/2+z
loop_
_atom_site_type_symbol
_atom_site_label
_atom_site_fract_x
_atom_site_fract_y
_atom_site_fract_z
Si Si1 0.048075 0.352465 0.838237
Si Si2 0.723120 0.491041 0.738295
Si Si3 0.347997 0.124121 0.002464
Si Si4 0.437885 0.032140 0.290649
Si Si5 0.670477 0.621427 0.575464
O O1 0.149963 0.604173 0.866419
O O2 0.000000 0.224917 0.750000
O O3 0.905554 0.434517 0.818888
O O4 0.161837 0.155489 0.925429
O O5 0.677684 0.721246 0.766282
O O6 0.665451 0.610478 0.647966
O O7 0.643794 0.220671 0.718477
O O8 0.416639 0.103677 0.101857
O O9 0.419104 0.374886 0.996301
O O10 0.395407 0.885108 0.980471
O O11 0.500000 0.962566 0.250000
#
# Coordination Sequence:
#
# PCOD8120393 Si02
#       5
#     4   4   4   4   4
#     4   8  20  38  61  97 125 148 188 255 321 374
#     4  11  23  40  67  90 125 160 205 252 313 362
#     4  10  21  39  63  89 134 152 195 253 314 363
#     4  12  27  43  58  86 128 173 214 249 284 352
#     4   9  20  36  65  94 122 145 195 255 324 362
#
# _framework density 20.760134999999998
#
# number of rings (size 3 to 8) (size 9 to 14) (size 15 to 20)
#    1.200    0.800    0.000    3.000    2.800    5.600 
#    0.000    2.000    0.000    0.000    0.000    0.000 
#    0.000    0.000    0.000    0.000    0.000    0.000 
#
# Total GULP energy -247874.019055 kJ/mol
# GULP energy per Si atom -12393.700953 kJ/mol
# Density = 2.071288 g / cm^3
# Si number density = 20.760135 Si / 1000 Ang^3
#
#
#
# Elastic Constant Matrix: (Units=GPa)
#
#
# Indices 1 2 3 4 5 6 
#
# 1 97.4225 37.0039 57.0741 0.0000 7.4230 0.0000
# 2 37.0039 124.8915 42.0723 0.0000 0.4114 0.0000
# 3 57.0741 42.0723 103.6646 0.0000 13.3819 0.0000
# 4 0.0000 0.0000 0.0000 23.4705 0.0000 4.1059
# 5 7.4230 0.4114 13.3819 0.0000 31.4776 0.0000
# 6 0.0000 0.0000 0.0000 4.1059 0.0000 27.1892
#
#
#
# Elastic Compliance Matrix: (Units=1/GPa)
#
#
# Indices 1 2 3 4 5 6 
#
# 1 0.015575 -0.002017 -0.007709 0.000000 -0.000369 0.000000
# 2 -0.002017 0.009610 -0.003000 0.000000 0.001625 0.000000
# 3 -0.007709 -0.003000 0.015732 0.000000 -0.004831 0.000000
# 4 0.000000 0.000000 0.000000 0.043763 0.000000 -0.006609
# 5 -0.000369 0.001625 -0.004831 0.000000 0.033888 0.000000
# 6 0.000000 0.000000 0.000000 -0.006609 0.000000 0.037777
#
#
# Mechanical properties :
#
#
# Convention : Reuss Voigt Hill
#
# Bulk Modulus (GPa) = 64.65757 66.47546 65.56651
# Shear Modulus (GPa) = 26.74517 29.08268 27.91392
#
# Velocity S-wave (km/s) = 3.59318 3.74691 3.67085
# Velocity P-wave (km/s) = 6.95897 7.12807 7.04402
#
# Compressibility (1/GPa) = 0.01546609
#
# Stress axis : x y z
#
# Youngs Moduli (GPa) = 64.20621 104.06321 63.56584
#
# Poissons Ratio (x) = 0.20985 0.49002
# Poissons Ratio (y) = 0.12947 0.19067
# Poissons Ratio (z) = 0.49496 0.31215
#
# Static dielectric constant tensor:
#      x y z
#    x 3.572310 0.000000 0.360840 
#    y 0.000000 3.711150 0.000000 
#    z 0.360840 0.000000 3.863390 
# 
# 
# High freq. dielectric constant tensor:
#      x y z
#    x 1.796260 0.000000 0.035130 
#    y 0.000000 1.820720 0.000000 
#    z 0.035130 0.000000 1.817100 
# 
# From -- ./inp_files/85654.got.cif
#   From: 2010.06.25/outbox.cif.g09.slc.cpg/sg13_43_cif.got.tgz:85654.got - 2010.06.28 04:50:58.
