data_PCOD8120621
_publ_section_title
;
Structure prediction by ZEFSAII (Michael W. Deem and Ramdas Pophale) SiO2 
 PCOD8120621
Probable space group: P 2/C
;
_chemical_formula_sum "Si O2"
_cell_formula_units_Z 22
_cell_length_a 14.478364
_cell_length_b 13.392433
_cell_length_c 11.473757
_cell_angle_alpha 90.000000
_cell_angle_beta 151.050255
_cell_angle_gamma 90.000000
_cell_volume 1076.881533
_symmetry_space_group_name_H-M "P 2/C"
_symmetry_group_IT_number 13
_symmetry_cell_setting 'monoclinic'
loop_
_space_group_symop_operation_xyz
x,y,z
-x,y,1/2-z
-x,-y,-z
x,-y,1/2+z
loop_
_atom_site_type_symbol
_atom_site_label
_atom_site_fract_x
_atom_site_fract_y
_atom_site_fract_z
Si Si1 0.500000 0.929312 0.750000
Si Si2 0.396633 0.190511 0.910994
Si Si3 0.204006 0.556455 0.728330
Si Si4 0.669308 0.249141 0.021685
Si Si5 0.485701 0.606720 0.604479
Si Si6 0.199735 0.914679 0.998633
O O1 0.411297 0.860676 0.552315
O O2 0.647875 0.998976 0.847153
O O3 0.221617 0.137186 0.650180
O O4 0.584225 0.184258 0.035818
O O5 0.374186 0.310116 0.904395
O O6 0.192012 0.661000 0.784550
O O7 0.301362 0.579996 0.709642
O O8 0.000000 0.500000 0.500000
O O9 0.355124 0.490424 0.965163
O O10 0.500000 0.289211 0.750000
O O11 0.796849 0.172135 0.093110
O O12 0.500000 0.649588 0.750000
O O13 0.000000 0.967840 0.750000
#
# Coordination Sequence:
#
# PCOD8120621 Si02
#       6
#     2   4   4   4   4   4
#     4  12  22  44  64  90 124 164 206 264 318 372
#     4  10  21  41  67  88 125 164 202 261 317 363
#     4  10  22  37  63  92 124 164 207 253 303 377
#     4   9  19  41  61  90 125 162 208 253 306 374
#     4  10  21  41  60  91 127 162 203 254 315 367
#     4  11  24  39  64  92 119 163 210 261 312 370
#
# _framework density 20.429359000000002
#
# number of rings (size 3 to 8) (size 9 to 14) (size 15 to 20)
#    0.000    1.818    3.636    1.091    2.545    2.909 
#    0.000    0.000    0.000    0.000    0.000    0.000 
#    0.000    0.000    0.000    0.000    0.000    0.000 
#
# Total GULP energy -272587.384000 kJ/mol
# GULP energy per Si atom -12390.335636 kJ/mol
# Density = 2.038286 g / cm^3
# Si number density = 20.429359 Si / 1000 Ang^3
#
#
#
# Elastic Constant Matrix: (Units=GPa)
#
#
# Indices 1 2 3 4 5 6 
#
# 1 74.5392 15.4933 24.0212 0.0000 -21.7020 0.0000
# 2 15.4933 73.7844 14.3314 0.0000 -3.0881 0.0000
# 3 24.0212 14.3314 68.9085 0.0000 2.4557 0.0000
# 4 0.0000 0.0000 0.0000 4.0114 0.0000 -26.3764
# 5 -21.7020 -3.0881 2.4557 0.0000 33.8609 0.0000
# 6 0.0000 0.0000 0.0000 -26.3764 0.0000 8.7416
#
#
#
# Elastic Compliance Matrix: (Units=1/GPa)
#
#
# Indices 1 2 3 4 5 6 
#
# 1 0.019933 -0.002291 -0.006938 0.000000 0.013070 0.000000
# 2 -0.002291 0.014464 -0.002210 0.000000 0.000011 0.000000
# 3 -0.006938 -0.002210 0.017601 0.000000 -0.005925 0.000000
# 4 0.000000 0.000000 0.000000 -0.013232 0.000000 -0.039925
# 5 0.013070 0.000011 -0.005925 0.000000 0.038340 0.000000
# 6 0.000000 0.000000 0.000000 -0.039925 0.000000 -0.006072
#
#
# Mechanical properties :
#
#
# Convention : Reuss Voigt Hill
#
# Bulk Modulus (GPa) = 34.34004 36.10268 35.22136
# Shear Modulus (GPa) = 48.25407 20.21520 34.23463
#
# Velocity S-wave (km/s) = 4.86531 3.14907 4.09804
# Velocity P-wave (km/s) = 6.95754 5.56170 6.29841
#
# Compressibility (1/GPa) = 0.02912052
#
# Stress axis : x y z
#
# Youngs Moduli (GPa) = 50.16815 69.13836 56.81415
#
# Poissons Ratio (x) = 0.15840 0.39417
# Poissons Ratio (y) = 0.11493 0.12555
# Poissons Ratio (z) = 0.34806 0.15279
#
# Static dielectric constant tensor:
#      x y z
#    x 3.858590 0.000000 -0.103790 
#    y 0.000000 3.746910 0.000000 
#    z -0.103790 0.000000 3.500670 
# 
# 
# High freq. dielectric constant tensor:
#      x y z
#    x 1.799580 0.000000 -0.015220 
#    y 0.000000 1.810920 0.000000 
#    z -0.015220 0.000000 1.771180 
# 
# From -- ./inp_files/37133.got.cif
#   From: 2010.06.25/outbox.cif.g09.slc.cpg/sg13_19_cif.got.tgz:37133.got - 2010.06.28 04:50:58.
