data_PCOD8120655
_publ_section_title
;
Structure prediction by ZEFSAII (Michael W. Deem and Ramdas Pophale) SiO2 
 PCOD8120655
Probable space group: P 2/C
;
_chemical_formula_sum "Si O2"
_cell_formula_units_Z 28
_cell_length_a 7.657788
_cell_length_b 6.464920
_cell_length_c 25.338367
_cell_angle_alpha 90.000000
_cell_angle_beta 116.227472
_cell_angle_gamma 90.000000
_cell_volume 1125.278726
_symmetry_space_group_name_H-M "P 2/C"
_symmetry_group_IT_number 13
_symmetry_cell_setting 'monoclinic'
loop_
_space_group_symop_operation_xyz
x,y,z
-x,y,1/2-z
-x,-y,-z
x,-y,1/2+z
loop_
_atom_site_type_symbol
_atom_site_label
_atom_site_fract_x
_atom_site_fract_y
_atom_site_fract_z
Si Si1 0.665630 0.594149 0.854746
Si Si2 0.180763 0.097077 0.874348
Si Si3 0.672444 0.827249 0.959046
Si Si4 0.061944 0.595088 0.440017
Si Si5 0.474170 0.179427 0.823366
Si Si6 0.322613 0.787981 0.980536
Si Si7 0.766171 0.967262 0.802254
O O1 0.601500 0.758284 0.891466
O O2 0.491401 0.430409 0.818692
O O3 0.838206 0.464659 0.904783
O O4 0.725972 0.722114 0.809733
O O5 0.131844 0.319639 0.892716
O O6 0.369018 0.123037 0.863309
O O7 0.990732 0.009976 0.818650
O O8 0.218304 0.931012 0.923899
O O9 0.532487 0.721127 0.985167
O O10 0.892464 0.756561 0.005667
O O11 0.650084 0.076928 0.961900
O O12 0.186196 0.400057 0.475243
O O13 0.695017 0.090175 0.845952
O O14 0.352697 0.058660 0.762430
#
# Coordination Sequence:
#
# PCOD8120655 Si02
#       7
#     4   4   4   4   4   4   4
#     4  12  24  45  69 105 144 187 236 301 363 425
#     4  11  22  45  72 102 141 186 234 299 358 424
#     4  10  23  38  66 105 141 191 233 286 357 438
#     4  11  22  40  68 101 147 185 236 288 355 441
#     4  11  26  45  75  98 137 185 242 299 363 422
#     4  10  21  41  64 104 144 185 239 288 347 437
#     4  11  25  47  71 101 139 181 246 304 354 433
#
# _framework density 24.882724
#
# number of rings (size 3 to 8) (size 9 to 14) (size 15 to 20)
#    0.000    1.143    2.857    3.000    0.000    6.286 
#    0.000    0.000    0.000    0.000    0.000    0.000 
#    0.000    0.000    0.000    0.000    0.000    0.000 
#
# Total GULP energy -346917.299123 kJ/mol
# GULP energy per Si atom -12389.903540 kJ/mol
# Density = 2.482609 g / cm^3
# Si number density = 24.882724 Si / 1000 Ang^3
#
#
#
# Elastic Constant Matrix: (Units=GPa)
#
#
# Indices 1 2 3 4 5 6 
#
# 1 72.9100 15.7822 6.1575 0.0000 4.9681 0.0000
# 2 15.7822 94.7484 37.9190 0.0000 -3.0548 0.0000
# 3 6.1575 37.9190 79.6966 0.0000 7.8747 0.0000
# 4 0.0000 0.0000 0.0000 39.8418 0.0000 2.9667
# 5 4.9681 -3.0548 7.8747 0.0000 33.5712 0.0000
# 6 0.0000 0.0000 0.0000 2.9667 0.0000 31.6548
#
#
#
# Elastic Compliance Matrix: (Units=1/GPa)
#
#
# Indices 1 2 3 4 5 6 
#
# 1 0.014421 -0.002635 0.000383 0.000000 -0.002464 0.000000
# 2 -0.002635 0.013762 -0.006661 0.000000 0.003205 0.000000
# 3 0.000383 -0.006661 0.016127 0.000000 -0.004446 0.000000
# 4 0.000000 0.000000 0.000000 0.025276 0.000000 -0.002369
# 5 -0.002464 0.003205 -0.004446 0.000000 0.031486 0.000000
# 6 0.000000 0.000000 0.000000 -0.002369 0.000000 0.031813
#
#
# Mechanical properties :
#
#
# Convention : Reuss Voigt Hill
#
# Bulk Modulus (GPa) = 37.75841 40.78583 39.27212
# Shear Modulus (GPa) = 31.34027 33.51333 32.42680
#
# Velocity S-wave (km/s) = 3.55282 3.67393 3.61388
# Velocity P-wave (km/s) = 5.66017 5.86718 5.76461
#
# Compressibility (1/GPa) = 0.02648416
#
# Stress axis : x y z
#
# Youngs Moduli (GPa) = 69.34132 72.66243 62.00957
#
# Poissons Ratio (x) = 0.19145 -0.02374
# Poissons Ratio (y) = 0.18270 0.41305
# Poissons Ratio (z) = -0.02655 0.48401
#
# Static dielectric constant tensor:
#      x y z
#    x 4.992590 0.000000 0.122110 
#    y 0.000000 4.755530 0.000000 
#    z 0.122110 0.000000 4.365100 
# 
# 
# High freq. dielectric constant tensor:
#      x y z
#    x 1.987880 0.000000 0.009380 
#    y 0.000000 1.998240 0.000000 
#    z 0.009380 0.000000 1.984030 
# 
# From -- ./inp_files/95718.got.cif
#   From: 2010.06.25/outbox.cif.g09.slc.cpg/sg13_48_cif.got.tgz:95718.got - 2010.06.28 04:50:58.
