data_PCOD8120865
_publ_section_title
;
Structure prediction by ZEFSAII (Michael W. Deem and Ramdas Pophale) SiO2 
 PCOD8120865
Probable space group: P 2/C
;
_chemical_formula_sum "Si O2"
_cell_formula_units_Z 20
_cell_length_a 11.754241
_cell_length_b 10.585623
_cell_length_c 14.902024
_cell_angle_alpha 90.000000
_cell_angle_beta 30.153257
_cell_angle_gamma 90.000000
_cell_volume 931.391240
_symmetry_space_group_name_H-M "P 2/C"
_symmetry_group_IT_number 13
_symmetry_cell_setting 'monoclinic'
loop_
_space_group_symop_operation_xyz
x,y,z
-x,y,1/2-z
-x,-y,-z
x,-y,1/2+z
loop_
_atom_site_type_symbol
_atom_site_label
_atom_site_fract_x
_atom_site_fract_y
_atom_site_fract_z
Si Si1 0.876592 0.285622 0.175613
Si Si2 0.500000 0.900706 0.250000
Si Si3 0.000000 0.526385 0.750000
Si Si4 0.973894 0.012577 0.369900
Si Si5 0.595096 0.619502 0.484847
Si Si6 0.206973 0.214985 0.805314
O O1 0.953099 0.389914 0.194938
O O2 0.613098 0.305777 0.326854
O O3 0.910643 0.148845 0.197039
O O4 0.026136 0.298553 0.984123
O O5 0.574704 0.811142 0.281374
O O6 0.291581 0.986773 0.424271
O O7 0.212872 0.434759 0.579127
O O8 0.000000 0.966468 0.250000
O O9 0.095918 0.917681 0.354157
O O10 0.500000 0.500000 0.500000
O O11 0.718504 0.711595 0.332180
#
# Coordination Sequence:
#
# PCOD8120865 Si02
#       6
#     4   2   2   4   4   4
#     4  10  21  44  68  92 130 173 216 264 327 388
#     4  10  22  40  66  98 128 174 214 260 332 400
#     4  10  22  42  66  94 128 174 226 258 322 384
#     4  11  23  41  69 100 132 168 210 269 335 393
#     4  10  24  42  63  94 129 172 218 267 308 377
#     4  11  25  41  67 102 129 168 221 265 325 395
#
# _framework density 21.473254000000001
#
# number of rings (size 3 to 8) (size 9 to 14) (size 15 to 20)
#    0.000    1.600    1.000    3.600    9.800    8.000 
#    0.000    4.000    0.000    0.000    0.000    0.000 
#    0.000    0.000    0.000    0.000    0.000    0.000 
#
# Total GULP energy -247964.449139 kJ/mol
# GULP energy per Si atom -12398.222457 kJ/mol
# Density = 2.142438 g / cm^3
# Si number density = 21.473254 Si / 1000 Ang^3
#
#
#
# Elastic Constant Matrix: (Units=GPa)
#
#
# Indices 1 2 3 4 5 6 
#
# 1 76.3073 46.7048 38.9234 0.0000 -28.2239 0.0000
# 2 46.7048 94.1363 56.9787 0.0000 -22.4288 0.0000
# 3 38.9234 56.9787 129.7243 0.0000 -29.1969 0.0000
# 4 0.0000 0.0000 0.0000 19.6238 0.0000 -7.3189
# 5 -28.2239 -22.4288 -29.1969 0.0000 37.0670 0.0000
# 6 0.0000 0.0000 0.0000 -7.3189 0.0000 26.1142
#
#
#
# Elastic Compliance Matrix: (Units=1/GPa)
#
#
# Indices 1 2 3 4 5 6 
#
# 1 0.022797 -0.008099 -0.000582 0.000000 0.011999 0.000000
# 2 -0.008099 0.018010 -0.005367 0.000000 0.000503 0.000000
# 3 -0.000582 -0.005367 0.011438 0.000000 0.005318 0.000000
# 4 0.000000 0.000000 0.000000 0.056907 0.000000 0.015949
# 5 0.011999 0.000503 0.005318 0.000000 0.040608 0.000000
# 6 0.000000 0.000000 0.000000 0.015949 0.000000 0.042763
#
#
# Mechanical properties :
#
#
# Convention : Reuss Voigt Hill
#
# Bulk Modulus (GPa) = 41.41203 65.04240 53.22722
# Shear Modulus (GPa) = 21.86562 27.06507 24.46534
#
# Velocity S-wave (km/s) = 3.19450 3.55407 3.37907
# Velocity P-wave (km/s) = 5.73879 6.87005 6.32975
#
# Compressibility (1/GPa) = 0.02414757
#
# Stress axis : x y z
#
# Youngs Moduli (GPa) = 43.86488 55.52572 87.43026
#
# Poissons Ratio (x) = 0.44972 0.05090
# Poissons Ratio (y) = 0.35528 0.46924
# Poissons Ratio (z) = 0.02554 0.29801
#
# Static dielectric constant tensor:
#      x y z
#    x 4.071810 0.000000 -0.440650 
#    y 0.000000 3.723650 0.000000 
#    z -0.440650 0.000000 4.304500 
# 
# 
# High freq. dielectric constant tensor:
#      x y z
#    x 1.839490 0.000000 -0.016130 
#    y 0.000000 1.844280 0.000000 
#    z -0.016130 0.000000 1.853150 
# 
# From -- ./inp_files/37127.got.cif
#   From: 2010.06.25/outbox.cif.g09.slc.cpg/sg13_19_cif.got.tgz:37127.got - 2010.06.28 04:50:58.
