data_PCOD8120294
_publ_section_title
;
Structure prediction by ZEFSAII (Michael W. Deem and Ramdas Pophale) SiO2 
 PCOD8120294
Probable space group: P 2/C
;
_chemical_formula_sum "Si O2"
_cell_formula_units_Z 30
_cell_length_a 13.532555
_cell_length_b 13.100306
_cell_length_c 9.263694
_cell_angle_alpha 90.000000
_cell_angle_beta 109.967151
_cell_angle_gamma 90.000000
_cell_volume 1543.553912
_symmetry_space_group_name_H-M "P 2/C"
_symmetry_group_IT_number 13
_symmetry_cell_setting 'monoclinic'
loop_
_space_group_symop_operation_xyz
x,y,z
-x,y,1/2-z
-x,-y,-z
x,-y,1/2+z
loop_
_atom_site_type_symbol
_atom_site_label
_atom_site_fract_x
_atom_site_fract_y
_atom_site_fract_z
Si Si1 0.478233 0.599488 0.400372
Si Si2 0.680424 0.290983 0.035864
Si Si3 0.000000 0.268212 0.250000
Si Si4 0.746162 0.401421 0.801112
Si Si5 0.121033 0.715911 0.334490
Si Si6 0.177132 0.629756 0.662051
Si Si7 0.880612 0.060976 0.724976
Si Si8 0.171441 0.124038 0.476590
O O1 0.500000 0.565032 0.250000
O O2 0.500000 0.500000 0.500000
O O3 0.553197 0.696029 0.483114
O O4 0.355156 0.625123 0.349670
O O5 0.722702 0.385326 0.958756
O O6 0.731566 0.301038 0.219763
O O7 0.717315 0.185665 0.976902
O O8 0.065493 0.342591 0.177933
O O9 0.076144 0.198333 0.384210
O O10 0.829679 0.317508 0.792958
O O11 0.793470 0.512689 0.798712
O O12 0.171101 0.652196 0.489712
O O13 0.143693 0.835115 0.373770
O O14 0.000000 0.693601 0.250000
O O15 0.000000 0.028875 0.750000
O O16 0.811683 0.968719 0.627546
O O17 0.854920 0.076627 0.880747
#
# Coordination Sequence:
#
# PCOD8120294 Si02
#       8
#     4   4   2   4   4   4   4   4
#     4  10  21  38  64  88 116 156 201 254 302 356
#     4  10  22  40  58  90 120 152 208 255 307 360
#     4  10  22  36  54  86 128 166 200 240 300 358
#     4  11  22  41  59  87 123 162 201 244 307 362
#     4  11  25  39  56  89 126 163 204 244 297 366
#     4  11  23  35  60  84 125 168 205 238 294 367
#     4  11  22  37  61  84 118 160 208 254 302 356
#     4  11  22  38  59  86 120 159 205 257 307 356
#
# _framework density 19.435666999999999
#
# number of rings (size 3 to 8) (size 9 to 14) (size 15 to 20)
#    0.000    1.333    3.333    2.800    8.400    0.533 
#    0.000    0.000    0.000    0.800    0.000    0.000 
#    0.000    0.000    0.000    0.000    0.000    0.000 
#
# Total GULP energy -371898.213207 kJ/mol
# GULP energy per Si atom -12396.607107 kJ/mol
# Density = 1.939143 g / cm^3
# Si number density = 19.435667 Si / 1000 Ang^3
#
#
#
# Elastic Constant Matrix: (Units=GPa)
#
#
# Indices 1 2 3 4 5 6 
#
# 1 85.2676 58.2247 32.5727 0.0000 13.8900 0.0000
# 2 58.2247 88.6151 25.9998 0.0000 13.3952 0.0000
# 3 32.5727 25.9998 92.0145 0.0000 8.8929 0.0000
# 4 0.0000 0.0000 0.0000 32.7040 0.0000 3.7904
# 5 13.8900 13.3952 8.8929 0.0000 23.9494 0.0000
# 6 0.0000 0.0000 0.0000 3.7904 0.0000 18.6299
#
#
#
# Elastic Compliance Matrix: (Units=1/GPa)
#
#
# Indices 1 2 3 4 5 6 
#
# 1 0.023062 -0.013315 -0.003971 0.000000 -0.004454 0.000000
# 2 -0.013315 0.020821 -0.000820 0.000000 -0.003619 0.000000
# 3 -0.003971 -0.000820 0.012694 0.000000 -0.001952 0.000000
# 4 0.000000 0.000000 0.000000 0.031316 0.000000 -0.006371
# 5 -0.004454 -0.003619 -0.001952 0.000000 0.047086 0.000000
# 6 0.000000 0.000000 0.000000 -0.006371 0.000000 0.054974
#
#
# Mechanical properties :
#
#
# Convention : Reuss Voigt Hill
#
# Bulk Modulus (GPa) = 49.10390 55.49904 52.30147
# Shear Modulus (GPa) = 21.46357 24.99667 23.23012
#
# Velocity S-wave (km/s) = 3.32677 3.59015 3.46096
# Velocity P-wave (km/s) = 6.33057 6.76778 6.55282
#
# Compressibility (1/GPa) = 0.02036498
#
# Stress axis : x y z
#
# Youngs Moduli (GPa) = 43.36101 48.02899 78.77739
#
# Poissons Ratio (x) = 0.63949 0.31284
# Poissons Ratio (y) = 0.57734 0.06461
# Poissons Ratio (z) = 0.17220 0.03939
#
# Static dielectric constant tensor:
#      x y z
#    x 3.695980 0.000000 0.129460 
#    y 0.000000 3.567190 0.000000 
#    z 0.129460 0.000000 3.593200 
# 
# 
# High freq. dielectric constant tensor:
#      x y z
#    x 1.743350 0.000000 -0.005070 
#    y 0.000000 1.748120 0.000000 
#    z -0.005070 0.000000 1.764960 
# 
# From -- ./inp_files/19083.got.cif
#   From: 2010.06.25/outbox.cif.g09.slc.cpg/sg13_10_cif.got.tgz:19083.got - 2010.06.28 04:50:58.
