data_PCOD8120975
_publ_section_title
;
Structure prediction by ZEFSAII (Michael W. Deem and Ramdas Pophale) SiO2 
 PCOD8120975
Probable space group: P 2/C
;
_chemical_formula_sum "Si O2"
_cell_formula_units_Z 24
_cell_length_a 12.253086
_cell_length_b 11.104988
_cell_length_c 9.045694
_cell_angle_alpha 90.000000
_cell_angle_beta 96.930187
_cell_angle_gamma 90.000000
_cell_volume 1221.858247
_symmetry_space_group_name_H-M "P 2/C"
_symmetry_group_IT_number 13
_symmetry_cell_setting 'monoclinic'
loop_
_space_group_symop_operation_xyz
x,y,z
-x,y,1/2-z
-x,-y,-z
x,-y,1/2+z
loop_
_atom_site_type_symbol
_atom_site_label
_atom_site_fract_x
_atom_site_fract_y
_atom_site_fract_z
Si Si1 0.073211 0.063855 0.629459
Si Si2 0.107887 0.353872 0.968557
Si Si3 0.583765 0.976044 0.388204
Si Si4 0.774591 0.850305 0.831534
Si Si5 0.136986 0.591765 0.139507
Si Si6 0.246040 0.780593 0.996701
O O1 0.137244 0.166165 0.554685
O O2 0.000000 0.121422 0.750000
O O3 0.153697 0.963544 0.712292
O O4 0.000000 0.000000 0.500000
O O5 0.157817 0.392099 0.818023
O O6 0.976524 0.343710 0.931703
O O7 0.163089 0.227808 0.031941
O O8 0.134609 0.450893 0.100147
O O9 0.500000 0.941161 0.250000
O O10 0.650563 0.855922 0.433900
O O11 0.500000 0.000000 0.500000
O O12 0.660458 0.093891 0.374655
O O13 0.755468 0.771840 0.681262
O O14 0.241108 0.646526 0.064965
#
# Coordination Sequence:
#
# PCOD8120975 Si02
#       6
#     4   4   4   4   4   4
#     4  11  22  33  50  82 122 155 184 231 290 355
#     4  10  22  38  60  86 125 160 200 235 290 352
#     4  11  24  43  62  87 118 155 200 252 308 354
#     4  11  23  37  58  87 115 157 198 244 294 355
#     4  10  22  38  59  88 121 164 196 239 286 353
#     4  11  23  36  60  85 117 155 199 241 296 355
#
# _framework density 19.642213000000002
#
# number of rings (size 3 to 8) (size 9 to 14) (size 15 to 20)
#    0.000    1.333    3.333    2.000    7.000    1.333 
#    0.000    0.000    0.000    2.000    0.000    0.000 
#    0.000    0.000    0.000    0.000    0.000    0.000 
#
# Total GULP energy -297421.890939 kJ/mol
# GULP energy per Si atom -12392.578789 kJ/mol
# Density = 1.959751 g / cm^3
# Si number density = 19.642213 Si / 1000 Ang^3
#
#
#
# Elastic Constant Matrix: (Units=GPa)
#
#
# Indices 1 2 3 4 5 6 
#
# 1 92.3910 29.1571 32.9200 0.0000 -14.8633 0.0000
# 2 29.1571 67.8120 23.4257 0.0000 -1.0353 0.0000
# 3 32.9200 23.4257 123.5055 0.0000 -8.9882 0.0000
# 4 0.0000 0.0000 0.0000 36.9149 0.0000 1.8410
# 5 -14.8633 -1.0353 -8.9882 0.0000 36.0167 0.0000
# 6 0.0000 0.0000 0.0000 1.8410 0.0000 31.2845
#
#
#
# Elastic Compliance Matrix: (Units=1/GPa)
#
#
# Indices 1 2 3 4 5 6 
#
# 1 0.014132 -0.005163 -0.002418 0.000000 0.005080 0.000000
# 2 -0.005163 0.017670 -0.002132 0.000000 -0.002155 0.000000
# 3 -0.002418 -0.002132 0.009236 0.000000 0.001246 0.000000
# 4 0.000000 0.000000 0.000000 0.027169 0.000000 -0.001599
# 5 0.005080 -0.002155 0.001246 0.000000 0.030110 0.000000
# 6 0.000000 0.000000 0.000000 -0.001599 0.000000 0.032059
#
#
# Mechanical properties :
#
#
# Convention : Reuss Voigt Hill
#
# Bulk Modulus (GPa) = 46.27079 50.52380 48.39730
# Shear Modulus (GPa) = 31.84563 34.05691 32.95127
#
# Velocity S-wave (km/s) = 4.03089 4.16849 4.10026
# Velocity P-wave (km/s) = 6.72845 6.99616 6.86361
#
# Compressibility (1/GPa) = 0.02161191
#
# Stress axis : x y z
#
# Youngs Moduli (GPa) = 70.76247 56.59166 108.26816
#
# Poissons Ratio (x) = 0.29221 0.26176
# Poissons Ratio (y) = 0.36538 0.23084
# Poissons Ratio (z) = 0.17108 0.12066
#
# Static dielectric constant tensor:
#      x y z
#    x 3.558180 0.000000 0.005880 
#    y 0.000000 2.848170 0.000000 
#    z 0.005880 0.000000 3.458860 
# 
# 
# High freq. dielectric constant tensor:
#      x y z
#    x 1.739790 0.000000 -0.006180 
#    y 0.000000 1.761730 0.000000 
#    z -0.006180 0.000000 1.784840 
# 
# From -- ./inp_files/15852.got.cif
#   From: 2010.06.25/outbox.cif.g09.slc.cpg/sg13_8_cif.got.tgz:15852.got - 2010.06.28 04:50:58.
