data_PCOD8120734
_publ_section_title
;
Structure prediction by ZEFSAII (Michael W. Deem and Ramdas Pophale) SiO2 
 PCOD8120734
Probable space group: P 2/C
;
_chemical_formula_sum "Si O2"
_cell_formula_units_Z 32
_cell_length_a 6.621775
_cell_length_b 14.178796
_cell_length_c 17.454110
_cell_angle_alpha 90.000000
_cell_angle_beta 86.277916
_cell_angle_gamma 90.000000
_cell_volume 1635.288735
_symmetry_space_group_name_H-M "P 2/C"
_symmetry_group_IT_number 13
_symmetry_cell_setting 'monoclinic'
loop_
_space_group_symop_operation_xyz
x,y,z
-x,y,1/2-z
-x,-y,-z
x,-y,1/2+z
loop_
_atom_site_type_symbol
_atom_site_label
_atom_site_fract_x
_atom_site_fract_y
_atom_site_fract_z
Si Si1 0.621719 0.584457 0.457176
Si Si2 0.937341 0.650228 0.571868
Si Si3 0.780421 0.025675 0.421233
Si Si4 0.397132 0.014989 0.330518
Si Si5 0.929436 0.164254 0.169416
Si Si6 0.982860 0.468905 0.841149
Si Si7 0.121350 0.112801 0.924635
Si Si8 0.776935 0.326893 0.567190
O O1 0.500000 0.500000 0.500000
O O2 0.752135 0.635085 0.518964
O O3 0.759703 0.549871 0.382258
O O4 0.465918 0.663125 0.428492
O O5 0.919007 0.752824 0.608522
O O6 0.941754 0.572964 0.638217
O O7 0.143214 0.640917 0.518132
O O8 0.554720 0.014670 0.396340
O O9 0.766254 0.080945 0.501049
O O10 0.907546 0.086213 0.357700
O O11 0.887563 0.923302 0.431678
O O12 0.500000 0.983735 0.250000
O O13 0.293035 0.117411 0.323526
O O14 0.230739 0.935292 0.350121
O O15 0.000000 0.203969 0.250000
O O16 0.000000 0.460403 0.750000
O O17 0.141867 0.394616 0.869205
O O18 0.137653 0.224102 0.914875
#
# Coordination Sequence:
#
# PCOD8120734 Si02
#       8
#     4   4   4   4   4   4   4   4
#     4  11  21  42  69  91 122 169 213 261 315 381
#     4  11  22  39  67  93 127 165 210 260 327 381
#     4  10  21  42  63  88 127 160 207 258 311 375
#     4  11  23  40  61  91 128 168 207 257 317 378
#     4  11  22  38  62  94 129 165 200 259 323 381
#     4  11  24  43  63  93 131 169 208 264 324 382
#     4  10  23  39  65  91 120 166 212 260 308 374
#     4  11  22  43  65  94 123 166 215 265 314 380
#
# _framework density 19.56841
#
# number of rings (size 3 to 8) (size 9 to 14) (size 15 to 20)
#    0.000    1.250    5.000    1.500    1.750    2.500 
#    4.500    0.000    0.000    0.000    0.000    0.000 
#    0.000    0.000    0.000    0.000    0.000    0.000 
#
# Total GULP energy -396840.567925 kJ/mol
# GULP energy per Si atom -12401.267748 kJ/mol
# Density = 1.952387 g / cm^3
# Si number density = 19.568410 Si / 1000 Ang^3
#
#
#
# Elastic Constant Matrix: (Units=GPa)
#
#
# Indices 1 2 3 4 5 6 
#
# 1 103.8520 23.5057 30.3668 0.0000 7.1060 0.0000
# 2 23.5057 82.5759 16.2961 0.0000 10.1990 0.0000
# 3 30.3668 16.2961 115.0902 0.0000 -2.0507 0.0000
# 4 0.0000 0.0000 0.0000 27.7446 0.0000 0.7250
# 5 7.1060 10.1990 -2.0507 0.0000 26.0498 0.0000
# 6 0.0000 0.0000 0.0000 0.7250 0.0000 22.1762
#
#
#
# Elastic Compliance Matrix: (Units=1/GPa)
#
#
# Indices 1 2 3 4 5 6 
#
# 1 0.011090 -0.002351 -0.002634 0.000000 -0.002312 0.000000
# 2 -0.002351 0.013650 -0.001398 0.000000 -0.004813 0.000000
# 3 -0.002634 -0.001398 0.009618 0.000000 0.002023 0.000000
# 4 0.000000 0.000000 0.000000 0.036074 0.000000 -0.001179
# 5 -0.002312 -0.004813 0.002023 0.000000 0.041062 0.000000
# 6 0.000000 0.000000 0.000000 -0.001179 0.000000 0.045132
#
#
# Mechanical properties :
#
#
# Convention : Reuss Voigt Hill
#
# Bulk Modulus (GPa) = 46.31782 49.09500 47.70641
# Shear Modulus (GPa) = 28.31424 30.61743 29.46583
#
# Velocity S-wave (km/s) = 3.80799 3.95984 3.88466
# Velocity P-wave (km/s) = 6.56166 6.78605 6.67480
#
# Compressibility (1/GPa) = 0.02158996
#
# Stress axis : x y z
#
# Youngs Moduli (GPa) = 90.17324 73.26150 103.97270
#
# Poissons Ratio (x) = 0.17226 0.27390
# Poissons Ratio (y) = 0.21203 0.14536
# Poissons Ratio (z) = 0.23754 0.10242
#
# Static dielectric constant tensor:
#      x y z
#    x 3.671110 0.000000 -0.133560 
#    y 0.000000 3.537670 0.000000 
#    z -0.133560 0.000000 3.433000 
# 
# 
# High freq. dielectric constant tensor:
#      x y z
#    x 1.767400 0.000000 -0.001950 
#    y 0.000000 1.759930 0.000000 
#    z -0.001950 0.000000 1.763740 
# 
# From -- ./inp_files/61601.got.cif
#   From: 2010.06.25/outbox.cif.g09.slc.cpg/sg13_31_cif.got.tgz:61601.got - 2010.06.28 04:50:58.
