data_PCOD8120290
_publ_section_title
;
Structure prediction by ZEFSAII (Michael W. Deem and Ramdas Pophale) SiO2 
 PCOD8120290
Probable space group: P 2/C
;
_chemical_formula_sum "Si O2"
_cell_formula_units_Z 28
_cell_length_a 20.289662
_cell_length_b 8.480754
_cell_length_c 23.272363
_cell_angle_alpha 90.000000
_cell_angle_beta 160.752153
_cell_angle_gamma 90.000000
_cell_volume 1320.108570
_symmetry_space_group_name_H-M "P 2/C"
_symmetry_group_IT_number 13
_symmetry_cell_setting 'monoclinic'
loop_
_space_group_symop_operation_xyz
x,y,z
-x,y,1/2-z
-x,-y,-z
x,-y,1/2+z
loop_
_atom_site_type_symbol
_atom_site_label
_atom_site_fract_x
_atom_site_fract_y
_atom_site_fract_z
Si Si1 0.045865 0.845471 0.502607
Si Si2 0.608477 0.213036 0.639557
Si Si3 0.537346 0.846867 0.604476
Si Si4 0.500000 0.818136 0.250000
Si Si5 0.659313 0.642182 0.488424
Si Si6 0.761926 0.282845 0.552119
Si Si7 0.201937 0.065033 0.012803
Si Si8 0.000000 0.142265 0.250000
O O1 0.253887 0.770543 0.698365
O O2 0.059016 0.881311 0.445821
O O3 0.844401 0.739581 0.339357
O O4 0.000000 0.000000 0.500000
O O5 0.519028 0.237148 0.501968
O O6 0.503346 0.335479 0.595809
O O7 0.568444 0.033388 0.624655
O O8 0.351484 0.824763 0.494463
O O9 0.599970 0.705152 0.377535
O O10 0.643510 0.938864 0.333084
O O11 0.698444 0.459531 0.512307
O O12 0.853559 0.742705 0.665459
O O13 0.698186 0.218462 0.436225
O O14 0.000000 0.265690 0.750000
O O15 0.092688 0.971318 0.872814
#
# Coordination Sequence:
#
# PCOD8120290 Si02
#       8
#     4   4   4   2   4   4   4   2
#     4  10  21  38  64 102 127 167 224 285 332 393
#     4  10  22  40  65  93 131 176 227 279 329 412
#     4  10  22  40  67  96 129 175 232 281 332 397
#     4  10  22  40  64  94 126 172 220 280 334 402
#     4  11  24  42  60  95 138 172 215 275 355 403
#     4  12  24  41  65 100 135 177 220 282 347 405
#     4  11  21  38  68  95 128 167 233 280 328 394
#     4  10  22  38  66  92 122 178 220 282 328 400
#
# _framework density 21.210376
#
# number of rings (size 3 to 8) (size 9 to 14) (size 15 to 20)
#    0.000    1.429    1.429    5.143    6.000    2.286 
#    0.000    0.714    0.000    0.000    0.000    0.000 
#    0.000    0.000    0.000    0.000    0.000    0.000 
#
# Total GULP energy -346961.473927 kJ/mol
# GULP energy per Si atom -12391.481212 kJ/mol
# Density = 2.116210 g / cm^3
# Si number density = 21.210376 Si / 1000 Ang^3
#
#
#
# Elastic Constant Matrix: (Units=GPa)
#
#
# Indices 1 2 3 4 5 6 
#
# 1 147.1820 35.8256 40.3144 0.0000 23.2743 0.0000
# 2 35.8256 71.5567 25.2530 0.0000 5.3544 0.0000
# 3 40.3144 25.2530 124.7463 0.0000 21.5623 0.0000
# 4 0.0000 0.0000 0.0000 14.3313 0.0000 13.1951
# 5 23.2743 5.3544 21.5623 0.0000 34.3173 0.0000
# 6 0.0000 0.0000 0.0000 13.1951 0.0000 25.2097
#
#
#
# Elastic Compliance Matrix: (Units=1/GPa)
#
#
# Indices 1 2 3 4 5 6 
#
# 1 0.008743 -0.003573 -0.001317 0.000000 -0.004545 0.000000
# 2 -0.003573 0.016517 -0.002426 0.000000 0.001370 0.000000
# 3 -0.001317 -0.002426 0.009775 0.000000 -0.004870 0.000000
# 4 0.000000 0.000000 0.000000 0.134682 0.000000 -0.070495
# 5 -0.004545 0.001370 -0.004870 0.000000 0.035069 0.000000
# 6 0.000000 0.000000 0.000000 -0.070495 0.000000 0.076565
#
#
# Mechanical properties :
#
#
# Convention : Reuss Voigt Hill
#
# Bulk Modulus (GPa) = 49.00857 60.69677 54.85267
# Shear Modulus (GPa) = 16.51345 30.91112 23.71229
#
# Velocity S-wave (km/s) = 2.79329 3.82168 3.34721
# Velocity P-wave (km/s) = 5.79305 6.93919 6.39186
#
# Compressibility (1/GPa) = 0.02040460
#
# Stress axis : x y z
#
# Youngs Moduli (GPa) = 114.37305 60.54287 102.30507
#
# Poissons Ratio (x) = 0.21630 0.13471
# Poissons Ratio (y) = 0.40861 0.24818
# Poissons Ratio (z) = 0.15060 0.14687
#
# Static dielectric constant tensor:
#      x y z
#    x 3.949200 0.000000 0.111920 
#    y 0.000000 3.676450 0.000000 
#    z 0.111920 0.000000 4.570540 
# 
# 
# High freq. dielectric constant tensor:
#      x y z
#    x 1.841390 0.000000 0.006520 
#    y 0.000000 1.803770 0.000000 
#    z 0.006520 0.000000 1.847950 
# 
# From -- ./inp_files/88552.got.cif
#   From: 2010.06.25/outbox.cif.g09.slc.cpg/sg13_45_cif.got.tgz:88552.got - 2010.06.28 04:50:58.
