data_PCOD8120298
_publ_section_title
;
Structure prediction by ZEFSAII (Michael W. Deem and Ramdas Pophale) SiO2 
 PCOD8120298
Probable space group: P 2/C
;
_chemical_formula_sum "Si O2"
_cell_formula_units_Z 16
_cell_length_a 23.597348
_cell_length_b 6.450600
_cell_length_c 14.150949
_cell_angle_alpha 90.000000
_cell_angle_beta 21.639178
_cell_angle_gamma 90.000000
_cell_volume 794.315353
_symmetry_space_group_name_H-M "P 2/C"
_symmetry_group_IT_number 13
_symmetry_cell_setting 'monoclinic'
loop_
_space_group_symop_operation_xyz
x,y,z
-x,y,1/2-z
-x,-y,-z
x,-y,1/2+z
loop_
_atom_site_type_symbol
_atom_site_label
_atom_site_fract_x
_atom_site_fract_y
_atom_site_fract_z
Si Si1 0.837230 0.807720 0.094850
Si Si2 0.070792 0.390605 0.481589
Si Si3 0.325418 0.926531 0.521878
Si Si4 0.127584 0.023657 0.660257
O O1 0.858910 0.560560 0.053507
O O2 0.689125 0.873632 0.385928
O O3 0.830862 0.931060 0.006309
O O4 0.987451 0.887984 0.920791
O O5 0.218431 0.256479 0.224949
O O6 0.000000 0.500000 0.500000
O O7 0.935854 0.260781 0.743931
O O8 0.278208 0.000421 0.490335
O O9 0.500000 0.848683 0.250000
#
# Coordination Sequence:
#
# PCOD8120298 Si02
#       4
#     4   4   4   4
#     4  10  21  38  64  91 120 161 210 254 304 361
#     4  11  19  41  67  87 119 165 215 249 303 364
#     4  11  23  39  58  92 133 162 196 256 317 366
#     4  10  21  38  64  95 119 157 209 263 298 366
#
# _framework density 20.143132000000001
#
# number of rings (size 3 to 8) (size 9 to 14) (size 15 to 20)
#    0.000    1.500    5.000    1.500    0.000   10.000 
#    0.000    1.250    0.000    0.000    0.000    0.000 
#    0.000    0.000    0.000    0.000    0.000    0.000 
#
# Total GULP energy -198261.307211 kJ/mol
# GULP energy per Si atom -12391.331701 kJ/mol
# Density = 2.009729 g / cm^3
# Si number density = 20.143132 Si / 1000 Ang^3
#
#
#
# Elastic Constant Matrix: (Units=GPa)
#
#
# Indices 1 2 3 4 5 6 
#
# 1 117.2451 68.6640 61.0741 0.0000 3.6286 0.0000
# 2 68.6640 144.6471 38.3191 0.0000 3.5749 0.0000
# 3 61.0741 38.3191 101.8846 0.0000 -14.8231 0.0000
# 4 0.0000 0.0000 0.0000 23.0878 0.0000 2.8370
# 5 3.6286 3.5749 -14.8231 0.0000 21.8697 0.0000
# 6 0.0000 0.0000 0.0000 2.8370 0.0000 31.4011
#
#
#
# Elastic Compliance Matrix: (Units=1/GPa)
#
#
# Indices 1 2 3 4 5 6 
#
# 1 0.016649 -0.005271 -0.009180 0.000000 -0.008123 0.000000
# 2 -0.005271 0.009606 -0.000615 0.000000 -0.001113 0.000000
# 3 -0.009180 -0.000615 0.017512 0.000000 0.013493 0.000000
# 4 0.000000 0.000000 0.000000 0.043799 0.000000 -0.003957
# 5 -0.008123 -0.001113 0.013493 0.000000 0.056400 0.000000
# 6 0.000000 0.000000 0.000000 -0.003957 0.000000 0.032204
#
#
# Mechanical properties :
#
#
# Convention : Reuss Voigt Hill
#
# Bulk Modulus (GPa) = 73.33480 77.76569 75.55024
# Shear Modulus (GPa) = 23.71392 28.31970 26.01681
#
# Velocity S-wave (km/s) = 3.43486 3.75363 3.59778
# Velocity P-wave (km/s) = 7.22613 7.58134 7.40586
#
# Compressibility (1/GPa) = 0.01363609
#
# Stress axis : x y z
#
# Youngs Moduli (GPa) = 60.06351 104.10309 57.10316
#
# Poissons Ratio (x) = 0.54870 0.52418
# Poissons Ratio (y) = 0.31658 0.03513
# Poissons Ratio (z) = 0.55136 0.06404
#
# Static dielectric constant tensor:
#      x y z
#    x 3.560450 0.000000 0.023160 
#    y 0.000000 4.024510 0.000000 
#    z 0.023160 0.000000 3.408000 
# 
# 
# High freq. dielectric constant tensor:
#      x y z
#    x 1.787540 0.000000 0.013010 
#    y 0.000000 1.796340 0.000000 
#    z 0.013010 0.000000 1.751550 
# 
# From -- ./inp_files/48388.got.cif
#   From: 2010.06.25/outbox.cif.g09.slc.cpg/sg13_25_cif.got.tgz:48388.got - 2010.06.28 04:50:58.
