data_PCOD8120548
_publ_section_title
;
Structure prediction by ZEFSAII (Michael W. Deem and Ramdas Pophale) SiO2 
 PCOD8120548
Probable space group: P 2/C
;
_chemical_formula_sum "Si O2"
_cell_formula_units_Z 22
_cell_length_a 14.001983
_cell_length_b 11.795630
_cell_length_c 12.097756
_cell_angle_alpha 90.000000
_cell_angle_beta 152.490082
_cell_angle_gamma 90.000000
_cell_volume 922.923048
_symmetry_space_group_name_H-M "P 2/C"
_symmetry_group_IT_number 13
_symmetry_cell_setting 'monoclinic'
loop_
_space_group_symop_operation_xyz
x,y,z
-x,y,1/2-z
-x,-y,-z
x,-y,1/2+z
loop_
_atom_site_type_symbol
_atom_site_label
_atom_site_fract_x
_atom_site_fract_y
_atom_site_fract_z
Si Si1 0.222228 0.701214 0.586152
Si Si2 0.682505 0.144905 0.015877
Si Si3 0.000000 0.484307 0.750000
Si Si4 0.004848 0.320283 0.421642
Si Si5 0.267211 0.105150 0.976422
Si Si6 0.600455 0.218990 0.592486
O O1 0.197180 0.598927 0.472149
O O2 0.064107 0.676052 0.522553
O O3 0.151389 0.820703 0.452914
O O4 0.458303 0.697783 0.871923
O O5 0.871430 0.231585 0.213391
O O6 0.500000 0.189305 0.750000
O O7 0.564648 0.137085 0.013796
O O8 0.786314 0.027960 0.079417
O O9 0.965883 0.559131 0.824400
O O10 0.249143 0.287404 0.669298
O O11 0.500000 0.121843 0.250000
O O12 0.244141 0.148866 0.826960
#
# Coordination Sequence:
#
# PCOD8120548 Si02
#       6
#     4   4   2   4   4   4
#     4  10  23  43  66  92 129 172 216 266 315 371
#     4  10  21  40  64  94 133 167 204 258 318 382
#     4  12  24  44  66  90 128 170 222 272 314 376
#     4  11  24  42  66  98 129 167 217 263 319 383
#     4   9  19  39  66  93 128 169 210 256 315 384
#     4  10  21  40  64  96 128 164 209 261 324 379
#
# _framework density 23.837306000000002
#
# number of rings (size 3 to 8) (size 9 to 14) (size 15 to 20)
#    0.000    1.818    0.000    3.273    0.000    2.909 
#    0.000   30.909    0.000    0.000    0.000    0.000 
#    0.000    0.000    0.000    0.000    0.000    0.000 
#
# Total GULP energy -272615.457852 kJ/mol
# GULP energy per Si atom -12391.611721 kJ/mol
# Density = 2.378305 g / cm^3
# Si number density = 23.837306 Si / 1000 Ang^3
#
#
#
# Elastic Constant Matrix: (Units=GPa)
#
#
# Indices 1 2 3 4 5 6 
#
# 1 86.0093 53.5879 16.7637 0.0000 -4.5487 0.0000
# 2 53.5879 161.5416 81.8312 0.0000 -12.1372 0.0000
# 3 16.7637 81.8312 169.2427 0.0000 -6.2507 0.0000
# 4 0.0000 0.0000 0.0000 -11.3082 0.0000 -116.9222
# 5 -4.5487 -12.1372 -6.2507 0.0000 29.8270 0.0000
# 6 0.0000 0.0000 0.0000 -116.9222 0.0000 -209.8177
#
#
#
# Elastic Compliance Matrix: (Units=1/GPa)
#
#
# Indices 1 2 3 4 5 6 
#
# 1 0.014841 -0.005514 0.001206 0.000000 0.000272 0.000000
# 2 -0.005514 0.010440 -0.004410 0.000000 0.002483 0.000000
# 3 0.001206 -0.004410 0.007923 0.000000 0.000050 0.000000
# 4 0.000000 0.000000 0.000000 0.018571 0.000000 -0.010349
# 5 0.000272 0.002483 0.000050 0.000000 0.034589 0.000000
# 6 0.000000 0.000000 0.000000 -0.010349 0.000000 0.001001
#
#
# Mechanical properties :
#
#
# Convention : Reuss Voigt Hill
#
# Bulk Modulus (GPa) = 63.41507 80.12878 71.77193
# Shear Modulus (GPa) = 45.43084 -20.61905 12.40590
#
# Velocity S-wave (km/s) = 4.37037 -2.94426 2.28379
# Velocity P-wave (km/s) = 7.21996 4.70421 6.09333
#
# Compressibility (1/GPa) = 0.01576912
#
# Stress axis : x y z
#
# Youngs Moduli (GPa) = 67.37948 95.78616 126.20912
#
# Poissons Ratio (x) = 0.52814 -0.15220
# Poissons Ratio (y) = 0.37151 0.55658
# Poissons Ratio (z) = -0.08126 0.42242
#
# Static dielectric constant tensor:
#      x y z
#    x 4.501740 0.000000 -0.316560 
#    y 0.000000 4.554460 0.000000 
#    z -0.316560 0.000000 4.481620 
# 
# 
# High freq. dielectric constant tensor:
#      x y z
#    x 1.942940 0.000000 -0.016730 
#    y 0.000000 1.921170 0.000000 
#    z -0.016730 0.000000 1.966410 
# 
# From -- ./inp_files/37261.got.cif
#   From: 2010.06.25/outbox.cif.g09.slc.cpg/sg13_19_cif.got.tgz:37261.got - 2010.06.28 04:50:58.
