data_PCOD8120135
_publ_section_title
;
Structure prediction by ZEFSAII (Michael W. Deem and Ramdas Pophale) SiO2 
 PCOD8120135
Probable space group: P 2/C
;
_chemical_formula_sum "Si O2"
_cell_formula_units_Z 30
_cell_length_a 23.840441
_cell_length_b 7.957286
_cell_length_c 15.882133
_cell_angle_alpha 90.000000
_cell_angle_beta 29.390065
_cell_angle_gamma 90.000000
_cell_volume 1478.600198
_symmetry_space_group_name_H-M "P 2/C"
_symmetry_group_IT_number 13
_symmetry_cell_setting 'monoclinic'
loop_
_space_group_symop_operation_xyz
x,y,z
-x,y,1/2-z
-x,-y,-z
x,-y,1/2+z
loop_
_atom_site_type_symbol
_atom_site_label
_atom_site_fract_x
_atom_site_fract_y
_atom_site_fract_z
Si Si1 0.610589 0.261698 0.663205
Si Si2 0.588211 0.568676 0.818396
Si Si3 0.409992 0.122086 0.293278
Si Si4 0.000000 0.218252 0.750000
Si Si5 0.825698 0.215556 0.274030
Si Si6 0.940111 0.342537 0.539632
Si Si7 0.831927 0.859818 0.328788
Si Si8 0.823248 0.605615 0.600116
O O1 0.500000 0.275913 0.750000
O O2 0.607695 0.414054 0.730975
O O3 0.726832 0.300730 0.459129
O O4 0.610333 0.074625 0.708037
O O5 0.542396 0.745384 0.838226
O O6 0.703101 0.618990 0.714019
O O7 0.500000 0.500000 0.000000
O O8 0.500000 0.121522 0.250000
O O9 0.288660 0.204724 0.477486
O O10 0.078777 0.107848 0.710681
O O11 0.079416 0.336935 0.590761
O O12 0.818764 0.272906 0.186844
O O13 0.802978 0.019482 0.309764
O O14 0.956789 0.235838 0.137098
O O15 0.878449 0.269031 0.700882
O O16 0.848687 0.409839 0.590940
O O17 0.000000 0.500000 0.500000
#
# Coordination Sequence:
#
# PCOD8120135 Si02
#       8
#     4   4   4   2   4   4   4   4
#     4  10  23  45  68  93 127 170 222 267 319 391
#     4  12  26  42  66 100 130 169 215 277 330 381
#     4  10  24  44  69  94 128 175 218 270 324 386
#     4  12  22  40  62  94 138 162 204 282 318 376
#     4  10  22  42  66  91 123 176 217 257 315 407
#     4  10  21  37  62  89 123 170 206 254 316 395
#     4  11  22  42  67  91 129 169 217 263 328 386
#     4  11  25  39  63  95 133 165 212 268 325 377
#
# _framework density 20.289459999999998
#
# number of rings (size 3 to 8) (size 9 to 14) (size 15 to 20)
#    0.000    1.333    4.000    1.600    7.467    0.533 
#    7.200    0.000    0.000    0.000    0.000    0.000 
#    0.000    0.000    0.000    0.000    0.000    0.000 
#
# Total GULP energy -371674.836214 kJ/mol
# GULP energy per Si atom -12389.161207 kJ/mol
# Density = 2.024328 g / cm^3
# Si number density = 20.289460 Si / 1000 Ang^3
#
#
#
# Elastic Constant Matrix: (Units=GPa)
#
#
# Indices 1 2 3 4 5 6 
#
# 1 103.1867 41.9618 31.0202 0.0000 -0.8427 0.0000
# 2 41.9618 86.9620 30.6097 0.0000 20.3744 0.0000
# 3 31.0202 30.6097 104.6899 0.0000 13.2756 0.0000
# 4 0.0000 0.0000 0.0000 40.6844 0.0000 5.2796
# 5 -0.8427 20.3744 13.2756 0.0000 35.1817 0.0000
# 6 0.0000 0.0000 0.0000 5.2796 0.0000 29.3243
#
#
#
# Elastic Compliance Matrix: (Units=1/GPa)
#
#
# Indices 1 2 3 4 5 6 
#
# 1 0.013238 -0.006675 -0.002627 0.000000 0.005174 0.000000
# 2 -0.006675 0.017674 -0.001966 0.000000 -0.009653 0.000000
# 3 -0.002627 -0.001966 0.011310 0.000000 -0.003192 0.000000
# 4 0.000000 0.000000 0.000000 0.025167 0.000000 -0.004531
# 5 0.005174 -0.009653 -0.003192 0.000000 0.035343 0.000000
# 6 0.000000 0.000000 0.000000 -0.004531 0.000000 0.034917
#
#
# Mechanical properties :
#
#
# Convention : Reuss Voigt Hill
#
# Bulk Modulus (GPa) = 50.79658 55.78022 53.28840
# Shear Modulus (GPa) = 29.98572 33.78786 31.88679
#
# Velocity S-wave (km/s) = 3.84851 4.08523 3.96863
# Velocity P-wave (km/s) = 6.69615 7.05719 6.87904
#
# Compressibility (1/GPa) = 0.01968637
#
# Stress axis : x y z
#
# Youngs Moduli (GPa) = 75.54231 56.58082 88.41845
#
# Poissons Ratio (x) = 0.37769 0.23225
# Poissons Ratio (y) = 0.50426 0.17379
# Poissons Ratio (z) = 0.19843 0.11121
#
# Static dielectric constant tensor:
#      x y z
#    x 3.802710 0.000000 0.055460 
#    y 0.000000 3.112040 0.000000 
#    z 0.055460 0.000000 3.411160 
# 
# 
# High freq. dielectric constant tensor:
#      x y z
#    x 1.786550 0.000000 -0.011830 
#    y 0.000000 1.794900 0.000000 
#    z -0.011830 0.000000 1.810690 
# 
# From -- ./inp_files/58690.got.cif
#   From: 2010.06.25/outbox.cif.g09.slc.cpg/sg13_30_cif.got.tgz:58690.got - 2010.06.28 04:50:58.
