data_PCOD8120623
_publ_section_title
;
Structure prediction by ZEFSAII (Michael W. Deem and Ramdas Pophale) SiO2 
 PCOD8120623
Probable space group: P 2/C
;
_chemical_formula_sum "Si O2"
_cell_formula_units_Z 28
_cell_length_a 7.973597
_cell_length_b 24.986706
_cell_length_c 8.527920
_cell_angle_alpha 90.000000
_cell_angle_beta 50.735349
_cell_angle_gamma 90.000000
_cell_volume 1315.457640
_symmetry_space_group_name_H-M "P 2/C"
_symmetry_group_IT_number 13
_symmetry_cell_setting 'monoclinic'
loop_
_space_group_symop_operation_xyz
x,y,z
-x,y,1/2-z
-x,-y,-z
x,-y,1/2+z
loop_
_atom_site_type_symbol
_atom_site_label
_atom_site_fract_x
_atom_site_fract_y
_atom_site_fract_z
Si Si1 0.720515 0.949807 0.696666
Si Si2 0.762619 0.321983 0.961302
Si Si3 0.408359 0.165625 0.136890
Si Si4 0.088831 0.257452 0.354654
Si Si5 0.500000 0.521138 0.250000
Si Si6 0.336809 0.235500 0.714080
Si Si7 0.000000 0.975940 0.250000
Si Si8 0.257509 0.437748 0.604569
O O1 0.500000 0.973227 0.750000
O O2 0.673271 0.895160 0.817931
O O3 0.885055 0.940169 0.452422
O O4 0.818179 0.988842 0.769409
O O5 0.625387 0.278954 0.944807
O O6 0.658061 0.380897 0.014363
O O7 0.000000 0.326474 0.750000
O O8 0.768347 0.301535 0.138221
O O9 0.500000 0.180878 0.250000
O O10 0.214375 0.205958 0.214545
O O11 0.594967 0.176834 0.895447
O O12 0.000000 0.286242 0.250000
O O13 0.907966 0.234250 0.580488
O O14 0.344074 0.485436 0.447700
O O15 0.652225 0.557628 0.270995
O O16 0.500000 0.254348 0.750000
O O17 0.000000 0.441625 0.750000
#
# Coordination Sequence:
#
# PCOD8120623 Si02
#       8
#     4   4   4   4   2   4   2   4
#     4  10  23  41  66  95 124 163 212 259 315 374
#     4   9  21  39  60  87 123 164 203 253 313 372
#     4  11  23  39  61  90 125 163 202 252 312 365
#     4  11  22  39  60  88 127 160 208 252 305 385
#     4  10  22  38  64  94 116 168 212 258 326 376
#     4  11  22  37  58  87 122 163 202 251 303 367
#     4  10  22  44  68  90 128 166 208 266 316 366
#     4  10  21  41  61  89 128 160 208 266 314 375
#
# _framework density 21.285368999999999
#
# number of rings (size 3 to 8) (size 9 to 14) (size 15 to 20)
#    0.000    1.714    2.857    0.857    2.000    3.429 
#    0.000    7.143    0.000    0.000    0.000    0.000 
#    0.000    0.000    0.000    0.000    0.000    0.000 
#
# Total GULP energy -347117.666915 kJ/mol
# GULP energy per Si atom -12397.059533 kJ/mol
# Density = 2.123692 g / cm^3
# Si number density = 21.285369 Si / 1000 Ang^3
#
#
#
# Elastic Constant Matrix: (Units=GPa)
#
#
# Indices 1 2 3 4 5 6 
#
# 1 137.5517 47.8310 18.0946 0.0000 27.3991 0.0000
# 2 47.8310 107.2694 32.8820 0.0000 9.6270 0.0000
# 3 18.0946 32.8820 89.7567 0.0000 11.9339 0.0000
# 4 0.0000 0.0000 0.0000 6.2742 0.0000 5.7448
# 5 27.3991 9.6270 11.9339 0.0000 36.6229 0.0000
# 6 0.0000 0.0000 0.0000 5.7448 0.0000 15.8765
#
#
#
# Elastic Compliance Matrix: (Units=1/GPa)
#
#
# Indices 1 2 3 4 5 6 
#
# 1 0.009879 -0.003918 0.000303 0.000000 -0.006460 0.000000
# 2 -0.003918 0.012143 -0.003788 0.000000 0.000974 0.000000
# 3 0.000303 -0.003788 0.012926 0.000000 -0.003443 0.000000
# 4 0.000000 0.000000 0.000000 0.238349 0.000000 -0.086244
# 5 -0.006460 0.000974 -0.003443 0.000000 0.033004 0.000000
# 6 0.000000 0.000000 0.000000 -0.086244 0.000000 0.094193
#
#
# Mechanical properties :
#
#
# Convention : Reuss Voigt Hill
#
# Bulk Modulus (GPa) = 49.65024 59.13254 54.39139
# Shear Modulus (GPa) = 11.84792 27.47275 19.66033
#
# Velocity S-wave (km/s) = 2.36184 3.59651 3.04247
# Velocity P-wave (km/s) = 5.55107 6.71474 6.16044
#
# Compressibility (1/GPa) = 0.02014089
#
# Stress axis : x y z
#
# Youngs Moduli (GPa) = 101.22061 82.35006 77.36505
#
# Poissons Ratio (x) = 0.32267 -0.02342
# Poissons Ratio (y) = 0.39660 0.29308
# Poissons Ratio (z) = -0.03064 0.31196
#
# Static dielectric constant tensor:
#      x y z
#    x 4.129310 0.000000 0.093830 
#    y 0.000000 3.780180 0.000000 
#    z 0.093830 0.000000 3.995810 
# 
# 
# High freq. dielectric constant tensor:
#      x y z
#    x 1.850960 0.000000 0.003290 
#    y 0.000000 1.812050 0.000000 
#    z 0.003290 0.000000 1.844230 
# 
# From -- ./inp_files/13658.got.cif
#   From: 2010.06.25/outbox.cif.g09.slc.cpg/sg13_7_cif.got.tgz:13658.got - 2010.06.28 04:50:58.
