data_PCOD8120140
_publ_section_title
;
Structure prediction by ZEFSAII (Michael W. Deem and Ramdas Pophale) SiO2 
 PCOD8120140
Probable space group: P 2/C
;
_chemical_formula_sum "Si O2"
_cell_formula_units_Z 22
_cell_length_a 10.941088
_cell_length_b 11.278658
_cell_length_c 9.421972
_cell_angle_alpha 90.000000
_cell_angle_beta 113.393532
_cell_angle_gamma 90.000000
_cell_volume 1067.105953
_symmetry_space_group_name_H-M "P 2/C"
_symmetry_group_IT_number 13
_symmetry_cell_setting 'monoclinic'
loop_
_space_group_symop_operation_xyz
x,y,z
-x,y,1/2-z
-x,-y,-z
x,-y,1/2+z
loop_
_atom_site_type_symbol
_atom_site_label
_atom_site_fract_x
_atom_site_fract_y
_atom_site_fract_z
Si Si1 0.645047 0.876187 0.769487
Si Si2 0.750450 0.070591 0.029666
Si Si3 0.000000 0.929816 0.250000
Si Si4 0.900135 0.747287 0.424989
Si Si5 0.156671 0.554730 0.309751
Si Si6 0.175645 0.351668 0.117984
O O1 0.500000 0.832967 0.750000
O O2 0.640292 0.907028 0.600145
O O3 0.748893 0.771809 0.844110
O O4 0.687603 0.991887 0.877163
O O5 0.873928 0.010963 0.164949
O O6 0.799011 0.197258 0.991832
O O7 0.975480 0.851489 0.376820
O O8 0.812630 0.666604 0.278648
O O9 0.015920 0.669718 0.552982
O O10 0.217405 0.434713 0.269923
O O11 0.217438 0.579334 0.492765
O O12 0.000000 0.542959 0.250000
#
# Coordination Sequence:
#
# PCOD8120140 Si02
#       6
#     4   4   2   4   4   4
#     4  12  27  45  64  87 126 175 219 261 299 370
#     4  12  24  40  66  93 130 162 215 252 328 375
#     4  12  18  38  60 102 128 160 184 272 322 376
#     4  11  19  36  63  96 130 160 191 262 324 371
#     4  10  21  37  62  93 133 158 198 254 322 377
#     4  11  23  40  63  93 129 161 209 255 314 377
#
# _framework density 20.616510999999999
#
# number of rings (size 3 to 8) (size 9 to 14) (size 15 to 20)
#    0.000    0.727    6.364    4.364    5.091    0.000 
#    0.000    0.909    0.000    0.000    0.000    0.000 
#    0.000    0.000    0.000    0.000    0.000    0.000 
#
# Total GULP energy -272867.608984 kJ/mol
# GULP energy per Si atom -12403.073136 kJ/mol
# Density = 2.056959 g / cm^3
# Si number density = 20.616511 Si / 1000 Ang^3
#
#
#
# Elastic Constant Matrix: (Units=GPa)
#
#
# Indices 1 2 3 4 5 6 
#
# 1 63.5630 19.8990 26.5806 0.0000 -25.8630 0.0000
# 2 19.8990 97.8480 43.3921 0.0000 -22.8570 0.0000
# 3 26.5806 43.3921 90.7249 0.0000 -32.1064 0.0000
# 4 0.0000 0.0000 0.0000 34.1452 0.0000 -16.3348
# 5 -25.8630 -22.8570 -32.1064 0.0000 34.1769 0.0000
# 6 0.0000 0.0000 0.0000 -16.3348 0.0000 14.3013
#
#
#
# Elastic Compliance Matrix: (Units=1/GPa)
#
#
# Indices 1 2 3 4 5 6 
#
# 1 0.022798 -0.000542 -0.000664 0.000000 0.016266 0.000000
# 2 -0.000542 0.013413 -0.004834 0.000000 0.004019 0.000000
# 3 -0.000664 -0.004834 0.018286 0.000000 0.013443 0.000000
# 4 0.000000 0.000000 0.000000 0.064567 0.000000 0.073747
# 5 0.016266 0.004019 0.013443 0.000000 0.056885 0.000000
# 6 0.000000 0.000000 0.000000 0.073747 0.000000 0.154157
#
#
# Mechanical properties :
#
#
# Convention : Reuss Voigt Hill
#
# Bulk Modulus (GPa) = 23.57539 47.98657 35.78098
# Shear Modulus (GPa) = 14.03213 27.34229 20.68721
#
# Velocity S-wave (km/s) = 2.61171 3.64570 3.17113
# Velocity P-wave (km/s) = 4.53373 6.40686 5.54989
#
# Compressibility (1/GPa) = 0.04241712
#
# Stress axis : x y z
#
# Youngs Moduli (GPa) = 43.86302 74.55634 54.68611
#
# Poissons Ratio (x) = 0.04044 0.03629
# Poissons Ratio (y) = 0.02379 0.26435
# Poissons Ratio (z) = 0.02911 0.36040
#
# Static dielectric constant tensor:
#      x y z
#    x 3.501790 0.000000 -0.458180 
#    y 0.000000 3.959130 0.000000 
#    z -0.458180 0.000000 4.206010 
# 
# 
# High freq. dielectric constant tensor:
#      x y z
#    x 1.762900 0.000000 -0.035030 
#    y 0.000000 1.820890 0.000000 
#    z -0.035030 0.000000 1.810120 
# 
# From -- ./inp_files/15562.got.cif
#   From: 2010.06.25/outbox.cif.g09.slc.cpg/sg13_8_cif.got.tgz:15562.got - 2010.06.28 04:50:58.
