data_PCOD8120402
_publ_section_title
;
Structure prediction by ZEFSAII (Michael W. Deem and Ramdas Pophale) SiO2 
 PCOD8120402
Probable space group: P 2/C
;
_chemical_formula_sum "Si O2"
_cell_formula_units_Z 30
_cell_length_a 9.196495
_cell_length_b 10.763179
_cell_length_c 17.721493
_cell_angle_alpha 90.000000
_cell_angle_beta 119.587975
_cell_angle_gamma 90.000000
_cell_volume 1525.393986
_symmetry_space_group_name_H-M "P 2/C"
_symmetry_group_IT_number 13
_symmetry_cell_setting 'monoclinic'
loop_
_space_group_symop_operation_xyz
x,y,z
-x,y,1/2-z
-x,-y,-z
x,-y,1/2+z
loop_
_atom_site_type_symbol
_atom_site_label
_atom_site_fract_x
_atom_site_fract_y
_atom_site_fract_z
Si Si1 0.746707 0.941323 0.555935
Si Si2 0.668479 0.177264 0.439548
Si Si3 0.641043 0.601765 0.040615
Si Si4 0.662163 0.916988 0.706172
Si Si5 0.587213 0.268118 0.918100
Si Si6 0.890942 0.564577 0.536517
Si Si7 0.923090 0.197907 0.377454
Si Si8 0.500000 0.125866 0.750000
O O1 0.722896 0.950681 0.638802
O O2 0.626400 0.836624 0.490512
O O3 0.939009 0.910314 0.588477
O O4 0.694605 0.072922 0.509166
O O5 0.621692 0.307228 0.464745
O O6 0.522165 0.143070 0.343285
O O7 0.839004 0.190460 0.437393
O O8 0.596759 0.675794 0.106923
O O9 0.823556 0.536535 0.081182
O O10 0.500000 0.500000 0.000000
O O11 0.792715 0.821098 0.776164
O O12 0.648482 0.042519 0.752230
O O13 0.584944 0.211551 0.834511
O O14 0.731768 0.372067 0.955042
O O15 0.000000 0.500000 0.500000
O O16 0.996094 0.665553 0.610738
#
# Coordination Sequence:
#
# PCOD8120402 Si02
#       8
#     4   4   4   4   4   4   4   2
#     4  11  22  38  63  97 124 168 199 255 326 388
#     4  12  20  38  66  94 120 166 213 252 316 385
#     4  10  21  39  64  89 115 165 218 254 296 374
#     4  12  22  38  60  97 132 160 203 261 316 384
#     4  10  21  39  66  89 126 160 208 262 314 378
#     4  10  21  41  64  86 121 170 214 254 306 373
#     4  11  23  38  60  95 130 160 208 264 316 368
#     4  12  22  38  64  96 132 150 206 264 322 378
#
# _framework density 19.66705
#
# number of rings (size 3 to 8) (size 9 to 14) (size 15 to 20)
#    0.000    1.067    5.333    2.000    0.000    1.067 
#    0.000    2.667    2.933    0.000    0.000    0.000 
#    0.000    0.000    0.000    0.000    0.000    0.000 
#
# Total GULP energy -371975.318039 kJ/mol
# GULP energy per Si atom -12399.177268 kJ/mol
# Density = 1.962229 g / cm^3
# Si number density = 19.667050 Si / 1000 Ang^3
#
#
#
# Elastic Constant Matrix: (Units=GPa)
#
#
# Indices 1 2 3 4 5 6 
#
# 1 145.7619 66.8071 50.9775 0.0000 -6.9743 0.0000
# 2 66.8071 118.0270 55.7819 0.0000 -5.0891 0.0000
# 3 50.9775 55.7819 106.7426 0.0000 -7.1295 0.0000
# 4 0.0000 0.0000 0.0000 24.9384 0.0000 -5.7981
# 5 -6.9743 -5.0891 -7.1295 0.0000 31.2794 0.0000
# 6 0.0000 0.0000 0.0000 -5.7981 0.0000 43.8161
#
#
#
# Elastic Compliance Matrix: (Units=1/GPa)
#
#
# Indices 1 2 3 4 5 6 
#
# 1 0.009711 -0.004374 -0.002289 0.000000 0.000932 0.000000
# 2 -0.004374 0.013230 -0.004819 0.000000 0.000079 0.000000
# 3 -0.002289 -0.004819 0.013093 0.000000 0.001690 0.000000
# 4 0.000000 0.000000 0.000000 0.041372 0.000000 0.005475
# 5 0.000932 0.000079 0.001690 0.000000 0.032576 0.000000
# 6 0.000000 0.000000 0.000000 0.005475 0.000000 0.023547
#
#
# Mechanical properties :
#
#
# Convention : Reuss Voigt Hill
#
# Bulk Modulus (GPa) = 76.52659 79.74049 78.13354
# Shear Modulus (GPa) = 31.08493 33.13778 32.11135
#
# Velocity S-wave (km/s) = 3.97994 4.10925 4.04511
# Velocity P-wave (km/s) = 7.75341 7.94656 7.85058
#
# Compressibility (1/GPa) = 0.01306735
#
# Stress axis : x y z
#
# Youngs Moduli (GPa) = 102.97971 75.58702 76.37659
#
# Poissons Ratio (x) = 0.33065 0.17485
# Poissons Ratio (y) = 0.45047 0.36808
# Poissons Ratio (z) = 0.23576 0.36428
#
# Static dielectric constant tensor:
#      x y z
#    x 4.079330 0.000000 -0.015130 
#    y 0.000000 3.887930 0.000000 
#    z -0.015130 0.000000 3.335150 
# 
# 
# High freq. dielectric constant tensor:
#      x y z
#    x 1.793240 0.000000 -0.011430 
#    y 0.000000 1.774720 0.000000 
#    z -0.011430 0.000000 1.733940 
# 
# From -- ./inp_files/64455.got.cif
#   From: 2010.06.25/outbox.cif.g09.slc.cpg/sg13_33_cif.got.tgz:64455.got - 2010.06.28 04:50:58.
