data_PCOD8120369
_publ_section_title
;
Structure prediction by ZEFSAII (Michael W. Deem and Ramdas Pophale) SiO2 
 PCOD8120369
Probable space group: P 2/C
;
_chemical_formula_sum "Si O2"
_cell_formula_units_Z 24
_cell_length_a 21.296721
_cell_length_b 10.580483
_cell_length_c 23.876924
_cell_angle_alpha 90.000000
_cell_angle_beta 169.045299
_cell_angle_gamma 90.000000
_cell_volume 1022.410456
_symmetry_space_group_name_H-M "P 2/C"
_symmetry_group_IT_number 13
_symmetry_cell_setting 'monoclinic'
loop_
_space_group_symop_operation_xyz
x,y,z
-x,y,1/2-z
-x,-y,-z
x,-y,1/2+z
loop_
_atom_site_type_symbol
_atom_site_label
_atom_site_fract_x
_atom_site_fract_y
_atom_site_fract_z
Si Si1 0.171820 0.868039 0.635873
Si Si2 0.438943 0.283835 0.945330
Si Si3 0.283259 0.856950 0.114546
Si Si4 0.775316 0.016618 0.607366
Si Si5 0.302124 0.420559 0.632591
Si Si6 0.616345 0.500295 0.518552
O O1 0.917477 0.782824 0.376660
O O2 0.272105 0.817161 0.786236
O O3 0.000000 0.000000 0.500000
O O4 0.525309 0.875348 0.911348
O O5 0.497241 0.373389 0.050821
O O6 0.492255 0.370331 0.938180
O O7 0.500000 0.838657 0.250000
O O8 0.529985 0.901692 0.378794
O O9 0.158088 0.718098 0.023784
O O10 0.001858 0.962227 0.856019
O O11 0.000000 0.060224 0.750000
O O12 0.500000 0.404581 0.750000
O O13 0.006236 0.513714 0.361359
O O14 0.509393 0.491788 0.861025
#
# Coordination Sequence:
#
# PCOD8120369 Si02
#       6
#     4   4   4   4   4   4
#     4  12  26  42  68  99 138 171 233 290 327 402
#     4  11  26  47  65  98 132 185 232 266 342 405
#     4   9  19  34  58  92 131 166 210 267 329 405
#     4  10  21  39  61  91 131 178 217 265 345 403
#     4  11  22  38  67 105 133 167 227 284 344 394
#     4  11  24  44  71  90 139 182 219 282 334 414
#
# _framework density 23.473935999999998
#
# number of rings (size 3 to 8) (size 9 to 14) (size 15 to 20)
#    0.000    1.333    0.000    5.000    7.000    5.333 
#    0.000    3.333    0.000    1.000    0.000    0.000 
#    0.000    0.000    0.000    0.000    0.000    0.000 
#
# Total GULP energy -297328.124742 kJ/mol
# GULP energy per Si atom -12388.671864 kJ/mol
# Density = 2.342051 g / cm^3
# Si number density = 23.473936 Si / 1000 Ang^3
#
#
#
# Elastic Constant Matrix: (Units=GPa)
#
#
# Indices 1 2 3 4 5 6 
#
# 1 90.9969 27.5662 35.2110 0.0000 -14.8339 0.0000
# 2 27.5662 68.5212 35.1844 0.0000 -7.0904 0.0000
# 3 35.2110 35.1844 154.8010 0.0000 -23.6980 0.0000
# 4 0.0000 0.0000 0.0000 39.8670 0.0000 2.4009
# 5 -14.8339 -7.0904 -23.6980 0.0000 39.0797 0.0000
# 6 0.0000 0.0000 0.0000 2.4009 0.0000 59.9626
#
#
#
# Elastic Compliance Matrix: (Units=1/GPa)
#
#
# Indices 1 2 3 4 5 6 
#
# 1 0.013435 -0.004248 -0.001574 0.000000 0.003375 0.000000
# 2 -0.004248 0.017888 -0.003141 0.000000 -0.000272 0.000000
# 3 -0.001574 -0.003141 0.008106 0.000000 0.003748 0.000000
# 4 0.000000 0.000000 0.000000 0.025144 0.000000 -0.001007
# 5 0.003375 -0.000272 0.003748 0.000000 0.029093 0.000000
# 6 0.000000 0.000000 0.000000 -0.001007 0.000000 0.016717
#
#
# Mechanical properties :
#
#
# Convention : Reuss Voigt Hill
#
# Bulk Modulus (GPa) = 46.50461 56.69358 51.59909
# Shear Modulus (GPa) = 36.90688 42.20569 39.55628
#
# Velocity S-wave (km/s) = 3.96946 4.24486 4.10947
# Velocity P-wave (km/s) = 6.39242 6.94473 6.67429
#
# Compressibility (1/GPa) = 0.02150325
#
# Stress axis : x y z
#
# Youngs Moduli (GPa) = 74.43077 55.90457 123.37160
#
# Poissons Ratio (x) = 0.23746 0.19418
# Poissons Ratio (y) = 0.31616 0.38752
# Poissons Ratio (z) = 0.11715 0.17560
#
# Static dielectric constant tensor:
#      x y z
#    x 3.485450 0.000000 0.084000 
#    y 0.000000 4.315730 0.000000 
#    z 0.084000 0.000000 4.427410 
# 
# 
# High freq. dielectric constant tensor:
#      x y z
#    x 1.932170 0.000000 -0.007050 
#    y 0.000000 1.918460 0.000000 
#    z -0.007050 0.000000 1.947800 
# 
# From -- ./inp_files/93870.got.cif
#   From: 2010.06.25/outbox.cif.g09.slc.cpg/sg13_47_cif.got.tgz:93870.got - 2010.06.28 04:50:58.
