data_PCOD8120603
_publ_section_title
;
Structure prediction by ZEFSAII (Michael W. Deem and Ramdas Pophale) SiO2 
 PCOD8120603
Probable space group: P 2/C
;
_chemical_formula_sum "Si O2"
_cell_formula_units_Z 28
_cell_length_a 20.942770
_cell_length_b 9.573115
_cell_length_c 15.379840
_cell_angle_alpha 90.000000
_cell_angle_beta 25.338702
_cell_angle_gamma 90.000000
_cell_volume 1319.626334
_symmetry_space_group_name_H-M "P 2/C"
_symmetry_group_IT_number 13
_symmetry_cell_setting 'monoclinic'
loop_
_space_group_symop_operation_xyz
x,y,z
-x,y,1/2-z
-x,-y,-z
x,-y,1/2+z
loop_
_atom_site_type_symbol
_atom_site_label
_atom_site_fract_x
_atom_site_fract_y
_atom_site_fract_z
Si Si1 0.662033 0.052778 0.319829
Si Si2 0.918293 0.323499 0.718551
Si Si3 0.227425 0.709627 0.924939
Si Si4 0.417293 0.745969 0.436178
Si Si5 0.146249 0.218009 0.889986
Si Si6 0.866653 0.634808 0.799230
Si Si7 0.309495 0.596082 0.314167
O O1 0.681980 0.154390 0.213003
O O2 0.658131 0.131113 0.416567
O O3 0.500000 0.000000 0.500000
O O4 0.792071 0.936412 0.164335
O O5 0.868845 0.239866 0.694347
O O6 0.937676 0.489224 0.680271
O O7 0.077279 0.271515 0.554690
O O8 0.795408 0.291962 0.943440
O O9 0.317941 0.569739 0.787304
O O10 0.500000 0.811082 0.250000
O O11 0.284064 0.646959 0.570161
O O12 0.530747 0.651373 0.351647
O O13 0.266810 0.328412 0.777220
O O14 0.984374 0.241234 0.134525
O O15 0.825226 0.631426 0.952407
#
# Coordination Sequence:
#
# PCOD8120603 Si02
#       7
#     4   4   4   4   4   4   4
#     4  12  27  44  60  95 137 177 217 265 334 401
#     4  10  22  41  68 103 128 163 219 284 324 385
#     4  10  23  44  67  95 137 168 216 273 336 382
#     4  10  23  42  65  95 131 172 220 274 331 389
#     4  12  23  40  69  97 129 172 221 264 330 386
#     4  10  21  40  70 101 127 163 224 279 324 387
#     4  10  21  42  69  97 128 174 216 276 328 381
#
# _framework density 21.218128
#
# number of rings (size 3 to 8) (size 9 to 14) (size 15 to 20)
#    0.000    1.429    2.857    1.714    2.000    5.143 
#    5.143    1.429    0.000    0.000    0.000    0.000 
#    0.000    0.000    0.000    0.000    0.000    0.000 
#
# Total GULP energy -347225.634515 kJ/mol
# GULP energy per Si atom -12400.915518 kJ/mol
# Density = 2.116983 g / cm^3
# Si number density = 21.218128 Si / 1000 Ang^3
#
#
#
# Elastic Constant Matrix: (Units=GPa)
#
#
# Indices 1 2 3 4 5 6 
#
# 1 106.1710 38.0094 25.2856 0.0000 6.0199 0.0000
# 2 38.0094 132.2530 57.7929 0.0000 7.9587 0.0000
# 3 25.2856 57.7929 89.2636 0.0000 -3.0654 0.0000
# 4 0.0000 0.0000 0.0000 45.5659 0.0000 -2.6759
# 5 6.0199 7.9587 -3.0654 0.0000 33.3721 0.0000
# 6 0.0000 0.0000 0.0000 -2.6759 0.0000 27.9518
#
#
#
# Elastic Compliance Matrix: (Units=1/GPa)
#
#
# Indices 1 2 3 4 5 6 
#
# 1 0.010706 -0.002282 -0.001608 0.000000 -0.001535 0.000000
# 2 -0.002282 0.011372 -0.006817 0.000000 -0.002927 0.000000
# 3 -0.001608 -0.006817 0.016189 0.000000 0.003403 0.000000
# 4 0.000000 0.000000 0.000000 0.022070 0.000000 0.002113
# 5 -0.001535 -0.002927 0.003403 0.000000 0.031252 0.000000
# 6 0.000000 0.000000 0.000000 0.002113 0.000000 0.035978
#
#
# Mechanical properties :
#
#
# Convention : Reuss Voigt Hill
#
# Bulk Modulus (GPa) = 59.33631 63.31817 61.32724
# Shear Modulus (GPa) = 32.34190 35.15127 33.74658
#
# Velocity S-wave (km/s) = 3.90841 4.07463 3.99238
# Velocity P-wave (km/s) = 6.95652 7.21409 7.08648
#
# Compressibility (1/GPa) = 0.01685309
#
# Stress axis : x y z
#
# Youngs Moduli (GPa) = 93.40898 87.93480 61.77170
#
# Poissons Ratio (x) = 0.20065 0.09933
# Poissons Ratio (y) = 0.21314 0.42109
# Poissons Ratio (z) = 0.15020 0.59944
#
# Static dielectric constant tensor:
#      x y z
#    x 3.839840 0.000000 0.044440 
#    y 0.000000 3.557000 0.000000 
#    z 0.044440 0.000000 3.918150 
# 
# 
# High freq. dielectric constant tensor:
#      x y z
#    x 1.844190 0.000000 -0.002010 
#    y 0.000000 1.818190 0.000000 
#    z -0.002010 0.000000 1.837540 
# 
# From -- ./inp_files/57429.got.cif
#   From: 2010.06.25/outbox.cif.g09.slc.cpg/sg13_29_cif.got.tgz:57429.got - 2010.06.28 04:50:58.
