data_PCOD8120447
_publ_section_title
;
Structure prediction by ZEFSAII (Michael W. Deem and Ramdas Pophale) SiO2 
 PCOD8120447
Probable space group: P 2/C
;
_chemical_formula_sum "Si O2"
_cell_formula_units_Z 30
_cell_length_a 12.056537
_cell_length_b 14.699931
_cell_length_c 8.503980
_cell_angle_alpha 90.000000
_cell_angle_beta 114.883137
_cell_angle_gamma 90.000000
_cell_volume 1367.249522
_symmetry_space_group_name_H-M "P 2/C"
_symmetry_group_IT_number 13
_symmetry_cell_setting 'monoclinic'
loop_
_space_group_symop_operation_xyz
x,y,z
-x,y,1/2-z
-x,-y,-z
x,-y,1/2+z
loop_
_atom_site_type_symbol
_atom_site_label
_atom_site_fract_x
_atom_site_fract_y
_atom_site_fract_z
Si Si1 0.594219 0.424686 0.503508
Si Si2 0.754688 0.492439 0.342529
Si Si3 0.386100 0.069788 0.420512
Si Si4 0.450879 0.268620 0.546514
Si Si5 0.208674 0.990966 0.078230
Si Si6 0.000000 0.220231 0.250000
Si Si7 0.195987 0.632927 0.883235
Si Si8 0.008637 0.122757 0.586850
O O1 0.500000 0.500000 0.500000
O O2 0.635819 0.443256 0.349717
O O3 0.713130 0.437556 0.683354
O O4 0.548849 0.321755 0.498087
O O5 0.834121 0.552130 0.510940
O O6 0.829781 0.409892 0.305223
O O7 0.432958 0.172788 0.449712
O O8 0.313135 0.053508 0.216621
O O9 0.500000 0.000000 0.500000
O O10 0.281295 0.062341 0.488243
O O11 0.500000 0.249887 0.750000
O O12 0.334524 0.334594 0.487644
O O13 0.147521 0.915720 0.157198
O O14 0.093303 0.045649 0.940814
O O15 0.114562 0.280448 0.364763
O O16 0.971860 0.166473 0.395506
O O17 0.000000 0.179849 0.750000
#
# Coordination Sequence:
#
# PCOD8120447 Si02
#       8
#     4   4   4   4   4   2   4   4
#     4  11  18  36  64  97 130 164 231 279 328 413
#     4  10  21  39  66  97 130 181 222 279 350 417
#     4  12  26  44  63  98 151 191 220 280 376 449
#     4  12  22  38  66  96 131 182 224 287 349 406
#     4  11  22  46  71  97 131 178 248 299 354 431
#     4  12  28  48  66 110 144 174 244 304 364 440
#     4  11  24  43  67  96 137 177 229 293 353 427
#     4  11  23  46  80 102 125 182 251 321 353 403
#
# _framework density 21.941862
#
# number of rings (size 3 to 8) (size 9 to 14) (size 15 to 20)
#    0.000    0.800    5.333    4.000    1.867    0.533 
#   12.000    0.000    0.000    0.000    0.000    0.000 
#    0.000    0.000    0.000    0.000    0.000    0.000 
#
# Total GULP energy -371716.952870 kJ/mol
# GULP energy per Si atom -12390.565096 kJ/mol
# Density = 2.189192 g / cm^3
# Si number density = 21.941862 Si / 1000 Ang^3
#
#
#
# Elastic Constant Matrix: (Units=GPa)
#
#
# Indices 1 2 3 4 5 6 
#
# 1 75.6030 22.4538 11.9947 0.0000 -5.4906 0.0000
# 2 22.4538 109.4139 22.0346 0.0000 -7.0535 0.0000
# 3 11.9947 22.0346 84.1810 0.0000 -15.7072 0.0000
# 4 0.0000 0.0000 0.0000 41.6920 0.0000 -20.0476
# 5 -5.4906 -7.0535 -15.7072 0.0000 34.5648 0.0000
# 6 0.0000 0.0000 0.0000 -20.0476 0.0000 172.8293
#
#
#
# Elastic Compliance Matrix: (Units=1/GPa)
#
#
# Indices 1 2 3 4 5 6 
#
# 1 0.014273 -0.002625 -0.001118 0.000000 0.001223 0.000000
# 2 -0.002625 0.010157 -0.002159 0.000000 0.000675 0.000000
# 3 -0.001118 -0.002159 0.013645 0.000000 0.005583 0.000000
# 4 0.000000 0.000000 0.000000 0.025402 0.000000 0.002947
# 5 0.001223 0.000675 0.005583 0.000000 0.031800 0.000000
# 6 0.000000 0.000000 0.000000 0.002947 0.000000 0.006128
#
#
# Mechanical properties :
#
#
# Convention : Reuss Voigt Hill
#
# Bulk Modulus (GPa) = 38.06511 42.46269 40.26390
# Shear Modulus (GPa) = 40.99519 63.99821 52.49670
#
# Velocity S-wave (km/s) = 4.32714 5.40652 4.89666
# Velocity P-wave (km/s) = 6.50779 7.63992 7.09647
#
# Compressibility (1/GPa) = 0.02627077
#
# Stress axis : x y z
#
# Youngs Moduli (GPa) = 70.06303 98.45900 73.28589
#
# Poissons Ratio (x) = 0.25845 0.08196
# Poissons Ratio (y) = 0.18391 0.15819
# Poissons Ratio (z) = 0.07835 0.21253
#
# Static dielectric constant tensor:
#      x y z
#    x 4.061780 0.000000 -0.204780 
#    y 0.000000 3.934120 0.000000 
#    z -0.204780 0.000000 4.225240 
# 
# 
# High freq. dielectric constant tensor:
#      x y z
#    x 1.858040 0.000000 -0.010120 
#    y 0.000000 1.848490 0.000000 
#    z -0.010120 0.000000 1.872950 
# 
# From -- ./inp_files/16837.got.cif
#   From: 2010.06.25/outbox.cif.g09.slc.cpg/sg13_9_cif.got.tgz:16837.got - 2010.06.28 04:50:58.
