data_PCOD8120219
_publ_section_title
;
Structure prediction by ZEFSAII (Michael W. Deem and Ramdas Pophale) SiO2 
 PCOD8120219
Probable space group: P 2/C
;
_chemical_formula_sum "Si O2"
_cell_formula_units_Z 24
_cell_length_a 14.414534
_cell_length_b 6.973435
_cell_length_c 14.271574
_cell_angle_alpha 90.000000
_cell_angle_beta 53.549431
_cell_angle_gamma 90.000000
_cell_volume 1153.918030
_symmetry_space_group_name_H-M "P 2/C"
_symmetry_group_IT_number 13
_symmetry_cell_setting 'monoclinic'
loop_
_space_group_symop_operation_xyz
x,y,z
-x,y,1/2-z
-x,-y,-z
x,-y,1/2+z
loop_
_atom_site_type_symbol
_atom_site_label
_atom_site_fract_x
_atom_site_fract_y
_atom_site_fract_z
Si Si1 0.100385 0.111793 0.391778
Si Si2 0.067198 0.339289 0.122462
Si Si3 0.757994 0.383340 0.078742
Si Si4 0.633974 0.410623 0.339395
Si Si5 0.231827 0.091354 0.140385
Si Si6 0.391138 0.738010 0.002010
O O1 0.190505 0.180436 0.417018
O O2 0.039525 0.290318 0.379672
O O3 0.165501 0.993278 0.269155
O O4 0.000000 0.000000 0.500000
O O5 0.000000 0.439370 0.250000
O O6 0.142737 0.150873 0.110325
O O7 0.140757 0.480031 0.015337
O O8 0.685139 0.470665 0.208162
O O9 0.677256 0.364917 0.038468
O O10 0.609977 0.614867 0.401884
O O11 0.524851 0.266277 0.390751
O O12 0.722328 0.295795 0.351276
O O13 0.336226 0.950679 0.046804
#
# Coordination Sequence:
#
# PCOD8120219 Si02
#       6
#     4   4   4   4   4   4
#     4  10  22  36  57  92 122 155 210 250 295 376
#     4  10  21  38  59  88 126 161 206 252 303 369
#     4  11  22  39  64  87 126 164 203 256 308 365
#     4  10  23  41  61  93 121 157 209 256 301 374
#     4  10  21  40  62  87 124 161 200 256 307 364
#     4  11  22  40  66  87 123 163 202 254 317 359
#
# _framework density 20.798703
#
# number of rings (size 3 to 8) (size 9 to 14) (size 15 to 20)
#    0.000    1.667    1.667    2.500    2.333    1.333 
#    0.000    0.000    3.667    0.000    0.000    0.000 
#    0.000    0.000    0.000    0.000    0.000    0.000 
#
# Total GULP energy -297354.893514 kJ/mol
# GULP energy per Si atom -12389.787230 kJ/mol
# Density = 2.075136 g / cm^3
# Si number density = 20.798703 Si / 1000 Ang^3
#
#
#
# Elastic Constant Matrix: (Units=GPa)
#
#
# Indices 1 2 3 4 5 6 
#
# 1 63.4058 -3.5661 22.8923 0.0000 -19.2434 0.0000
# 2 -3.5661 40.6352 29.3032 0.0000 -2.3073 0.0000
# 3 22.8923 29.3032 142.8234 0.0000 -8.0861 0.0000
# 4 0.0000 0.0000 0.0000 31.7510 0.0000 -14.2578
# 5 -19.2434 -2.3073 -8.0861 0.0000 21.9775 0.0000
# 6 0.0000 0.0000 0.0000 -14.2578 0.0000 26.4481
#
#
#
# Elastic Compliance Matrix: (Units=1/GPa)
#
#
# Indices 1 2 3 4 5 6 
#
# 1 0.023514 0.005982 -0.003876 0.000000 0.019790 0.000000
# 2 0.005982 0.030421 -0.006866 0.000000 0.005906 0.000000
# 3 -0.003876 -0.006866 0.008986 0.000000 -0.000808 0.000000
# 4 0.000000 0.000000 0.000000 0.041554 0.000000 0.022401
# 5 0.019790 0.005906 -0.000808 0.000000 0.063152 0.000000
# 6 0.000000 0.000000 0.000000 0.022401 0.000000 0.049886
#
#
# Mechanical properties :
#
#
# Convention : Reuss Voigt Hill
#
# Bulk Modulus (GPa) = 18.72622 38.23589 28.48105
# Shear Modulus (GPa) = 20.42217 29.25098 24.83657
#
# Velocity S-wave (km/s) = 3.13692 3.75425 3.45938
# Velocity P-wave (km/s) = 4.70568 6.10051 5.44792
#
# Compressibility (1/GPa) = 0.05340106
#
# Stress axis : x y z
#
# Youngs Moduli (GPa) = 42.52874 32.87225 111.28654
#
# Poissons Ratio (x) = -0.19665 0.43132
# Poissons Ratio (y) = -0.25442 0.76409
# Poissons Ratio (z) = 0.16483 0.22570
#
# Static dielectric constant tensor:
#      x y z
#    x 3.953220 0.000000 -0.234300 
#    y 0.000000 3.286800 0.000000 
#    z -0.234300 0.000000 4.133280 
# 
# 
# High freq. dielectric constant tensor:
#      x y z
#    x 1.835280 0.000000 -0.004460 
#    y 0.000000 1.770950 0.000000 
#    z -0.004460 0.000000 1.834510 
# 
# From -- ./inp_files/52062.got.cif
#   From: 2010.06.25/outbox.cif.g09.slc.cpg/sg13_27_cif.got.tgz:52062.got - 2010.06.28 04:50:58.
