data_PCOD8120508
_publ_section_title
;
Structure prediction by ZEFSAII (Michael W. Deem and Ramdas Pophale) SiO2 
 PCOD8120508
Probable space group: P 2/C
;
_chemical_formula_sum "Si O2"
_cell_formula_units_Z 28
_cell_length_a 8.496087
_cell_length_b 7.025483
_cell_length_c 26.084221
_cell_angle_alpha 90.000000
_cell_angle_beta 57.177333
_cell_angle_gamma 90.000000
_cell_volume 1308.381415
_symmetry_space_group_name_H-M "P 2/C"
_symmetry_group_IT_number 13
_symmetry_cell_setting 'monoclinic'
loop_
_space_group_symop_operation_xyz
x,y,z
-x,y,1/2-z
-x,-y,-z
x,-y,1/2+z
loop_
_atom_site_type_symbol
_atom_site_label
_atom_site_fract_x
_atom_site_fract_y
_atom_site_fract_z
Si Si1 0.188247 0.867863 0.795426
Si Si2 0.498518 0.451504 0.411586
Si Si3 0.477216 0.156493 0.330356
Si Si4 0.937952 0.466731 0.318922
Si Si5 0.029691 0.220223 0.878674
Si Si6 0.299741 0.836869 0.422114
Si Si7 0.337396 0.120024 0.503703
O O1 0.303368 0.860297 0.722086
O O2 0.335730 0.789764 0.810356
O O3 0.001424 0.746793 0.820283
O O4 0.127613 0.075046 0.822974
O O5 0.436646 0.333993 0.373357
O O6 0.719362 0.485942 0.369013
O O7 0.395718 0.654861 0.431536
O O8 0.428032 0.323293 0.471636
O O9 0.442536 0.948343 0.360263
O O10 0.000000 0.527252 0.250000
O O11 0.045121 0.588047 0.343331
O O12 0.126056 0.234084 0.917835
O O13 0.815477 0.162034 0.926070
O O14 0.240875 0.991870 0.475846
O O15 0.500000 0.000000 0.500000
#
# Coordination Sequence:
#
# PCOD8120508 Si02
#       7
#     4   4   4   4   4   4   4
#     4  10  21  40  62  86 127 164 204 260 309 374
#     4  11  23  41  64  92 128 162 210 262 317 375
#     4   9  20  39  63  90 119 164 209 252 315 374
#     4  12  25  39  60  96 130 168 210 259 320 380
#     4  11  25  42  64  97 127 166 219 262 316 387
#     4  10  23  42  68  93 124 169 211 266 321 378
#     4  11  24  44  67  94 126 170 215 266 324 382
#
# _framework density 21.400490000000001
#
# number of rings (size 3 to 8) (size 9 to 14) (size 15 to 20)
#    0.000    1.429    1.429    3.000    2.000    5.714 
#    0.000    0.000    0.000    0.000    0.000    0.000 
#    0.000    0.000    0.000    0.000    0.000    0.000 
#
# Total GULP energy -347055.016545 kJ/mol
# GULP energy per Si atom -12394.822019 kJ/mol
# Density = 2.135178 g / cm^3
# Si number density = 21.400490 Si / 1000 Ang^3
#
#
#
# Elastic Constant Matrix: (Units=GPa)
#
#
# Indices 1 2 3 4 5 6 
#
# 1 75.3600 26.7637 0.7260 0.0000 0.3255 0.0000
# 2 26.7637 97.9818 10.6516 0.0000 2.9217 0.0000
# 3 0.7260 10.6516 58.3381 0.0000 -5.5183 0.0000
# 4 0.0000 0.0000 0.0000 27.5889 0.0000 3.9117
# 5 0.3255 2.9217 -5.5183 0.0000 33.8993 0.0000
# 6 0.0000 0.0000 0.0000 3.9117 0.0000 25.2423
#
#
#
# Elastic Compliance Matrix: (Units=1/GPa)
#
#
# Indices 1 2 3 4 5 6 
#
# 1 0.014716 -0.004093 0.000593 0.000000 0.000308 0.000000
# 2 -0.004093 0.011602 -0.002192 0.000000 -0.001317 0.000000
# 3 0.000593 -0.002192 0.017826 0.000000 0.003085 0.000000
# 4 0.000000 0.000000 0.000000 0.037061 0.000000 -0.005743
# 5 0.000308 -0.001317 0.003085 0.000000 0.030112 0.000000
# 6 0.000000 0.000000 0.000000 -0.005743 0.000000 0.040506
#
#
# Mechanical properties :
#
#
# Convention : Reuss Voigt Hill
#
# Bulk Modulus (GPa) = 30.52493 34.21806 32.37149
# Shear Modulus (GPa) = 28.71469 30.24868 29.48168
#
# Velocity S-wave (km/s) = 3.66700 3.76368 3.71565
# Velocity P-wave (km/s) = 5.67660 5.90856 5.79374
#
# Compressibility (1/GPa) = 0.03276011
#
# Stress axis : x y z
#
# Youngs Moduli (GPa) = 67.95155 86.19442 56.09752
#
# Poissons Ratio (x) = 0.35283 -0.03329
# Poissons Ratio (y) = 0.27816 0.12296
# Poissons Ratio (z) = -0.04032 0.18893
#
# Static dielectric constant tensor:
#      x y z
#    x 3.953490 0.000000 0.081830 
#    y 0.000000 3.868820 0.000000 
#    z 0.081830 0.000000 4.039960 
# 
# 
# High freq. dielectric constant tensor:
#      x y z
#    x 1.845840 0.000000 0.004370 
#    y 0.000000 1.841660 0.000000 
#    z 0.004370 0.000000 1.845130 
# 
# From -- ./inp_files/95585.got.cif
#   From: 2010.06.25/outbox.cif.g09.slc.cpg/sg13_48_cif.got.tgz:95585.got - 2010.06.28 04:50:58.
