data_PCOD8120485
_publ_section_title
;
Structure prediction by ZEFSAII (Michael W. Deem and Ramdas Pophale) SiO2 
 PCOD8120485
Probable space group: P 2/C
;
_chemical_formula_sum "Si O2"
_cell_formula_units_Z 20
_cell_length_a 7.332525
_cell_length_b 7.446512
_cell_length_c 27.031728
_cell_angle_alpha 90.000000
_cell_angle_beta 141.268590
_cell_angle_gamma 90.000000
_cell_volume 923.476535
_symmetry_space_group_name_H-M "P 2/C"
_symmetry_group_IT_number 13
_symmetry_cell_setting 'monoclinic'
loop_
_space_group_symop_operation_xyz
x,y,z
-x,y,1/2-z
-x,-y,-z
x,-y,1/2+z
loop_
_atom_site_type_symbol
_atom_site_label
_atom_site_fract_x
_atom_site_fract_y
_atom_site_fract_z
Si Si1 0.956859 0.340079 0.923564
Si Si2 0.708383 0.795348 0.748452
Si Si3 0.390224 0.380294 0.094171
Si Si4 0.081514 0.536995 0.340858
Si Si5 0.379523 0.801798 0.276645
O O1 0.847935 0.532515 0.920015
O O2 0.682355 0.201357 0.871981
O O3 0.081413 0.370167 0.894693
O O4 0.222292 0.273049 0.014667
O O5 0.500000 0.754367 0.750000
O O6 0.574567 0.755711 0.666464
O O7 0.989578 0.673467 0.819004
O O8 0.782611 0.006811 0.761189
O O9 0.592843 0.536169 0.112251
O O10 0.859496 0.651396 0.258551
O O11 0.500000 0.732430 0.250000
#
# Coordination Sequence:
#
# PCOD8120485 Si02
#       5
#     4   4   4   4   4
#     4  10  21  40  60  85 119 156 191 241 294 347
#     4  11  20  38  62  86 118 156 196 245 289 346
#     4  11  22  36  62  88 116 156 192 238 302 341
#     4  11  20  41  61  86 116 154 199 243 287 344
#     4   9  20  37  64  84 116 159 197 239 292 343
#
# _framework density 21.657292000000002
#
# number of rings (size 3 to 8) (size 9 to 14) (size 15 to 20)
#    0.000    1.600    4.000    1.800    0.000    0.800 
#    7.200    0.000    0.000    4.800    0.000    0.000 
#    0.000    0.000    0.000    0.000    0.000    0.000 
#
# Total GULP energy -247790.498245 kJ/mol
# GULP energy per Si atom -12389.524912 kJ/mol
# Density = 2.160800 g / cm^3
# Si number density = 21.657292 Si / 1000 Ang^3
#
#
#
# Elastic Constant Matrix: (Units=GPa)
#
#
# Indices 1 2 3 4 5 6 
#
# 1 93.9516 10.5355 26.9326 0.0000 -0.6630 0.0000
# 2 10.5355 74.8667 1.0592 0.0000 2.6870 0.0000
# 3 26.9326 1.0592 89.2851 0.0000 -11.6924 0.0000
# 4 0.0000 0.0000 0.0000 19.0223 0.0000 -2.1778
# 5 -0.6630 2.6870 -11.6924 0.0000 25.6977 0.0000
# 6 0.0000 0.0000 0.0000 -2.1778 0.0000 10.8250
#
#
#
# Elastic Compliance Matrix: (Units=1/GPa)
#
#
# Indices 1 2 3 4 5 6 
#
# 1 0.011880 -0.001575 -0.003725 0.000000 -0.001224 0.000000
# 2 -0.001575 0.013627 0.000129 0.000000 -0.001407 0.000000
# 3 -0.003725 0.000129 0.013088 0.000000 0.005845 0.000000
# 4 0.000000 0.000000 0.000000 0.053809 0.000000 0.010825
# 5 -0.001224 -0.001407 0.005845 0.000000 0.041689 0.000000
# 6 0.000000 0.000000 0.000000 0.010825 0.000000 0.094556
#
#
# Mechanical properties :
#
#
# Convention : Reuss Voigt Hill
#
# Bulk Modulus (GPa) = 35.39464 37.23979 36.31721
# Shear Modulus (GPa) = 20.12811 25.74741 22.93776
#
# Velocity S-wave (km/s) = 3.05190 3.45172 3.25795
# Velocity P-wave (km/s) = 5.36631 5.75484 5.56397
#
# Compressibility (1/GPa) = 0.02825287
#
# Stress axis : x y z
#
# Youngs Moduli (GPa) = 84.17794 73.38167 76.40786
#
# Poissons Ratio (x) = 0.11558 0.28462
# Poissons Ratio (y) = 0.13259 -0.00987
# Poissons Ratio (z) = 0.31356 -0.00948
#
# Static dielectric constant tensor:
#      x y z
#    x 4.034050 0.000000 -0.051910 
#    y 0.000000 3.485750 0.000000 
#    z -0.051910 0.000000 4.263780 
# 
# 
# High freq. dielectric constant tensor:
#      x y z
#    x 1.864330 0.000000 -0.007180 
#    y 0.000000 1.810820 0.000000 
#    z -0.007180 0.000000 1.848020 
# 
# From -- ./inp_files/95880.got.cif
#   From: 2010.06.25/outbox.cif.g09.slc.cpg/sg13_48_cif.got.tgz:95880.got - 2010.06.28 04:50:58.
