data_PCOD8120184
_publ_section_title
;
Structure prediction by ZEFSAII (Michael W. Deem and Ramdas Pophale) SiO2 
 PCOD8120184
Probable space group: P 2/C
;
_chemical_formula_sum "Si O2"
_cell_formula_units_Z 30
_cell_length_a 13.747935
_cell_length_b 11.415075
_cell_length_c 28.131789
_cell_angle_alpha 90.000000
_cell_angle_beta 21.018853
_cell_angle_gamma 90.000000
_cell_volume 1583.488251
_symmetry_space_group_name_H-M "P 2/C"
_symmetry_group_IT_number 13
_symmetry_cell_setting 'monoclinic'
loop_
_space_group_symop_operation_xyz
x,y,z
-x,y,1/2-z
-x,-y,-z
x,-y,1/2+z
loop_
_atom_site_type_symbol
_atom_site_label
_atom_site_fract_x
_atom_site_fract_y
_atom_site_fract_z
Si Si1 0.432435 0.964068 0.585542
Si Si2 0.596210 0.858074 0.317233
Si Si3 0.505403 0.360172 0.995386
Si Si4 0.622264 0.390307 0.841083
Si Si5 0.814514 0.164347 0.980183
Si Si6 0.295397 0.986721 0.885866
Si Si7 0.000000 0.206652 0.250000
Si Si8 0.204880 0.594785 0.046615
O O1 0.669846 0.885944 0.499247
O O2 0.162971 0.881354 0.710794
O O3 0.500000 0.000000 0.500000
O O4 0.400526 0.080027 0.632360
O O5 0.546271 0.718893 0.342820
O O6 0.880229 0.883770 0.161999
O O7 0.362456 0.901814 0.388462
O O8 0.659773 0.332634 0.876136
O O9 0.673994 0.327447 0.965038
O O10 0.500000 0.500000 0.000000
O O11 0.214320 0.293633 0.126253
O O12 0.904100 0.451677 0.696997
O O13 0.383998 0.485990 0.947869
O O14 0.810353 0.305712 0.986482
O O15 0.678131 0.124580 0.091455
O O16 0.500000 0.967471 0.750000
O O17 0.000000 0.000000 0.000000
#
# Coordination Sequence:
#
# PCOD8120184 Si02
#       8
#     4   4   4   4   4   4   2   4
#     4  11  22  36  55  89 128 168 207 254 312 375
#     4  10  22  39  61  92 123 160 202 254 319 376
#     4  10  22  33  53  81 117 171 218 253 301 352
#     4  10  22  37  59  83 126 163 214 254 306 361
#     4  10  21  38  60  88 121 158 203 254 309 371
#     4  11  22  43  69  93 118 155 199 255 320 386
#     4  12  22  36  54  80 126 166 218 268 306 358
#     4  10  21  38  57  85 120 166 210 261 298 366
#
# _framework density 18.945515
#
# number of rings (size 3 to 8) (size 9 to 14) (size 15 to 20)
#    0.000    1.600    2.667    2.000    7.467    1.067 
#    2.400    0.000    0.000    1.600    0.000    0.000 
#    0.000    0.000    0.000    0.000    0.000    0.000 
#
# Total GULP energy -371698.984472 kJ/mol
# GULP energy per Si atom -12389.966149 kJ/mol
# Density = 1.890239 g / cm^3
# Si number density = 18.945515 Si / 1000 Ang^3
#
#
#
# Elastic Constant Matrix: (Units=GPa)
#
#
# Indices 1 2 3 4 5 6 
#
# 1 103.9012 44.2832 56.6679 0.0000 -0.3898 0.0000
# 2 44.2832 107.9379 69.8541 0.0000 -4.1794 0.0000
# 3 56.6679 69.8541 139.6140 0.0000 -3.8612 0.0000
# 4 0.0000 0.0000 0.0000 38.7691 0.0000 -4.7697
# 5 -0.3898 -4.1794 -3.8612 0.0000 37.1933 0.0000
# 6 0.0000 0.0000 0.0000 -4.7697 0.0000 16.3178
#
#
#
# Elastic Compliance Matrix: (Units=1/GPa)
#
#
# Indices 1 2 3 4 5 6 
#
# 1 0.012929 -0.002840 -0.003843 0.000000 -0.000583 0.000000
# 2 -0.002840 0.014350 -0.006001 0.000000 0.000960 0.000000
# 3 -0.003843 -0.006001 0.011739 0.000000 0.000504 0.000000
# 4 0.000000 0.000000 0.000000 0.026756 0.000000 0.007821
# 5 -0.000583 0.000960 0.000504 0.000000 0.027041 0.000000
# 6 0.000000 0.000000 0.000000 0.007821 0.000000 0.063569
#
#
# Mechanical properties :
#
#
# Convention : Reuss Voigt Hill
#
# Bulk Modulus (GPa) = 73.25571 77.00704 75.13138
# Shear Modulus (GPa) = 26.83841 30.49924 28.66883
#
# Velocity S-wave (km/s) = 3.76787 4.01663 3.89424
# Velocity P-wave (km/s) = 7.59471 7.88961 7.74356
#
# Compressibility (1/GPa) = 0.01365081
#
# Stress axis : x y z
#
# Youngs Moduli (GPa) = 77.34824 69.68460 85.18766
#
# Poissons Ratio (x) = 0.19788 0.32736
# Poissons Ratio (y) = 0.21965 0.51120
# Poissons Ratio (z) = 0.29724 0.41817
#
# Static dielectric constant tensor:
#      x y z
#    x 3.670990 0.000000 -0.035820 
#    y 0.000000 3.465500 0.000000 
#    z -0.035820 0.000000 3.516080 
# 
# 
# High freq. dielectric constant tensor:
#      x y z
#    x 1.711140 0.000000 -0.006650 
#    y 0.000000 1.742750 0.000000 
#    z -0.006650 0.000000 1.742810 
# 
# From -- ./inp_files/97005.got.cif
#   From: 2010.06.25/outbox.cif.g09.slc.cpg/sg13_49_cif.got.tgz:97005.got - 2010.06.28 04:50:58.
