data_PCOD8120562
_publ_section_title
;
Structure prediction by ZEFSAII (Michael W. Deem and Ramdas Pophale) SiO2 
 PCOD8120562
Probable space group: P 2/C
;
_chemical_formula_sum "Si O2"
_cell_formula_units_Z 24
_cell_length_a 9.341300
_cell_length_b 8.699967
_cell_length_c 19.232286
_cell_angle_alpha 90.000000
_cell_angle_beta 47.166775
_cell_angle_gamma 90.000000
_cell_volume 1146.195468
_symmetry_space_group_name_H-M "P 2/C"
_symmetry_group_IT_number 13
_symmetry_cell_setting 'monoclinic'
loop_
_space_group_symop_operation_xyz
x,y,z
-x,y,1/2-z
-x,-y,-z
x,-y,1/2+z
loop_
_atom_site_type_symbol
_atom_site_label
_atom_site_fract_x
_atom_site_fract_y
_atom_site_fract_z
Si Si1 0.921034 0.899890 0.624382
Si Si2 0.578498 0.418861 0.800207
Si Si3 0.591366 0.919486 0.295645
Si Si4 0.975740 0.408543 0.177071
Si Si5 0.344352 0.437637 0.495427
Si Si6 0.262595 0.110806 0.462480
O O1 0.807572 0.845658 0.592196
O O2 0.019394 0.750425 0.624128
O O3 0.777564 0.970273 0.729644
O O4 0.082167 0.029810 0.559461
O O5 0.500000 0.400440 0.750000
O O6 0.648427 0.250896 0.804217
O O7 0.398634 0.478468 0.905900
O O8 0.755524 0.537137 0.739061
O O9 0.500000 0.904660 0.250000
O O10 0.440320 0.991104 0.400181
O O11 0.000000 0.385174 0.250000
O O12 0.127694 0.528079 0.094187
O O13 0.500000 0.500000 0.500000
O O14 0.341375 0.255343 0.480867
#
# Coordination Sequence:
#
# PCOD8120562 Si02
#       6
#     4   4   4   4   4   4
#     4  10  21  40  65  95 124 166 221 274 330 389
#     4  11  23  43  72  99 127 173 225 271 327 396
#     4   9  19  37  63  95 125 157 211 272 320 379
#     4  12  25  43  63  95 138 174 215 270 334 400
#     4  12  25  43  64  94 139 178 215 274 334 400
#     4  10  21  40  66  94 126 165 221 278 325 389
#
# _framework density 20.938836999999999
#
# number of rings (size 3 to 8) (size 9 to 14) (size 15 to 20)
#    0.000    1.333    1.667    4.000    0.000    6.667 
#    3.000    1.667    0.000    0.000    0.000    0.000 
#    0.000    0.000    0.000    0.000    0.000    0.000 
#
# Total GULP energy -297596.729846 kJ/mol
# GULP energy per Si atom -12399.863744 kJ/mol
# Density = 2.089118 g / cm^3
# Si number density = 20.938837 Si / 1000 Ang^3
#
#
#
# Elastic Constant Matrix: (Units=GPa)
#
#
# Indices 1 2 3 4 5 6 
#
# 1 60.6903 41.4003 32.6859 0.0000 -2.6563 0.0000
# 2 41.4003 126.7913 22.0075 0.0000 8.5024 0.0000
# 3 32.6859 22.0075 103.5004 0.0000 -4.2364 0.0000
# 4 0.0000 0.0000 0.0000 30.0364 0.0000 -4.6661
# 5 -2.6563 8.5024 -4.2364 0.0000 25.6093 0.0000
# 6 0.0000 0.0000 0.0000 -4.6661 0.0000 28.3086
#
#
#
# Elastic Compliance Matrix: (Units=1/GPa)
#
#
# Indices 1 2 3 4 5 6 
#
# 1 0.024993 -0.007360 -0.006164 0.000000 0.004017 0.000000
# 2 -0.007360 0.010597 -0.000105 0.000000 -0.004299 0.000000
# 3 -0.006164 -0.000105 0.011685 0.000000 0.001328 0.000000
# 4 0.000000 0.000000 0.000000 0.034168 0.000000 0.005632
# 5 0.004017 -0.004299 0.001328 0.000000 0.041112 0.000000
# 6 0.000000 0.000000 0.000000 0.005632 0.000000 0.036253
#
#
# Mechanical properties :
#
#
# Convention : Reuss Voigt Hill
#
# Bulk Modulus (GPa) = 49.95589 53.68547 51.82068
# Shear Modulus (GPa) = 25.94195 29.78341 27.86268
#
# Velocity S-wave (km/s) = 3.52368 3.77556 3.65179
# Velocity P-wave (km/s) = 6.36120 6.68591 6.52557
#
# Compressibility (1/GPa) = 0.02001766
#
# Stress axis : x y z
#
# Youngs Moduli (GPa) = 40.01065 94.36824 85.58040
#
# Poissons Ratio (x) = 0.69459 0.52748
# Poissons Ratio (y) = 0.29450 0.00896
# Poissons Ratio (z) = 0.24661 0.00988
#
# Static dielectric constant tensor:
#      x y z
#    x 3.552900 0.000000 0.029320 
#    y 0.000000 3.949320 0.000000 
#    z 0.029320 0.000000 4.002710 
# 
# 
# High freq. dielectric constant tensor:
#      x y z
#    x 1.796440 0.000000 -0.006400 
#    y 0.000000 1.832780 0.000000 
#    z -0.006400 0.000000 1.839600 
# 
# From -- ./inp_files/75611.got.cif
#   From: 2010.06.25/outbox.cif.g09.slc.cpg/sg13_38_cif.got.tgz:75611.got - 2010.06.28 04:50:58.
