data_PCOD8120962
_publ_section_title
;
Structure prediction by ZEFSAII (Michael W. Deem and Ramdas Pophale) SiO2 
 PCOD8120962
Probable space group: P 2/C
;
_chemical_formula_sum "Si O2"
_cell_formula_units_Z 20
_cell_length_a 23.554028
_cell_length_b 8.020011
_cell_length_c 16.812794
_cell_angle_alpha 90.000000
_cell_angle_beta 163.078961
_cell_angle_gamma 90.000000
_cell_volume 924.385006
_symmetry_space_group_name_H-M "P 2/C"
_symmetry_group_IT_number 13
_symmetry_cell_setting 'monoclinic'
loop_
_space_group_symop_operation_xyz
x,y,z
-x,y,1/2-z
-x,-y,-z
x,-y,1/2+z
loop_
_atom_site_type_symbol
_atom_site_label
_atom_site_fract_x
_atom_site_fract_y
_atom_site_fract_z
Si Si1 0.309785 0.997784 0.641167
Si Si2 0.701561 0.304166 0.981233
Si Si3 0.016802 0.751913 0.024740
Si Si4 0.759966 0.988259 0.274088
Si Si5 0.306790 0.666859 0.538890
O O1 0.224222 0.148690 0.472579
O O2 0.199446 0.005653 0.577296
O O3 0.268366 0.813934 0.550435
O O4 0.537923 0.035415 0.957952
O O5 0.500000 0.246089 0.750000
O O6 0.672102 0.480533 0.893735
O O7 0.855296 0.344149 0.257249
O O8 0.910018 0.894289 0.930983
O O9 0.187555 0.809026 0.192313
O O10 0.124513 0.642406 0.235170
O O11 0.500000 0.717589 0.750000
#
# Coordination Sequence:
#
# PCOD8120962 Si02
#       5
#     4   4   4   4   4
#     4  11  21  43  63  90 126 163 196 258 300 361
#     4  11  23  40  64  92 123 162 202 249 306 361
#     4  11  21  40  64  93 119 162 203 253 294 371
#     4  10  22  37  67  92 121 162 207 243 311 354
#     4  11  23  40  64  92 123 162 202 249 306 361
#
# _framework density 21.636005999999998
#
# number of rings (size 3 to 8) (size 9 to 14) (size 15 to 20)
#    0.000    1.200    4.000    3.600    0.000    3.200 
#    0.000   10.000    0.000    0.000    0.000    0.000 
#    0.000    0.000    0.000    0.000    0.000    0.000 
#
# Total GULP energy -247842.269829 kJ/mol
# GULP energy per Si atom -12392.113491 kJ/mol
# Density = 2.158676 g / cm^3
# Si number density = 21.636006 Si / 1000 Ang^3
#
#
#
# Elastic Constant Matrix: (Units=GPa)
#
#
# Indices 1 2 3 4 5 6 
#
# 1 127.5688 61.4054 20.4102 0.0000 -2.9733 0.0000
# 2 61.4054 134.6513 -3.8659 0.0000 -7.5772 0.0000
# 3 20.4102 -3.8659 74.7307 0.0000 -10.0434 0.0000
# 4 0.0000 0.0000 0.0000 43.3018 0.0000 6.0047
# 5 -2.9733 -7.5772 -10.0434 0.0000 32.5180 0.0000
# 6 0.0000 0.0000 0.0000 6.0047 0.0000 13.8992
#
#
#
# Elastic Compliance Matrix: (Units=1/GPa)
#
#
# Indices 1 2 3 4 5 6 
#
# 1 0.010803 -0.005093 -0.003381 0.000000 -0.001243 0.000000
# 2 -0.005093 0.009957 0.002249 0.000000 0.002549 0.000000
# 3 -0.003381 0.002249 0.015076 0.000000 0.004871 0.000000
# 4 0.000000 0.000000 0.000000 0.024565 0.000000 -0.010613
# 5 -0.001243 0.002549 0.004871 0.000000 0.032737 0.000000
# 6 0.000000 0.000000 0.000000 -0.010613 0.000000 0.076532
#
#
# Mechanical properties :
#
#
# Convention : Reuss Voigt Hill
#
# Bulk Modulus (GPa) = 42.76323 54.76114 48.76218
# Shear Modulus (GPa) = 26.32749 35.21053 30.76901
#
# Velocity S-wave (km/s) = 3.49210 4.03849 3.77519
# Velocity P-wave (km/s) = 6.00562 6.86374 6.44897
#
# Compressibility (1/GPa) = 0.02338458
#
# Stress axis : x y z
#
# Youngs Moduli (GPa) = 92.57078 100.42860 66.33169
#
# Poissons Ratio (x) = 0.51152 0.22426
# Poissons Ratio (y) = 0.47149 -0.14916
# Poissons Ratio (z) = 0.31298 -0.22584
#
# Static dielectric constant tensor:
#      x y z
#    x 3.874560 0.000000 -0.053760 
#    y 0.000000 3.760610 0.000000 
#    z -0.053760 0.000000 3.989550 
# 
# 
# High freq. dielectric constant tensor:
#      x y z
#    x 1.828310 0.000000 0.001140 
#    y 0.000000 1.847930 0.000000 
#    z 0.001140 0.000000 1.867000 
# 
# From -- ./inp_files/57126.got.cif
#   From: 2010.06.25/outbox.cif.g09.slc.cpg/sg13_29_cif.got.tgz:57126.got - 2010.06.28 04:50:58.
