data_PCOD8120632
_publ_section_title
;
Structure prediction by ZEFSAII (Michael W. Deem and Ramdas Pophale) SiO2 
 PCOD8120632
Probable space group: P 2/C
;
_chemical_formula_sum "Si O2"
_cell_formula_units_Z 22
_cell_length_a 5.331864
_cell_length_b 13.001290
_cell_length_c 15.230083
_cell_angle_alpha 90.000000
_cell_angle_beta 76.942756
_cell_angle_gamma 90.000000
_cell_volume 1028.469245
_symmetry_space_group_name_H-M "P 2/C"
_symmetry_group_IT_number 13
_symmetry_cell_setting 'monoclinic'
loop_
_space_group_symop_operation_xyz
x,y,z
-x,y,1/2-z
-x,-y,-z
x,-y,1/2+z
loop_
_atom_site_type_symbol
_atom_site_label
_atom_site_fract_x
_atom_site_fract_y
_atom_site_fract_z
Si Si1 0.901116 0.199178 0.349089
Si Si2 0.338801 0.283329 0.436540
Si Si3 0.436529 0.299680 0.624781
Si Si4 0.000000 0.998388 0.750000
Si Si5 0.500000 0.131812 0.750000
Si Si6 0.675591 0.498860 0.149828
Si Si7 0.000000 0.408572 0.750000
O O1 0.606315 0.231441 0.386707
O O2 0.000000 0.251665 0.250000
O O3 0.089114 0.231442 0.413071
O O4 0.917883 0.075214 0.338355
O O5 0.305933 0.270296 0.543142
O O6 0.339449 0.403237 0.412909
O O7 0.564562 0.198736 0.657411
O O8 0.621388 0.398195 0.596856
O O9 0.236090 0.333083 0.715664
O O10 0.754189 0.064809 0.743777
O O11 0.500000 0.482911 0.250000
O O12 0.960537 0.518123 0.167598
#
# Coordination Sequence:
#
# PCOD8120632 Si02
#       7
#     4   4   4   2   2   4   2
#     4  10  24  46  67  97 131 167 228 271 341 411
#     4  12  25  40  71 103 137 175 211 285 329 381
#     4  11  25  40  65 102 138 173 232 262 320 411
#     4  10  25  45  76  88 126 182 223 281 348 404
#     4  12  22  46  70  92 126 190 218 276 346 386
#     4  10  22  39  63  98 138 182 219 258 323 400
#     4  10  21  41  62  88 146 184 229 253 306 402
#
# _framework density 21.391013000000001
#
# number of rings (size 3 to 8) (size 9 to 14) (size 15 to 20)
#    0.545    0.727    2.727    3.818    8.909    0.727 
#    0.000    5.455    0.000    0.000    0.000    0.000 
#    0.000    0.000    0.000    0.000    0.000    0.000 
#
# Total GULP energy -272629.832219 kJ/mol
# GULP energy per Si atom -12392.265101 kJ/mol
# Density = 2.134233 g / cm^3
# Si number density = 21.391013 Si / 1000 Ang^3
#
#
#
# Elastic Constant Matrix: (Units=GPa)
#
#
# Indices 1 2 3 4 5 6 
#
# 1 106.8621 54.1823 11.3116 0.0000 27.7743 0.0000
# 2 54.1823 157.6229 46.6034 0.0000 24.0825 0.0000
# 3 11.3116 46.6034 107.6798 0.0000 33.7211 0.0000
# 4 0.0000 0.0000 0.0000 204.1811 0.0000 151.1515
# 5 27.7743 24.0825 33.7211 0.0000 38.6039 0.0000
# 6 0.0000 0.0000 0.0000 151.1515 0.0000 134.0842
#
#
#
# Elastic Compliance Matrix: (Units=1/GPa)
#
#
# Indices 1 2 3 4 5 6 
#
# 1 0.013858 -0.004242 0.003681 0.000000 -0.010539 0.000000
# 2 -0.004242 0.008747 -0.003561 0.000000 0.000706 0.000000
# 3 0.003681 -0.003561 0.014557 0.000000 -0.013142 0.000000
# 4 0.000000 0.000000 0.000000 0.029595 0.000000 -0.033362
# 5 -0.010539 0.000706 -0.013142 0.000000 0.044527 0.000000
# 6 0.000000 0.000000 0.000000 -0.033362 0.000000 0.045066
#
#
# Mechanical properties :
#
#
# Convention : Reuss Voigt Hill
#
# Bulk Modulus (GPa) = 34.58053 66.26213 50.42133
# Shear Modulus (GPa) = 28.69699 92.71169 60.70434
#
# Velocity S-wave (km/s) = 3.66668 6.59056 5.33292
# Velocity P-wave (km/s) = 5.84184 9.43175 7.84490
#
# Compressibility (1/GPa) = 0.02891801
#
# Stress axis : x y z
#
# Youngs Moduli (GPa) = 72.15959 114.31930 68.69513
#
# Poissons Ratio (x) = 0.48490 -0.25283
# Poissons Ratio (y) = 0.30607 0.24464
# Poissons Ratio (z) = -0.26558 0.40712
#
# Static dielectric constant tensor:
#      x y z
#    x 6.436500 0.000000 -0.142890 
#    y 0.000000 3.948350 0.000000 
#    z -0.142890 0.000000 3.915460 
# 
# 
# High freq. dielectric constant tensor:
#      x y z
#    x 1.844160 0.000000 0.027160 
#    y 0.000000 1.839280 0.000000 
#    z 0.027160 0.000000 1.832330 
# 
# From -- ./inp_files/43790.got.cif
#   From: 2010.06.25/outbox.cif.g09.slc.cpg/sg13_22_cif.got.tgz:43790.got - 2010.06.28 04:50:58.
