data_PCOD8120780
_publ_section_title
;
Structure prediction by ZEFSAII (Michael W. Deem and Ramdas Pophale) SiO2 
 PCOD8120780
Probable space group: P 2/C
;
_chemical_formula_sum "Si O2"
_cell_formula_units_Z 28
_cell_length_a 7.626436
_cell_length_b 8.038920
_cell_length_c 26.580709
_cell_angle_alpha 90.000000
_cell_angle_beta 45.292775
_cell_angle_gamma 90.000000
_cell_volume 1158.187290
_symmetry_space_group_name_H-M "P 2/C"
_symmetry_group_IT_number 13
_symmetry_cell_setting 'monoclinic'
loop_
_space_group_symop_operation_xyz
x,y,z
-x,y,1/2-z
-x,-y,-z
x,-y,1/2+z
loop_
_atom_site_type_symbol
_atom_site_label
_atom_site_fract_x
_atom_site_fract_y
_atom_site_fract_z
Si Si1 0.788128 0.700400 0.535937
Si Si2 0.500000 0.729646 0.250000
Si Si3 0.260642 0.367548 0.892992
Si Si4 0.934938 0.965482 0.185249
Si Si5 0.902369 0.828606 0.936722
Si Si6 0.294498 0.393055 0.105833
Si Si7 0.425582 0.230741 0.590988
Si Si8 0.000000 0.758043 0.750000
O O1 0.731721 0.523469 0.572069
O O2 0.527044 0.739214 0.561820
O O3 0.979849 0.698530 0.450730
O O4 0.896980 0.812165 0.558940
O O5 0.642023 0.606095 0.183103
O O6 0.702861 0.844786 0.235358
O O7 0.445704 0.236164 0.880683
O O8 0.183811 0.874562 0.151986
O O9 0.989608 0.018745 0.116714
O O10 0.874419 0.122557 0.233382
O O11 0.883704 0.665552 0.904018
O O12 0.626488 0.859513 0.014022
O O13 0.359970 0.585376 0.082272
O O14 0.177588 0.369371 0.184866
#
# Coordination Sequence:
#
# PCOD8120780 Si02
#       8
#     4   2   4   4   4   4   4   2
#     4   9  20  41  67  92 133 162 221 277 323 391
#     4  12  26  38  62  98 128 180 220 260 344 398
#     4   9  21  41  62  99 125 168 217 277 327 381
#     4  11  25  41  62  92 142 172 220 267 340 410
#     4  10  22  41  66  99 126 176 216 274 333 392
#     4  10  22  39  71  93 127 173 222 274 339 382
#     4  10  21  42  68  93 127 169 224 274 325 401
#     4  10  24  44  58  92 130 174 214 276 340 396
#
# _framework density 24.175711
#
# number of rings (size 3 to 8) (size 9 to 14) (size 15 to 20)
#    0.000    2.000    0.000    2.571    6.000    2.857 
#    5.143    1.429    0.000    0.000    0.000    0.000 
#    0.000    0.000    0.000    0.000    0.000    0.000 
#
# Total GULP energy -346865.405109 kJ/mol
# GULP energy per Si atom -12388.050182 kJ/mol
# Density = 2.412069 g / cm^3
# Si number density = 24.175711 Si / 1000 Ang^3
#
#
#
# Elastic Constant Matrix: (Units=GPa)
#
#
# Indices 1 2 3 4 5 6 
#
# 1 44.1137 -1.6176 13.4382 0.0000 -5.9643 0.0000
# 2 -1.6176 33.0985 9.5532 0.0000 0.7574 0.0000
# 3 13.4382 9.5532 143.0002 0.0000 7.8680 0.0000
# 4 0.0000 0.0000 0.0000 34.4747 0.0000 6.9753
# 5 -5.9643 0.7574 7.8680 0.0000 35.9057 0.0000
# 6 0.0000 0.0000 0.0000 6.9753 0.0000 11.3553
#
#
#
# Elastic Compliance Matrix: (Units=1/GPa)
#
#
# Indices 1 2 3 4 5 6 
#
# 1 0.024157 0.001839 -0.002644 0.000000 0.004553 0.000000
# 2 0.001839 0.030948 -0.002248 0.000000 0.000145 0.000000
# 3 -0.002644 -0.002248 0.007504 0.000000 -0.002036 0.000000
# 4 0.000000 0.000000 0.000000 0.033124 0.000000 -0.020347
# 5 0.004553 0.000145 -0.002036 0.000000 0.029050 0.000000
# 6 0.000000 0.000000 0.000000 -0.020347 0.000000 0.100563
#
#
# Mechanical properties :
#
#
# Convention : Reuss Voigt Hill
#
# Bulk Modulus (GPa) = 17.69782 29.21776 23.45779
# Shear Modulus (GPa) = 19.97716 29.60305 24.79011
#
# Velocity S-wave (km/s) = 2.87772 3.50308 3.20568
# Velocity P-wave (km/s) = 4.28696 5.33609 4.84004
#
# Compressibility (1/GPa) = 0.05650415
#
# Stress axis : x y z
#
# Youngs Moduli (GPa) = 41.39578 32.31189 133.26869
#
# Poissons Ratio (x) = -0.05944 0.35230
# Poissons Ratio (y) = -0.07615 0.29964
# Poissons Ratio (z) = 0.10943 0.07265
#
# Static dielectric constant tensor:
#      x y z
#    x 4.595540 0.000000 -0.149020 
#    y 0.000000 3.990320 0.000000 
#    z -0.149020 0.000000 4.532430 
# 
# 
# High freq. dielectric constant tensor:
#      x y z
#    x 1.964760 0.000000 0.002500 
#    y 0.000000 1.931470 0.000000 
#    z 0.002500 0.000000 1.972980 
# 
# From -- ./inp_files/91432.got.cif
#   From: 2010.06.25/outbox.cif.g09.slc.cpg/sg13_46_cif.got.tgz:91432.got - 2010.06.28 04:50:58.
