data_PCOD8120610
_publ_section_title
;
Structure prediction by ZEFSAII (Michael W. Deem and Ramdas Pophale) SiO2 
 PCOD8120610
Probable space group: P 2/C
;
_chemical_formula_sum "Si O2"
_cell_formula_units_Z 28
_cell_length_a 8.724201
_cell_length_b 11.286084
_cell_length_c 14.038999
_cell_angle_alpha 90.000000
_cell_angle_beta 70.013103
_cell_angle_gamma 90.000000
_cell_volume 1299.053499
_symmetry_space_group_name_H-M "P 2/C"
_symmetry_group_IT_number 13
_symmetry_cell_setting 'monoclinic'
loop_
_space_group_symop_operation_xyz
x,y,z
-x,y,1/2-z
-x,-y,-z
x,-y,1/2+z
loop_
_atom_site_type_symbol
_atom_site_label
_atom_site_fract_x
_atom_site_fract_y
_atom_site_fract_z
Si Si1 0.408791 0.805539 0.636808
Si Si2 0.033274 0.126850 0.947946
Si Si3 0.500000 0.010309 0.250000
Si Si4 0.308351 0.658227 0.143646
Si Si5 0.749403 0.696702 0.554463
Si Si6 0.000000 0.181351 0.750000
Si Si7 0.384848 0.821994 0.422727
Si Si8 0.680911 0.420469 0.248528
O O1 0.596770 0.775253 0.620377
O O2 0.393838 0.852773 0.532502
O O3 0.299582 0.688969 0.680934
O O4 0.365908 0.910103 0.720990
O O5 0.195617 0.201413 0.940768
O O6 0.023446 0.100634 0.837443
O O7 0.897633 0.217093 0.009372
O O8 0.000000 0.000000 0.000000
O O9 0.417656 0.935294 0.350582
O O10 0.165638 0.744841 0.205023
O O11 0.487402 0.715722 0.129397
O O12 0.269787 0.539447 0.208878
O O13 0.298499 0.629030 0.033224
O O14 0.790636 0.602793 0.630408
O O15 0.500000 0.436147 0.250000
#
# Coordination Sequence:
#
# PCOD8120610 Si02
#       8
#     4   4   2   4   4   2   4   4
#     4  10  21  41  65  93 127 167 224 266 327 383
#     4  11  24  43  65  94 138 176 213 271 323 391
#     4  12  20  38  62  94 130 168 210 270 320 384
#     4  10  23  44  67  97 128 167 225 266 330 393
#     4   9  20  43  64  91 130 171 209 271 336 380
#     4  10  24  46  64  96 136 174 210 272 340 382
#     4  11  25  38  66 100 126 171 222 268 314 402
#     4  10  21  40  71  93 124 171 216 279 320 389
#
# _framework density 21.554155000000002
#
# number of rings (size 3 to 8) (size 9 to 14) (size 15 to 20)
#    0.000    1.714    2.143    2.143    3.000    8.571 
#    2.571    1.429    0.000    0.000    0.000    0.000 
#    0.000    0.000    0.000    0.000    0.000    0.000 
#
# Total GULP energy -346953.378536 kJ/mol
# GULP energy per Si atom -12391.192091 kJ/mol
# Density = 2.150510 g / cm^3
# Si number density = 21.554155 Si / 1000 Ang^3
#
#
#
# Elastic Constant Matrix: (Units=GPa)
#
#
# Indices 1 2 3 4 5 6 
#
# 1 92.2353 40.0286 44.8983 0.0000 -0.9063 0.0000
# 2 40.0286 113.9526 81.7283 0.0000 24.9634 0.0000
# 3 44.8983 81.7283 172.4905 0.0000 30.6012 0.0000
# 4 0.0000 0.0000 0.0000 43.7810 0.0000 15.3464
# 5 -0.9063 24.9634 30.6012 0.0000 31.4427 0.0000
# 6 0.0000 0.0000 0.0000 15.3464 0.0000 11.7443
#
#
#
# Elastic Compliance Matrix: (Units=1/GPa)
#
#
# Indices 1 2 3 4 5 6 
#
# 1 0.014183 -0.004458 -0.002756 0.000000 0.006630 0.000000
# 2 -0.004458 0.015482 -0.004801 0.000000 -0.007748 0.000000
# 3 -0.002756 -0.004801 0.009823 0.000000 -0.005829 0.000000
# 4 0.000000 0.000000 0.000000 0.042145 0.000000 -0.055072
# 5 0.006630 -0.007748 -0.005829 0.000000 0.043819 0.000000
# 6 0.000000 0.000000 0.000000 -0.055072 0.000000 0.157111
#
#
# Mechanical properties :
#
#
# Convention : Reuss Voigt Hill
#
# Bulk Modulus (GPa) = 64.68508 79.10989 71.89749
# Shear Modulus (GPa) = 16.03869 31.52846 23.78358
#
# Velocity S-wave (km/s) = 2.73080 3.82875 3.32540
# Velocity P-wave (km/s) = 6.32603 7.50522 6.94071
#
# Compressibility (1/GPa) = 0.01545951
#
# Stress axis : x y z
#
# Youngs Moduli (GPa) = 70.50585 64.59093 101.79872
#
# Poissons Ratio (x) = 0.28796 0.28053
# Poissons Ratio (y) = 0.31433 0.48869
# Poissons Ratio (z) = 0.19429 0.31007
#
# Static dielectric constant tensor:
#      x y z
#    x 3.892550 0.000000 0.150550 
#    y 0.000000 3.906840 0.000000 
#    z 0.150550 0.000000 4.512500 
# 
# 
# High freq. dielectric constant tensor:
#      x y z
#    x 1.825270 0.000000 0.010330 
#    y 0.000000 1.831370 0.000000 
#    z 0.010330 0.000000 1.877420 
# 
# From -- ./inp_files/46906.got.cif
#   From: 2010.06.25/outbox.cif.g09.slc.cpg/sg13_24_cif.got.tgz:46906.got - 2010.06.28 04:50:58.
