data_PCOD8120834
_publ_section_title
;
Structure prediction by ZEFSAII (Michael W. Deem and Ramdas Pophale) SiO2 
 PCOD8120834
Probable space group: P 2/C
;
_chemical_formula_sum "Si O2"
_cell_formula_units_Z 26
_cell_length_a 16.128481
_cell_length_b 13.297679
_cell_length_c 9.684192
_cell_angle_alpha 90.000000
_cell_angle_beta 143.517001
_cell_angle_gamma 90.000000
_cell_volume 1234.940675
_symmetry_space_group_name_H-M "P 2/C"
_symmetry_group_IT_number 13
_symmetry_cell_setting 'monoclinic'
loop_
_space_group_symop_operation_xyz
x,y,z
-x,y,1/2-z
-x,-y,-z
x,-y,1/2+z
loop_
_atom_site_type_symbol
_atom_site_label
_atom_site_fract_x
_atom_site_fract_y
_atom_site_fract_z
Si Si1 0.500000 0.279101 0.750000
Si Si2 0.238970 0.999862 0.709503
Si Si3 0.334358 0.605657 0.534914
Si Si4 0.845986 0.786245 0.287496
Si Si5 0.000000 0.193142 0.250000
Si Si6 0.707019 0.885984 0.458408
Si Si7 0.368017 0.559258 0.877491
Si Si8 0.000000 0.127149 0.750000
O O1 0.385688 0.213637 0.680498
O O2 0.417272 0.342891 0.526312
O O3 0.201538 0.101418 0.740468
O O4 0.340606 0.029299 0.717321
O O5 0.318024 0.926106 0.920598
O O6 0.101790 0.943723 0.472745
O O7 0.500000 0.610418 0.750000
O O8 0.280784 0.710218 0.402084
O O9 0.281740 0.589980 0.623638
O O10 0.281662 0.512806 0.367199
O O11 0.940916 0.742750 0.541577
O O12 0.927603 0.793705 0.254589
O O13 0.871223 0.128288 0.140996
O O14 0.500000 0.500000 0.000000
#
# Coordination Sequence:
#
# PCOD8120834 Si02
#       8
#     2   4   4   4   2   4   4   2
#     4  12  26  42  68 100 134 170 224 276 336 396
#     4  11  22  39  60  93 133 178 216 267 311 388
#     4  10  23  41  69 100 119 166 213 278 328 396
#     4  11  23  38  67  95 130 170 227 259 323 387
#     4  10  23  40  66  95 128 182 221 268 312 391
#     4  11  25  40  65  95 134 181 222 268 323 383
#     4  10  21  43  68  95 123 168 218 270 336 407
#     4  12  21  40  60  93 130 182 223 250 312 399
#
# _framework density 21.053644999999999
#
# number of rings (size 3 to 8) (size 9 to 14) (size 15 to 20)
#    0.000    1.231    5.385    2.308   10.769    0.615 
#    1.385    0.000    0.000    8.308    0.000    0.000 
#    0.000    0.000    0.000    0.000    0.000    0.000 
#
# Total GULP energy -322161.550390 kJ/mol
# GULP energy per Si atom -12390.828861 kJ/mol
# Density = 2.100573 g / cm^3
# Si number density = 21.053645 Si / 1000 Ang^3
#
#
#
# Elastic Constant Matrix: (Units=GPa)
#
#
# Indices 1 2 3 4 5 6 
#
# 1 92.7778 50.1073 43.7163 0.0000 -27.4613 0.0000
# 2 50.1073 101.2339 49.2747 0.0000 -11.3247 0.0000
# 3 43.7163 49.2747 74.1665 0.0000 -37.1204 0.0000
# 4 0.0000 0.0000 0.0000 19.0891 0.0000 3.4921
# 5 -27.4613 -11.3247 -37.1204 0.0000 39.3586 0.0000
# 6 0.0000 0.0000 0.0000 3.4921 0.0000 21.5344
#
#
#
# Elastic Compliance Matrix: (Units=1/GPa)
#
#
# Indices 1 2 3 4 5 6 
#
# 1 0.018058 -0.007425 -0.000898 0.000000 0.009616 0.000000
# 2 -0.007425 0.019738 -0.016075 0.000000 -0.014663 0.000000
# 3 -0.000898 -0.016075 0.041791 0.000000 0.034163 0.000000
# 4 0.000000 0.000000 0.000000 0.053988 0.000000 -0.008755
# 5 0.009616 -0.014663 0.034163 0.000000 0.060118 0.000000
# 6 0.000000 0.000000 0.000000 -0.008755 0.000000 0.047857
#
#
# Mechanical properties :
#
#
# Convention : Reuss Voigt Hill
#
# Bulk Modulus (GPa) = 32.47850 61.59720 47.03785
# Shear Modulus (GPa) = 16.63288 24.33507 20.48398
#
# Velocity S-wave (km/s) = 2.81379 3.40348 3.12259
# Velocity P-wave (km/s) = 5.10064 6.69072 5.94904
#
# Compressibility (1/GPa) = 0.03078960
#
# Stress axis : x y z
#
# Youngs Moduli (GPa) = 55.37686 50.66478 23.92861
#
# Poissons Ratio (x) = 0.37620 0.02149
# Poissons Ratio (y) = 0.41119 0.38466
# Poissons Ratio (z) = 0.04973 0.81445
#
# Static dielectric constant tensor:
#      x y z
#    x 4.160920 0.000000 -0.781700 
#    y 0.000000 3.738750 0.000000 
#    z -0.781700 0.000000 4.126730 
# 
# 
# High freq. dielectric constant tensor:
#      x y z
#    x 1.826980 0.000000 -0.041310 
#    y 0.000000 1.812380 0.000000 
#    z -0.041310 0.000000 1.814830 
# 
# From -- ./inp_files/19951.got.cif
#   From: 2010.06.25/outbox.cif.g09.slc.cpg/sg13_10_cif.got.tgz:19951.got - 2010.06.28 04:50:58.
