data_PCOD8120992
_publ_section_title
;
Structure prediction by ZEFSAII (Michael W. Deem and Ramdas Pophale) SiO2 
 PCOD8120992
Probable space group: P 2/C
;
_chemical_formula_sum "Si O2"
_cell_formula_units_Z 26
_cell_length_a 21.536907
_cell_length_b 8.952141
_cell_length_c 9.645739
_cell_angle_alpha 90.000000
_cell_angle_beta 43.279943
_cell_angle_gamma 90.000000
_cell_volume 1274.950929
_symmetry_space_group_name_H-M "P 2/C"
_symmetry_group_IT_number 13
_symmetry_cell_setting 'monoclinic'
loop_
_space_group_symop_operation_xyz
x,y,z
-x,y,1/2-z
-x,-y,-z
x,-y,1/2+z
loop_
_atom_site_type_symbol
_atom_site_label
_atom_site_fract_x
_atom_site_fract_y
_atom_site_fract_z
Si Si1 0.764831 0.881745 0.880800
Si Si2 0.000000 0.517438 0.750000
Si Si3 0.665440 0.539402 0.699520
Si Si4 0.600145 0.681232 0.078622
Si Si5 0.092187 0.233383 0.559981
Si Si6 0.219148 0.224775 0.614915
Si Si7 0.824183 0.329454 0.516788
O O1 0.852798 0.854151 0.644464
O O2 0.747258 0.055519 0.926293
O O3 0.676212 0.809736 0.954154
O O4 0.785449 0.811515 0.996358
O O5 0.939693 0.400588 0.942967
O O6 0.074975 0.624113 0.700514
O O7 0.610031 0.423903 0.696418
O O8 0.690071 0.681332 0.563789
O O9 0.758536 0.469861 0.604883
O O10 0.606134 0.586715 0.927670
O O11 0.500000 0.753816 0.250000
O O12 0.149028 0.248879 0.606703
O O13 0.000000 0.142251 0.750000
O O14 0.170284 0.282260 0.832477
#
# Coordination Sequence:
#
# PCOD8120992 Si02
#       7
#     4   2   4   4   4   4   4
#     4  11  25  43  63  92 132 173 206 257 328 383
#     4  10  22  38  60  96 120 168 220 266 296 368
#     4  11  21  42  68  96 127 163 211 269 313 374
#     4  11  23  43  70  98 126 163 214 265 318 380
#     4  10  23  40  65  88 128 167 215 264 308 364
#     4  12  23  43  63  92 132 171 206 262 320 381
#     4  11  24  38  66  91 125 171 217 255 322 369
#
# _framework density 20.392939999999999
#
# number of rings (size 3 to 8) (size 9 to 14) (size 15 to 20)
#    0.462    0.615    4.615    1.385    4.308    1.846 
#    2.769    1.538    0.000    0.000    0.000    0.000 
#    0.000    0.000    0.000    0.000    0.000    0.000 
#
# Total GULP energy -322265.378117 kJ/mol
# GULP energy per Si atom -12394.822235 kJ/mol
# Density = 2.034653 g / cm^3
# Si number density = 20.392940 Si / 1000 Ang^3
#
#
#
# Elastic Constant Matrix: (Units=GPa)
#
#
# Indices 1 2 3 4 5 6 
#
# 1 46.2997 14.5264 32.6672 0.0000 -8.7876 0.0000
# 2 14.5264 109.2418 17.5532 0.0000 -6.6377 0.0000
# 3 32.6672 17.5532 84.4262 0.0000 -4.0787 0.0000
# 4 0.0000 0.0000 0.0000 21.7840 0.0000 3.9852
# 5 -8.7876 -6.6377 -4.0787 0.0000 45.2941 0.0000
# 6 0.0000 0.0000 0.0000 3.9852 0.0000 9.5960
#
#
#
# Elastic Compliance Matrix: (Units=1/GPa)
#
#
# Indices 1 2 3 4 5 6 
#
# 1 0.031187 -0.002025 -0.011418 0.000000 0.004726 0.000000
# 2 -0.002025 0.009669 -0.001182 0.000000 0.000918 0.000000
# 3 -0.011418 -0.001182 0.016465 0.000000 -0.000906 0.000000
# 4 0.000000 0.000000 0.000000 0.049680 0.000000 -0.020632
# 5 0.004726 0.000918 -0.000906 0.000000 0.023048 0.000000
# 6 0.000000 0.000000 0.000000 -0.020632 0.000000 0.112778
#
#
# Mechanical properties :
#
#
# Convention : Reuss Voigt Hill
#
# Bulk Modulus (GPa) = 35.62570 41.05125 38.33848
# Shear Modulus (GPa) = 17.76622 27.01622 22.39122
#
# Velocity S-wave (km/s) = 2.95480 3.64371 3.31719
# Velocity P-wave (km/s) = 5.39895 6.15434 5.78898
#
# Compressibility (1/GPa) = 0.02806962
#
# Stress axis : x y z
#
# Youngs Moduli (GPa) = 32.06500 103.42281 60.73632
#
# Poissons Ratio (x) = 0.20946 0.69347
# Poissons Ratio (y) = 0.06494 0.07181
# Poissons Ratio (z) = 0.36611 0.12228
#
# Static dielectric constant tensor:
#      x y z
#    x 3.669330 0.000000 -0.022560 
#    y 0.000000 3.638800 0.000000 
#    z -0.022560 0.000000 3.648220 
# 
# 
# High freq. dielectric constant tensor:
#      x y z
#    x 1.795450 0.000000 0.001380 
#    y 0.000000 1.787890 0.000000 
#    z 0.001380 0.000000 1.793110 
# 
# From -- ./inp_files/22963.got.cif
#   From: 2010.06.25/outbox.cif.g09.slc.cpg/sg13_12_cif.got.tgz:22963.got - 2010.06.28 04:50:58.
