data_PCOD8120708
_publ_section_title
;
Structure prediction by ZEFSAII (Michael W. Deem and Ramdas Pophale) SiO2 
 PCOD8120708
Probable space group: P 2/C
;
_chemical_formula_sum "Si O2"
_cell_formula_units_Z 28
_cell_length_a 8.245772
_cell_length_b 6.482880
_cell_length_c 27.154602
_cell_angle_alpha 90.000000
_cell_angle_beta 113.411104
_cell_angle_gamma 90.000000
_cell_volume 1332.087941
_symmetry_space_group_name_H-M "P 2/C"
_symmetry_group_IT_number 13
_symmetry_cell_setting 'monoclinic'
loop_
_space_group_symop_operation_xyz
x,y,z
-x,y,1/2-z
-x,-y,-z
x,-y,1/2+z
loop_
_atom_site_type_symbol
_atom_site_label
_atom_site_fract_x
_atom_site_fract_y
_atom_site_fract_z
Si Si1 0.000000 0.700659 0.750000
Si Si2 0.240982 0.400451 0.114528
Si Si3 0.936253 0.076174 0.063503
Si Si4 0.474604 0.038039 0.144149
Si Si5 0.500000 0.124248 0.750000
Si Si6 0.136155 0.033802 0.838843
Si Si7 0.167591 0.374547 0.707365
Si Si8 0.800384 0.216175 0.950472
O O1 0.055197 0.835718 0.802913
O O2 0.151261 0.557519 0.744862
O O3 0.430864 0.282525 0.131646
O O4 0.222944 0.546091 0.159997
O O5 0.215762 0.541667 0.063285
O O6 0.092872 0.226505 0.098584
O O7 0.834057 0.009100 0.099994
O O8 0.799586 0.186938 0.009628
O O9 0.013521 0.870208 0.047520
O O10 0.670335 0.951672 0.160500
O O11 0.424965 0.007650 0.195493
O O12 0.360398 0.903699 0.093176
O O13 0.332654 0.251997 0.749153
O O14 0.012110 0.235177 0.815505
#
# Coordination Sequence:
#
# PCOD8120708 Si02
#       8
#     2   4   4   4   2   4   4   4
#     4  12  26  40  64  94 132 172 212 276 334 396
#     4  11  21  42  66  97 121 168 224 268 314 396
#     4  10  21  41  70  96 128 172 214 272 331 388
#     4  11  26  39  63  94 133 169 219 269 332 385
#     4  12  24  44  66  92 132 174 218 276 322 408
#     4  12  25  44  62  96 137 171 211 274 336 397
#     4  12  25  43  68  96 129 174 224 266 334 396
#     4  10  21  43  68  95 128 169 222 269 323 394
#
# _framework density 21.019632000000001
#
# number of rings (size 3 to 8) (size 9 to 14) (size 15 to 20)
#    0.000    0.857    4.286    3.429    4.000    1.714 
#    0.000    0.714    0.000    0.000    0.000    0.000 
#    0.000    0.000    0.000    0.000    0.000    0.000 
#
# Total GULP energy -347085.439533 kJ/mol
# GULP energy per Si atom -12395.908555 kJ/mol
# Density = 2.097179 g / cm^3
# Si number density = 21.019632 Si / 1000 Ang^3
#
#
#
# Elastic Constant Matrix: (Units=GPa)
#
#
# Indices 1 2 3 4 5 6 
#
# 1 84.3979 23.0137 12.2874 0.0000 6.0574 0.0000
# 2 23.0137 67.6840 18.1019 0.0000 -1.5213 0.0000
# 3 12.2874 18.1019 107.6197 0.0000 -9.9451 0.0000
# 4 0.0000 0.0000 0.0000 15.5156 0.0000 -8.4073
# 5 6.0574 -1.5213 -9.9451 0.0000 30.6829 0.0000
# 6 0.0000 0.0000 0.0000 -8.4073 0.0000 30.2536
#
#
#
# Elastic Compliance Matrix: (Units=1/GPa)
#
#
# Indices 1 2 3 4 5 6 
#
# 1 0.013424 -0.004343 -0.001100 0.000000 -0.003222 0.000000
# 2 -0.004343 0.016876 -0.002254 0.000000 0.000964 0.000000
# 3 -0.001100 -0.002254 0.010109 0.000000 0.003382 0.000000
# 4 0.000000 0.000000 0.000000 0.075877 0.000000 0.021086
# 5 -0.003222 0.000964 0.003382 0.000000 0.034372 0.000000
# 6 0.000000 0.000000 0.000000 0.021086 0.000000 0.038914
#
#
# Mechanical properties :
#
#
# Convention : Reuss Voigt Hill
#
# Bulk Modulus (GPa) = 39.97402 40.72308 40.34855
# Shear Modulus (GPa) = 23.44094 29.04367 26.24231
#
# Velocity S-wave (km/s) = 3.34307 3.72121 3.53720
# Velocity P-wave (km/s) = 5.82754 6.15460 5.99330
#
# Compressibility (1/GPa) = 0.02501625
#
# Stress axis : x y z
#
# Youngs Moduli (GPa) = 74.49235 59.25748 98.92009
#
# Poissons Ratio (x) = 0.25734 0.10881
# Poissons Ratio (y) = 0.32350 0.22293
# Poissons Ratio (z) = 0.08194 0.13354
#
# Static dielectric constant tensor:
#      x y z
#    x 3.680390 0.000000 0.012350 
#    y 0.000000 3.974020 0.000000 
#    z 0.012350 0.000000 4.001590 
# 
# 
# High freq. dielectric constant tensor:
#      x y z
#    x 1.802980 0.000000 -0.003140 
#    y 0.000000 1.830280 0.000000 
#    z -0.003140 0.000000 1.838070 
# 
# From -- ./inp_files/95443.got.cif
#   From: 2010.06.25/outbox.cif.g09.slc.cpg/sg13_48_cif.got.tgz:95443.got - 2010.06.28 04:50:58.
