data_PCOD8120214
_publ_section_title
;
Structure prediction by ZEFSAII (Michael W. Deem and Ramdas Pophale) SiO2 
 PCOD8120214
Probable space group: P 2/C
;
_chemical_formula_sum "Si O2"
_cell_formula_units_Z 20
_cell_length_a 15.539865
_cell_length_b 5.023031
_cell_length_c 24.685479
_cell_angle_alpha 90.000000
_cell_angle_beta 155.416936
_cell_angle_gamma 90.000000
_cell_volume 801.605211
_symmetry_space_group_name_H-M "P 2/C"
_symmetry_group_IT_number 13
_symmetry_cell_setting 'monoclinic'
loop_
_space_group_symop_operation_xyz
x,y,z
-x,y,1/2-z
-x,-y,-z
x,-y,1/2+z
loop_
_atom_site_type_symbol
_atom_site_label
_atom_site_fract_x
_atom_site_fract_y
_atom_site_fract_z
Si Si1 0.195043 0.403479 0.047760
Si Si2 0.398680 0.099761 0.633977
Si Si3 0.653939 0.776881 0.644027
Si Si4 0.268554 0.544353 0.208502
Si Si5 0.780003 0.264518 0.653111
O O1 0.209235 0.688650 0.026530
O O2 0.303427 0.407641 0.169381
O O3 0.305995 0.192755 0.070577
O O4 0.956771 0.323858 0.917664
O O5 0.500000 0.103881 0.750000
O O6 0.568994 0.210593 0.688580
O O7 0.697000 0.694348 0.730173
O O8 0.753191 0.561122 0.660205
O O9 0.405771 0.802938 0.494809
O O10 0.765307 0.057602 0.694933
O O11 0.000000 0.235635 0.750000
#
# Coordination Sequence:
#
# PCOD8120214 Si02
#       5
#     4   4   4   4   4
#     4  10  23  39  60  91 131 177 216 261 319 375
#     4  10  21  38  59  86 128 176 217 261 316 372
#     4  10  23  41  67  97 123 165 215 262 329 393
#     4  10  23  42  65  93 132 170 221 273 315 388
#     4  10  22  44  67  93 129 161 205 273 335 393
#
# _framework density 24.949938
#
# number of rings (size 3 to 8) (size 9 to 14) (size 15 to 20)
#    0.000    2.000    0.000    2.400    0.000   16.800 
#    0.000   10.000    0.000    0.000    0.000    0.000 
#    0.000    0.000    0.000    0.000    0.000    0.000 
#
# Total GULP energy -247985.887308 kJ/mol
# GULP energy per Si atom -12399.294365 kJ/mol
# Density = 2.489315 g / cm^3
# Si number density = 24.949938 Si / 1000 Ang^3
#
#
#
# Elastic Constant Matrix: (Units=GPa)
#
#
# Indices 1 2 3 4 5 6 
#
# 1 66.9793 12.0997 48.4022 0.0000 17.9711 0.0000
# 2 12.0997 119.3567 38.3114 0.0000 16.8051 0.0000
# 3 48.4022 38.3114 92.5911 0.0000 31.5910 0.0000
# 4 0.0000 0.0000 0.0000 23.6497 0.0000 2.9375
# 5 17.9711 16.8051 31.5910 0.0000 46.4514 0.0000
# 6 0.0000 0.0000 0.0000 2.9375 0.0000 32.4320
#
#
#
# Elastic Compliance Matrix: (Units=1/GPa)
#
#
# Indices 1 2 3 4 5 6 
#
# 1 0.024400 0.001912 -0.013138 0.000000 -0.001197 0.000000
# 2 0.001912 0.009848 -0.004696 0.000000 -0.001109 0.000000
# 3 -0.013138 -0.004696 0.022524 0.000000 -0.008536 0.000000
# 4 0.000000 0.000000 0.000000 0.042765 0.000000 -0.003873
# 5 -0.001197 -0.001109 -0.008536 0.000000 0.028197 0.000000
# 6 0.000000 0.000000 0.000000 -0.003873 0.000000 0.031185
#
#
# Mechanical properties :
#
#
# Convention : Reuss Voigt Hill
#
# Bulk Modulus (GPa) = 40.11639 52.95041 46.53340
# Shear Modulus (GPa) = 25.11673 32.51422 28.81548
#
# Velocity S-wave (km/s) = 3.17627 3.61387 3.40212
# Velocity P-wave (km/s) = 5.43739 6.21950 5.84155
#
# Compressibility (1/GPa) = 0.02492747
#
# Stress axis : x y z
#
# Youngs Moduli (GPa) = 40.98420 101.54500 44.39803
#
# Poissons Ratio (x) = -0.19415 0.58329
# Poissons Ratio (y) = -0.07836 0.20849
# Poissons Ratio (z) = 0.53844 0.47685
#
# Static dielectric constant tensor:
#      x y z
#    x 4.297850 0.000000 0.318190 
#    y 0.000000 4.819530 0.000000 
#    z 0.318190 0.000000 4.526050 
# 
# 
# High freq. dielectric constant tensor:
#      x y z
#    x 1.976170 0.000000 0.026640 
#    y 0.000000 2.004570 0.000000 
#    z 0.026640 0.000000 1.988890 
# 
# From -- ./inp_files/97090.got.cif
#   From: 2010.06.25/outbox.cif.g09.slc.cpg/sg13_49_cif.got.tgz:97090.got - 2010.06.28 04:50:58.
