data_PCOD8120802
_publ_section_title
;
Structure prediction by ZEFSAII (Michael W. Deem and Ramdas Pophale) SiO2 
 PCOD8120802
Probable space group: P 2/C
;
_chemical_formula_sum "Si O2"
_cell_formula_units_Z 26
_cell_length_a 9.327353
_cell_length_b 21.302606
_cell_length_c 9.665549
_cell_angle_alpha 90.000000
_cell_angle_beta 137.516947
_cell_angle_gamma 90.000000
_cell_volume 1297.062174
_symmetry_space_group_name_H-M "P 2/C"
_symmetry_group_IT_number 13
_symmetry_cell_setting 'monoclinic'
loop_
_space_group_symop_operation_xyz
x,y,z
-x,y,1/2-z
-x,-y,-z
x,-y,1/2+z
loop_
_atom_site_type_symbol
_atom_site_label
_atom_site_fract_x
_atom_site_fract_y
_atom_site_fract_z
Si Si1 0.405649 0.047006 0.822643
Si Si2 0.052505 0.130031 0.510754
Si Si3 0.850394 0.494625 0.262279
Si Si4 0.525999 0.590444 0.929773
Si Si5 0.447619 0.735803 0.555231
Si Si6 0.316216 0.839066 0.942304
Si Si7 0.000000 0.795040 0.250000
O O1 0.500000 0.018973 0.750000
O O2 0.152182 0.061019 0.623545
O O3 0.476979 0.117977 0.904579
O O4 0.500000 0.000000 0.000000
O O5 0.214737 0.169376 0.524263
O O6 0.841706 0.121649 0.269701
O O7 0.975603 0.163589 0.595332
O O8 0.674540 0.441105 0.142054
O O9 0.000000 0.469976 0.250000
O O10 0.000000 0.500000 0.500000
O O11 0.742692 0.561391 0.146226
O O12 0.500000 0.576234 0.750000
O O13 0.521156 0.663574 0.960588
O O14 0.500000 0.751603 0.750000
O O15 0.608658 0.773036 0.568433
O O16 0.201776 0.751908 0.361785
#
# Coordination Sequence:
#
# PCOD8120802 Si02
#       7
#     4   4   4   4   4   4   2
#     4  10  22  39  62  89 122 162 208 256 310 368
#     4  10  22  39  62  89 121 168 202 252 315 374
#     4  11  22  42  66  90 129 174 211 266 319 374
#     4  10  23  40  63  96 130 165 216 265 319 380
#     4  11  23  39  63  98 128 164 207 265 315 381
#     4  10  21  43  62  85 132 162 199 261 317 370
#     4  12  22  36  64  96 118 166 212 244 324 376
#
# _framework density 20.045300000000001
#
# number of rings (size 3 to 8) (size 9 to 14) (size 15 to 20)
#    0.000    1.538    4.615    0.000    1.077    2.462 
#    2.769    3.077    0.000    0.000    0.000    0.000 
#    0.000    0.000    0.000    0.000    0.000    0.000 
#
# Total GULP energy -322164.843418 kJ/mol
# GULP energy per Si atom -12390.955516 kJ/mol
# Density = 1.999968 g / cm^3
# Si number density = 20.045300 Si / 1000 Ang^3
#
#
#
# Elastic Constant Matrix: (Units=GPa)
#
#
# Indices 1 2 3 4 5 6 
#
# 1 105.7174 41.2131 38.0964 0.0000 -10.4658 0.0000
# 2 41.2131 86.0576 48.2395 0.0000 -11.9058 0.0000
# 3 38.0964 48.2395 130.0453 0.0000 -5.2945 0.0000
# 4 0.0000 0.0000 0.0000 30.7274 0.0000 -0.8994
# 5 -10.4658 -11.9058 -5.2945 0.0000 39.6892 0.0000
# 6 0.0000 0.0000 0.0000 -0.8994 0.0000 16.9856
#
#
#
# Elastic Compliance Matrix: (Units=1/GPa)
#
#
# Indices 1 2 3 4 5 6 
#
# 1 0.012027 -0.004549 -0.001772 0.000000 0.001570 0.000000
# 2 -0.004549 0.016951 -0.004823 0.000000 0.003242 0.000000
# 3 -0.001772 -0.004823 0.009974 0.000000 -0.000584 0.000000
# 4 0.000000 0.000000 0.000000 0.032595 0.000000 0.001726
# 5 0.001570 0.003242 -0.000584 0.000000 0.026504 0.000000
# 6 0.000000 0.000000 0.000000 0.001726 0.000000 0.058965
#
#
# Mechanical properties :
#
#
# Convention : Reuss Voigt Hill
#
# Bulk Modulus (GPa) = 60.01201 64.10204 62.05702
# Shear Modulus (GPa) = 27.04778 30.43186 28.73982
#
# Velocity S-wave (km/s) = 3.67731 3.90058 3.79059
# Velocity P-wave (km/s) = 6.93061 7.23423 7.08404
#
# Compressibility (1/GPa) = 0.01666333
#
# Stress axis : x y z
#
# Youngs Moduli (GPa) = 83.14939 58.99415 100.26053
#
# Poissons Ratio (x) = 0.26837 0.17764
# Poissons Ratio (y) = 0.37826 0.48357
# Poissons Ratio (z) = 0.14732 0.28454
#
# Static dielectric constant tensor:
#      x y z
#    x 3.528560 0.000000 0.436740 
#    y 0.000000 3.386790 0.000000 
#    z 0.436740 0.000000 3.437130 
# 
# 
# High freq. dielectric constant tensor:
#      x y z
#    x 1.790210 0.000000 0.002630 
#    y 0.000000 1.755610 0.000000 
#    z 0.002630 0.000000 1.810900 
# 
# From -- ./inp_files/13677.got.cif
#   From: 2010.06.25/outbox.cif.g09.slc.cpg/sg13_7_cif.got.tgz:13677.got - 2010.06.28 04:50:58.
