data_PCOD8120145
_publ_section_title
;
Structure prediction by ZEFSAII (Michael W. Deem and Ramdas Pophale) SiO2 
 PCOD8120145
Probable space group: P 2/C
;
_chemical_formula_sum "Si O2"
_cell_formula_units_Z 24
_cell_length_a 13.693931
_cell_length_b 11.517780
_cell_length_c 19.937376
_cell_angle_alpha 90.000000
_cell_angle_beta 21.361357
_cell_angle_gamma 90.000000
_cell_volume 1145.415319
_symmetry_space_group_name_H-M "P 2/C"
_symmetry_group_IT_number 13
_symmetry_cell_setting 'monoclinic'
loop_
_space_group_symop_operation_xyz
x,y,z
-x,y,1/2-z
-x,-y,-z
x,-y,1/2+z
loop_
_atom_site_type_symbol
_atom_site_label
_atom_site_fract_x
_atom_site_fract_y
_atom_site_fract_z
Si Si1 0.225211 0.714810 0.464024
Si Si2 0.381624 0.798035 0.960637
Si Si3 0.530749 0.347590 0.555310
Si Si4 0.095155 0.067332 0.374275
Si Si5 0.164315 0.148911 0.741964
Si Si6 0.300936 0.592075 0.698643
O O1 0.500000 0.687620 0.250000
O O2 0.262830 0.685363 0.518261
O O3 0.132986 0.847751 0.510227
O O4 0.989087 0.630777 0.587773
O O5 0.645723 0.862888 0.766578
O O6 0.452903 0.662820 0.925545
O O7 0.281622 0.857960 0.092727
O O8 0.144222 0.807012 0.058515
O O9 0.335552 0.237647 0.676300
O O10 0.344298 0.458756 0.690010
O O11 0.696865 0.377297 0.382129
O O12 0.180355 0.979303 0.261626
O O13 0.000000 0.000000 0.500000
#
# Coordination Sequence:
#
# PCOD8120145 Si02
#       6
#     4   4   4   4   4   4
#     4  11  24  40  60  91 125 164 206 252 305 367
#     4   9  21  40  58  91 119 155 202 249 310 360
#     4  10  21  39  68  94 121 155 206 255 312 365
#     4  11  24  40  61  84 124 165 205 249 300 365
#     4  10  21  37  63  89 120 156 199 255 305 367
#     4   9  21  41  65  93 122 158 199 258 308 367
#
# _framework density 20.953099999999999
#
# number of rings (size 3 to 8) (size 9 to 14) (size 15 to 20)
#    0.000    2.000    0.000    2.000    7.000    0.667 
#    6.000    0.000    0.000    0.000    0.000    0.000 
#    0.000    0.000    0.000    0.000    0.000    0.000 
#
# Total GULP energy -297600.991065 kJ/mol
# GULP energy per Si atom -12400.041294 kJ/mol
# Density = 2.090541 g / cm^3
# Si number density = 20.953100 Si / 1000 Ang^3
#
#
#
# Elastic Constant Matrix: (Units=GPa)
#
#
# Indices 1 2 3 4 5 6 
#
# 1 61.2535 21.8085 8.8495 0.0000 -16.3393 0.0000
# 2 21.8085 110.2606 32.6368 0.0000 -0.2505 0.0000
# 3 8.8495 32.6368 100.2966 0.0000 -14.0210 0.0000
# 4 0.0000 0.0000 0.0000 25.8407 0.0000 -0.8908
# 5 -16.3393 -0.2505 -14.0210 0.0000 26.0552 0.0000
# 6 0.0000 0.0000 0.0000 -0.8908 0.0000 31.2554
#
#
#
# Elastic Compliance Matrix: (Units=1/GPa)
#
#
# Indices 1 2 3 4 5 6 
#
# 1 0.021610 -0.004728 0.001644 0.000000 0.014391 0.000000
# 2 -0.004728 0.011149 -0.003904 0.000000 -0.004959 0.000000
# 3 0.001644 -0.003904 0.012148 0.000000 0.007531 0.000000
# 4 0.000000 0.000000 0.000000 0.038737 0.000000 0.001104
# 5 0.014391 -0.004959 0.007531 0.000000 0.051409 0.000000
# 6 0.000000 0.000000 0.000000 0.001104 0.000000 0.032026
#
#
# Mechanical properties :
#
#
# Convention : Reuss Voigt Hill
#
# Bulk Modulus (GPa) = 32.33025 44.26669 38.29847
# Shear Modulus (GPa) = 26.12784 30.53130 28.32957
#
# Velocity S-wave (km/s) = 3.53507 3.82137 3.68101
# Velocity P-wave (km/s) = 5.66795 6.37518 6.03194
#
# Compressibility (1/GPa) = 0.03093078
#
# Stress axis : x y z
#
# Youngs Moduli (GPa) = 46.27429 89.69519 82.31478
#
# Poissons Ratio (x) = 0.42409 -0.13529
# Poissons Ratio (y) = 0.21879 0.32135
# Poissons Ratio (z) = -0.07605 0.35016
#
# Static dielectric constant tensor:
#      x y z
#    x 3.692240 0.000000 -0.204880 
#    y 0.000000 3.805300 0.000000 
#    z -0.204880 0.000000 3.789890 
# 
# 
# High freq. dielectric constant tensor:
#      x y z
#    x 1.808510 0.000000 -0.015750 
#    y 0.000000 1.824570 0.000000 
#    z -0.015750 0.000000 1.827040 
# 
# From -- ./inp_files/36992.got.cif
#   From: 2010.06.25/outbox.cif.g09.slc.cpg/sg13_19_cif.got.tgz:36992.got - 2010.06.28 04:50:58.
