data_PCOD8120270
_publ_section_title
;
Structure prediction by ZEFSAII (Michael W. Deem and Ramdas Pophale) SiO2 
 PCOD8120270
Probable space group: P 2/C
;
_chemical_formula_sum "Si O2"
_cell_formula_units_Z 24
_cell_length_a 6.003719
_cell_length_b 13.423162
_cell_length_c 15.587395
_cell_angle_alpha 90.000000
_cell_angle_beta 71.847603
_cell_angle_gamma 90.000000
_cell_volume 1193.652811
_symmetry_space_group_name_H-M "P 2/C"
_symmetry_group_IT_number 13
_symmetry_cell_setting 'monoclinic'
loop_
_space_group_symop_operation_xyz
x,y,z
-x,y,1/2-z
-x,-y,-z
x,-y,1/2+z
loop_
_atom_site_type_symbol
_atom_site_label
_atom_site_fract_x
_atom_site_fract_y
_atom_site_fract_z
Si Si1 0.933911 0.106498 0.643463
Si Si2 0.340424 0.050390 0.091219
Si Si3 0.286673 0.218260 0.982417
Si Si4 0.902047 0.414222 0.572370
Si Si5 0.500000 0.003562 0.750000
Si Si6 0.230364 0.287141 0.640815
Si Si7 0.500000 0.608787 0.250000
O O1 0.827395 0.133969 0.564119
O O2 0.723326 0.074818 0.730075
O O3 0.105542 0.013280 0.621281
O O4 0.034370 0.204330 0.675870
O O5 0.484187 0.059842 0.163849
O O6 0.500000 0.000000 0.000000
O O7 0.271202 0.165688 0.077388
O O8 0.158746 0.323831 0.985629
O O9 0.561238 0.235517 0.935635
O O10 0.669162 0.447227 0.658377
O O11 0.000000 0.500000 0.500000
O O12 0.119569 0.382760 0.605936
O O13 0.314306 0.322204 0.723889
#
# Coordination Sequence:
#
# PCOD8120270 Si02
#       7
#     4   4   4   4   2   4   2
#     4  11  22  38  58  91 127 162 208 257 313 374
#     4  12  23  40  58  87 127 172 211 260 306 380
#     4  10  22  38  63  88 122 165 204 259 323 374
#     4  10  23  41  65  92 120 161 205 267 325 391
#     4  12  26  33  58  87 126 174 212 249 318 373
#     4  10  21  38  62  93 124 152 199 261 326 380
#     4  10  22  37  62  95 126 150 196 261 332 385
#
# _framework density 20.106351
#
# number of rings (size 3 to 8) (size 9 to 14) (size 15 to 20)
#    0.000    1.333    3.333    1.500    0.000   18.667 
#    0.000    0.000    0.000   15.000    0.000    0.000 
#    0.000    0.000    0.000    0.000    0.000    0.000 
#
# Total GULP energy -297332.111380 kJ/mol
# GULP energy per Si atom -12388.837974 kJ/mol
# Density = 2.006059 g / cm^3
# Si number density = 20.106351 Si / 1000 Ang^3
#
#
#
# Elastic Constant Matrix: (Units=GPa)
#
#
# Indices 1 2 3 4 5 6 
#
# 1 128.8384 44.4667 62.0608 0.0000 1.8126 0.0000
# 2 44.4667 96.3881 64.8533 0.0000 1.5210 0.0000
# 3 62.0608 64.8533 128.1084 0.0000 8.2596 0.0000
# 4 0.0000 0.0000 0.0000 7.5099 0.0000 -7.0865
# 5 1.8126 1.5210 8.2596 0.0000 39.2470 0.0000
# 6 0.0000 0.0000 0.0000 -7.0865 0.0000 16.4156
#
#
#
# Elastic Compliance Matrix: (Units=1/GPa)
#
#
# Indices 1 2 3 4 5 6 
#
# 1 0.010414 -0.002120 -0.004000 0.000000 0.000443 0.000000
# 2 -0.002120 0.016211 -0.007244 0.000000 0.000994 0.000000
# 3 -0.004000 -0.007244 0.013565 0.000000 -0.002389 0.000000
# 4 0.000000 0.000000 0.000000 0.224685 0.000000 0.096995
# 5 0.000443 0.000994 -0.002389 0.000000 0.025924 0.000000
# 6 0.000000 0.000000 0.000000 0.096995 0.000000 0.102790
#
#
# Mechanical properties :
#
#
# Convention : Reuss Voigt Hill
#
# Bulk Modulus (GPa) = 74.28312 77.34405 75.81359
# Shear Modulus (GPa) = 11.77017 24.76476 18.26746
#
# Velocity S-wave (km/s) = 2.42212 3.51335 3.01747
# Velocity P-wave (km/s) = 6.69683 7.41682 7.06600
#
# Compressibility (1/GPa) = 0.01346201
#
# Stress axis : x y z
#
# Youngs Moduli (GPa) = 96.02462 61.68756 73.71918
#
# Poissons Ratio (x) = 0.13075 0.29491
# Poissons Ratio (y) = 0.20353 0.53400
# Poissons Ratio (z) = 0.38415 0.44685
#
# Static dielectric constant tensor:
#      x y z
#    x 4.623030 0.000000 0.030330 
#    y 0.000000 3.421100 0.000000 
#    z 0.030330 0.000000 3.550830 
# 
# 
# High freq. dielectric constant tensor:
#      x y z
#    x 1.818360 0.000000 0.007210 
#    y 0.000000 1.745220 0.000000 
#    z 0.007210 0.000000 1.779110 
# 
# From -- ./inp_files/43831.got.cif
#   From: 2010.06.25/outbox.cif.g09.slc.cpg/sg13_22_cif.got.tgz:43831.got - 2010.06.28 04:50:58.
