data_PCOD8120615
_publ_section_title
;
Structure prediction by ZEFSAII (Michael W. Deem and Ramdas Pophale) SiO2 
 PCOD8120615
Probable space group: P 2/C
;
_chemical_formula_sum "Si O2"
_cell_formula_units_Z 18
_cell_length_a 8.435514
_cell_length_b 11.711263
_cell_length_c 10.672886
_cell_angle_alpha 90.000000
_cell_angle_beta 135.046480
_cell_angle_gamma 90.000000
_cell_volume 744.954176
_symmetry_space_group_name_H-M "P 2/C"
_symmetry_group_IT_number 13
_symmetry_cell_setting 'monoclinic'
loop_
_space_group_symop_operation_xyz
x,y,z
-x,y,1/2-z
-x,-y,-z
x,-y,1/2+z
loop_
_atom_site_type_symbol
_atom_site_label
_atom_site_fract_x
_atom_site_fract_y
_atom_site_fract_z
Si Si1 0.231907 0.559710 0.661275
Si Si2 0.672323 0.842742 0.023518
Si Si3 0.185981 0.185139 0.167306
Si Si4 0.737096 0.593433 0.101645
Si Si5 0.000000 0.970623 0.750000
O O1 0.178149 0.680948 0.695447
O O2 0.362449 0.574595 0.598076
O O3 0.365781 0.487410 0.845168
O O4 0.000000 0.500000 0.500000
O O5 0.831600 0.828108 0.990843
O O6 0.416990 0.868245 0.848168
O O7 0.692305 0.725499 0.114732
O O8 0.778261 0.952918 0.149336
O O9 0.984800 0.114435 0.120918
O O10 0.000000 0.566623 0.250000
#
# Coordination Sequence:
#
# PCOD8120615 Si02
#       5
#     4   4   4   4   2
#     4   9  19  34  60  89 120 158 200 250 310 373
#     4  10  21  41  59  88 121 165 202 249 311 370
#     4  10  23  38  61  90 122 157 205 256 309 358
#     4   9  17  34  59  86 119 158 203 245 310 370
#     4  12  22  38  64  84 118 164 210 256 296 360
#
# _framework density 24.162559000000002
#
# number of rings (size 3 to 8) (size 9 to 14) (size 15 to 20)
#    0.000    2.222    1.111    1.333    4.667    0.889 
#    0.000    0.000    0.000    0.000    0.000    0.000 
#    0.000    0.000    0.000    0.000    0.000    0.000 
#
# Total GULP energy -223111.055817 kJ/mol
# GULP energy per Si atom -12395.058656 kJ/mol
# Density = 2.410756 g / cm^3
# Si number density = 24.162559 Si / 1000 Ang^3
#
#
#
# Elastic Constant Matrix: (Units=GPa)
#
#
# Indices 1 2 3 4 5 6 
#
# 1 52.4068 48.8854 7.7146 0.0000 -11.3468 0.0000
# 2 48.8854 190.6433 46.7554 0.0000 -26.3527 0.0000
# 3 7.7146 46.7554 111.2754 0.0000 -5.5118 0.0000
# 4 0.0000 0.0000 0.0000 34.1985 0.0000 -8.7012
# 5 -11.3468 -26.3527 -5.5118 0.0000 28.3516 0.0000
# 6 0.0000 0.0000 0.0000 -8.7012 0.0000 27.9950
#
#
#
# Elastic Compliance Matrix: (Units=1/GPa)
#
#
# Indices 1 2 3 4 5 6 
#
# 1 0.025740 -0.006204 0.001057 0.000000 0.004740 0.000000
# 2 -0.006204 0.008143 -0.002766 0.000000 0.004548 0.000000
# 3 0.001057 -0.002766 0.010066 0.000000 -0.000191 0.000000
# 4 0.000000 0.000000 0.000000 0.031752 0.000000 0.009869
# 5 0.004740 0.004548 -0.000191 0.000000 0.041359 0.000000
# 6 0.000000 0.000000 0.000000 0.009869 0.000000 0.038788
#
#
# Mechanical properties :
#
#
# Convention : Reuss Voigt Hill
#
# Bulk Modulus (GPa) = 35.55857 62.33735 48.94796
# Shear Modulus (GPa) = 27.61678 34.84037 31.22858
#
# Velocity S-wave (km/s) = 3.38443 3.80138 3.59895
# Velocity P-wave (km/s) = 5.47913 6.71732 6.12957
#
# Compressibility (1/GPa) = 0.02812261
#
# Stress axis : x y z
#
# Youngs Moduli (GPa) = 38.85070 122.79747 99.34164
#
# Poissons Ratio (x) = 0.76187 -0.10502
# Poissons Ratio (y) = 0.24104 0.27481
# Poissons Ratio (z) = -0.04107 0.33969
#
# Static dielectric constant tensor:
#      x y z
#    x 4.241420 0.000000 -0.346050 
#    y 0.000000 4.446890 0.000000 
#    z -0.346050 0.000000 4.825720 
# 
# 
# High freq. dielectric constant tensor:
#      x y z
#    x 1.948550 0.000000 0.010630 
#    y 0.000000 1.968600 0.000000 
#    z 0.010630 0.000000 1.965970 
# 
# From -- ./inp_files/11941.got.cif
#   From: 2010.06.25/outbox.cif.g09.slc.cpg/sg13_6_cif.got.tgz:11941.got - 2010.06.28 04:50:58.
