data_PCOD8120796
_publ_section_title
;
Structure prediction by ZEFSAII (Michael W. Deem and Ramdas Pophale) SiO2 
 PCOD8120796
Probable space group: P 2/C
;
_chemical_formula_sum "Si O2"
_cell_formula_units_Z 12
_cell_length_a 6.340927
_cell_length_b 13.713561
_cell_length_c 7.516575
_cell_angle_alpha 90.000000
_cell_angle_beta 135.433605
_cell_angle_gamma 90.000000
_cell_volume 458.665765
_symmetry_space_group_name_H-M "P 2/C"
_symmetry_group_IT_number 13
_symmetry_cell_setting 'monoclinic'
loop_
_space_group_symop_operation_xyz
x,y,z
-x,y,1/2-z
-x,-y,-z
x,-y,1/2+z
loop_
_atom_site_type_symbol
_atom_site_label
_atom_site_fract_x
_atom_site_fract_y
_atom_site_fract_z
Si Si1 0.956187 0.885923 0.958610
Si Si2 0.447381 0.194299 0.965941
Si Si3 0.360632 0.600746 0.977347
O O1 0.772662 0.862028 0.664148
O O2 0.749486 0.850669 0.996255
O O3 0.270167 0.825146 0.171589
O O4 0.000000 0.000000 0.000000
O O5 0.514214 0.307189 0.057605
O O6 0.000000 0.594283 0.750000
O O7 0.500000 0.623233 0.250000
O O8 0.500000 0.500000 0.000000
#
# Coordination Sequence:
#
# PCOD8120796 Si02
#       3
#     4   4   4
#     4  10  21  42  71  99 137 197 241 297 362 436
#     4  10  23  43  68 102 145 182 245 305 363 436
#     4  12  28  49  78 111 148 198 251 314 386 448
#
# _framework density 26.162839999999999
#
# number of rings (size 3 to 8) (size 9 to 14) (size 15 to 20)
#    0.000    1.333    0.000    4.000    9.333    0.000 
#   36.000    0.000    0.000    0.000    0.000    0.000 
#    0.000    0.000    0.000    0.000    0.000    0.000 
#
# Total GULP energy -148747.181793 kJ/mol
# GULP energy per Si atom -12395.598483 kJ/mol
# Density = 2.610329 g / cm^3
# Si number density = 26.162840 Si / 1000 Ang^3
#
#
#
# Elastic Constant Matrix: (Units=GPa)
#
#
# Indices 1 2 3 4 5 6 
#
# 1 98.5775 61.3524 61.3632 0.0000 50.7127 0.0000
# 2 61.3524 291.1209 73.4596 0.0000 42.6379 0.0000
# 3 61.3632 73.4596 280.0931 0.0000 47.1650 0.0000
# 4 0.0000 0.0000 0.0000 46.6890 0.0000 11.5471
# 5 50.7127 42.6379 47.1650 0.0000 48.4070 0.0000
# 6 0.0000 0.0000 0.0000 11.5471 0.0000 58.3419
#
#
#
# Elastic Compliance Matrix: (Units=1/GPa)
#
#
# Indices 1 2 3 4 5 6 
#
# 1 0.022764 -0.001375 -0.000975 0.000000 -0.021687 0.000000
# 2 -0.001375 0.004096 -0.000488 0.000000 -0.001691 0.000000
# 3 -0.000975 -0.000488 0.004387 0.000000 -0.002824 0.000000
# 4 0.000000 0.000000 0.000000 0.022521 0.000000 -0.004457
# 5 -0.021687 -0.001691 -0.002824 0.000000 0.047619 0.000000
# 6 0.000000 0.000000 0.000000 -0.004457 0.000000 0.018023
#
#
# Mechanical properties :
#
#
# Convention : Reuss Voigt Hill
#
# Bulk Modulus (GPa) = 39.10677 118.01575 78.56126
# Shear Modulus (GPa) = 37.42286 62.26202 49.84244
#
# Velocity S-wave (km/s) = 3.78614 4.88360 4.36946
# Velocity P-wave (km/s) = 5.83893 8.77528 7.45314
#
# Compressibility (1/GPa) = 0.02557102
#
# Stress axis : x y z
#
# Youngs Moduli (GPa) = 43.92993 244.15974 227.93266
#
# Poissons Ratio (x) = 0.33574 0.22213
# Poissons Ratio (y) = 0.06041 0.11125
# Poissons Ratio (z) = 0.04281 0.11917
#
# Static dielectric constant tensor:
#      x y z
#    x 5.303300 0.000000 1.126270 
#    y 0.000000 3.350190 0.000000 
#    z 1.126270 0.000000 8.265120 
# 
# 
# High freq. dielectric constant tensor:
#      x y z
#    x 2.084720 0.000000 0.012870 
#    y 0.000000 2.050580 0.000000 
#    z 0.012870 0.000000 2.101840 
# 
# From -- ./inp_files/10998.got.cif
#   From: 2010.06.25/outbox.cif.g09.slc.cpg/sg13_6_cif.got.tgz:10998.got - 2010.06.28 04:50:58.
