data_PCOD8120239
_publ_section_title
;
Structure prediction by ZEFSAII (Michael W. Deem and Ramdas Pophale) SiO2 
 PCOD8120239
Probable space group: P 2/C
;
_chemical_formula_sum "Si O2"
_cell_formula_units_Z 28
_cell_length_a 25.605144
_cell_length_b 10.893359
_cell_length_c 25.369692
_cell_angle_alpha 90.000000
_cell_angle_beta 169.047399
_cell_angle_gamma 90.000000
_cell_volume 1344.468586
_symmetry_space_group_name_H-M "P 2/C"
_symmetry_group_IT_number 13
_symmetry_cell_setting 'monoclinic'
loop_
_space_group_symop_operation_xyz
x,y,z
-x,y,1/2-z
-x,-y,-z
x,-y,1/2+z
loop_
_atom_site_type_symbol
_atom_site_label
_atom_site_fract_x
_atom_site_fract_y
_atom_site_fract_z
Si Si1 0.732536 0.915242 0.790880
Si Si2 0.107325 0.747624 0.456193
Si Si3 0.236070 0.016691 0.022550
Si Si4 0.418971 0.386337 0.109468
Si Si5 0.076528 0.205278 0.428656
Si Si6 0.760256 0.084099 0.203564
Si Si7 0.588742 0.666548 0.397151
O O1 0.647965 0.862723 0.648600
O O2 0.480124 0.000996 0.562855
O O3 0.842022 0.804425 0.936045
O O4 0.991789 0.997086 0.038428
O O5 0.223920 0.843720 0.529029
O O6 0.299262 0.628122 0.643840
O O7 0.800435 0.708354 0.134549
O O8 0.500000 0.987533 0.250000
O O9 0.000000 0.980605 0.750000
O O10 0.199095 0.929225 0.036589
O O11 0.500000 0.354812 0.250000
O O12 0.322314 0.525427 0.006429
O O13 0.343758 0.294963 0.695434
O O14 0.887211 0.194638 0.293737
O O15 0.865457 0.255843 0.176537
O O16 0.500000 0.693770 0.250000
#
# Coordination Sequence:
#
# PCOD8120239 Si02
#       7
#     4   4   4   4   4   4   4
#     4  10  21  38  60  89 123 155 201 244 304 374
#     4  12  22  38  62  87 120 158 197 253 301 362
#     4  12  24  34  53  88 125 151 182 239 310 362
#     4  11  24  41  61  83 118 164 213 246 288 353
#     4  12  22  38  62  86 121 156 198 247 308 361
#     4  10  21  38  60  89 122 159 196 246 304 377
#     4  11  24  41  59  85 117 164 211 248 284 360
#
# _framework density 20.826073000000001
#
# number of rings (size 3 to 8) (size 9 to 14) (size 15 to 20)
#    0.000    0.857    1.429    7.714    2.000    2.286 
#    0.000    0.000    0.000    5.143    0.000    0.000 
#    0.000    0.000    0.000    0.000    0.000    0.000 
#
# Total GULP energy -346869.478723 kJ/mol
# GULP energy per Si atom -12388.195669 kJ/mol
# Density = 2.077867 g / cm^3
# Si number density = 20.826073 Si / 1000 Ang^3
#
#
#
# Elastic Constant Matrix: (Units=GPa)
#
#
# Indices 1 2 3 4 5 6 
#
# 1 91.2326 29.0283 25.2771 0.0000 4.1695 0.0000
# 2 29.0283 77.3944 26.3682 0.0000 -2.8030 0.0000
# 3 25.2771 26.3682 128.3562 0.0000 4.3406 0.0000
# 4 0.0000 0.0000 0.0000 34.6603 0.0000 3.5792
# 5 4.1695 -2.8030 4.3406 0.0000 29.6484 0.0000
# 6 0.0000 0.0000 0.0000 3.5792 0.0000 23.0292
#
#
#
# Elastic Compliance Matrix: (Units=1/GPa)
#
#
# Indices 1 2 3 4 5 6 
#
# 1 0.012877 -0.004367 -0.001571 0.000000 -0.001994 0.000000
# 2 -0.004367 0.015464 -0.002399 0.000000 0.002427 0.000000
# 3 -0.001571 -0.002399 0.008636 0.000000 -0.001270 0.000000
# 4 0.000000 0.000000 0.000000 0.029322 0.000000 -0.004557
# 5 -0.001994 0.002427 -0.001270 0.000000 0.034424 0.000000
# 6 0.000000 0.000000 0.000000 -0.004557 0.000000 0.044131
#
#
# Mechanical properties :
#
#
# Convention : Reuss Voigt Hill
#
# Bulk Modulus (GPa) = 49.25384 50.92560 50.08972
# Shear Modulus (GPa) = 29.70958 31.88822 30.79890
#
# Velocity S-wave (km/s) = 3.78108 3.91726 3.84977
# Velocity P-wave (km/s) = 6.53938 6.70565 6.62304
#
# Compressibility (1/GPa) = 0.02030299
#
# Stress axis : x y z
#
# Youngs Moduli (GPa) = 77.65894 64.66713 115.79396
#
# Poissons Ratio (x) = 0.28237 0.18196
# Poissons Ratio (y) = 0.33910 0.27778
# Poissons Ratio (z) = 0.12203 0.15513
#
# Static dielectric constant tensor:
#      x y z
#    x 3.955780 0.000000 0.073320 
#    y 0.000000 3.550300 0.000000 
#    z 0.073320 0.000000 3.813920 
# 
# 
# High freq. dielectric constant tensor:
#      x y z
#    x 1.804690 0.000000 0.001860 
#    y 0.000000 1.792270 0.000000 
#    z 0.001860 0.000000 1.841430 
# 
# From -- ./inp_files/94181.got.cif
#   From: 2010.06.25/outbox.cif.g09.slc.cpg/sg13_48_cif.got.tgz:94181.got - 2010.06.28 04:50:58.
