data_PCOD8120176
_publ_section_title
;
Structure prediction by ZEFSAII (Michael W. Deem and Ramdas Pophale) SiO2 
 PCOD8120176
Probable space group: P 2/C
;
_chemical_formula_sum "Si O2"
_cell_formula_units_Z 24
_cell_length_a 20.865346
_cell_length_b 10.029558
_cell_length_c 13.831282
_cell_angle_alpha 90.000000
_cell_angle_beta 155.560193
_cell_angle_gamma 90.000000
_cell_volume 1197.551568
_symmetry_space_group_name_H-M "P 2/C"
_symmetry_group_IT_number 13
_symmetry_cell_setting 'monoclinic'
loop_
_space_group_symop_operation_xyz
x,y,z
-x,y,1/2-z
-x,-y,-z
x,-y,1/2+z
loop_
_atom_site_type_symbol
_atom_site_label
_atom_site_fract_x
_atom_site_fract_y
_atom_site_fract_z
Si Si1 0.930108 0.208723 0.367180
Si Si2 0.057720 0.059041 0.722110
Si Si3 0.365574 0.648926 0.993252
Si Si4 0.648446 0.215128 0.397654
Si Si5 0.506177 0.342448 0.494451
Si Si6 0.218181 0.625147 0.248679
O O1 0.749281 0.247772 0.111980
O O2 0.964080 0.156426 0.521812
O O3 0.038284 0.335873 0.486951
O O4 0.967849 0.094026 0.341894
O O5 0.000000 0.086277 0.750000
O O6 0.240353 0.090195 0.968735
O O7 0.253333 0.532377 0.798162
O O8 0.500000 0.596444 0.250000
O O9 0.454900 0.721346 0.026437
O O10 0.500000 0.156682 0.250000
O O11 0.730928 0.324035 0.577003
O O12 0.612200 0.291322 0.248884
O O13 0.500000 0.500000 0.500000
O O14 0.680563 0.305699 0.698569
#
# Coordination Sequence:
#
# PCOD8120176 Si02
#       6
#     4   4   4   4   4   4
#     4  10  22  37  55  79 107 143 183 222 264 318
#     4  10  21  38  56  76 107 145 185 223 263 312
#     4  11  21  34  54  82 114 141 173 219 270 323
#     4   9  17  33  57  80 105 140 180 222 267 317
#     4   9  17  31  54  83 110 138 174 218 270 324
#     4   9  18  35  56  80 108 138 173 219 275 323
#
# _framework density 20.040890999999998
#
# number of rings (size 3 to 8) (size 9 to 14) (size 15 to 20)
#    0.000    2.333    0.000    4.000    0.000    2.000 
#    0.000    0.000    0.000   20.000    0.000    0.000 
#    0.000    0.000    0.000    0.000    0.000    0.000 
#
# Total GULP energy -297458.762202 kJ/mol
# GULP energy per Si atom -12394.115092 kJ/mol
# Density = 1.999528 g / cm^3
# Si number density = 20.040891 Si / 1000 Ang^3
#
#
#
# Elastic Constant Matrix: (Units=GPa)
#
#
# Indices 1 2 3 4 5 6 
#
# 1 121.3723 22.9876 43.3513 0.0000 5.6140 0.0000
# 2 22.9876 58.4444 30.3367 0.0000 5.6173 0.0000
# 3 43.3513 30.3367 91.3879 0.0000 15.2484 0.0000
# 4 0.0000 0.0000 0.0000 27.9776 0.0000 7.4973
# 5 5.6140 5.6173 15.2484 0.0000 26.9242 0.0000
# 6 0.0000 0.0000 0.0000 7.4973 0.0000 16.9604
#
#
#
# Elastic Compliance Matrix: (Units=1/GPa)
#
#
# Indices 1 2 3 4 5 6 
#
# 1 0.010085 -0.001800 -0.004305 0.000000 0.000711 0.000000
# 2 -0.001800 0.020999 -0.006017 0.000000 -0.000598 0.000000
# 3 -0.004305 -0.006017 0.016149 0.000000 -0.006993 0.000000
# 4 0.000000 0.000000 0.000000 0.040546 0.000000 -0.017923
# 5 0.000711 -0.000598 -0.006993 0.000000 0.041078 0.000000
# 6 0.000000 0.000000 0.000000 -0.017923 0.000000 0.066884
#
#
# Mechanical properties :
#
#
# Convention : Reuss Voigt Hill
#
# Bulk Modulus (GPa) = 43.50074 51.61730 47.55902
# Shear Modulus (GPa) = 21.96380 26.00771 23.98576
#
# Velocity S-wave (km/s) = 3.31410 3.60631 3.46329
# Velocity P-wave (km/s) = 6.03303 6.56906 6.30674
#
# Compressibility (1/GPa) = 0.02298812
#
# Stress axis : x y z
#
# Youngs Moduli (GPa) = 99.15900 47.62108 61.92512
#
# Poissons Ratio (x) = 0.08574 0.26658
# Poissons Ratio (y) = 0.17853 0.37260
# Poissons Ratio (z) = 0.42686 0.28653
#
# Static dielectric constant tensor:
#      x y z
#    x 7.197320 0.000000 -0.011530 
#    y 0.000000 3.307850 0.000000 
#    z -0.011530 0.000000 3.641840 
# 
# 
# High freq. dielectric constant tensor:
#      x y z
#    x 1.797520 0.000000 0.011020 
#    y 0.000000 1.754420 0.000000 
#    z 0.011020 0.000000 1.772140 
# 
# From -- ./inp_files/39215.got.cif
#   From: 2010.06.25/outbox.cif.g09.slc.cpg/sg13_20_cif.got.tgz:39215.got - 2010.06.28 04:50:58.
