data_PCOD8120357
_publ_section_title
;
Structure prediction by ZEFSAII (Michael W. Deem and Ramdas Pophale) SiO2 
 PCOD8120357
Probable space group: P 2/C
;
_chemical_formula_sum "Si O2"
_cell_formula_units_Z 18
_cell_length_a 19.293683
_cell_length_b 5.319319
_cell_length_c 10.711504
_cell_angle_alpha 90.000000
_cell_angle_beta 34.446069
_cell_angle_gamma 90.000000
_cell_volume 621.805075
_symmetry_space_group_name_H-M "P 2/C"
_symmetry_group_IT_number 13
_symmetry_cell_setting 'monoclinic'
loop_
_space_group_symop_operation_xyz
x,y,z
-x,y,1/2-z
-x,-y,-z
x,-y,1/2+z
loop_
_atom_site_type_symbol
_atom_site_label
_atom_site_fract_x
_atom_site_fract_y
_atom_site_fract_z
Si Si1 0.500000 0.777740 0.250000
Si Si2 0.364446 0.467621 0.149147
Si Si3 0.310123 0.960868 0.355451
Si Si4 0.081437 0.300985 0.009956
Si Si5 0.136458 0.193261 0.334873
O O1 0.385928 0.609029 0.471066
O O2 0.445273 0.948843 0.219836
O O3 0.292942 0.731396 0.279974
O O4 0.295260 0.233672 0.317724
O O5 0.500000 0.500000 0.000000
O O6 0.208235 0.909363 0.610111
O O7 0.000000 0.374518 0.250000
O O8 0.001868 0.258249 0.001864
O O9 0.177788 0.535719 0.837097
O O10 0.143077 0.023064 0.933679
#
# Coordination Sequence:
#
# PCOD8120357 Si02
#       5
#     2   4   4   4   4
#     4  10  22  38  58  80 114 152 186 230 282 330
#     4  10  22  38  56  81 113 150 192 235 277 331
#     4  11  23  38  58  85 115 149 192 235 280 337
#     4  10  21  39  61  84 115 149 185 234 290 341
#     4  10  22  38  58  87 115 145 190 236 280 342
#
# _framework density 28.947980000000001
#
# number of rings (size 3 to 8) (size 9 to 14) (size 15 to 20)
#    0.000    1.778    0.000    4.667    0.000   11.556 
#    0.000    0.000    0.000    0.000    0.000    0.000 
#    0.000    0.000    0.000    0.000    0.000    0.000 
#
# Total GULP energy -223220.509922 kJ/mol
# GULP energy per Si atom -12401.139440 kJ/mol
# Density = 2.888209 g / cm^3
# Si number density = 28.947980 Si / 1000 Ang^3
#
#
#
# Elastic Constant Matrix: (Units=GPa)
#
#
# Indices 1 2 3 4 5 6 
#
# 1 85.9545 78.4200 4.5595 0.0000 -4.5653 0.0000
# 2 78.4200 266.2300 87.9850 0.0000 -0.9772 0.0000
# 3 4.5595 87.9850 174.7104 0.0000 16.7056 0.0000
# 4 0.0000 0.0000 0.0000 59.9657 0.0000 2.5886
# 5 -4.5653 -0.9772 16.7056 0.0000 35.8947 0.0000
# 6 0.0000 0.0000 0.0000 2.5886 0.0000 29.0127
#
#
#
# Elastic Compliance Matrix: (Units=1/GPa)
#
#
# Indices 1 2 3 4 5 6 
#
# 1 0.016770 -0.005715 0.002356 0.000000 0.000881 0.000000
# 2 -0.005715 0.006507 -0.003218 0.000000 0.000948 0.000000
# 3 0.002356 -0.003218 0.007601 0.000000 -0.003325 0.000000
# 4 0.000000 0.000000 0.000000 0.016741 0.000000 -0.001494
# 5 0.000881 0.000948 -0.003325 0.000000 0.029545 0.000000
# 6 0.000000 0.000000 0.000000 -0.001494 0.000000 0.034601
#
#
# Mechanical properties :
#
#
# Convention : Reuss Voigt Hill
#
# Bulk Modulus (GPa) = 56.42254 96.53598 76.47926
# Shear Modulus (GPa) = 38.21856 48.70330 43.46093
#
# Velocity S-wave (km/s) = 3.63747 4.10621 3.87892
# Velocity P-wave (km/s) = 6.09712 7.47675 6.82190
#
# Compressibility (1/GPa) = 0.01772341
#
# Stress axis : x y z
#
# Youngs Moduli (GPa) = 59.62982 153.68758 131.56177
#
# Poissons Ratio (x) = 0.87837 -0.31001
# Poissons Ratio (y) = 0.34080 0.42341
# Poissons Ratio (z) = -0.14051 0.49461
#
# Static dielectric constant tensor:
#      x y z
#    x 6.145640 0.000000 -0.235370 
#    y 0.000000 6.175590 0.000000 
#    z -0.235370 0.000000 5.820620 
# 
# 
# High freq. dielectric constant tensor:
#      x y z
#    x 2.244680 0.000000 -0.028510 
#    y 0.000000 2.197720 0.000000 
#    z -0.028510 0.000000 2.166270 
# 
# From -- ./inp_files/31295.got.cif
#   From: 2010.06.25/outbox.cif.g09.slc.cpg/sg13_16_cif.got.tgz:31295.got - 2010.06.28 04:50:58.
