data_PCOD8120739
_publ_section_title
;
Structure prediction by ZEFSAII (Michael W. Deem and Ramdas Pophale) SiO2 
 PCOD8120739
Probable space group: P 2/C
;
_chemical_formula_sum "Si O2"
_cell_formula_units_Z 22
_cell_length_a 8.977336
_cell_length_b 7.501569
_cell_length_c 15.978348
_cell_angle_alpha 90.000000
_cell_angle_beta 103.096377
_cell_angle_gamma 90.000000
_cell_volume 1048.059875
_symmetry_space_group_name_H-M "P 2/C"
_symmetry_group_IT_number 13
_symmetry_cell_setting 'monoclinic'
loop_
_space_group_symop_operation_xyz
x,y,z
-x,y,1/2-z
-x,-y,-z
x,-y,1/2+z
loop_
_atom_site_type_symbol
_atom_site_label
_atom_site_fract_x
_atom_site_fract_y
_atom_site_fract_z
Si Si1 0.759820 0.771984 0.325459
Si Si2 0.198096 0.162055 0.131859
Si Si3 0.000000 0.674967 0.750000
Si Si4 0.440820 0.539616 0.651570
Si Si5 0.246956 0.418691 0.851019
Si Si6 0.050879 0.314578 0.965326
O O1 0.645374 0.649711 0.363869
O O2 0.745385 0.720709 0.225588
O O3 0.930678 0.747357 0.380341
O O4 0.716166 0.976479 0.338960
O O5 0.323088 0.304172 0.114781
O O6 0.110113 0.208523 0.205886
O O7 0.074445 0.164316 0.040313
O O8 0.109056 0.556533 0.821115
O O9 0.500000 0.587528 0.750000
O O10 0.592270 0.522632 0.613727
O O11 0.210788 0.325642 0.934523
O O12 0.000000 0.500000 0.000000
#
# Coordination Sequence:
#
# PCOD8120739 Si02
#       6
#     4   4   2   4   4   4
#     4  11  23  43  64  93 131 165 210 260 310 374
#     4  12  25  40  67  96 126 164 213 263 311 369
#     4  12  20  40  66  92 118 170 212 252 312 370
#     4  10  21  42  64  91 127 169 209 252 315 375
#     4  11  21  42  69  90 126 171 210 254 319 373
#     4  12  21  42  67  92 129 167 209 264 311 367
#
# _framework density 20.991166
#
# number of rings (size 3 to 8) (size 9 to 14) (size 15 to 20)
#    0.000    0.727    9.091    0.545    2.545    2.909 
#    0.000    0.909    0.000    0.000    0.000    0.000 
#    0.000    0.000    0.000    0.000    0.000    0.000 
#
# Total GULP energy -272686.877905 kJ/mol
# GULP energy per Si atom -12394.858087 kJ/mol
# Density = 2.094339 g / cm^3
# Si number density = 20.991166 Si / 1000 Ang^3
#
#
#
# Elastic Constant Matrix: (Units=GPa)
#
#
# Indices 1 2 3 4 5 6 
#
# 1 111.9311 29.3284 18.4460 0.0000 -4.5255 0.0000
# 2 29.3284 128.3492 22.2870 0.0000 0.2656 0.0000
# 3 18.4460 22.2870 69.4015 0.0000 -4.4655 0.0000
# 4 0.0000 0.0000 0.0000 19.4923 0.0000 4.7269
# 5 -4.5255 0.2656 -4.4655 0.0000 22.1866 0.0000
# 6 0.0000 0.0000 0.0000 4.7269 0.0000 7.5798
#
#
#
# Elastic Compliance Matrix: (Units=1/GPa)
#
#
# Indices 1 2 3 4 5 6 
#
# 1 0.009814 -0.001918 -0.001887 0.000000 0.001645 0.000000
# 2 -0.001918 0.008635 -0.002325 0.000000 -0.000963 0.000000
# 3 -0.001887 -0.002325 0.015839 0.000000 0.002831 0.000000
# 4 0.000000 0.000000 0.000000 0.060443 0.000000 -0.037694
# 5 0.001645 -0.000963 0.002831 0.000000 0.045989 0.000000
# 6 0.000000 0.000000 0.000000 -0.037694 0.000000 0.155437
#
#
# Mechanical properties :
#
#
# Convention : Reuss Voigt Hill
#
# Bulk Modulus (GPa) = 45.39582 49.97830 47.68706
# Shear Modulus (GPa) = 15.83478 25.82644 20.83061
#
# Velocity S-wave (km/s) = 2.74953 3.51144 3.15358
# Velocity P-wave (km/s) = 5.63498 6.34832 6.00226
#
# Compressibility (1/GPa) = 0.02202846
#
# Stress axis : x y z
#
# Youngs Moduli (GPa) = 101.89382 115.80308 63.13467
#
# Poissons Ratio (x) = 0.22216 0.11911
# Poissons Ratio (y) = 0.19547 0.14680
# Poissons Ratio (z) = 0.19223 0.26926
#
# Static dielectric constant tensor:
#      x y z
#    x 4.338550 0.000000 0.111800 
#    y 0.000000 3.727250 0.000000 
#    z 0.111800 0.000000 3.823440 
# 
# 
# High freq. dielectric constant tensor:
#      x y z
#    x 1.829440 0.000000 0.005290 
#    y 0.000000 1.801200 0.000000 
#    z 0.005290 0.000000 1.822740 
# 
# From -- ./inp_files/62988.got.cif
#   From: 2010.06.25/outbox.cif.g09.slc.cpg/sg13_32_cif.got.tgz:62988.got - 2010.06.28 04:50:58.
