data_PCOD8120654
_publ_section_title
;
Structure prediction by ZEFSAII (Michael W. Deem and Ramdas Pophale) SiO2 
 PCOD8120654
Probable space group: P 2/C
;
_chemical_formula_sum "Si O2"
_cell_formula_units_Z 26
_cell_length_a 20.633189
_cell_length_b 6.814838
_cell_length_c 29.891509
_cell_angle_alpha 90.000000
_cell_angle_beta 164.589262
_cell_angle_gamma 90.000000
_cell_volume 1116.918358
_symmetry_space_group_name_H-M "P 2/C"
_symmetry_group_IT_number 13
_symmetry_cell_setting 'monoclinic'
loop_
_space_group_symop_operation_xyz
x,y,z
-x,y,1/2-z
-x,-y,-z
x,-y,1/2+z
loop_
_atom_site_type_symbol
_atom_site_label
_atom_site_fract_x
_atom_site_fract_y
_atom_site_fract_z
Si Si1 0.232743 0.959185 0.802349
Si Si2 0.579951 0.983223 0.168839
Si Si3 0.107439 0.237853 0.868482
Si Si4 0.764133 0.592780 0.285376
Si Si5 0.228240 0.267809 0.142639
Si Si6 0.049163 0.432181 0.396095
Si Si7 0.500000 0.503952 0.750000
O O1 0.101361 0.749700 0.724894
O O2 0.245341 0.971053 0.757196
O O3 0.067979 0.122065 0.715224
O O4 0.500000 0.000000 0.000000
O O5 0.536909 0.746207 0.137312
O O6 0.720522 0.043636 0.308508
O O7 0.327970 0.097650 0.001075
O O8 0.166451 0.438894 0.934158
O O9 0.000000 0.306003 0.750000
O O10 0.704005 0.383038 0.266073
O O11 0.955373 0.702954 0.445104
O O12 0.858797 0.564963 0.297945
O O13 0.412801 0.343181 0.228729
O O14 0.277464 0.372282 0.581329
#
# Coordination Sequence:
#
# PCOD8120654 Si02
#       7
#     4   4   4   4   4   4   2
#     4  12  27  49  71 103 144 191 251 303 360 445
#     4  12  23  44  70 101 146 187 243 304 359 434
#     4  12  27  47  70 108 144 191 252 305 369 434
#     4  10  22  40  69 100 141 192 237 287 369 435
#     4  10  21  41  64 103 143 190 234 294 362 441
#     4  11  24  47  73 104 149 193 244 309 375 437
#     4  10  22  42  70 110 150 182 244 308 374 452
#
# _framework density 23.278333
#
# number of rings (size 3 to 8) (size 9 to 14) (size 15 to 20)
#    0.000    0.923    6.154    0.462    2.154    1.231 
#    2.769    1.538    0.000    0.000    0.000    0.000 
#    0.000    0.000    0.000    0.000    0.000    0.000 
#
# Total GULP energy -322115.191115 kJ/mol
# GULP energy per Si atom -12389.045812 kJ/mol
# Density = 2.322535 g / cm^3
# Si number density = 23.278333 Si / 1000 Ang^3
#
#
#
# Elastic Constant Matrix: (Units=GPa)
#
#
# Indices 1 2 3 4 5 6 
#
# 1 110.3092 16.1245 22.3303 0.0000 -1.4498 0.0000
# 2 16.1245 91.3719 36.3535 0.0000 -4.3245 0.0000
# 3 22.3303 36.3535 96.5867 0.0000 -4.4865 0.0000
# 4 0.0000 0.0000 0.0000 39.6618 0.0000 2.9258
# 5 -1.4498 -4.3245 -4.4865 0.0000 35.7663 0.0000
# 6 0.0000 0.0000 0.0000 2.9258 0.0000 14.4788
#
#
#
# Elastic Compliance Matrix: (Units=1/GPa)
#
#
# Indices 1 2 3 4 5 6 
#
# 1 0.009580 -0.000951 -0.001855 0.000000 0.000041 0.000000
# 2 -0.000951 0.012999 -0.004628 0.000000 0.000953 0.000000
# 3 -0.001855 -0.004628 0.012568 0.000000 0.000942 0.000000
# 4 0.000000 0.000000 0.000000 0.025595 0.000000 -0.005172
# 5 0.000041 0.000953 0.000942 0.000000 0.028194 0.000000
# 6 0.000000 0.000000 0.000000 -0.005172 0.000000 0.070112
#
#
# Mechanical properties :
#
#
# Convention : Reuss Voigt Hill
#
# Bulk Modulus (GPa) = 49.31306 49.76493 49.53900
# Shear Modulus (GPa) = 27.67383 32.87866 30.27624
#
# Velocity S-wave (km/s) = 3.45167 3.76229 3.61032
# Velocity P-wave (km/s) = 6.09225 6.34805 6.22146
#
# Compressibility (1/GPa) = 0.02027860
#
# Stress axis : x y z
#
# Youngs Moduli (GPa) = 104.37877 76.93134 79.56642
#
# Poissons Ratio (x) = 0.07313 0.14762
# Poissons Ratio (y) = 0.09922 0.36827
# Poissons Ratio (z) = 0.19365 0.35607
#
# Static dielectric constant tensor:
#      x y z
#    x 4.722130 0.000000 0.197110 
#    y 0.000000 4.252740 0.000000 
#    z 0.197110 0.000000 4.277020 
# 
# 
# High freq. dielectric constant tensor:
#      x y z
#    x 1.935700 0.000000 0.005110 
#    y 0.000000 1.914710 0.000000 
#    z 0.005110 0.000000 1.910450 
# 
# From -- ./inp_files/97472.got.cif
#   From: 2010.06.25/outbox.cif.g09.slc.cpg/sg13_49_cif.got.tgz:97472.got - 2010.06.28 04:50:58.
