data_PCOD8120860
_publ_section_title
;
Structure prediction by ZEFSAII (Michael W. Deem and Ramdas Pophale) SiO2 
 PCOD8120860
Probable space group: P 2/C
;
_chemical_formula_sum "Si O2"
_cell_formula_units_Z 22
_cell_length_a 5.663042
_cell_length_b 6.835122
_cell_length_c 26.428694
_cell_angle_alpha 90.000000
_cell_angle_beta 73.932709
_cell_angle_gamma 90.000000
_cell_volume 983.030091
_symmetry_space_group_name_H-M "P 2/C"
_symmetry_group_IT_number 13
_symmetry_cell_setting 'monoclinic'
loop_
_space_group_symop_operation_xyz
x,y,z
-x,y,1/2-z
-x,-y,-z
x,-y,1/2+z
loop_
_atom_site_type_symbol
_atom_site_label
_atom_site_fract_x
_atom_site_fract_y
_atom_site_fract_z
Si Si1 0.782778 0.769963 0.114179
Si Si2 0.146762 0.101362 0.079067
Si Si3 0.734031 0.388538 0.511767
Si Si4 0.424025 0.088331 0.159728
Si Si5 0.000000 0.802364 0.750000
Si Si6 0.195755 0.623966 0.836456
O O1 0.612639 0.912468 0.157873
O O2 0.851382 0.602982 0.150119
O O3 0.652251 0.669696 0.073374
O O4 0.022204 0.888040 0.080367
O O5 0.231476 0.184788 0.020226
O O6 0.964886 0.256249 0.114453
O O7 0.378747 0.083039 0.102329
O O8 0.500000 0.500000 0.500000
O O9 0.000000 0.500000 0.500000
O O10 0.183781 0.054226 0.208473
O O11 0.526745 0.301687 0.169855
O O12 0.867174 0.661877 0.717979
#
# Coordination Sequence:
#
# PCOD8120860 Si02
#       6
#     4   4   4   4   2   4
#     4  11  24  42  71 101 140 182 238 288 358 422
#     4  10  23  42  67 100 140 179 232 285 350 417
#     4  12  26  44  74 105 150 196 239 284 357 428
#     4  10  23  42  68  96 132 180 231 298 352 430
#     4  10  22  44  68  90 136 172 232 294 374 418
#     4  10  21  44  66  94 131 177 225 291 356 426
#
# _framework density 22.379784000000001
#
# number of rings (size 3 to 8) (size 9 to 14) (size 15 to 20)
#    0.000    1.455    1.818    2.182    5.091    3.636 
#    0.000   21.818    0.000    0.000    0.000    0.000 
#    0.000    0.000    0.000    0.000    0.000    0.000 
#
# Total GULP energy -272704.628748 kJ/mol
# GULP energy per Si atom -12395.664943 kJ/mol
# Density = 2.232885 g / cm^3
# Si number density = 22.379784 Si / 1000 Ang^3
#
#
#
# Elastic Constant Matrix: (Units=GPa)
#
#
# Indices 1 2 3 4 5 6 
#
# 1 109.2787 42.3239 18.9666 0.0000 17.1641 0.0000
# 2 42.3239 127.6847 28.2278 0.0000 6.6970 0.0000
# 3 18.9666 28.2278 95.3493 0.0000 18.6189 0.0000
# 4 0.0000 0.0000 0.0000 29.3414 0.0000 -1.2655
# 5 17.1641 6.6970 18.6189 0.0000 38.2550 0.0000
# 6 0.0000 0.0000 0.0000 -1.2655 0.0000 23.1939
#
#
#
# Elastic Compliance Matrix: (Units=1/GPa)
#
#
# Indices 1 2 3 4 5 6 
#
# 1 0.011204 -0.003404 -0.000393 0.000000 -0.004240 0.000000
# 2 -0.003404 0.009418 -0.002306 0.000000 0.001001 0.000000
# 3 -0.000393 -0.002306 0.012305 0.000000 -0.005409 0.000000
# 4 0.000000 0.000000 0.000000 0.034162 0.000000 0.001864
# 5 -0.004240 0.001001 -0.005409 0.000000 0.030500 0.000000
# 6 0.000000 0.000000 0.000000 0.001864 0.000000 0.043216
#
#
# Mechanical properties :
#
#
# Convention : Reuss Voigt Hill
#
# Bulk Modulus (GPa) = 48.26556 56.81659 52.54107
# Shear Modulus (GPa) = 31.26606 34.34435 32.80520
#
# Velocity S-wave (km/s) = 3.74179 3.92167 3.83278
# Velocity P-wave (km/s) = 6.34676 6.77853 6.56620
#
# Compressibility (1/GPa) = 0.02071871
#
# Stress axis : x y z
#
# Youngs Moduli (GPa) = 89.25749 106.18375 81.26859
#
# Poissons Ratio (x) = 0.36150 0.03193
# Poissons Ratio (y) = 0.30387 0.18744
# Poissons Ratio (z) = 0.03506 0.24490
#
# Static dielectric constant tensor:
#      x y z
#    x 4.431550 0.000000 0.059280 
#    y 0.000000 3.989590 0.000000 
#    z 0.059280 0.000000 3.991750 
# 
# 
# High freq. dielectric constant tensor:
#      x y z
#    x 1.886610 0.000000 0.007920 
#    y 0.000000 1.871280 0.000000 
#    z 0.007920 0.000000 1.884630 
# 
# From -- ./inp_files/94568.got.cif
#   From: 2010.06.25/outbox.cif.g09.slc.cpg/sg13_48_cif.got.tgz:94568.got - 2010.06.28 04:50:58.
