data_PCOD8120225
_publ_section_title
;
Structure prediction by ZEFSAII (Michael W. Deem and Ramdas Pophale) SiO2 
 PCOD8120225
Probable space group: P 2/C
;
_chemical_formula_sum "Si O2"
_cell_formula_units_Z 24
_cell_length_a 15.469275
_cell_length_b 8.811633
_cell_length_c 17.574406
_cell_angle_alpha 90.000000
_cell_angle_beta 149.722207
_cell_angle_gamma 90.000000
_cell_volume 1207.824352
_symmetry_space_group_name_H-M "P 2/C"
_symmetry_group_IT_number 13
_symmetry_cell_setting 'monoclinic'
loop_
_space_group_symop_operation_xyz
x,y,z
-x,y,1/2-z
-x,-y,-z
x,-y,1/2+z
loop_
_atom_site_type_symbol
_atom_site_label
_atom_site_fract_x
_atom_site_fract_y
_atom_site_fract_z
Si Si1 0.488268 0.044906 0.079446
Si Si2 0.148540 0.583689 0.568946
Si Si3 0.160437 0.060404 0.077423
Si Si4 0.825063 0.093579 0.070933
Si Si5 0.833393 0.562958 0.573105
Si Si6 0.516428 0.629159 0.853163
O O1 0.666066 0.995479 0.253634
O O2 0.456427 0.223023 0.073277
O O3 0.500000 0.000000 0.000000
O O4 0.332293 0.950536 0.995295
O O5 0.141197 0.761996 0.572413
O O6 0.117275 0.540987 0.459107
O O7 0.341278 0.539324 0.742765
O O8 0.000000 0.500000 0.500000
O O9 0.159847 0.017257 0.988881
O O10 0.000000 0.000000 0.000000
O O11 0.791366 0.264992 0.016797
O O12 0.000000 0.079522 0.250000
O O13 0.668770 0.487250 0.488396
O O14 0.000000 0.560914 0.750000
O O15 0.500000 0.674062 0.750000
#
# Coordination Sequence:
#
# PCOD8120225 Si02
#       6
#     4   4   4   4   4   4
#     4  11  23  39  60  88 119 154 197 245 294 351
#     4  10  21  38  60  85 116 150 191 240 289 348
#     4  11  23  39  62  90 119 156 197 241 295 353
#     4  11  23  40  60  88 122 155 197 246 290 348
#     4  10  22  38  59  85 115 152 194 240 292 346
#     4   9  20  40  60  82 115 155 194 240 293 350
#
# _framework density 19.870438
#
# number of rings (size 3 to 8) (size 9 to 14) (size 15 to 20)
#    0.000    1.667    0.000    5.500    0.000   13.333 
#    0.000    1.667    0.000    0.000    0.000    0.000 
#    0.000    0.000    0.000    0.000    0.000    0.000 
#
# Total GULP energy -297504.549772 kJ/mol
# GULP energy per Si atom -12396.022907 kJ/mol
# Density = 1.982521 g / cm^3
# Si number density = 19.870438 Si / 1000 Ang^3
#
#
#
# Elastic Constant Matrix: (Units=GPa)
#
#
# Indices 1 2 3 4 5 6 
#
# 1 127.9340 37.1364 62.3352 0.0000 23.6674 0.0000
# 2 37.1364 73.4577 61.2770 0.0000 12.2716 0.0000
# 3 62.3352 61.2770 125.6238 0.0000 25.5736 0.0000
# 4 0.0000 0.0000 0.0000 32.3369 0.0000 5.8049
# 5 23.6674 12.2716 25.5736 0.0000 43.2861 0.0000
# 6 0.0000 0.0000 0.0000 5.8049 0.0000 39.4861
#
#
#
# Elastic Compliance Matrix: (Units=1/GPa)
#
#
# Indices 1 2 3 4 5 6 
#
# 1 0.010778 -0.001680 -0.003895 0.000000 -0.003116 0.000000
# 2 -0.001680 0.023215 -0.010614 0.000000 0.000608 0.000000
# 3 -0.003895 -0.010614 0.015941 0.000000 -0.004280 0.000000
# 4 0.000000 0.000000 0.000000 0.031763 0.000000 -0.004669
# 5 -0.003116 0.000608 -0.004280 0.000000 0.027162 0.000000
# 6 0.000000 0.000000 0.000000 -0.004669 0.000000 0.026012
#
#
# Mechanical properties :
#
#
# Convention : Reuss Voigt Hill
#
# Bulk Modulus (GPa) = 56.95424 72.05700 64.50562
# Shear Modulus (GPa) = 28.88500 34.10629 31.49565
#
# Velocity S-wave (km/s) = 3.81683 4.14748 3.98559
# Velocity P-wave (km/s) = 6.93897 7.69920 7.32895
#
# Compressibility (1/GPa) = 0.01755796
#
# Stress axis : x y z
#
# Youngs Moduli (GPa) = 92.78044 43.07563 62.72967
#
# Poissons Ratio (x) = 0.07235 0.24431
# Poissons Ratio (y) = 0.15583 0.66582
# Poissons Ratio (z) = 0.36134 0.45721
#
# Static dielectric constant tensor:
#      x y z
#    x 3.764030 0.000000 0.360020 
#    y 0.000000 3.708770 0.000000 
#    z 0.360020 0.000000 3.916990 
# 
# 
# High freq. dielectric constant tensor:
#      x y z
#    x 1.779120 0.000000 0.019990 
#    y 0.000000 1.780340 0.000000 
#    z 0.019990 0.000000 1.790450 
# 
# From -- ./inp_files/68103.got.cif
#   From: 2010.06.25/outbox.cif.g09.slc.cpg/sg13_35_cif.got.tgz:68103.got - 2010.06.28 04:50:58.
