data_PCOD8120937
_publ_section_title
;
Structure prediction by ZEFSAII (Michael W. Deem and Ramdas Pophale) SiO2 
 PCOD8120937
Probable space group: P 2/C
;
_chemical_formula_sum "Si O2"
_cell_formula_units_Z 30
_cell_length_a 10.785286
_cell_length_b 9.516385
_cell_length_c 14.095549
_cell_angle_alpha 90.000000
_cell_angle_beta 112.466482
_cell_angle_gamma 90.000000
_cell_volume 1336.922278
_symmetry_space_group_name_H-M "P 2/C"
_symmetry_group_IT_number 13
_symmetry_cell_setting 'monoclinic'
loop_
_space_group_symop_operation_xyz
x,y,z
-x,y,1/2-z
-x,-y,-z
x,-y,1/2+z
loop_
_atom_site_type_symbol
_atom_site_label
_atom_site_fract_x
_atom_site_fract_y
_atom_site_fract_z
Si Si1 0.284358 0.336858 0.516541
Si Si2 0.853781 0.857148 0.901563
Si Si3 0.000000 0.752527 0.250000
Si Si4 0.192048 0.475540 0.820952
Si Si5 0.563747 0.299481 0.665894
Si Si6 0.861670 0.069103 0.064280
Si Si7 0.769938 0.055264 0.729533
Si Si8 0.133127 0.461142 0.097152
O O1 0.214988 0.400128 0.402012
O O2 0.444096 0.315732 0.553983
O O3 0.224388 0.183295 0.518564
O O4 0.250600 0.434207 0.597314
O O5 0.813605 0.696134 0.905992
O O6 0.990555 0.866035 0.880371
O O7 0.745497 0.947078 0.809208
O O8 0.869043 0.923234 0.009797
O O9 0.895905 0.653330 0.159527
O O10 0.905168 0.849795 0.289169
O O11 0.336652 0.425486 0.828443
O O12 0.108814 0.524826 0.703232
O O13 0.500000 0.316394 0.750000
O O14 0.637791 0.149582 0.678862
O O15 0.791567 0.038095 0.142992
O O16 0.000000 0.500000 0.000000
#
# Coordination Sequence:
#
# PCOD8120937 Si02
#       8
#     4   4   2   4   4   4   4   4
#     4  12  25  45  69 102 141 188 245 287 359 431
#     4  11  24  40  67 105 141 180 231 292 368 419
#     4  10  22  36  70 102 134 176 236 286 364 416
#     4  11  25  41  70 101 141 181 235 300 358 421
#     4  11  24  46  73  97 139 196 240 290 351 435
#     4  11  24  40  69 100 140 180 227 296 354 428
#     4  11  23  43  71 100 144 185 236 298 359 423
#     4  12  25  41  70 107 143 182 229 300 364 426
#
# _framework density 22.439602000000001
#
# number of rings (size 3 to 8) (size 9 to 14) (size 15 to 20)
#    0.000    0.800    4.000    2.800    7.467    0.533 
#    0.000    0.000    5.867    0.000    0.000    0.000 
#    0.000    0.000    0.000    0.000    0.000    0.000 
#
# Total GULP energy -371972.492218 kJ/mol
# GULP energy per Si atom -12399.083074 kJ/mol
# Density = 2.238853 g / cm^3
# Si number density = 22.439602 Si / 1000 Ang^3
#
#
#
# Elastic Constant Matrix: (Units=GPa)
#
#
# Indices 1 2 3 4 5 6 
#
# 1 73.9633 30.3921 10.4754 0.0000 11.5568 0.0000
# 2 30.3921 133.1908 29.4101 0.0000 10.4946 0.0000
# 3 10.4754 29.4101 97.5292 0.0000 5.7035 0.0000
# 4 0.0000 0.0000 0.0000 35.0593 0.0000 0.7146
# 5 11.5568 10.4946 5.7035 0.0000 34.8730 0.0000
# 6 0.0000 0.0000 0.0000 0.7146 0.0000 33.5135
#
#
#
# Elastic Compliance Matrix: (Units=1/GPa)
#
#
# Indices 1 2 3 4 5 6 
#
# 1 0.015510 -0.003106 -0.000488 0.000000 -0.004125 0.000000
# 2 -0.003106 0.008813 -0.002250 0.000000 -0.001255 0.000000
# 3 -0.000488 -0.002250 0.011041 0.000000 -0.000967 0.000000
# 4 0.000000 0.000000 0.000000 0.028536 0.000000 -0.000608
# 5 -0.004125 -0.001255 -0.000967 0.000000 0.030578 0.000000
# 6 0.000000 0.000000 0.000000 -0.000608 0.000000 0.029852
#
#
# Mechanical properties :
#
#
# Convention : Reuss Voigt Hill
#
# Bulk Modulus (GPa) = 42.23985 49.47093 45.85539
# Shear Modulus (GPa) = 34.74380 36.31619 35.53000
#
# Velocity S-wave (km/s) = 3.93915 4.02730 3.98346
# Velocity P-wave (km/s) = 6.28918 6.61208 6.45265
#
# Compressibility (1/GPa) = 0.02367433
#
# Stress axis : x y z
#
# Youngs Moduli (GPa) = 64.47291 113.47335 90.57226
#
# Poissons Ratio (x) = 0.35250 0.04419
# Poissons Ratio (y) = 0.20028 0.20383
# Poissons Ratio (z) = 0.03146 0.25537
#
# Static dielectric constant tensor:
#      x y z
#    x 4.084520 0.000000 0.079700 
#    y 0.000000 4.234810 0.000000 
#    z 0.079700 0.000000 3.901420 
# 
# 
# High freq. dielectric constant tensor:
#      x y z
#    x 1.870120 0.000000 -0.001840 
#    y 0.000000 1.895980 0.000000 
#    z -0.001840 0.000000 1.878270 
# 
# From -- ./inp_files/50402.got.cif
#   From: 2010.06.25/outbox.cif.g09.slc.cpg/sg13_26_cif.got.tgz:50402.got - 2010.06.28 04:50:58.
