data_PCOD8120162
_publ_section_title
;
Structure prediction by ZEFSAII (Michael W. Deem and Ramdas Pophale) SiO2 
 PCOD8120162
Probable space group: P 2/C
;
_chemical_formula_sum "Si O2"
_cell_formula_units_Z 26
_cell_length_a 22.319731
_cell_length_b 7.227201
_cell_length_c 17.011130
_cell_angle_alpha 90.000000
_cell_angle_beta 21.533627
_cell_angle_gamma 90.000000
_cell_volume 1007.196483
_symmetry_space_group_name_H-M "P 2/C"
_symmetry_group_IT_number 13
_symmetry_cell_setting 'monoclinic'
loop_
_space_group_symop_operation_xyz
x,y,z
-x,y,1/2-z
-x,-y,-z
x,-y,1/2+z
loop_
_atom_site_type_symbol
_atom_site_label
_atom_site_fract_x
_atom_site_fract_y
_atom_site_fract_z
Si Si1 0.694950 0.992657 0.273120
Si Si2 0.154062 0.047740 0.259232
Si Si3 0.001617 0.777862 0.340410
Si Si4 0.736821 0.420279 0.727902
Si Si5 0.418005 0.304443 0.184838
Si Si6 0.500000 0.383960 0.250000
Si Si7 0.829137 0.529911 0.779121
O O1 0.688131 0.010226 0.377169
O O2 0.546822 0.106351 0.405987
O O3 0.749266 0.788082 0.177915
O O4 0.832294 0.134702 0.075023
O O5 0.138122 0.254607 0.248299
O O6 0.154046 0.904137 0.186364
O O7 0.000000 0.000000 0.500000
O O8 0.033357 0.571139 0.335304
O O9 0.000000 0.775967 0.250000
O O10 0.741040 0.575952 0.652482
O O11 0.859574 0.463862 0.650869
O O12 0.565429 0.439924 0.983440
O O13 0.416013 0.266051 0.280954
O O14 0.354191 0.503340 0.464583
#
# Coordination Sequence:
#
# PCOD8120162 Si02
#       7
#     4   4   4   4   4   2   4
#     4  11  21  39  65  95 124 169 220 265 323 380
#     4  10  23  40  65  98 128 169 224 270 325 386
#     4  11  25  41  63  97 134 170 215 270 336 394
#     4  10  21  37  66  93 124 167 219 271 308 387
#     4  10  21  40  61  94 127 166 217 262 328 380
#     4  10  24  42  66  96 132 178 206 270 342 402
#     4  11  22  44  66  93 136 171 220 270 333 395
#
# _framework density 25.814228
#
# number of rings (size 3 to 8) (size 9 to 14) (size 15 to 20)
#    0.000    1.538    3.077    1.385    0.000    6.769 
#    0.000    1.538    0.000    0.000    0.000    0.000 
#    0.000    0.000    0.000    0.000    0.000    0.000 
#
# Total GULP energy -322196.991486 kJ/mol
# GULP energy per Si atom -12392.191980 kJ/mol
# Density = 2.575547 g / cm^3
# Si number density = 25.814228 Si / 1000 Ang^3
#
#
#
# Elastic Constant Matrix: (Units=GPa)
#
#
# Indices 1 2 3 4 5 6 
#
# 1 264.5480 93.3380 32.5317 0.0000 15.3812 0.0000
# 2 93.3380 202.4110 12.2589 0.0000 17.0013 0.0000
# 3 32.5317 12.2589 52.2508 0.0000 4.9495 0.0000
# 4 0.0000 0.0000 0.0000 28.3376 0.0000 -6.1167
# 5 15.3812 17.0013 4.9495 0.0000 37.8873 0.0000
# 6 0.0000 0.0000 0.0000 -6.1167 0.0000 33.7022
#
#
#
# Elastic Compliance Matrix: (Units=1/GPa)
#
#
# Indices 1 2 3 4 5 6 
#
# 1 0.004839 -0.002020 -0.002469 0.000000 -0.000735 0.000000
# 2 -0.002020 0.006029 0.000022 0.000000 -0.001888 0.000000
# 3 -0.002469 0.000022 0.020834 0.000000 -0.001729 0.000000
# 4 0.000000 0.000000 0.000000 0.036728 0.000000 0.006666
# 5 -0.000735 -0.001888 -0.001729 0.000000 0.027766 0.000000
# 6 0.000000 0.000000 0.000000 0.006666 0.000000 0.030881
#
#
# Mechanical properties :
#
#
# Convention : Reuss Voigt Hill
#
# Bulk Modulus (GPa) = 43.92095 88.38523 66.15309
# Shear Modulus (GPa) = 34.81844 45.39085 40.10464
#
# Velocity S-wave (km/s) = 3.67660 4.19784 3.94583
# Velocity P-wave (km/s) = 5.92236 7.60323 6.81481
#
# Compressibility (1/GPa) = 0.02276818
#
# Stress axis : x y z
#
# Youngs Moduli (GPa) = 206.64557 165.85732 47.99740
#
# Poissons Ratio (x) = 0.33506 0.11852
# Poissons Ratio (y) = 0.41746 -0.00106
# Poissons Ratio (z) = 0.51027 -0.00366
#
# Static dielectric constant tensor:
#      x y z
#    x 6.676690 0.000000 -0.634060 
#    y 0.000000 5.002340 0.000000 
#    z -0.634060 0.000000 4.687630 
# 
# 
# High freq. dielectric constant tensor:
#      x y z
#    x 2.057360 0.000000 -0.043600 
#    y 0.000000 2.040870 0.000000 
#    z -0.043600 0.000000 2.035030 
# 
# From -- ./inp_files/70884.got.cif
#   From: 2010.06.25/outbox.cif.g09.slc.cpg/sg13_36_cif.got.tgz:70884.got - 2010.06.28 04:50:58.
