data_PCOD8120246
_publ_section_title
;
Structure prediction by ZEFSAII (Michael W. Deem and Ramdas Pophale) SiO2 
 PCOD8120246
Probable space group: P 2/C
;
_chemical_formula_sum "Si O2"
_cell_formula_units_Z 30
_cell_length_a 14.764052
_cell_length_b 16.933987
_cell_length_c 12.466002
_cell_angle_alpha 90.000000
_cell_angle_beta 150.629820
_cell_angle_gamma 90.000000
_cell_volume 1528.575687
_symmetry_space_group_name_H-M "P 2/C"
_symmetry_group_IT_number 13
_symmetry_cell_setting 'monoclinic'
loop_
_space_group_symop_operation_xyz
x,y,z
-x,y,1/2-z
-x,-y,-z
x,-y,1/2+z
loop_
_atom_site_type_symbol
_atom_site_label
_atom_site_fract_x
_atom_site_fract_y
_atom_site_fract_z
Si Si1 0.500000 0.307745 0.750000
Si Si2 0.813416 0.653657 0.865532
Si Si3 0.494635 0.923845 0.567908
Si Si4 0.182614 0.723140 0.319430
Si Si5 0.293120 0.565416 0.544497
Si Si6 0.531379 0.759245 0.057939
Si Si7 0.789788 0.889501 0.052262
Si Si8 0.848565 0.593971 0.674077
O O1 0.438482 0.252174 0.784446
O O2 0.341040 0.365148 0.549019
O O3 0.763086 0.579891 0.890024
O O4 0.634227 0.705889 0.657935
O O5 0.901626 0.614221 0.850767
O O6 0.964602 0.710028 0.077756
O O7 0.510168 0.850658 0.503415
O O8 0.302218 0.926923 0.435850
O O9 0.500000 0.000000 0.500000
O O10 0.670031 0.916899 0.827459
O O11 0.278680 0.647314 0.468123
O O12 0.277977 0.737703 0.303747
O O13 0.215384 0.794857 0.436192
O O14 0.500000 0.533289 0.750000
O O15 0.163118 0.500371 0.355099
O O16 0.000000 0.919223 0.250000
O O17 0.000000 0.629548 0.750000
#
# Coordination Sequence:
#
# PCOD8120246 Si02
#       8
#     2   4   4   4   4   4   4   4
#     4  10  22  38  56  80 110 156 198 240 288 350
#     4  11  23  39  61  85 113 155 199 249 297 348
#     4  10  22  38  61  92 124 156 190 235 298 357
#     4  11  21  37  63  88 113 149 198 249 296 341
#     4  12  23  37  57  84 117 150 195 246 303 352
#     4  10  21  38  61  84 116 151 194 243 288 352
#     4  10  21  38  63  90 121 155 196 245 288 348
#     4  11  24  40  56  79 116 155 200 246 298 355
#
# _framework density 19.626113
#
# number of rings (size 3 to 8) (size 9 to 14) (size 15 to 20)
#    0.000    1.333    2.000    4.400    1.867    5.333 
#    0.000    0.000    0.000    4.000    0.000    0.000 
#    0.000    0.000    0.000    0.000    0.000    0.000 
#
# Total GULP energy -372041.713097 kJ/mol
# GULP energy per Si atom -12401.390437 kJ/mol
# Density = 1.958144 g / cm^3
# Si number density = 19.626113 Si / 1000 Ang^3
#
#
#
# Elastic Constant Matrix: (Units=GPa)
#
#
# Indices 1 2 3 4 5 6 
#
# 1 128.7655 46.7843 30.8448 0.0000 -5.8769 0.0000
# 2 46.7843 105.1971 25.0175 0.0000 -15.7343 0.0000
# 3 30.8448 25.0175 72.5842 0.0000 -0.0423 0.0000
# 4 0.0000 0.0000 0.0000 39.1494 0.0000 -17.8893
# 5 -5.8769 -15.7343 -0.0423 0.0000 41.9043 0.0000
# 6 0.0000 0.0000 0.0000 -17.8893 0.0000 36.5705
#
#
#
# Elastic Compliance Matrix: (Units=1/GPa)
#
#
# Indices 1 2 3 4 5 6 
#
# 1 0.009792 -0.003667 -0.002897 0.000000 -0.000006 0.000000
# 2 -0.003667 0.012401 -0.002714 0.000000 0.004139 0.000000
# 3 -0.002897 -0.002714 0.015943 0.000000 -0.001409 0.000000
# 4 0.000000 0.000000 0.000000 0.032896 0.000000 0.016092
# 5 -0.000006 0.004139 -0.001409 0.000000 0.025416 0.000000
# 6 0.000000 0.000000 0.000000 0.016092 0.000000 0.035216
#
#
# Mechanical properties :
#
#
# Convention : Reuss Voigt Hill
#
# Bulk Modulus (GPa) = 51.07123 56.87112 53.97117
# Shear Modulus (GPa) = 31.89856 37.11820 34.50838
#
# Velocity S-wave (km/s) = 4.03589 4.35359 4.19774
# Velocity P-wave (km/s) = 6.91350 7.36965 7.14522
#
# Compressibility (1/GPa) = 0.01958050
#
# Stress axis : x y z
#
# Youngs Moduli (GPa) = 102.12387 80.63763 62.72412
#
# Poissons Ratio (x) = 0.29568 0.18173
# Poissons Ratio (y) = 0.37446 0.17021
# Poissons Ratio (z) = 0.29589 0.21882
#
# Static dielectric constant tensor:
#      x y z
#    x 3.929060 0.000000 -0.035830 
#    y 0.000000 3.367480 0.000000 
#    z -0.035830 0.000000 3.477870 
# 
# 
# High freq. dielectric constant tensor:
#      x y z
#    x 1.784670 0.000000 0.005970 
#    y 0.000000 1.747260 0.000000 
#    z 0.005970 0.000000 1.765150 
# 
# From -- ./inp_files/37662.got.cif
#   From: 2010.06.25/outbox.cif.g09.slc.cpg/sg13_19_cif.got.tgz:37662.got - 2010.06.28 04:50:58.
