data_PCOD8120488
_publ_section_title
;
Structure prediction by ZEFSAII (Michael W. Deem and Ramdas Pophale) SiO2 
 PCOD8120488
Probable space group: P 2/C
;
_chemical_formula_sum "Si O2"
_cell_formula_units_Z 32
_cell_length_a 12.380913
_cell_length_b 18.525082
_cell_length_c 15.885980
_cell_angle_alpha 90.000000
_cell_angle_beta 154.095400
_cell_angle_gamma 90.000000
_cell_volume 1591.779947
_symmetry_space_group_name_H-M "P 2/C"
_symmetry_group_IT_number 13
_symmetry_cell_setting 'monoclinic'
loop_
_space_group_symop_operation_xyz
x,y,z
-x,y,1/2-z
-x,-y,-z
x,-y,1/2+z
loop_
_atom_site_type_symbol
_atom_site_label
_atom_site_fract_x
_atom_site_fract_y
_atom_site_fract_z
Si Si1 0.135623 0.559950 0.762043
Si Si2 0.745165 0.621543 0.369122
Si Si3 0.715220 0.027171 0.214326
Si Si4 0.230212 0.250454 0.857088
Si Si5 0.760113 0.927826 0.396679
Si Si6 0.605736 0.828122 0.731909
Si Si7 0.680221 0.594536 0.133432
Si Si8 0.154232 0.219893 0.615437
O O1 0.199193 0.476035 0.823433
O O2 0.000000 0.591029 0.750000
O O3 0.962450 0.575209 0.562033
O O4 0.386382 0.601947 0.916137
O O5 0.500000 0.607171 0.250000
O O6 0.727222 0.588328 0.264943
O O7 0.797601 0.706668 0.400970
O O8 0.602960 0.093653 0.186940
O O9 0.991758 0.051956 0.373134
O O10 0.787942 0.960176 0.323342
O O11 0.500000 0.000000 0.000000
O O12 0.198445 0.336516 0.825990
O O13 0.264936 0.217969 0.787657
O O14 0.000000 0.219983 0.750000
O O15 0.467226 0.228964 0.076497
O O16 0.500000 0.957711 0.250000
O O17 0.733153 0.842113 0.364997
O O18 0.500000 0.838256 0.750000
O O19 0.867762 0.792399 0.927081
#
# Coordination Sequence:
#
# PCOD8120488 Si02
#       8
#     4   4   4   4   4   4   4   4
#     4  11  21  39  60  84 117 152 195 245 298 354
#     4  11  21  38  61  87 115 156 196 242 300 357
#     4  10  22  39  60  88 122 156 202 245 295 357
#     4  11  21  38  60  86 118 153 197 242 302 354
#     4  10  21  40  60  87 121 157 197 245 297 352
#     4  11  21  38  60  88 118 157 198 245 300 356
#     4  10  23  38  59  84 117 154 195 246 293 356
#     4  10  22  38  60  86 121 154 198 248 293 357
#
# _framework density 20.103280000000002
#
# number of rings (size 3 to 8) (size 9 to 14) (size 15 to 20)
#    0.000    1.500    2.500    3.000    0.000    0.500 
#    2.250    0.000    0.000    0.000    0.000    0.000 
#    0.000    0.000    0.000    0.000    0.000    0.000 
#
# Total GULP energy -396633.248419 kJ/mol
# GULP energy per Si atom -12394.789013 kJ/mol
# Density = 2.005752 g / cm^3
# Si number density = 20.103280 Si / 1000 Ang^3
#
#
#
# Elastic Constant Matrix: (Units=GPa)
#
#
# Indices 1 2 3 4 5 6 
#
# 1 70.4559 4.7836 42.6057 0.0000 9.1445 0.0000
# 2 4.7836 37.6815 24.2748 0.0000 -4.0760 0.0000
# 3 42.6057 24.2748 144.3309 0.0000 -1.6122 0.0000
# 4 0.0000 0.0000 0.0000 22.5656 0.0000 -7.6807
# 5 9.1445 -4.0760 -1.6122 0.0000 26.3242 0.0000
# 6 0.0000 0.0000 0.0000 -7.6807 0.0000 19.6562
#
#
#
# Elastic Compliance Matrix: (Units=1/GPa)
#
#
# Indices 1 2 3 4 5 6 
#
# 1 0.018406 0.000552 -0.005600 0.000000 -0.006651 0.000000
# 2 0.000552 0.030275 -0.005208 0.000000 0.004177 0.000000
# 3 -0.005600 -0.005208 0.009477 0.000000 0.001719 0.000000
# 4 0.000000 0.000000 0.000000 0.051113 0.000000 0.019973
# 5 -0.006651 0.004177 0.001719 0.000000 0.041051 0.000000
# 6 0.000000 0.000000 0.000000 0.019973 0.000000 0.058679
#
#
# Mechanical properties :
#
#
# Convention : Reuss Voigt Hill
#
# Bulk Modulus (GPa) = 26.56445 43.97737 35.27091
# Shear Modulus (GPa) = 20.65584 25.76280 23.20932
#
# Velocity S-wave (km/s) = 3.20892 3.58372 3.40149
# Velocity P-wave (km/s) = 5.19348 6.24878 5.74541
#
# Compressibility (1/GPa) = 0.03764430
#
# Stress axis : x y z
#
# Youngs Moduli (GPa) = 54.33093 33.03035 105.51999
#
# Poissons Ratio (x) = -0.01823 0.59095
# Poissons Ratio (y) = -0.02998 0.54956
# Poissons Ratio (z) = 0.30427 0.17203
#
# Static dielectric constant tensor:
#      x y z
#    x 3.548200 0.000000 0.082710 
#    y 0.000000 3.643430 0.000000 
#    z 0.082710 0.000000 3.846460 
# 
# 
# High freq. dielectric constant tensor:
#      x y z
#    x 1.778230 0.000000 0.008590 
#    y 0.000000 1.789610 0.000000 
#    z 0.008590 0.000000 1.797010 
# 
# From -- ./inp_files/51674.got.cif
#   From: 2010.06.25/outbox.cif.g09.slc.cpg/sg13_26_cif.got.tgz:51674.got - 2010.06.28 04:50:58.
