data_PCOD8120588
_publ_section_title
;
Structure prediction by ZEFSAII (Michael W. Deem and Ramdas Pophale) SiO2 
 PCOD8120588
Probable space group: P 2/C
;
_chemical_formula_sum "Si O2"
_cell_formula_units_Z 26
_cell_length_a 9.777146
_cell_length_b 8.001829
_cell_length_c 18.545492
_cell_angle_alpha 90.000000
_cell_angle_beta 139.610624
_cell_angle_gamma 90.000000
_cell_volume 940.157131
_symmetry_space_group_name_H-M "P 2/C"
_symmetry_group_IT_number 13
_symmetry_cell_setting 'monoclinic'
loop_
_space_group_symop_operation_xyz
x,y,z
-x,y,1/2-z
-x,-y,-z
x,-y,1/2+z
loop_
_atom_site_type_symbol
_atom_site_label
_atom_site_fract_x
_atom_site_fract_y
_atom_site_fract_z
Si Si1 0.216436 0.984858 0.044760
Si Si2 0.500000 0.255684 0.750000
Si Si3 0.665183 0.657634 0.877856
Si Si4 0.791429 0.935364 0.120441
Si Si5 0.818710 0.488839 0.317341
Si Si6 0.733029 0.431900 0.557965
Si Si7 0.751103 0.266909 0.164081
O O1 0.365307 0.842576 0.135906
O O2 0.351373 0.151194 0.110678
O O3 0.161176 0.973657 0.937480
O O4 0.000000 0.000000 0.000000
O O5 0.332101 0.352345 0.732453
O O6 0.500000 0.592508 0.750000
O O7 0.877973 0.600121 0.918723
O O8 0.640716 0.549581 0.940569
O O9 0.654246 0.079884 0.108942
O O10 0.000000 0.899984 0.250000
O O11 0.678359 0.754299 0.066631
O O12 0.706790 0.332679 0.227225
O O13 0.013176 0.553359 0.347924
O O14 0.646285 0.586117 0.571636
O O15 0.000000 0.250485 0.250000
#
# Coordination Sequence:
#
# PCOD8120588 Si02
#       7
#     4   2   4   4   4   4   4
#     4  11  26  43  72 104 140 192 243 305 359 434
#     4  12  24  44  70 110 152 186 250 294 364 434
#     4  11  23  43  63  97 143 180 234 295 365 429
#     4  10  21  40  67  99 134 183 239 291 356 425
#     4  11  23  42  70 105 143 190 233 303 356 437
#     4  10  22  42  70 100 138 189 239 297 361 436
#     4   9  21  39  67 100 138 183 239 290 361 429
#
# _framework density 27.654949999999999
#
# number of rings (size 3 to 8) (size 9 to 14) (size 15 to 20)
#    0.000    1.538    1.538    3.692    8.615    0.000 
#    0.000    3.077    0.000    5.538    0.000    0.000 
#    0.000    0.000    0.000    0.000    0.000    0.000 
#
# Total GULP energy -322099.619739 kJ/mol
# GULP energy per Si atom -12388.446913 kJ/mol
# Density = 2.759201 g / cm^3
# Si number density = 27.654950 Si / 1000 Ang^3
#
#
#
# Elastic Constant Matrix: (Units=GPa)
#
#
# Indices 1 2 3 4 5 6 
#
# 1 105.7039 60.3694 42.9972 0.0000 -36.9962 0.0000
# 2 60.3694 196.9827 55.0273 0.0000 -27.4754 0.0000
# 3 42.9972 55.0273 110.5867 0.0000 -45.4289 0.0000
# 4 0.0000 0.0000 0.0000 29.5399 0.0000 -17.2516
# 5 -36.9962 -27.4754 -45.4289 0.0000 50.5165 0.0000
# 6 0.0000 0.0000 0.0000 -17.2516 0.0000 49.2235
#
#
#
# Elastic Compliance Matrix: (Units=1/GPa)
#
#
# Indices 1 2 3 4 5 6 
#
# 1 0.014374 -0.003066 -0.000672 0.000000 0.008255 0.000000
# 2 -0.003066 0.006576 -0.002432 0.000000 -0.000855 0.000000
# 3 -0.000672 -0.002432 0.015491 0.000000 0.012117 0.000000
# 4 0.000000 0.000000 0.000000 0.042565 0.000000 0.014918
# 5 0.008255 -0.000855 0.012117 0.000000 0.036272 0.000000
# 6 0.000000 0.000000 0.000000 0.014918 0.000000 0.025544
#
#
# Mechanical properties :
#
#
# Convention : Reuss Voigt Hill
#
# Bulk Modulus (GPa) = 41.48949 81.11789 61.30369
# Shear Modulus (GPa) = 31.01820 42.84794 36.93307
#
# Velocity S-wave (km/s) = 3.35268 3.94048 3.65841
# Velocity P-wave (km/s) = 5.47927 7.07807 6.32936
#
# Compressibility (1/GPa) = 0.02410249
#
# Stress axis : x y z
#
# Youngs Moduli (GPa) = 69.56962 152.06348 64.55216
#
# Poissons Ratio (x) = 0.46624 0.04337
# Poissons Ratio (y) = 0.21331 0.15696
# Poissons Ratio (z) = 0.04674 0.36975
#
# Static dielectric constant tensor:
#      x y z
#    x 5.407700 0.000000 -0.106190 
#    y 0.000000 5.594090 0.000000 
#    z -0.106190 0.000000 5.476880 
# 
# 
# High freq. dielectric constant tensor:
#      x y z
#    x 2.141220 0.000000 0.004520 
#    y 0.000000 2.129290 0.000000 
#    z 0.004520 0.000000 2.138640 
# 
# From -- ./inp_files/78330.got.cif
#   From: 2010.06.25/outbox.cif.g09.slc.cpg/sg13_40_cif.got.tgz:78330.got - 2010.06.28 04:50:58.
