data_PCOD8120806
_publ_section_title
;
Structure prediction by ZEFSAII (Michael W. Deem and Ramdas Pophale) SiO2 
 PCOD8120806
Probable space group: P 2/C
;
_chemical_formula_sum "Si O2"
_cell_formula_units_Z 20
_cell_length_a 6.817088
_cell_length_b 15.544806
_cell_length_c 9.692647
_cell_angle_alpha 90.000000
_cell_angle_beta 70.507764
_cell_angle_gamma 90.000000
_cell_volume 968.264457
_symmetry_space_group_name_H-M "P 2/C"
_symmetry_group_IT_number 13
_symmetry_cell_setting 'monoclinic'
loop_
_space_group_symop_operation_xyz
x,y,z
-x,y,1/2-z
-x,-y,-z
x,-y,1/2+z
loop_
_atom_site_type_symbol
_atom_site_label
_atom_site_fract_x
_atom_site_fract_y
_atom_site_fract_z
Si Si1 0.529299 0.292221 0.088219
Si Si2 0.484279 0.872972 0.088935
Si Si3 0.175703 0.423062 0.102902
Si Si4 0.149982 0.005902 0.092610
Si Si5 0.084147 0.386729 0.591087
O O1 0.500000 0.255550 0.250000
O O2 0.386320 0.374721 0.092358
O O3 0.490802 0.220661 0.982200
O O4 0.766001 0.322155 0.022903
O O5 0.500000 0.867973 0.250000
O O6 0.262145 0.915133 0.101018
O O7 0.672192 0.925314 0.977822
O O8 0.204945 0.525896 0.107870
O O9 0.000000 0.390850 0.250000
O O10 0.112425 0.403822 0.960662
O O11 0.000000 0.037230 0.250000
O O12 0.000000 0.000000 0.000000
O O13 0.000000 0.341778 0.750000
#
# Coordination Sequence:
#
# PCOD8120806 Si02
#       5
#     4   4   4   4   4
#     4  12  26  41  63  95 135 170 207 265 324 373
#     4  11  27  44  65 103 132 160 217 260 310 393
#     4  10  21  43  64  88 127 171 223 266 312 375
#     4  11  24  47  74  93 126 173 209 258 318 378
#     4  10  23  41  65  91 122 172 224 268 313 372
#
# _framework density 20.655515000000001
#
# number of rings (size 3 to 8) (size 9 to 14) (size 15 to 20)
#    0.000    1.200    4.000    0.600    5.600    3.200 
#    0.000    0.000    0.000    0.000    0.000    0.000 
#    0.000    0.000    0.000    0.000    0.000    0.000 
#
# Total GULP energy -248026.664644 kJ/mol
# GULP energy per Si atom -12401.333232 kJ/mol
# Density = 2.060850 g / cm^3
# Si number density = 20.655515 Si / 1000 Ang^3
#
#
#
# Elastic Constant Matrix: (Units=GPa)
#
#
# Indices 1 2 3 4 5 6 
#
# 1 91.1635 23.9413 44.5486 0.0000 4.2513 0.0000
# 2 23.9413 64.7865 29.1884 0.0000 -1.0048 0.0000
# 3 44.5486 29.1884 172.9647 0.0000 -1.6643 0.0000
# 4 0.0000 0.0000 0.0000 31.4496 0.0000 4.9566
# 5 4.2513 -1.0048 -1.6643 0.0000 41.9687 0.0000
# 6 0.0000 0.0000 0.0000 4.9566 0.0000 18.8306
#
#
#
# Elastic Compliance Matrix: (Units=1/GPa)
#
#
# Indices 1 2 3 4 5 6 
#
# 1 0.013402 -0.003696 -0.002843 0.000000 -0.001559 0.000000
# 2 -0.003696 0.017728 -0.002033 0.000000 0.000718 0.000000
# 3 -0.002843 -0.002033 0.006862 0.000000 0.000511 0.000000
# 4 0.000000 0.000000 0.000000 0.033173 0.000000 -0.008732
# 5 -0.001559 0.000718 0.000511 0.000000 0.024023 0.000000
# 6 0.000000 0.000000 0.000000 -0.008732 0.000000 0.055404
#
#
# Mechanical properties :
#
#
# Convention : Reuss Voigt Hill
#
# Bulk Modulus (GPa) = 47.96584 58.25237 53.10910
# Shear Modulus (GPa) = 28.62309 33.86553 31.24431
#
# Velocity S-wave (km/s) = 3.72659 4.05352 3.89348
# Velocity P-wave (km/s) = 6.46443 7.08315 6.78085
#
# Compressibility (1/GPa) = 0.02084817
#
# Stress axis : x y z
#
# Youngs Moduli (GPa) = 74.61611 56.40760 145.73502
#
# Poissons Ratio (x) = 0.20847 0.41434
# Poissons Ratio (y) = 0.27577 0.29626
# Poissons Ratio (z) = 0.21214 0.11467
#
# Static dielectric constant tensor:
#      x y z
#    x 3.543670 0.000000 -0.168600 
#    y 0.000000 3.622690 0.000000 
#    z -0.168600 0.000000 3.858240 
# 
# 
# High freq. dielectric constant tensor:
#      x y z
#    x 1.810520 0.000000 0.000150 
#    y 0.000000 1.790170 0.000000 
#    z 0.000150 0.000000 1.832730 
# 
# From -- ./inp_files/9440.got.cif
#   From: 2010.06.25/outbox.cif.g09.slc.cpg/sg13_5_cif.got.tgz:9440.got - 2010.06.28 04:50:58.
