data_PCOD8120331
_publ_section_title
;
Structure prediction by ZEFSAII (Michael W. Deem and Ramdas Pophale) SiO2 
 PCOD8120331
Probable space group: P 2/C
;
_chemical_formula_sum "Si O2"
_cell_formula_units_Z 22
_cell_length_a 8.314634
_cell_length_b 6.482806
_cell_length_c 21.635609
_cell_angle_alpha 90.000000
_cell_angle_beta 66.781019
_cell_angle_gamma 90.000000
_cell_volume 1071.748929
_symmetry_space_group_name_H-M "P 2/C"
_symmetry_group_IT_number 13
_symmetry_cell_setting 'monoclinic'
loop_
_space_group_symop_operation_xyz
x,y,z
-x,y,1/2-z
-x,-y,-z
x,-y,1/2+z
loop_
_atom_site_type_symbol
_atom_site_label
_atom_site_fract_x
_atom_site_fract_y
_atom_site_fract_z
Si Si1 0.312543 0.517301 0.660679
Si Si2 0.500000 0.324887 0.750000
Si Si3 0.285833 0.137904 0.580767
Si Si4 0.029197 0.142930 0.182441
Si Si5 0.425278 0.175502 0.432456
Si Si6 0.334514 0.923592 0.812133
O O1 0.404806 0.464692 0.712402
O O2 0.250011 0.314394 0.635413
O O3 0.139635 0.659716 0.690911
O O4 0.451788 0.627064 0.594547
O O5 0.348515 0.173671 0.802013
O O6 0.290160 0.218118 0.509262
O O7 0.128132 0.976755 0.613069
O O8 0.468989 0.032552 0.569317
O O9 0.000000 0.008735 0.250000
O O10 0.835729 0.191439 0.187790
O O11 0.323733 0.133786 0.385130
O O12 0.500000 0.823880 0.750000
#
# Coordination Sequence:
#
# PCOD8120331 Si02
#       6
#     4   2   4   4   4   4
#     4  11  22  39  64  98 123 170 214 273 319 387
#     4  10  22  38  72  92 130 170 226 260 328 384
#     4  10  21  43  61  97 128 171 211 268 324 386
#     4  11  24  39  64  91 132 164 213 273 325 381
#     4  10  21  38  70  88 130 171 220 255 324 394
#     4  10  21  43  63  92 125 172 214 267 317 391
#
# _framework density 20.527194000000001
#
# number of rings (size 3 to 8) (size 9 to 14) (size 15 to 20)
#    0.545    1.091    1.818    3.818    3.818    2.909 
#    0.000    0.909    0.000    0.000    0.000    0.000 
#    0.000    0.000    0.000    0.000    0.000    0.000 
#
# Total GULP energy -272555.331656 kJ/mol
# GULP energy per Si atom -12388.878712 kJ/mol
# Density = 2.048047 g / cm^3
# Si number density = 20.527194 Si / 1000 Ang^3
#
#
#
# Elastic Constant Matrix: (Units=GPa)
#
#
# Indices 1 2 3 4 5 6 
#
# 1 150.0126 41.5989 72.7918 0.0000 10.0028 0.0000
# 2 41.5989 79.8880 25.0398 0.0000 3.3135 0.0000
# 3 72.7918 25.0398 138.0743 0.0000 15.5435 0.0000
# 4 0.0000 0.0000 0.0000 19.9893 0.0000 11.8340
# 5 10.0028 3.3135 15.5435 0.0000 33.9774 0.0000
# 6 0.0000 0.0000 0.0000 11.8340 0.0000 22.1164
#
#
#
# Elastic Compliance Matrix: (Units=1/GPa)
#
#
# Indices 1 2 3 4 5 6 
#
# 1 0.009915 -0.003734 -0.004494 0.000000 -0.000499 0.000000
# 2 -0.003734 0.014679 -0.000692 0.000000 -0.000016 0.000000
# 3 -0.004494 -0.000692 0.010101 0.000000 -0.003230 0.000000
# 4 0.000000 0.000000 0.000000 0.073221 0.000000 -0.039179
# 5 -0.000499 -0.000016 -0.003230 0.000000 0.031058 0.000000
# 6 0.000000 0.000000 0.000000 -0.039179 0.000000 0.066179
#
#
# Mechanical properties :
#
#
# Convention : Reuss Voigt Hill
#
# Bulk Modulus (GPa) = 59.32573 71.87066 65.59820
# Shear Modulus (GPa) = 21.87112 30.45289 26.16200
#
# Velocity S-wave (km/s) = 3.26770 3.85585 3.57389
# Velocity P-wave (km/s) = 6.57274 7.41026 7.00403
#
# Compressibility (1/GPa) = 0.01685609
#
# Stress axis : x y z
#
# Youngs Moduli (GPa) = 100.85244 68.12310 99.00182
#
# Poissons Ratio (x) = 0.25436 0.44492
# Poissons Ratio (y) = 0.37657 0.06850
# Poissons Ratio (z) = 0.45324 0.04713
#
# Static dielectric constant tensor:
#      x y z
#    x 3.524450 0.000000 0.090100 
#    y 0.000000 3.641270 0.000000 
#    z 0.090100 0.000000 4.073540 
# 
# 
# High freq. dielectric constant tensor:
#      x y z
#    x 1.787960 0.000000 0.009320 
#    y 0.000000 1.794430 0.000000 
#    z 0.009320 0.000000 1.812050 
# 
# From -- ./inp_files/84160.got.cif
#   From: 2010.06.25/outbox.cif.g09.slc.cpg/sg13_43_cif.got.tgz:84160.got - 2010.06.28 04:50:58.
