data_PCOD8120101
_publ_section_title
;
Structure prediction by ZEFSAII (Michael W. Deem and Ramdas Pophale) SiO2 
 PCOD8120101
Probable space group: P 2/C
;
_chemical_formula_sum "Si O2"
_cell_formula_units_Z 24
_cell_length_a 23.759025
_cell_length_b 9.219621
_cell_length_c 17.895519
_cell_angle_alpha 90.000000
_cell_angle_beta 161.523088
_cell_angle_gamma 90.000000
_cell_volume 1242.335925
_symmetry_space_group_name_H-M "P 2/C"
_symmetry_group_IT_number 13
_symmetry_cell_setting 'monoclinic'
loop_
_space_group_symop_operation_xyz
x,y,z
-x,y,1/2-z
-x,-y,-z
x,-y,1/2+z
loop_
_atom_site_type_symbol
_atom_site_label
_atom_site_fract_x
_atom_site_fract_y
_atom_site_fract_z
Si Si1 0.459553 0.653210 0.038371
Si Si2 0.175468 0.829282 0.772477
Si Si3 0.499711 0.680561 0.576977
Si Si4 0.306581 0.632329 0.539230
Si Si5 0.803200 0.838509 0.225829
Si Si6 0.826575 0.664217 0.581803
O O1 0.421477 0.481751 0.987371
O O2 0.657158 0.687663 0.315566
O O3 0.321322 0.726538 0.919319
O O4 0.435135 0.716494 0.924284
O O5 0.159231 0.791089 0.839267
O O6 0.991711 0.805002 0.499013
O O7 0.233392 0.995240 0.839528
O O8 0.665710 0.699111 0.842779
O O9 0.345293 0.792729 0.402022
O O10 0.500000 0.590057 0.750000
O O11 0.207321 0.749471 0.364200
O O12 0.186113 0.489107 0.391020
O O13 0.000000 0.667886 0.750000
#
# Coordination Sequence:
#
# PCOD8120101 Si02
#       6
#     4   4   4   4   4   4
#     4  10  21  37  60  85 112 144 184 229 277 330
#     4  11  23  38  55  81 115 152 187 225 276 329
#     4   9  19  37  58  86 112 141 186 230 274 328
#     4   9  19  37  60  84 109 142 185 230 277 328
#     4  10  22  38  56  81 115 150 187 226 272 329
#     4  11  22  37  59  85 111 142 185 232 278 330
#
# _framework density 19.318446999999999
#
# number of rings (size 3 to 8) (size 9 to 14) (size 15 to 20)
#    0.000    2.000    0.000    4.500    0.000   11.333 
#    0.000    4.167    0.000    0.000    0.000    0.000 
#    0.000    0.000    0.000    0.000    0.000    0.000 
#
# Total GULP energy -297673.804083 kJ/mol
# GULP energy per Si atom -12403.075170 kJ/mol
# Density = 1.927448 g / cm^3
# Si number density = 19.318447 Si / 1000 Ang^3
#
#
#
# Elastic Constant Matrix: (Units=GPa)
#
#
# Indices 1 2 3 4 5 6 
#
# 1 128.2841 47.7162 39.9943 0.0000 -10.4904 0.0000
# 2 47.7162 84.0360 41.4054 0.0000 1.3253 0.0000
# 3 39.9943 41.4054 68.5615 0.0000 -0.4302 0.0000
# 4 0.0000 0.0000 0.0000 31.0010 0.0000 -1.2646
# 5 -10.4904 1.3253 -0.4302 0.0000 35.0418 0.0000
# 6 0.0000 0.0000 0.0000 -1.2646 0.0000 16.5398
#
#
#
# Elastic Compliance Matrix: (Units=1/GPa)
#
#
# Indices 1 2 3 4 5 6 
#
# 1 0.010849 -0.004421 -0.003638 0.000000 0.003371 0.000000
# 2 -0.004421 0.018763 -0.008765 0.000000 -0.002141 0.000000
# 3 -0.003638 -0.008765 0.021998 0.000000 -0.000487 0.000000
# 4 0.000000 0.000000 0.000000 0.032358 0.000000 0.002474
# 5 0.003371 -0.002141 -0.000487 0.000000 0.029621 0.000000
# 6 0.000000 0.000000 0.000000 0.002474 0.000000 0.060649
#
#
# Mechanical properties :
#
#
# Convention : Reuss Voigt Hill
#
# Bulk Modulus (GPa) = 55.67502 59.90151 57.78826
# Shear Modulus (GPa) = 23.37820 26.63424 25.00622
#
# Velocity S-wave (km/s) = 3.48249 3.71711 3.60171
# Velocity P-wave (km/s) = 6.71212 7.03543 6.87567
#
# Compressibility (1/GPa) = 0.01796138
#
# Stress axis : x y z
#
# Youngs Moduli (GPa) = 92.17088 53.29737 45.45882
#
# Poissons Ratio (x) = 0.23564 0.16536
# Poissons Ratio (y) = 0.40751 0.39847
# Poissons Ratio (z) = 0.33528 0.46717
#
# Static dielectric constant tensor:
#      x y z
#    x 3.754540 0.000000 -0.266300 
#    y 0.000000 3.464810 0.000000 
#    z -0.266300 0.000000 3.561470 
# 
# 
# High freq. dielectric constant tensor:
#      x y z
#    x 1.764010 0.000000 -0.015280 
#    y 0.000000 1.743650 0.000000 
#    z -0.015280 0.000000 1.752690 
# 
# From -- ./inp_files/71172.got.cif
#   From: 2010.06.25/outbox.cif.g09.slc.cpg/sg13_36_cif.got.tgz:71172.got - 2010.06.28 04:50:58.
