data_PCOD8120529
_publ_section_title
;
Structure prediction by ZEFSAII (Michael W. Deem and Ramdas Pophale) SiO2 
 PCOD8120529
Probable space group: P 2/C
;
_chemical_formula_sum "Si O2"
_cell_formula_units_Z 26
_cell_length_a 10.919832
_cell_length_b 11.889862
_cell_length_c 16.384676
_cell_angle_alpha 90.000000
_cell_angle_beta 34.404742
_cell_angle_gamma 90.000000
_cell_volume 1202.004801
_symmetry_space_group_name_H-M "P 2/C"
_symmetry_group_IT_number 13
_symmetry_cell_setting 'monoclinic'
loop_
_space_group_symop_operation_xyz
x,y,z
-x,y,1/2-z
-x,-y,-z
x,-y,1/2+z
loop_
_atom_site_type_symbol
_atom_site_label
_atom_site_fract_x
_atom_site_fract_y
_atom_site_fract_z
Si Si1 0.402681 0.085241 0.139478
Si Si2 0.995840 0.769218 0.654117
Si Si3 0.140431 0.537040 0.846708
Si Si4 0.438627 0.859059 0.435126
Si Si5 0.767295 0.751003 0.474598
Si Si6 0.226383 0.684918 0.204316
Si Si7 0.500000 0.628772 0.750000
O O1 0.199506 0.160490 0.281425
O O2 0.407747 0.961955 0.181119
O O3 0.371042 0.087848 0.059474
O O4 0.637512 0.134271 0.033762
O O5 0.221694 0.829794 0.502814
O O6 0.000000 0.763093 0.750000
O O7 0.975262 0.642968 0.631938
O O8 0.162343 0.437825 0.769781
O O9 0.385300 0.558244 0.742030
O O10 0.000000 0.500000 0.000000
O O11 0.566496 0.741130 0.366782
O O12 0.721628 0.672015 0.420514
O O13 0.690148 0.698829 0.602253
O O14 0.026094 0.770109 0.333901
#
# Coordination Sequence:
#
# PCOD8120529 Si02
#       7
#     4   4   4   4   4   4   2
#     4   9  18  38  62  93 125 165 209 268 323 374
#     4  10  22  39  63  96 126 164 217 266 320 384
#     4  12  26  41  62  89 131 175 212 270 322 380
#     4   9  20  36  64  94 126 162 214 268 315 380
#     4  10  21  40  63  92 124 167 218 262 321 391
#     4  10  23  39  62  96 125 169 220 266 316 381
#     4  12  24  42  62  88 128 178 212 262 324 392
#
# _framework density 21.630531999999999
#
# number of rings (size 3 to 8) (size 9 to 14) (size 15 to 20)
#    0.000    1.846    3.077    0.000    6.462    0.615 
#    0.000    0.000    3.385    2.769    0.000    0.000 
#    0.000    0.000    0.000    0.000    0.000    0.000 
#
# Total GULP energy -322122.930777 kJ/mol
# GULP energy per Si atom -12389.343491 kJ/mol
# Density = 2.158130 g / cm^3
# Si number density = 21.630532 Si / 1000 Ang^3
#
#
#
# Elastic Constant Matrix: (Units=GPa)
#
#
# Indices 1 2 3 4 5 6 
#
# 1 70.1181 41.9399 28.3306 0.0000 -22.4296 0.0000
# 2 41.9399 148.2203 38.1909 0.0000 -13.7881 0.0000
# 3 28.3306 38.1909 86.1839 0.0000 -10.3785 0.0000
# 4 0.0000 0.0000 0.0000 22.7170 0.0000 -9.6378
# 5 -22.4296 -13.7881 -10.3785 0.0000 39.2096 0.0000
# 6 0.0000 0.0000 0.0000 -9.6378 0.0000 21.7525
#
#
#
# Elastic Compliance Matrix: (Units=1/GPa)
#
#
# Indices 1 2 3 4 5 6 
#
# 1 0.021497 -0.004127 -0.004061 0.000000 0.009771 0.000000
# 2 -0.004127 0.008540 -0.002428 0.000000 -0.000001 0.000000
# 3 -0.004061 -0.002428 0.014080 0.000000 0.000550 0.000000
# 4 0.000000 0.000000 0.000000 0.054210 0.000000 0.024019
# 5 0.009771 -0.000001 0.000550 0.000000 0.031239 0.000000
# 6 0.000000 0.000000 0.000000 0.024019 0.000000 0.056614
#
#
# Mechanical properties :
#
#
# Convention : Reuss Voigt Hill
#
# Bulk Modulus (GPa) = 43.69684 57.93833 50.81759
# Shear Modulus (GPa) = 23.25160 29.80654 26.52907
#
# Velocity S-wave (km/s) = 3.28219 3.71615 3.50589
# Velocity P-wave (km/s) = 5.88294 6.72730 6.31924
#
# Compressibility (1/GPa) = 0.02288495
#
# Stress axis : x y z
#
# Youngs Moduli (GPa) = 46.51898 117.09529 71.02263
#
# Poissons Ratio (x) = 0.48329 0.28841
# Poissons Ratio (y) = 0.19200 0.17242
# Poissons Ratio (z) = 0.18891 0.28427
#
# Static dielectric constant tensor:
#      x y z
#    x 3.965800 0.000000 -0.367430 
#    y 0.000000 3.972040 0.000000 
#    z -0.367430 0.000000 4.082390 
# 
# 
# High freq. dielectric constant tensor:
#      x y z
#    x 1.839000 0.000000 -0.023630 
#    y 0.000000 1.841860 0.000000 
#    z -0.023630 0.000000 1.842960 
# 
# From -- ./inp_files/66607.got.cif
#   From: 2010.06.25/outbox.cif.g09.slc.cpg/sg13_34_cif.got.tgz:66607.got - 2010.06.28 04:50:58.
