data_PCOD8120787
_publ_section_title
;
Structure prediction by ZEFSAII (Michael W. Deem and Ramdas Pophale) SiO2 
 PCOD8120787
Probable space group: P 2/C
;
_chemical_formula_sum "Si O2"
_cell_formula_units_Z 32
_cell_length_a 13.967252
_cell_length_b 8.889708
_cell_length_c 21.914870
_cell_angle_alpha 90.000000
_cell_angle_beta 148.372957
_cell_angle_gamma 90.000000
_cell_volume 1426.888334
_symmetry_space_group_name_H-M "P 2/C"
_symmetry_group_IT_number 13
_symmetry_cell_setting 'monoclinic'
loop_
_space_group_symop_operation_xyz
x,y,z
-x,y,1/2-z
-x,-y,-z
x,-y,1/2+z
loop_
_atom_site_type_symbol
_atom_site_label
_atom_site_fract_x
_atom_site_fract_y
_atom_site_fract_z
Si Si1 0.927291 0.586446 0.401767
Si Si2 0.180495 0.306529 0.881027
Si Si3 0.521704 0.659831 0.193655
Si Si4 0.557216 0.994300 0.846793
Si Si5 0.524580 0.870547 0.563086
Si Si6 0.069433 0.121733 0.223458
Si Si7 0.929076 0.124096 0.566760
Si Si8 0.846014 0.409909 0.071804
O O1 0.710015 0.586110 0.273057
O O2 0.000000 0.500000 0.500000
O O3 0.982383 0.765007 0.435814
O O4 0.005932 0.497236 0.387716
O O5 0.174576 0.239556 0.945454
O O6 0.177771 0.488932 0.880179
O O7 0.000000 0.243973 0.750000
O O8 0.373505 0.250387 0.958416
O O9 0.500000 0.601325 0.250000
O O10 0.524422 0.839666 0.192467
O O11 0.353878 0.594696 0.065191
O O12 0.500000 0.920347 0.750000
O O13 0.495273 0.912481 0.875849
O O14 0.777100 0.991284 0.959213
O O15 0.729015 0.805701 0.664601
O O16 0.500000 0.000000 0.500000
O O17 0.000000 0.054126 0.250000
O O18 0.918051 0.244585 0.124239
O O19 0.078002 0.982322 0.180641
#
# Coordination Sequence:
#
# PCOD8120787 Si02
#       8
#     4   4   4   4   4   4   4   4
#     4  11  24  43  67 100 137 189 234 291 361 436
#     4  10  22  44  64  96 134 177 230 291 354 422
#     4  11  22  43  69  92 142 184 233 294 367 428
#     4  10  22  43  68 108 136 182 234 297 357 425
#     4  11  24  42  73 105 137 189 240 294 367 433
#     4  12  24  44  68 102 139 183 240 302 353 431
#     4  10  21  42  69  95 137 178 228 287 351 429
#     4  11  25  43  65 100 138 184 240 295 366 430
#
# _framework density 22.426421000000001
#
# number of rings (size 3 to 8) (size 9 to 14) (size 15 to 20)
#    0.000    1.250    2.500    3.750    1.750    2.000 
#    4.500    3.750    0.000    0.000    0.000    0.000 
#    0.000    0.000    0.000    0.000    0.000    0.000 
#
# Total GULP energy -396464.011706 kJ/mol
# GULP energy per Si atom -12389.500366 kJ/mol
# Density = 2.237538 g / cm^3
# Si number density = 22.426421 Si / 1000 Ang^3
#
#
#
# Elastic Constant Matrix: (Units=GPa)
#
#
# Indices 1 2 3 4 5 6 
#
# 1 93.7742 37.8535 59.6992 0.0000 6.5971 0.0000
# 2 37.8535 112.1681 46.4417 0.0000 3.4282 0.0000
# 3 59.6992 46.4417 174.5109 0.0000 24.8893 0.0000
# 4 0.0000 0.0000 0.0000 36.0502 0.0000 1.9932
# 5 6.5971 3.4282 24.8893 0.0000 45.4924 0.0000
# 6 0.0000 0.0000 0.0000 1.9932 0.0000 35.4250
#
#
#
# Elastic Compliance Matrix: (Units=1/GPa)
#
#
# Indices 1 2 3 4 5 6 
#
# 1 0.014602 -0.003200 -0.004204 0.000000 0.000424 0.000000
# 2 -0.003200 0.010745 -0.001861 0.000000 0.000672 0.000000
# 3 -0.004204 -0.001861 0.008196 0.000000 -0.003734 0.000000
# 4 0.000000 0.000000 0.000000 0.027826 0.000000 -0.001566
# 5 0.000424 0.000672 -0.003734 0.000000 0.023913 0.000000
# 6 0.000000 0.000000 0.000000 -0.001566 0.000000 0.028317
#
#
# Mechanical properties :
#
#
# Convention : Reuss Voigt Hill
#
# Bulk Modulus (GPa) = 66.60581 74.27133 70.43857
# Shear Modulus (GPa) = 36.46089 39.15746 37.80917
#
# Velocity S-wave (km/s) = 4.03650 4.18310 4.11045
# Velocity P-wave (km/s) = 7.17555 7.51803 7.34879
#
# Compressibility (1/GPa) = 0.01501370
#
# Stress axis : x y z
#
# Youngs Moduli (GPa) = 68.48184 93.06675 122.00620
#
# Poissons Ratio (x) = 0.29783 0.51294
# Poissons Ratio (y) = 0.21915 0.22701
# Poissons Ratio (z) = 0.28791 0.17316
#
# Static dielectric constant tensor:
#      x y z
#    x 4.158970 0.000000 0.135180 
#    y 0.000000 4.171300 0.000000 
#    z 0.135180 0.000000 4.338480 
# 
# 
# High freq. dielectric constant tensor:
#      x y z
#    x 1.873780 0.000000 0.006860 
#    y 0.000000 1.877590 0.000000 
#    z 0.006860 0.000000 1.899930 
# 
# From -- ./inp_files/87455.got.cif
#   From: 2010.06.25/outbox.cif.g09.slc.cpg/sg13_44_cif.got.tgz:87455.got - 2010.06.28 04:50:58.
