data_PCOD8120540
_publ_section_title
;
Structure prediction by ZEFSAII (Michael W. Deem and Ramdas Pophale) SiO2 
 PCOD8120540
Probable space group: P 2/C
;
_chemical_formula_sum "Si O2"
_cell_formula_units_Z 30
_cell_length_a 14.097801
_cell_length_b 8.563518
_cell_length_c 12.563087
_cell_angle_alpha 90.000000
_cell_angle_beta 79.827910
_cell_angle_gamma 90.000000
_cell_volume 1492.861068
_symmetry_space_group_name_H-M "P 2/C"
_symmetry_group_IT_number 13
_symmetry_cell_setting 'monoclinic'
loop_
_space_group_symop_operation_xyz
x,y,z
-x,y,1/2-z
-x,-y,-z
x,-y,1/2+z
loop_
_atom_site_type_symbol
_atom_site_label
_atom_site_fract_x
_atom_site_fract_y
_atom_site_fract_z
Si Si1 0.500000 0.391466 0.250000
Si Si2 0.017581 0.749910 0.538254
Si Si3 0.552547 0.850659 0.127700
Si Si4 0.061453 0.050506 0.637333
Si Si5 0.147051 0.474550 0.455065
Si Si6 0.320946 0.398127 0.798007
Si Si7 0.768449 0.733405 0.395704
Si Si8 0.421098 0.190671 0.457366
O O1 0.590192 0.499677 0.263190
O O2 0.475805 0.287019 0.356350
O O3 0.983876 0.863553 0.453066
O O4 0.929472 0.636669 0.592293
O O5 0.105981 0.647376 0.478465
O O6 0.055330 0.861967 0.625688
O O7 0.500000 0.875941 0.250000
O O8 0.640510 0.729347 0.124447
O O9 0.592046 0.013136 0.076397
O O10 0.478360 0.784571 0.055814
O O11 0.172265 0.105169 0.629960
O O12 0.000000 0.104147 0.750000
O O13 0.244592 0.486903 0.368113
O O14 0.164088 0.402925 0.569620
O O15 0.271762 0.310098 0.710621
O O16 0.686265 0.751057 0.500966
#
# Coordination Sequence:
#
# PCOD8120540 Si02
#       8
#     2   4   4   4   4   4   4   4
#     4  12  24  40  68  92 136 172 214 272 322 374
#     4   9  21  42  62  88 125 162 207 258 325 375
#     4  11  23  43  64  86 131 172 212 260 325 369
#     4  10  21  40  64  90 121 165 204 263 315 382
#     4  10  22  40  62  90 125 164 206 264 317 387
#     4  12  24  39  63  97 125 173 208 267 320 383
#     4  11  23  40  61  94 127 159 217 259 318 385
#     4  11  24  43  62  93 127 170 218 268 312 387
#
# _framework density 20.09564
#
# number of rings (size 3 to 8) (size 9 to 14) (size 15 to 20)
#    0.000    1.333    4.000    0.800    3.733    2.133 
#    2.400    5.333    0.000    0.000    0.000    0.000 
#    0.000    0.000    0.000    0.000    0.000    0.000 
#
# Total GULP energy -372021.458912 kJ/mol
# GULP energy per Si atom -12400.715297 kJ/mol
# Density = 2.004990 g / cm^3
# Si number density = 20.095640 Si / 1000 Ang^3
#
#
#
# Elastic Constant Matrix: (Units=GPa)
#
#
# Indices 1 2 3 4 5 6 
#
# 1 114.5253 59.4360 46.3786 0.0000 -9.7987 0.0000
# 2 59.4360 109.6644 31.0882 0.0000 -2.6296 0.0000
# 3 46.3786 31.0882 95.2683 0.0000 -5.2592 0.0000
# 4 0.0000 0.0000 0.0000 7201.3242 0.0000 7206.4616
# 5 -9.7987 -2.6296 -5.2592 0.0000 31.4624 0.0000
# 6 0.0000 0.0000 0.0000 7206.4616 0.0000 7270.9369
#
#
#
# Elastic Compliance Matrix: (Units=1/GPa)
#
#
# Indices 1 2 3 4 5 6 
#
# 1 0.014139 -0.006265 -0.004667 0.000000 0.003100 0.000000
# 2 -0.006265 0.012827 -0.001195 0.000000 -0.001079 0.000000
# 3 -0.004667 -0.001195 0.013195 0.000000 0.000652 0.000000
# 4 0.000000 0.000000 0.000000 0.017017 0.000000 -0.016866
# 5 0.003100 -0.001079 0.000652 0.000000 0.032768 0.000000
# 6 0.000000 0.000000 0.000000 -0.016866 0.000000 0.016854
#
#
# Mechanical properties :
#
#
# Convention : Reuss Voigt Hill
#
# Bulk Modulus (GPa) = 62.87398 65.91818 64.39608
# Shear Modulus (GPa) = 36.66846 2912.91506 1474.79176
#
# Velocity S-wave (km/s) = 4.27628 38.11394 27.11973
# Velocity P-wave (km/s) = 7.46575 44.38210 31.82379
#
# Compressibility (1/GPa) = 0.01590483
#
# Stress axis : x y z
#
# Youngs Moduli (GPa) = 70.72848 77.95792 75.78699
#
# Poissons Ratio (x) = 0.48844 0.35372
# Poissons Ratio (y) = 0.44314 0.09059
# Poissons Ratio (z) = 0.33011 0.09318
#
# Static dielectric constant tensor:
#      x y z
#    x 3.802490 0.000000 0.013600 
#    y 0.000000 3.885690 0.000000 
#    z 0.013600 0.000000 3.525980 
# 
# 
# High freq. dielectric constant tensor:
#      x y z
#    x 1.792080 0.000000 -0.001260 
#    y 0.000000 1.794540 0.000000 
#    z -0.001260 0.000000 1.777840 
# 
# From -- ./inp_files/36401.got.cif
#   From: 2010.06.25/outbox.cif.g09.slc.cpg/sg13_19_cif.got.tgz:36401.got - 2010.06.28 04:50:58.
