data_PCOD8120437
_publ_section_title
;
Structure prediction by ZEFSAII (Michael W. Deem and Ramdas Pophale) SiO2 
 PCOD8120437
Probable space group: P 2/C
;
_chemical_formula_sum "Si O2"
_cell_formula_units_Z 22
_cell_length_a 7.702498
_cell_length_b 15.541935
_cell_length_c 10.724404
_cell_angle_alpha 90.000000
_cell_angle_beta 60.299502
_cell_angle_gamma 90.000000
_cell_volume 1115.175648
_symmetry_space_group_name_H-M "P 2/C"
_symmetry_group_IT_number 13
_symmetry_cell_setting 'monoclinic'
loop_
_space_group_symop_operation_xyz
x,y,z
-x,y,1/2-z
-x,-y,-z
x,-y,1/2+z
loop_
_atom_site_type_symbol
_atom_site_label
_atom_site_fract_x
_atom_site_fract_y
_atom_site_fract_z
Si Si1 0.000000 0.901219 0.250000
Si Si2 0.000000 0.377436 0.750000
Si Si3 0.385350 0.992587 0.671120
Si Si4 0.006103 0.371878 0.102641
Si Si5 0.144405 0.243207 0.519420
Si Si6 0.264756 0.478945 0.849093
Si Si7 0.500000 0.170446 0.250000
O O1 0.173988 0.962351 0.235629
O O2 0.064717 0.845084 0.107556
O O3 0.845946 0.317084 0.879658
O O4 0.856368 0.436717 0.720718
O O5 0.500000 0.035659 0.750000
O O6 0.500000 0.000000 0.500000
O O7 0.360499 0.890719 0.711926
O O8 0.808648 0.422260 0.121323
O O9 0.000000 0.354954 0.250000
O O10 0.005767 0.278568 0.035082
O O11 0.203065 0.427916 0.997343
O O12 0.364356 0.230186 0.385239
O O13 0.500000 0.473106 0.750000
#
# Coordination Sequence:
#
# PCOD8120437 Si02
#       7
#     2   2   4   4   4   4   2
#     4  11  20  46  70  85 130 170 208 257 324 372
#     4   9  20  42  62  85 124 164 220 247 310 380
#     4  10  22  41  68  96 122 164 218 256 310 400
#     4  10  22  41  56  94 129 156 216 261 311 375
#     4  10  22  38  62  90 128 168 195 273 318 361
#     4  10  21  39  66  86 117 170 215 256 305 377
#     4  10  22  40  60  96 126 158 216 256 324 374
#
# _framework density 19.727836
#
# number of rings (size 3 to 8) (size 9 to 14) (size 15 to 20)
#    0.545    1.455    2.727    0.000    1.273    5.091 
#    4.909    8.182    0.000    0.000    0.000    0.000 
#    0.000    0.000    0.000    0.000    0.000    0.000 
#
# Total GULP energy -272634.823493 kJ/mol
# GULP energy per Si atom -12392.491977 kJ/mol
# Density = 1.968293 g / cm^3
# Si number density = 19.727836 Si / 1000 Ang^3
#
#
#
# Elastic Constant Matrix: (Units=GPa)
#
#
# Indices 1 2 3 4 5 6 
#
# 1 104.1946 36.9277 53.9270 0.0000 -10.2605 0.0000
# 2 36.9277 79.0413 36.2421 0.0000 -6.3872 0.0000
# 3 53.9270 36.2421 150.0670 0.0000 -2.8682 0.0000
# 4 0.0000 0.0000 0.0000 30.5563 0.0000 -6.7058
# 5 -10.2605 -6.3872 -2.8682 0.0000 45.3461 0.0000
# 6 0.0000 0.0000 0.0000 -6.7058 0.0000 21.4760
#
#
#
# Elastic Compliance Matrix: (Units=1/GPa)
#
#
# Indices 1 2 3 4 5 6 
#
# 1 0.013245 -0.004330 -0.003673 0.000000 0.002155 0.000000
# 2 -0.004330 0.015789 -0.002236 0.000000 0.001103 0.000000
# 3 -0.003673 -0.002236 0.008512 0.000000 -0.000608 0.000000
# 4 0.000000 0.000000 0.000000 0.035134 0.000000 0.010971
# 5 0.002155 0.001103 -0.000608 0.000000 0.022657 0.000000
# 6 0.000000 0.000000 0.000000 0.010971 0.000000 0.049989
#
#
# Mechanical properties :
#
#
# Convention : Reuss Voigt Hill
#
# Bulk Modulus (GPa) = 58.58765 65.27737 61.93251
# Shear Modulus (GPa) = 29.15570 33.22275 31.18923
#
# Velocity S-wave (km/s) = 3.84851 4.10818 3.98046
# Velocity P-wave (km/s) = 7.03637 7.46080 7.25169
#
# Compressibility (1/GPa) = 0.01706844
#
# Stress axis : x y z
#
# Youngs Moduli (GPa) = 75.49995 63.33561 117.48220
#
# Poissons Ratio (x) = 0.27423 0.43149
# Poissons Ratio (y) = 0.32690 0.26270
# Poissons Ratio (z) = 0.27729 0.14162
#
# Static dielectric constant tensor:
#      x y z
#    x 3.215520 0.000000 0.135350 
#    y 0.000000 3.704070 0.000000 
#    z 0.135350 0.000000 3.906530 
# 
# 
# High freq. dielectric constant tensor:
#      x y z
#    x 1.735140 0.000000 0.011540 
#    y 0.000000 1.771960 0.000000 
#    z 0.011540 0.000000 1.794550 
# 
# From -- ./inp_files/29841.got.cif
#   From: 2010.06.25/outbox.cif.g09.slc.cpg/sg13_15_cif.got.tgz:29841.got - 2010.06.28 04:50:58.
