data_PCOD8120113
_publ_section_title
;
Structure prediction by ZEFSAII (Michael W. Deem and Ramdas Pophale) SiO2 
 PCOD8120113
Probable space group: P 2/C
;
_chemical_formula_sum "Si O2"
_cell_formula_units_Z 22
_cell_length_a 17.560534
_cell_length_b 10.571419
_cell_length_c 20.582602
_cell_angle_alpha 90.000000
_cell_angle_beta 17.785630
_cell_angle_gamma 90.000000
_cell_volume 1167.133807
_symmetry_space_group_name_H-M "P 2/C"
_symmetry_group_IT_number 13
_symmetry_cell_setting 'monoclinic'
loop_
_space_group_symop_operation_xyz
x,y,z
-x,y,1/2-z
-x,-y,-z
x,-y,1/2+z
loop_
_atom_site_type_symbol
_atom_site_label
_atom_site_fract_x
_atom_site_fract_y
_atom_site_fract_z
Si Si1 0.540099 0.910194 0.906062
Si Si2 0.819148 0.590110 0.775873
Si Si3 0.517821 0.096177 0.661604
Si Si4 0.959929 0.231513 0.503352
Si Si5 0.706193 0.318997 0.833898
Si Si6 0.000000 0.265226 0.250000
O O1 0.831099 0.876551 0.668920
O O2 0.464818 0.976643 0.900302
O O3 0.369334 0.785342 0.051309
O O4 0.500000 0.000000 0.000000
O O5 0.830569 0.438092 0.769016
O O6 0.974418 0.643959 0.709308
O O7 0.943411 0.639669 0.608393
O O8 0.534012 0.636935 0.012357
O O9 0.500000 0.046658 0.750000
O O10 0.279505 0.181505 0.840033
O O11 0.761845 0.178551 0.452928
O O12 0.903314 0.259132 0.624299
#
# Coordination Sequence:
#
# PCOD8120113 Si02
#       6
#     4   4   4   4   4   2
#     4  11  23  39  62  89 122 163 207 249 301 371
#     4  10  21  37  60  91 119 155 203 254 303 366
#     4  12  24  37  61  94 123 159 201 258 312 363
#     4  11  20  39  65  90 116 160 210 251 302 363
#     4  10  21  38  62  88 120 158 205 253 299 357
#     4  12  22  40  60  88 124 156 200 252 324 358
#
# _framework density 18.849595000000001
#
# number of rings (size 3 to 8) (size 9 to 14) (size 15 to 20)
#    0.000    1.091    5.455    2.182    0.000    0.000 
#    0.000    2.727    0.000    0.000    0.000    0.000 
#    0.000    0.000    0.000    0.000    0.000    0.000 
#
# Total GULP energy -272891.918566 kJ/mol
# GULP energy per Si atom -12404.178117 kJ/mol
# Density = 1.880669 g / cm^3
# Si number density = 18.849595 Si / 1000 Ang^3
#
#
#
# Elastic Constant Matrix: (Units=GPa)
#
#
# Indices 1 2 3 4 5 6 
#
# 1 112.6717 67.7163 52.8721 0.0000 9.2029 0.0000
# 2 67.7163 145.6984 66.0138 0.0000 2.0690 0.0000
# 3 52.8721 66.0138 131.5383 0.0000 5.5137 0.0000
# 4 0.0000 0.0000 0.0000 12.2360 0.0000 20.6809
# 5 9.2029 2.0690 5.5137 0.0000 30.5229 0.0000
# 6 0.0000 0.0000 0.0000 20.6809 0.0000 18.6082
#
#
#
# Elastic Compliance Matrix: (Units=1/GPa)
#
#
# Indices 1 2 3 4 5 6 
#
# 1 0.013401 -0.004922 -0.002782 0.000000 -0.003204 0.000000
# 2 -0.004922 0.010693 -0.003446 0.000000 0.001382 0.000000
# 3 -0.002782 -0.003446 0.010484 0.000000 -0.000822 0.000000
# 4 0.000000 0.000000 0.000000 -0.093037 0.000000 0.103400
# 5 -0.003204 0.001382 -0.000822 0.000000 0.033783 0.000000
# 6 0.000000 0.000000 0.000000 0.103400 0.000000 -0.061177
#
#
# Mechanical properties :
#
#
# Convention : Reuss Voigt Hill
#
# Bulk Modulus (GPa) = 81.44585 84.79030 83.11808
# Shear Modulus (GPa) = -84.08951 25.82716 -29.13117
#
# Velocity S-wave (km/s) = -6.68638 3.70560 -3.93549
# Velocity P-wave (km/s) = 4.03833 7.96171 4.85184
#
# Compressibility (1/GPa) = 0.01227810
#
# Stress axis : x y z
#
# Youngs Moduli (GPa) = 74.62204 93.52054 95.38179
#
# Poissons Ratio (x) = 0.46035 0.26534
# Poissons Ratio (y) = 0.36732 0.32865
# Poissons Ratio (z) = 0.20759 0.32224
#
# Static dielectric constant tensor:
#      x y z
#    x 3.385920 0.000000 0.121400 
#    y 0.000000 3.571630 0.000000 
#    z 0.121400 0.000000 3.679940 
# 
# 
# High freq. dielectric constant tensor:
#      x y z
#    x 1.716180 0.000000 0.014200 
#    y 0.000000 1.736260 0.000000 
#    z 0.014200 0.000000 1.748860 
# 
# From -- ./inp_files/43592.got.cif
#   From: 2010.06.25/outbox.cif.g09.slc.cpg/sg13_22_cif.got.tgz:43592.got - 2010.06.28 04:50:58.
