data_PCOD8120511
_publ_section_title
;
Structure prediction by ZEFSAII (Michael W. Deem and Ramdas Pophale) SiO2 
 PCOD8120511
Probable space group: P 2/C
;
_chemical_formula_sum "Si O2"
_cell_formula_units_Z 30
_cell_length_a 25.007208
_cell_length_b 10.481003
_cell_length_c 9.450483
_cell_angle_alpha 90.000000
_cell_angle_beta 144.521236
_cell_angle_gamma 90.000000
_cell_volume 1437.640632
_symmetry_space_group_name_H-M "P 2/C"
_symmetry_group_IT_number 13
_symmetry_cell_setting 'monoclinic'
loop_
_space_group_symop_operation_xyz
x,y,z
-x,y,1/2-z
-x,-y,-z
x,-y,1/2+z
loop_
_atom_site_type_symbol
_atom_site_label
_atom_site_fract_x
_atom_site_fract_y
_atom_site_fract_z
Si Si1 0.853751 0.723432 0.220969
Si Si2 0.901613 0.319244 0.524149
Si Si3 0.000000 0.186843 0.250000
Si Si4 0.253119 0.503649 0.913129
Si Si5 0.139575 0.839079 0.826663
Si Si6 0.280288 0.946815 0.559267
Si Si7 0.697565 0.329257 0.731281
Si Si8 0.606875 0.931033 0.969823
O O1 0.935920 0.726965 0.511835
O O2 0.813187 0.581018 0.131427
O O3 0.888032 0.761531 0.138869
O O4 0.768070 0.813350 0.075534
O O5 0.813155 0.407704 0.321550
O O6 0.913621 0.225559 0.417193
O O7 0.000000 0.393649 0.750000
O O8 0.066216 0.105684 0.285358
O O9 0.311935 0.418824 0.928441
O O10 0.318656 0.587281 0.159541
O O11 0.200765 0.733469 0.041321
O O12 0.199987 0.947965 0.884232
O O13 0.359542 0.959117 0.614532
O O14 0.335882 0.961108 0.823612
O O15 0.624279 0.213500 0.564265
O O16 0.500000 0.961364 0.750000
#
# Coordination Sequence:
#
# PCOD8120511 Si02
#       8
#     4   4   2   4   4   4   4   4
#     4  12  23  38  58  85 126 175 211 257 308 360
#     4  11  23  36  55  86 121 162 228 261 291 353
#     4  12  22  36  58  86 128 170 228 256 294 342
#     4  11  21  37  63  84 123 176 203 257 318 369
#     4  10  22  39  58  89 122 170 210 262 303 362
#     4  11  23  44  66  89 130 164 201 256 334 379
#     4  10  21  40  62  91 125 163 208 254 326 372
#     4  11  23  44  73  98 119 153 208 267 323 399
#
# _framework density 20.867524
#
# number of rings (size 3 to 8) (size 9 to 14) (size 15 to 20)
#    0.000    1.067    5.333    2.000    0.933    1.067 
#    2.400    0.667    0.000    0.000    0.000    0.000 
#    0.000    0.000    0.000    0.000    0.000    0.000 
#
# Total GULP energy -371792.188184 kJ/mol
# GULP energy per Si atom -12393.072939 kJ/mol
# Density = 2.082003 g / cm^3
# Si number density = 20.867524 Si / 1000 Ang^3
#
#
#
# Elastic Constant Matrix: (Units=GPa)
#
#
# Indices 1 2 3 4 5 6 
#
# 1 96.6960 17.7551 3.3804 0.0000 -4.7381 0.0000
# 2 17.7551 56.9438 17.8772 0.0000 1.2295 0.0000
# 3 3.3804 17.8772 51.3664 0.0000 -0.2449 0.0000
# 4 0.0000 0.0000 0.0000 10.7026 0.0000 -10.4027
# 5 -4.7381 1.2295 -0.2449 0.0000 31.7692 0.0000
# 6 0.0000 0.0000 0.0000 -10.4027 0.0000 26.4748
#
#
#
# Elastic Compliance Matrix: (Units=1/GPa)
#
#
# Indices 1 2 3 4 5 6 
#
# 1 0.011084 -0.003670 0.000556 0.000000 0.001799 0.000000
# 2 -0.003670 0.020951 -0.007057 0.000000 -0.001412 0.000000
# 3 0.000556 -0.007057 0.021890 0.000000 0.000525 0.000000
# 4 0.000000 0.000000 0.000000 0.151171 0.000000 0.059400
# 5 0.001799 -0.001412 0.000525 0.000000 0.031804 0.000000
# 6 0.000000 0.000000 0.000000 0.059400 0.000000 0.061112
#
#
# Mechanical properties :
#
#
# Convention : Reuss Voigt Hill
#
# Bulk Modulus (GPa) = 29.77526 31.44794 30.61160
# Shear Modulus (GPa) = 15.17229 24.85554 20.01392
#
# Velocity S-wave (km/s) = 2.69936 3.45499 3.10028
# Velocity P-wave (km/s) = 4.90052 5.56947 5.24567
#
# Compressibility (1/GPa) = 0.03358493
#
# Stress axis : x y z
#
# Youngs Moduli (GPa) = 90.21844 47.72961 45.68304
#
# Poissons Ratio (x) = 0.17515 -0.02541
# Poissons Ratio (y) = 0.33106 0.32239
# Poissons Ratio (z) = -0.05018 0.33683
#
# Static dielectric constant tensor:
#      x y z
#    x 3.730660 0.000000 -0.257330 
#    y 0.000000 3.631780 0.000000 
#    z -0.257330 0.000000 3.733500 
# 
# 
# High freq. dielectric constant tensor:
#      x y z
#    x 1.821050 0.000000 -0.027080 
#    y 0.000000 1.796000 0.000000 
#    z -0.027080 0.000000 1.812540 
# 
# From -- ./inp_files/24149.got.cif
#   From: 2010.06.25/outbox.cif.g09.slc.cpg/sg13_13_cif.got.tgz:24149.got - 2010.06.28 04:50:58.
