data_PCOD8120701
_publ_section_title
;
Structure prediction by ZEFSAII (Michael W. Deem and Ramdas Pophale) SiO2 
 PCOD8120701
Probable space group: P 2/C
;
_chemical_formula_sum "Si O2"
_cell_formula_units_Z 16
_cell_length_a 9.336933
_cell_length_b 7.076787
_cell_length_c 23.482536
_cell_angle_alpha 90.000000
_cell_angle_beta 152.255803
_cell_angle_gamma 90.000000
_cell_volume 722.317713
_symmetry_space_group_name_H-M "P 2/C"
_symmetry_group_IT_number 13
_symmetry_cell_setting 'monoclinic'
loop_
_space_group_symop_operation_xyz
x,y,z
-x,y,1/2-z
-x,-y,-z
x,-y,1/2+z
loop_
_atom_site_type_symbol
_atom_site_label
_atom_site_fract_x
_atom_site_fract_y
_atom_site_fract_z
Si Si1 0.347620 0.204591 0.350615
Si Si2 0.365324 0.630679 0.323218
Si Si3 0.313226 0.309226 0.929107
Si Si4 0.355931 0.948498 0.137043
O O1 0.441061 0.412287 0.360442
O O2 0.557639 0.157860 0.479916
O O3 0.000000 0.196331 0.250000
O O4 0.413956 0.060086 0.323685
O O5 0.351329 0.755040 0.376922
O O6 0.614259 0.726281 0.368645
O O7 0.036455 0.647286 0.177113
O O8 0.500000 0.500000 0.000000
O O9 0.500000 0.988553 0.250000
O O10 0.000000 0.000000 0.000000
#
# Coordination Sequence:
#
# PCOD8120701 Si02
#       4
#     4   4   4   4
#     4  11  23  40  73 100 124 169 231 285 330 392
#     4  10  21  41  68  96 133 167 221 281 335 388
#     4   9  17  37  65 105 123 155 218 285 335 372
#     4  12  30  46  62  99 143 187 221 264 347 420
#
# _framework density 22.150918000000001
#
# number of rings (size 3 to 8) (size 9 to 14) (size 15 to 20)
#    0.000    1.500    5.000    1.500    7.000    3.000 
#    0.000    0.000    0.000    0.000    0.000    0.000 
#    0.000    0.000    0.000    0.000    0.000    0.000 
#
# Total GULP energy -198271.322128 kJ/mol
# GULP energy per Si atom -12391.957633 kJ/mol
# Density = 2.210050 g / cm^3
# Si number density = 22.150918 Si / 1000 Ang^3
#
#
#
# Elastic Constant Matrix: (Units=GPa)
#
#
# Indices 1 2 3 4 5 6 
#
# 1 105.7643 56.6274 48.0862 0.0000 -1.0925 0.0000
# 2 56.6274 63.0606 26.4528 0.0000 2.7131 0.0000
# 3 48.0862 26.4528 158.9246 0.0000 -5.6849 0.0000
# 4 0.0000 0.0000 0.0000 14.8097 0.0000 -0.9841
# 5 -1.0925 2.7131 -5.6849 0.0000 42.9684 0.0000
# 6 0.0000 0.0000 0.0000 -0.9841 0.0000 49.8418
#
#
#
# Elastic Compliance Matrix: (Units=1/GPa)
#
#
# Indices 1 2 3 4 5 6 
#
# 1 0.019696 -0.016396 -0.003190 0.000000 0.001114 0.000000
# 2 -0.016396 0.030789 -0.000249 0.000000 -0.002394 0.000000
# 3 -0.003190 -0.000249 0.007331 0.000000 0.000905 0.000000
# 4 0.000000 0.000000 0.000000 0.067612 0.000000 0.001335
# 5 0.001114 -0.002394 0.000905 0.000000 0.023572 0.000000
# 6 0.000000 0.000000 0.000000 0.001335 0.000000 0.020090
#
#
# Mechanical properties :
#
#
# Convention : Reuss Voigt Hill
#
# Bulk Modulus (GPa) = 55.11390 65.56472 60.33931
# Shear Modulus (GPa) = 23.27645 34.62952 28.95298
#
# Velocity S-wave (km/s) = 3.24514 3.95820 3.61928
# Velocity P-wave (km/s) = 6.24310 7.11008 6.69065
#
# Compressibility (1/GPa) = 0.01814424
#
# Stress axis : x y z
#
# Youngs Moduli (GPa) = 50.77264 32.47940 136.39780
#
# Poissons Ratio (x) = 0.53253 0.43517
# Poissons Ratio (y) = 0.83247 0.03402
# Poissons Ratio (z) = 0.16199 0.00810
#
# Static dielectric constant tensor:
#      x y z
#    x 4.055430 0.000000 -0.449870 
#    y 0.000000 3.950010 0.000000 
#    z -0.449870 0.000000 4.382780 
# 
# 
# High freq. dielectric constant tensor:
#      x y z
#    x 1.858070 0.000000 -0.011730 
#    y 0.000000 1.866430 0.000000 
#    z -0.011730 0.000000 1.892730 
# 
# From -- ./inp_files/27452.got.cif
#   From: 2010.06.25/outbox.cif.g09.slc.cpg/sg13_14_cif.got.tgz:27452.got - 2010.06.28 04:50:58.
