data_PCOD8120748
_publ_section_title
;
Structure prediction by ZEFSAII (Michael W. Deem and Ramdas Pophale) SiO2 
 PCOD8120748
Probable space group: P 2/C
;
_chemical_formula_sum "Si O2"
_cell_formula_units_Z 20
_cell_length_a 12.546720
_cell_length_b 12.920753
_cell_length_c 10.202051
_cell_angle_alpha 90.000000
_cell_angle_beta 145.061376
_cell_angle_gamma 90.000000
_cell_volume 947.178122
_symmetry_space_group_name_H-M "P 2/C"
_symmetry_group_IT_number 13
_symmetry_cell_setting 'monoclinic'
loop_
_space_group_symop_operation_xyz
x,y,z
-x,y,1/2-z
-x,-y,-z
x,-y,1/2+z
loop_
_atom_site_type_symbol
_atom_site_label
_atom_site_fract_x
_atom_site_fract_y
_atom_site_fract_z
Si Si1 0.283961 0.309626 0.036373
Si Si2 0.989240 0.383825 0.535930
Si Si3 0.979909 0.191442 0.080270
Si Si4 0.402319 0.117357 0.784654
Si Si5 0.273079 0.107364 0.185394
O O1 0.500000 0.340189 0.250000
O O2 0.258395 0.188148 0.049710
O O3 0.175387 0.338497 0.793523
O O4 0.190628 0.379990 0.053418
O O5 0.949707 0.308893 0.372004
O O6 0.000000 0.500000 0.500000
O O7 0.000000 0.155446 0.250000
O O8 0.091242 0.114091 0.095143
O O9 0.760281 0.192133 0.830144
O O10 0.500000 0.155340 0.750000
O O11 0.302442 0.006613 0.656411
O O12 0.545279 0.128224 0.045974
#
# Coordination Sequence:
#
# PCOD8120748 Si02
#       5
#     4   4   4   4   4
#     4  10  21  42  65  92 120 160 206 254 312 369
#     4  10  24  42  65  91 122 161 208 264 319 365
#     4  11  22  39  59  88 124 161 203 252 311 367
#     4  11  21  37  60  93 125 164 202 250 305 366
#     4  10  22  39  61  89 127 161 206 249 302 372
#
# _framework density 21.115352999999999
#
# number of rings (size 3 to 8) (size 9 to 14) (size 15 to 20)
#    0.000    1.600    2.000    2.400    2.800    2.400 
#    7.200    1.000    0.000    0.000    0.000    0.000 
#    0.000    0.000    0.000    0.000    0.000    0.000 
#
# Total GULP energy -247902.139788 kJ/mol
# GULP energy per Si atom -12395.106989 kJ/mol
# Density = 2.106729 g / cm^3
# Si number density = 21.115353 Si / 1000 Ang^3
#
#
#
# Elastic Constant Matrix: (Units=GPa)
#
#
# Indices 1 2 3 4 5 6 
#
# 1 104.3140 19.6782 49.4492 0.0000 26.3638 0.0000
# 2 19.6782 86.8551 18.2679 0.0000 -1.8078 0.0000
# 3 49.4492 18.2679 87.9410 0.0000 17.8965 0.0000
# 4 0.0000 0.0000 0.0000 29.7780 0.0000 -2.4457
# 5 26.3638 -1.8078 17.8965 0.0000 44.7369 0.0000
# 6 0.0000 0.0000 0.0000 -2.4457 0.0000 20.7210
#
#
#
# Elastic Compliance Matrix: (Units=1/GPa)
#
#
# Indices 1 2 3 4 5 6 
#
# 1 0.014618 -0.002060 -0.006556 0.000000 -0.006075 0.000000
# 2 -0.002060 0.012438 -0.001932 0.000000 0.002489 0.000000
# 3 -0.006556 -0.001932 0.015990 0.000000 -0.002612 0.000000
# 4 0.000000 0.000000 0.000000 0.033911 0.000000 0.004003
# 5 -0.006075 0.002489 -0.002612 0.000000 0.027078 0.000000
# 6 0.000000 0.000000 0.000000 0.004003 0.000000 0.048733
#
#
# Mechanical properties :
#
#
# Convention : Reuss Voigt Hill
#
# Bulk Modulus (GPa) = 45.55430 50.43341 47.99385
# Shear Modulus (GPa) = 27.59685 31.82818 29.71251
#
# Velocity S-wave (km/s) = 3.61911 3.88667 3.75527
# Velocity P-wave (km/s) = 6.25178 6.63914 6.44837
#
# Compressibility (1/GPa) = 0.02195182
#
# Stress axis : x y z
#
# Youngs Moduli (GPa) = 68.40899 80.39701 62.53792
#
# Poissons Ratio (x) = 0.16558 0.40997
# Poissons Ratio (y) = 0.14089 0.12084
# Poissons Ratio (z) = 0.44846 0.15535
#
# Static dielectric constant tensor:
#      x y z
#    x 4.007630 0.000000 0.199680 
#    y 0.000000 3.570150 0.000000 
#    z 0.199680 0.000000 3.883720 
# 
# 
# High freq. dielectric constant tensor:
#      x y z
#    x 1.845280 0.000000 0.011130 
#    y 0.000000 1.802820 0.000000 
#    z 0.011130 0.000000 1.828810 
# 
# From -- ./inp_files/36818.got.cif
#   From: 2010.06.25/outbox.cif.g09.slc.cpg/sg13_19_cif.got.tgz:36818.got - 2010.06.28 04:50:58.
