data_PCOD8120966
_publ_section_title
;
Structure prediction by ZEFSAII (Michael W. Deem and Ramdas Pophale) SiO2 
 PCOD8120966
Probable space group: P 2/C
;
_chemical_formula_sum "Si O2"
_cell_formula_units_Z 22
_cell_length_a 10.615277
_cell_length_b 20.485129
_cell_length_c 5.041871
_cell_angle_alpha 90.000000
_cell_angle_beta 82.064832
_cell_angle_gamma 90.000000
_cell_volume 1085.883716
_symmetry_space_group_name_H-M "P 2/C"
_symmetry_group_IT_number 13
_symmetry_cell_setting 'monoclinic'
loop_
_space_group_symop_operation_xyz
x,y,z
-x,y,1/2-z
-x,-y,-z
x,-y,1/2+z
loop_
_atom_site_type_symbol
_atom_site_label
_atom_site_fract_x
_atom_site_fract_y
_atom_site_fract_z
Si Si1 0.000000 0.635892 0.750000
Si Si2 0.793162 0.263333 0.216842
Si Si3 0.582667 0.356699 0.474500
Si Si4 0.799848 0.543968 0.984474
Si Si5 0.151372 0.961846 0.216535
Si Si6 0.146639 0.815439 0.286388
O O1 0.897631 0.680569 0.627006
O O2 0.922436 0.591196 0.982564
O O3 0.661632 0.294445 0.350456
O O4 0.841936 0.212285 0.421501
O O5 0.770869 0.226879 0.945072
O O6 0.500000 0.382292 0.250000
O O7 0.670925 0.415226 0.553229
O O8 0.500000 0.334136 0.750000
O O9 0.804945 0.514150 0.689841
O O10 0.200610 0.888975 0.261890
O O11 0.000000 0.961799 0.250000
O O12 0.204378 0.011201 0.423814
O O13 0.000000 0.813088 0.250000
#
# Coordination Sequence:
#
# PCOD8120966 Si02
#       6
#     2   4   4   4   4   4
#     4  10  22  38  56  82 116 142 176 224 278 334
#     4  11  22  36  56  83 112 148 187 226 279 332
#     4  11  24  42  60  80 110 145 186 237 280 323
#     4  11  24  39  60  84 108 142 180 224 277 336
#     4   9  17  28  44  70 111 156 186 212 255 316
#     4  11  19  32  53  82 116 150 186 223 268 333
#
# _framework density 20.259995
#
# number of rings (size 3 to 8) (size 9 to 14) (size 15 to 20)
#    0.000    1.455    1.818    3.818    0.000   10.909 
#    0.000    0.000    0.000    0.000    0.000    0.000 
#    0.000   50.909    0.000    0.000    0.000    0.000 
#
# Total GULP energy -272858.053160 kJ/mol
# GULP energy per Si atom -12402.638780 kJ/mol
# Density = 2.021388 g / cm^3
# Si number density = 20.259995 Si / 1000 Ang^3
#
#
#
# Elastic Constant Matrix: (Units=GPa)
#
#
# Indices 1 2 3 4 5 6 
#
# 1 66.0726 27.7396 25.6110 0.0000 -13.0330 0.0000
# 2 27.7396 116.8040 30.7125 0.0000 -10.6431 0.0000
# 3 25.6110 30.7125 98.7566 0.0000 -4.4327 0.0000
# 4 0.0000 0.0000 0.0000 30.9086 0.0000 0.6456
# 5 -13.0330 -10.6431 -4.4327 0.0000 28.3991 0.0000
# 6 0.0000 0.0000 0.0000 0.6456 0.0000 8.7490
#
#
#
# Elastic Compliance Matrix: (Units=1/GPa)
#
#
# Indices 1 2 3 4 5 6 
#
# 1 0.019229 -0.002928 -0.003755 0.000000 0.007141 0.000000
# 2 -0.002928 0.010042 -0.002271 0.000000 0.002065 0.000000
# 3 -0.003755 -0.002271 0.011773 0.000000 -0.000737 0.000000
# 4 0.000000 0.000000 0.000000 0.032403 0.000000 -0.002391
# 5 0.007141 0.002065 -0.000737 0.000000 0.039148 0.000000
# 6 0.000000 0.000000 0.000000 -0.002391 0.000000 0.114475
#
#
# Mechanical properties :
#
#
# Convention : Reuss Voigt Hill
#
# Bulk Modulus (GPa) = 43.22609 49.97325 46.59967
# Shear Modulus (GPa) = 19.78704 26.78271 23.28488
#
# Velocity S-wave (km/s) = 3.12854 3.63981 3.39382
# Velocity P-wave (km/s) = 5.86791 6.51028 6.19742
#
# Compressibility (1/GPa) = 0.02313417
#
# Stress axis : x y z
#
# Youngs Moduli (GPa) = 52.00607 99.58076 84.94050
#
# Poissons Ratio (x) = 0.29162 0.31898
# Poissons Ratio (y) = 0.15230 0.19289
# Poissons Ratio (z) = 0.19530 0.22613
#
# Static dielectric constant tensor:
#      x y z
#    x 3.459100 0.000000 0.006520 
#    y 0.000000 3.878040 0.000000 
#    z 0.006520 0.000000 3.680080 
# 
# 
# High freq. dielectric constant tensor:
#      x y z
#    x 1.751020 0.000000 0.003460 
#    y 0.000000 1.800460 0.000000 
#    z 0.003460 0.000000 1.799390 
# 
# From -- ./inp_files/3581.got.cif
#   From: 2010.06.25/outbox.cif.g09.slc.cpg/sg13_2_cif.got.tgz:3581.got - 2010.06.28 04:50:58.
