data_PCOD8120521
_publ_section_title
;
Structure prediction by ZEFSAII (Michael W. Deem and Ramdas Pophale) SiO2 
 PCOD8120521
Probable space group: P 2/C
;
_chemical_formula_sum "Si O2"
_cell_formula_units_Z 24
_cell_length_a 14.816288
_cell_length_b 4.884215
_cell_length_c 30.040611
_cell_angle_alpha 90.000000
_cell_angle_beta 151.105614
_cell_angle_gamma 90.000000
_cell_volume 1050.429273
_symmetry_space_group_name_H-M "P 2/C"
_symmetry_group_IT_number 13
_symmetry_cell_setting 'monoclinic'
loop_
_space_group_symop_operation_xyz
x,y,z
-x,y,1/2-z
-x,-y,-z
x,-y,1/2+z
loop_
_atom_site_type_symbol
_atom_site_label
_atom_site_fract_x
_atom_site_fract_y
_atom_site_fract_z
Si Si1 0.227310 0.934001 0.239332
Si Si2 0.573296 0.757692 0.088609
Si Si3 0.337820 0.249779 0.972938
Si Si4 0.576813 0.080442 0.331311
Si Si5 0.009113 0.548225 0.879645
Si Si6 0.827059 0.421519 0.955721
O O1 0.411620 0.024547 0.293766
O O2 0.083235 0.186065 0.183098
O O3 0.273523 0.816011 0.307895
O O4 0.144582 0.682280 0.174687
O O5 0.673043 0.803368 0.084452
O O6 0.507160 0.444718 0.061741
O O7 0.390022 0.953845 0.016606
O O8 0.145152 0.383911 0.905086
O O9 0.500000 0.163981 0.250000
O O10 0.685950 0.330087 0.400038
O O11 0.719070 0.830233 0.387009
O O12 0.106027 0.657286 0.966132
O O13 0.000000 0.500000 0.000000
#
# Coordination Sequence:
#
# PCOD8120521 Si02
#       6
#     4   4   4   4   4   4
#     4  12  24  40  62  93 128 164 209 260 315 375
#     4  10  21  40  63  87 118 160 206 253 310 371
#     4  10  21  40  63  87 118 160 206 253 310 371
#     4  12  24  42  65  92 127 167 212 259 314 374
#     4  12  24  40  62  93 128 164 209 260 316 376
#     4  12  24  42  65  92 127 167 212 259 314 375
#
# _framework density 22.847802000000001
#
# number of rings (size 3 to 8) (size 9 to 14) (size 15 to 20)
#    0.000    0.667    0.000    9.000    0.000    0.667 
#    0.000    1.667    0.000    0.000    0.000    0.000 
#    0.000    0.000    0.000    0.000    0.000    0.000 
#
# Total GULP energy -297710.355349 kJ/mol
# GULP energy per Si atom -12404.598140 kJ/mol
# Density = 2.279580 g / cm^3
# Si number density = 22.847802 Si / 1000 Ang^3
#
#
#
# Elastic Constant Matrix: (Units=GPa)
#
#
# Indices 1 2 3 4 5 6 
#
# 1 88.4448 -1.5001 39.6476 0.0000 -11.9245 0.0000
# 2 -1.5001 97.2724 30.3676 0.0000 -12.3674 0.0000
# 3 39.6476 30.3676 119.7000 0.0000 -14.4609 0.0000
# 4 0.0000 0.0000 0.0000 52.1864 0.0000 6.5930
# 5 -11.9245 -12.3674 -14.4609 0.0000 28.0769 0.0000
# 6 0.0000 0.0000 0.0000 6.5930 0.0000 33.5956
#
#
#
# Elastic Compliance Matrix: (Units=1/GPa)
#
#
# Indices 1 2 3 4 5 6 
#
# 1 0.014056 0.002256 -0.004678 0.000000 0.004554 0.000000
# 2 0.002256 0.011897 -0.003217 0.000000 0.004542 0.000000
# 3 -0.004678 -0.003217 0.010993 0.000000 0.002258 0.000000
# 4 0.000000 0.000000 0.000000 0.019649 0.000000 -0.003856
# 5 0.004554 0.004542 0.002258 0.000000 0.040714 0.000000
# 6 0.000000 0.000000 0.000000 -0.003856 0.000000 0.030523
#
#
# Mechanical properties :
#
#
# Convention : Reuss Voigt Hill
#
# Bulk Modulus (GPa) = 38.95877 49.16082 44.05980
# Shear Modulus (GPa) = 33.86066 38.56527 36.21297
#
# Velocity S-wave (km/s) = 3.85386 4.11289 3.98548
# Velocity P-wave (km/s) = 6.07384 6.64212 6.36433
#
# Compressibility (1/GPa) = 0.02566816
#
# Stress axis : x y z
#
# Youngs Moduli (GPa) = 71.14560 84.05549 90.97109
#
# Poissons Ratio (x) = -0.18964 0.42554
# Poissons Ratio (y) = -0.16051 0.29264
# Poissons Ratio (z) = 0.33280 0.27039
#
# Static dielectric constant tensor:
#      x y z
#    x 3.966540 0.000000 -0.019850 
#    y 0.000000 4.404730 0.000000 
#    z -0.019850 0.000000 4.321480 
# 
# 
# High freq. dielectric constant tensor:
#      x y z
#    x 1.898050 0.000000 0.000130 
#    y 0.000000 1.923210 0.000000 
#    z 0.000130 0.000000 1.910650 
# 
# From -- ./inp_files/96889.got.cif
#   From: 2010.06.25/outbox.cif.g09.slc.cpg/sg13_49_cif.got.tgz:96889.got - 2010.06.28 04:50:58.
