data_PCOD8120798
_publ_section_title
;
Structure prediction by ZEFSAII (Michael W. Deem and Ramdas Pophale) SiO2 
 PCOD8120798
Probable space group: P 2/C
;
_chemical_formula_sum "Si O2"
_cell_formula_units_Z 32
_cell_length_a 10.612390
_cell_length_b 15.187349
_cell_length_c 13.934157
_cell_angle_alpha 90.000000
_cell_angle_beta 136.047859
_cell_angle_gamma 90.000000
_cell_volume 1558.731023
_symmetry_space_group_name_H-M "P 2/C"
_symmetry_group_IT_number 13
_symmetry_cell_setting 'monoclinic'
loop_
_space_group_symop_operation_xyz
x,y,z
-x,y,1/2-z
-x,-y,-z
x,-y,1/2+z
loop_
_atom_site_type_symbol
_atom_site_label
_atom_site_fract_x
_atom_site_fract_y
_atom_site_fract_z
Si Si1 0.920914 0.889549 0.418746
Si Si2 0.241858 0.216809 0.042710
Si Si3 0.833007 0.397652 0.587982
Si Si4 0.102126 0.949197 0.705230
Si Si5 0.314972 0.720296 0.200784
Si Si6 0.498137 0.648851 0.475323
Si Si7 0.371990 0.207420 0.322173
Si Si8 0.322638 0.550717 0.095564
O O1 0.820634 0.799342 0.383811
O O2 0.110222 0.867057 0.469701
O O3 0.951591 0.928101 0.541756
O O4 0.816451 0.957070 0.289318
O O5 0.289402 0.242607 0.177848
O O6 0.415813 0.185078 0.077453
O O7 0.140289 0.301146 0.942065
O O8 0.632150 0.405306 0.524754
O O9 0.824566 0.473048 0.500400
O O10 0.000000 0.418443 0.750000
O O11 0.263427 0.877867 0.801154
O O12 0.000000 0.957648 0.750000
O O13 0.500000 0.746466 0.250000
O O14 0.355645 0.705568 0.334661
O O15 0.233495 0.631141 0.107517
O O16 0.638827 0.713439 0.607242
O O17 0.619102 0.584984 0.477506
O O18 0.500000 0.515733 0.250000
#
# Coordination Sequence:
#
# PCOD8120798 Si02
#       8
#     4   4   4   4   4   4   4   4
#     4  10  21  43  58  85 123 160 190 259 313 351
#     4   9  20  38  62  83 125 162 197 243 308 364
#     4  11  21  35  57  91 120 153 208 253 294 354
#     4  10  23  38  62  91 121 148 203 255 305 369
#     4   9  20  39  59  82 115 166 198 239 306 371
#     4   9  19  36  59  82 115 159 199 243 295 360
#     4   9  19  38  61  92 112 159 205 241 302 367
#     4   9  21  38  57  81 120 161 199 248 303 360
#
# _framework density 20.529522
#
# number of rings (size 3 to 8) (size 9 to 14) (size 15 to 20)
#    0.000    2.750    0.000    1.125    7.000    2.500 
#   11.250    4.375    0.000    0.000    0.000    0.000 
#    0.000    0.000    0.000    0.000    0.000    0.000 
#
# Total GULP energy -396623.455434 kJ/mol
# GULP energy per Si atom -12394.482982 kJ/mol
# Density = 2.048280 g / cm^3
# Si number density = 20.529522 Si / 1000 Ang^3
#
#
#
# Elastic Constant Matrix: (Units=GPa)
#
#
# Indices 1 2 3 4 5 6 
#
# 1 63.2272 35.3161 26.8121 0.0000 -14.5741 0.0000
# 2 35.3161 112.1431 63.2071 0.0000 -0.8978 0.0000
# 3 26.8121 63.2071 87.6320 0.0000 -6.6568 0.0000
# 4 0.0000 0.0000 0.0000 30.6860 0.0000 4.4704
# 5 -14.5741 -0.8978 -6.6568 0.0000 26.8324 0.0000
# 6 0.0000 0.0000 0.0000 4.4704 0.0000 26.9342
#
#
#
# Elastic Compliance Matrix: (Units=1/GPa)
#
#
# Indices 1 2 3 4 5 6 
#
# 1 0.022609 -0.006112 -0.001622 0.000000 0.011673 0.000000
# 2 -0.006112 0.016810 -0.010665 0.000000 -0.005403 0.000000
# 3 -0.001622 -0.010665 0.019881 0.000000 0.003694 0.000000
# 4 0.000000 0.000000 0.000000 0.033396 0.000000 -0.005543
# 5 0.011673 -0.005403 0.003694 0.000000 0.044344 0.000000
# 6 0.000000 0.000000 0.000000 -0.005543 0.000000 0.038047
#
#
# Mechanical properties :
#
#
# Convention : Reuss Voigt Hill
#
# Bulk Modulus (GPa) = 44.44311 57.07476 50.75894
# Shear Modulus (GPa) = 22.79098 26.06832 24.42965
#
# Velocity S-wave (km/s) = 3.33552 3.56729 3.45335
# Velocity P-wave (km/s) = 6.04397 6.69545 6.37803
#
# Compressibility (1/GPa) = 0.02250068
#
# Stress axis : x y z
#
# Youngs Moduli (GPa) = 44.23113 59.48896 50.30012
#
# Poissons Ratio (x) = 0.36361 0.08159
# Poissons Ratio (y) = 0.27035 0.53645
# Poissons Ratio (z) = 0.07175 0.63445
#
# Static dielectric constant tensor:
#      x y z
#    x 3.709780 0.000000 -0.162460 
#    y 0.000000 3.754490 0.000000 
#    z -0.162460 0.000000 3.682330 
# 
# 
# High freq. dielectric constant tensor:
#      x y z
#    x 1.795280 0.000000 -0.017490 
#    y 0.000000 1.804530 0.000000 
#    z -0.017490 0.000000 1.795600 
# 
# From -- ./inp_files/51489.got.cif
#   From: 2010.06.25/outbox.cif.g09.slc.cpg/sg13_26_cif.got.tgz:51489.got - 2010.06.28 04:50:58.
