data_PCOD8120019
_publ_section_title
;
Structure prediction by ZEFSAII (Michael W. Deem and Ramdas Pophale) SiO2 
 PCOD8120019
Probable space group: P 2/C
;
_chemical_formula_sum "Si O2"
_cell_formula_units_Z 28
_cell_length_a 17.689548
_cell_length_b 9.382470
_cell_length_c 14.074488
_cell_angle_alpha 90.000000
_cell_angle_beta 40.031392
_cell_angle_gamma 90.000000
_cell_volume 1502.510235
_symmetry_space_group_name_H-M "P 2/C"
_symmetry_group_IT_number 13
_symmetry_cell_setting 'monoclinic'
loop_
_space_group_symop_operation_xyz
x,y,z
-x,y,1/2-z
-x,-y,-z
x,-y,1/2+z
loop_
_atom_site_type_symbol
_atom_site_label
_atom_site_fract_x
_atom_site_fract_y
_atom_site_fract_z
Si Si1 0.946002 0.639732 0.596500
Si Si2 0.370619 0.663422 0.920137
Si Si3 0.262263 0.367265 0.057746
Si Si4 0.356128 0.849082 0.120381
Si Si5 0.616881 0.831535 0.922847
Si Si6 0.242959 0.337545 0.354988
Si Si7 0.803597 0.666544 0.092194
O O1 0.855435 0.604850 0.768417
O O2 0.877610 0.726471 0.576857
O O3 0.000000 0.500000 0.500000
O O4 0.060235 0.716935 0.529239
O O5 0.500000 0.667159 0.750000
O O6 0.266287 0.695364 0.943208
O O7 0.344788 0.506452 0.984602
O O8 0.361694 0.780262 0.010585
O O9 0.338504 0.237029 0.023114
O O10 0.230317 0.316405 0.983981
O O11 0.261964 0.773877 0.276221
O O12 0.321472 0.014450 0.144021
O O13 0.477532 0.841797 0.060421
O O14 0.646859 0.728669 0.805860
O O15 0.231295 0.506007 0.343574
#
# Coordination Sequence:
#
# PCOD8120019 Si02
#       7
#     4   4   4   4   4   4   4
#     4   9  17  36  59  85 114 145 182 232 283 331
#     4  11  21  35  57  87 112 145 185 236 286 339
#     4  10  22  36  58  88 115 142 188 236 285 337
#     4  11  23  37  55  80 117 153 190 227 286 340
#     4  10  22  38  54  80 117 152 185 233 281 341
#     4   9  19  36  57  83 110 143 185 232 281 327
#     4  10  21  36  61  85 109 151 188 235 280 337
#
# _framework density 18.635480000000001
#
# number of rings (size 3 to 8) (size 9 to 14) (size 15 to 20)
#    0.000    2.000    1.429    3.000    4.000    2.286 
#    0.000    5.000    0.000    3.429    0.000    2.000 
#    0.000    0.000    0.000    0.000    0.000    0.000 
#
# Total GULP energy -346973.187389 kJ/mol
# GULP energy per Si atom -12391.899550 kJ/mol
# Density = 1.859307 g / cm^3
# Si number density = 18.635480 Si / 1000 Ang^3
#
#
#
# Elastic Constant Matrix: (Units=GPa)
#
#
# Indices 1 2 3 4 5 6 
#
# 1 119.3132 58.5620 50.1879 0.0000 8.4249 0.0000
# 2 58.5620 75.9342 34.2862 0.0000 9.6781 0.0000
# 3 50.1879 34.2862 104.5704 0.0000 12.8611 0.0000
# 4 0.0000 0.0000 0.0000 14.4428 0.0000 0.3063
# 5 8.4249 9.6781 12.8611 0.0000 24.0124 0.0000
# 6 0.0000 0.0000 0.0000 0.3063 0.0000 17.2453
#
#
#
# Elastic Compliance Matrix: (Units=1/GPa)
#
#
# Indices 1 2 3 4 5 6 
#
# 1 0.014762 -0.009682 -0.004018 0.000000 0.000875 0.000000
# 2 -0.009682 0.022132 -0.002067 0.000000 -0.004416 0.000000
# 3 -0.004018 -0.002067 0.012732 0.000000 -0.004576 0.000000
# 4 0.000000 0.000000 0.000000 0.069265 0.000000 -0.001230
# 5 0.000875 -0.004416 -0.004576 0.000000 0.045569 0.000000
# 6 0.000000 0.000000 0.000000 -0.001230 0.000000 0.058009
#
#
# Mechanical properties :
#
#
# Convention : Reuss Voigt Hill
#
# Bulk Modulus (GPa) = 55.27095 65.09889 60.18492
# Shear Modulus (GPa) = 19.22838 21.59222 20.41030
#
# Velocity S-wave (km/s) = 3.21567 3.40760 3.31303
# Velocity P-wave (km/s) = 6.59627 7.10570 6.85572
#
# Compressibility (1/GPa) = 0.01809269
#
# Stress axis : x y z
#
# Youngs Moduli (GPa) = 67.74281 45.18309 78.54334
#
# Poissons Ratio (x) = 0.43746 0.31558
# Poissons Ratio (y) = 0.65587 0.16233
# Poissons Ratio (z) = 0.27219 0.09338
#
# Static dielectric constant tensor:
#      x y z
#    x 4.039610 0.000000 -0.230530 
#    y 0.000000 3.250450 0.000000 
#    z -0.230530 0.000000 3.566420 
# 
# 
# High freq. dielectric constant tensor:
#      x y z
#    x 1.748500 0.000000 -0.000660 
#    y 0.000000 1.698600 0.000000 
#    z -0.000660 0.000000 1.719780 
# 
# From -- ./inp_files/55243.got.cif
#   From: 2010.06.25/outbox.cif.g09.slc.cpg/sg13_28_cif.got.tgz:55243.got - 2010.06.28 04:50:58.
