data_PCOD8120886
_publ_section_title
;
Structure prediction by ZEFSAII (Michael W. Deem and Ramdas Pophale) SiO2 
 PCOD8120886
Probable space group: P 2/C
;
_chemical_formula_sum "Si O2"
_cell_formula_units_Z 32
_cell_length_a 17.533606
_cell_length_b 14.307681
_cell_length_c 11.624928
_cell_angle_alpha 90.000000
_cell_angle_beta 150.173752
_cell_angle_gamma 90.000000
_cell_volume 1450.479553
_symmetry_space_group_name_H-M "P 2/C"
_symmetry_group_IT_number 13
_symmetry_cell_setting 'monoclinic'
loop_
_space_group_symop_operation_xyz
x,y,z
-x,y,1/2-z
-x,-y,-z
x,-y,1/2+z
loop_
_atom_site_type_symbol
_atom_site_label
_atom_site_fract_x
_atom_site_fract_y
_atom_site_fract_z
Si Si1 0.819637 0.833813 0.231324
Si Si2 0.665487 0.045442 0.705120
Si Si3 0.114901 0.351422 0.568183
Si Si4 0.784069 0.372364 0.056085
Si Si5 0.847149 0.877165 0.876591
Si Si6 0.332194 0.167882 0.572817
Si Si7 0.819428 0.278823 0.511707
Si Si8 0.326079 0.570816 0.546098
O O1 0.691971 0.903804 0.116050
O O2 0.869605 0.759690 0.394433
O O3 0.754672 0.781625 0.034406
O O4 0.970448 0.889185 0.386964
O O5 0.696981 0.123128 0.841663
O O6 0.500000 0.000000 0.500000
O O7 0.787361 0.961926 0.876865
O O8 0.175643 0.380828 0.524464
O O9 0.933669 0.375580 0.334556
O O10 0.209062 0.404064 0.790370
O O11 0.688802 0.278741 0.952295
O O12 0.675868 0.459748 0.942202
O O13 0.784732 0.882254 0.666263
O O14 0.786630 0.778525 0.852304
O O15 0.500000 0.142341 0.750000
O O16 0.730040 0.377517 0.408580
O O17 0.000000 0.299505 0.750000
O O18 0.500000 0.602987 0.750000
#
# Coordination Sequence:
#
# PCOD8120886 Si02
#       8
#     4   4   4   4   4   4   4   4
#     4  10  21  46  67  97 132 173 234 281 337 422
#     4  12  26  42  65  96 134 178 221 279 354 415
#     4  10  22  42  70 100 134 189 236 290 349 413
#     4  11  23  42  69 102 140 183 237 293 352 418
#     4  11  24  43  69  98 133 177 226 290 344 413
#     4  12  25  43  67 100 140 179 231 290 356 417
#     4   9  23  43  68  98 132 178 232 283 344 408
#     4  11  25  42  68 104 143 189 234 287 358 428
#
# _framework density 22.061668999999998
#
# number of rings (size 3 to 8) (size 9 to 14) (size 15 to 20)
#    0.000    1.250    3.750    1.125    3.500    5.000 
#    2.250    0.000    0.000    0.000    0.000    0.000 
#    0.000    0.000    0.000    0.000    0.000    0.000 
#
# Total GULP energy -396772.501845 kJ/mol
# GULP energy per Si atom -12399.140683 kJ/mol
# Density = 2.201146 g / cm^3
# Si number density = 22.061669 Si / 1000 Ang^3
#
#
#
# Elastic Constant Matrix: (Units=GPa)
#
#
# Indices 1 2 3 4 5 6 
#
# 1 101.8403 50.5173 31.1954 0.0000 12.2474 0.0000
# 2 50.5173 121.2057 28.5595 0.0000 16.2284 0.0000
# 3 31.1954 28.5595 59.6555 0.0000 0.5016 0.0000
# 4 0.0000 0.0000 0.0000 11.1138 0.0000 12.4919
# 5 12.2474 16.2284 0.5016 0.0000 31.6843 0.0000
# 6 0.0000 0.0000 0.0000 12.4919 0.0000 44.9803
#
#
#
# Elastic Compliance Matrix: (Units=1/GPa)
#
#
# Indices 1 2 3 4 5 6 
#
# 1 0.013846 -0.004111 -0.005246 0.000000 -0.003163 0.000000
# 2 -0.004111 0.011275 -0.003213 0.000000 -0.004135 0.000000
# 3 -0.005246 -0.003213 0.021016 0.000000 0.003341 0.000000
# 4 0.000000 0.000000 0.000000 0.130812 0.000000 -0.036329
# 5 -0.003163 -0.004135 0.003341 0.000000 0.034849 0.000000
# 6 0.000000 0.000000 0.000000 -0.036329 0.000000 0.032321
#
#
# Mechanical properties :
#
#
# Convention : Reuss Voigt Hill
#
# Bulk Modulus (GPa) = 47.62588 55.91620 51.77104
# Shear Modulus (GPa) = 18.09905 29.05095 23.57500
#
# Velocity S-wave (km/s) = 2.86734 3.63272 3.27248
# Velocity P-wave (km/s) = 5.70935 6.55713 6.14787
#
# Compressibility (1/GPa) = 0.02099699
#
# Stress axis : x y z
#
# Youngs Moduli (GPa) = 72.22359 88.69452 47.58270
#
# Poissons Ratio (x) = 0.36465 0.24960
# Poissons Ratio (y) = 0.29693 0.15288
# Poissons Ratio (z) = 0.37885 0.28497
#
# Static dielectric constant tensor:
#      x y z
#    x 4.103090 0.000000 -0.022540 
#    y 0.000000 4.123330 0.000000 
#    z -0.022540 0.000000 3.767010 
# 
# 
# High freq. dielectric constant tensor:
#      x y z
#    x 1.878480 0.000000 0.003680 
#    y 0.000000 1.876340 0.000000 
#    z 0.003680 0.000000 1.846630 
# 
# From -- ./inp_files/39475.got.cif
#   From: 2010.06.25/outbox.cif.g09.slc.cpg/sg13_20_cif.got.tgz:39475.got - 2010.06.28 04:50:58.
