data_PCOD8120289
_publ_section_title
;
Structure prediction by ZEFSAII (Michael W. Deem and Ramdas Pophale) SiO2 
 PCOD8120289
Probable space group: P 2/C
;
_chemical_formula_sum "Si O2"
_cell_formula_units_Z 32
_cell_length_a 11.818604
_cell_length_b 9.463945
_cell_length_c 29.572941
_cell_angle_alpha 90.000000
_cell_angle_beta 27.269787
_cell_angle_gamma 90.000000
_cell_volume 1515.548694
_symmetry_space_group_name_H-M "P 2/C"
_symmetry_group_IT_number 13
_symmetry_cell_setting 'monoclinic'
loop_
_space_group_symop_operation_xyz
x,y,z
-x,y,1/2-z
-x,-y,-z
x,-y,1/2+z
loop_
_atom_site_type_symbol
_atom_site_label
_atom_site_fract_x
_atom_site_fract_y
_atom_site_fract_z
Si Si1 0.783072 0.156789 0.619279
Si Si2 0.345362 0.980865 0.010164
Si Si3 0.158215 0.874450 0.298647
Si Si4 0.686282 0.659380 0.764530
Si Si5 0.756634 0.139886 0.097345
Si Si6 0.483300 0.650140 0.351313
Si Si7 0.222557 0.890167 0.704846
Si Si8 0.904658 0.246468 0.443802
O O1 0.718390 0.138088 0.695149
O O2 0.665610 0.299793 0.640495
O O3 0.081025 0.162019 0.505965
O O4 0.669369 0.023874 0.631272
O O5 0.516596 0.930067 0.908801
O O6 0.219748 0.130507 0.044026
O O7 0.500000 0.000000 0.000000
O O8 0.137856 0.859872 0.091701
O O9 0.274720 0.749026 0.227099
O O10 0.202866 0.024341 0.258665
O O11 0.474594 0.757311 0.818081
O O12 0.573752 0.507331 0.812555
O O13 0.774160 0.725960 0.781311
O O14 0.919293 0.650322 0.647898
O O15 0.935994 0.163537 0.076046
O O16 0.306259 0.657903 0.457925
O O17 0.000000 0.923818 0.750000
#
# Coordination Sequence:
#
# PCOD8120289 Si02
#       8
#     4   4   4   4   4   4   4   4
#     4  10  21  38  64 101 135 178 230 276 335 401
#     4  12  23  42  72 103 129 166 228 294 342 393
#     4  12  22  41  67  99 131 175 225 286 337 389
#     4  12  25  42  66  97 142 189 221 271 342 409
#     4  10  21  38  66  96 135 179 227 282 334 397
#     4  11  27  42  64  99 145 182 222 272 333 423
#     4  12  24  44  72 101 131 176 237 285 339 399
#     4  11  23  42  66  97 133 176 230 282 338 394
#
# _framework density 21.114464999999999
#
# number of rings (size 3 to 8) (size 9 to 14) (size 15 to 20)
#    0.000    0.750    5.000    2.250    1.750    7.000 
#    0.000    1.875    0.000    3.000    0.000    0.000 
#    0.000    0.000    0.000    0.000    0.000    0.000 
#
# Total GULP energy -396840.548276 kJ/mol
# GULP energy per Si atom -12401.267134 kJ/mol
# Density = 2.106641 g / cm^3
# Si number density = 21.114465 Si / 1000 Ang^3
#
#
#
# Elastic Constant Matrix: (Units=GPa)
#
#
# Indices 1 2 3 4 5 6 
#
# 1 98.4623 39.1635 36.4096 0.0000 -1.1917 0.0000
# 2 39.1635 133.9412 72.3969 0.0000 0.1803 0.0000
# 3 36.4096 72.3969 188.7548 0.0000 10.3615 0.0000
# 4 0.0000 0.0000 0.0000 35.7939 0.0000 -2.3543
# 5 -1.1917 0.1803 10.3615 0.0000 35.0828 0.0000
# 6 0.0000 0.0000 0.0000 -2.3543 0.0000 19.4994
#
#
#
# Elastic Compliance Matrix: (Units=1/GPa)
#
#
# Indices 1 2 3 4 5 6 
#
# 1 0.011723 -0.002754 -0.001248 0.000000 0.000781 0.000000
# 2 -0.002754 0.010103 -0.003391 0.000000 0.000856 0.000000
# 3 -0.001248 -0.003391 0.006953 0.000000 -0.002079 0.000000
# 4 0.000000 0.000000 0.000000 0.028161 0.000000 0.003400
# 5 0.000781 0.000856 -0.002079 0.000000 0.029140 0.000000
# 6 0.000000 0.000000 0.000000 0.003400 0.000000 0.051694
#
#
# Mechanical properties :
#
#
# Convention : Reuss Voigt Hill
#
# Bulk Modulus (GPa) = 71.46268 79.67760 75.57014
# Shear Modulus (GPa) = 31.80185 36.28776 34.04480
#
# Velocity S-wave (km/s) = 3.88514 4.15012 4.01982
# Velocity P-wave (km/s) = 7.35151 7.79632 7.57718
#
# Compressibility (1/GPa) = 0.01399332
#
# Stress axis : x y z
#
# Youngs Moduli (GPa) = 85.30603 98.98229 143.82030
#
# Poissons Ratio (x) = 0.27262 0.17944
# Poissons Ratio (y) = 0.23495 0.48764
# Poissons Ratio (z) = 0.10643 0.33561
#
# Static dielectric constant tensor:
#      x y z
#    x 3.662140 0.000000 0.042980 
#    y 0.000000 3.482600 0.000000 
#    z 0.042980 0.000000 4.608520 
# 
# 
# High freq. dielectric constant tensor:
#      x y z
#    x 1.812520 0.000000 0.001630 
#    y 0.000000 1.793160 0.000000 
#    z 0.001630 0.000000 1.871970 
# 
# From -- ./inp_files/96659.got.cif
#   From: 2010.06.25/outbox.cif.g09.slc.cpg/sg13_49_cif.got.tgz:96659.got - 2010.06.28 04:50:58.
