data_PCOD8120125
_publ_section_title
;
Structure prediction by ZEFSAII (Michael W. Deem and Ramdas Pophale) SiO2 
 PCOD8120125
Probable space group: P 2/C
;
_chemical_formula_sum "Si O2"
_cell_formula_units_Z 24
_cell_length_a 16.590342
_cell_length_b 9.892827
_cell_length_c 15.355255
_cell_angle_alpha 90.000000
_cell_angle_beta 150.542794
_cell_angle_gamma 90.000000
_cell_volume 1239.360878
_symmetry_space_group_name_H-M "P 2/C"
_symmetry_group_IT_number 13
_symmetry_cell_setting 'monoclinic'
loop_
_space_group_symop_operation_xyz
x,y,z
-x,y,1/2-z
-x,-y,-z
x,-y,1/2+z
loop_
_atom_site_type_symbol
_atom_site_label
_atom_site_fract_x
_atom_site_fract_y
_atom_site_fract_z
Si Si1 0.000000 0.120645 0.250000
Si Si2 0.549948 0.379177 0.111898
Si Si3 0.105911 0.374312 0.131058
Si Si4 0.452303 0.858854 0.412072
Si Si5 0.713897 0.701294 0.538491
Si Si6 0.500000 0.499868 0.750000
Si Si7 0.083760 0.101615 0.514204
O O1 0.836834 0.207159 0.101897
O O2 0.028702 0.041521 0.367556
O O3 0.744831 0.348041 0.295233
O O4 0.513024 0.408585 0.177261
O O5 0.500000 0.500000 0.000000
O O6 0.444025 0.249048 0.983237
O O7 0.194732 0.397686 0.307271
O O8 0.000000 0.500000 0.000000
O O9 0.989106 0.247039 0.032276
O O10 0.579649 0.797876 0.460588
O O11 0.278361 0.884967 0.203484
O O12 0.500000 0.000000 0.500000
O O13 0.650288 0.602362 0.403759
O O14 0.000000 0.000000 0.500000
#
# Coordination Sequence:
#
# PCOD8120125 Si02
#       7
#     2   4   4   4   4   2   4
#     4  10  22  38  62  98 124 160 222 250 318 378
#     4  11  22  40  62  93 127 168 211 260 313 383
#     4  10  21  37  61  89 124 162 208 256 317 360
#     4  11  22  43  68  91 128 171 215 261 324 379
#     4  10  22  36  62  97 121 169 209 263 308 379
#     4  12  22  38  64  94 132 162 220 256 322 374
#     4  11  23  41  66  91 129 167 210 266 314 377
#
# _framework density 19.364820000000002
#
# number of rings (size 3 to 8) (size 9 to 14) (size 15 to 20)
#    0.000    1.333    3.333    5.000    4.667    0.000 
#    0.000    7.500    0.000    0.000    0.000    0.000 
#    0.000    0.000    0.000    0.000    0.000    0.000 
#
# Total GULP energy -297347.357888 kJ/mol
# GULP energy per Si atom -12389.473245 kJ/mol
# Density = 1.932074 g / cm^3
# Si number density = 19.364820 Si / 1000 Ang^3
#
#
#
# Elastic Constant Matrix: (Units=GPa)
#
#
# Indices 1 2 3 4 5 6 
#
# 1 106.6464 28.8680 44.4357 0.0000 -15.9048 0.0000
# 2 28.8680 100.0403 51.7917 0.0000 -17.3232 0.0000
# 3 44.4357 51.7917 136.9805 0.0000 -4.2479 0.0000
# 4 0.0000 0.0000 0.0000 37.3575 0.0000 -2.6765
# 5 -15.9048 -17.3232 -4.2479 0.0000 42.0119 0.0000
# 6 0.0000 0.0000 0.0000 -2.6765 0.0000 28.3931
#
#
#
# Elastic Compliance Matrix: (Units=1/GPa)
#
#
# Indices 1 2 3 4 5 6 
#
# 1 0.011547 -0.001024 -0.003246 0.000000 0.003621 0.000000
# 2 -0.001024 0.013503 -0.004627 0.000000 0.004712 0.000000
# 3 -0.003246 -0.004627 0.010037 0.000000 -0.002122 0.000000
# 4 0.000000 0.000000 0.000000 0.026950 0.000000 0.002541
# 5 0.003621 0.004712 -0.002122 0.000000 0.026902 0.000000
# 6 0.000000 0.000000 0.000000 0.002541 0.000000 0.035459
#
#
# Mechanical properties :
#
#
# Convention : Reuss Voigt Hill
#
# Bulk Modulus (GPa) = 57.83161 65.98423 61.90792
# Shear Modulus (GPa) = 33.79364 36.12396 34.95880
#
# Velocity S-wave (km/s) = 4.18198 4.32376 4.25346
# Velocity P-wave (km/s) = 7.29710 7.68601 7.49408
#
# Compressibility (1/GPa) = 0.01729158
#
# Stress axis : x y z
#
# Youngs Moduli (GPa) = 86.60589 74.05777 99.63215
#
# Poissons Ratio (x) = 0.07587 0.32341
# Poissons Ratio (y) = 0.08873 0.46099
# Poissons Ratio (z) = 0.28112 0.34266
#
# Static dielectric constant tensor:
#      x y z
#    x 3.757240 0.000000 0.041080 
#    y 0.000000 3.482310 0.000000 
#    z 0.041080 0.000000 3.949580 
# 
# 
# High freq. dielectric constant tensor:
#      x y z
#    x 1.757000 0.000000 0.003850 
#    y 0.000000 1.737580 0.000000 
#    z 0.003850 0.000000 1.777820 
# 
# From -- ./inp_files/55403.got.cif
#   From: 2010.06.25/outbox.cif.g09.slc.cpg/sg13_28_cif.got.tgz:55403.got - 2010.06.28 04:50:58.
