data_PCOD8120825
_publ_section_title
;
Structure prediction by ZEFSAII (Michael W. Deem and Ramdas Pophale) SiO2 
 PCOD8120825
Probable space group: P 2/C
;
_chemical_formula_sum "Si O2"
_cell_formula_units_Z 24
_cell_length_a 22.244267
_cell_length_b 5.229340
_cell_length_c 20.072544
_cell_angle_alpha 90.000000
_cell_angle_beta 150.366167
_cell_angle_gamma 90.000000
_cell_volume 1154.501121
_symmetry_space_group_name_H-M "P 2/C"
_symmetry_group_IT_number 13
_symmetry_cell_setting 'monoclinic'
loop_
_space_group_symop_operation_xyz
x,y,z
-x,y,1/2-z
-x,-y,-z
x,-y,1/2+z
loop_
_atom_site_type_symbol
_atom_site_label
_atom_site_fract_x
_atom_site_fract_y
_atom_site_fract_z
Si Si1 0.804798 0.471600 0.771600
Si Si2 0.626463 0.844004 0.910578
Si Si3 0.358951 0.334715 0.775297
Si Si4 0.744822 0.155187 0.391627
Si Si5 0.372280 0.655380 0.999845
Si Si6 0.033414 0.795915 0.477266
O O1 0.701650 0.301053 0.709679
O O2 0.739433 0.673927 0.660136
O O3 0.904420 0.310394 0.825278
O O4 0.881124 0.590044 0.905233
O O5 0.500000 0.821432 0.750000
O O6 0.736432 0.827626 0.963408
O O7 0.640182 0.612965 0.974646
O O8 0.636286 0.111935 0.957752
O O9 0.313127 0.591030 0.695460
O O10 0.332169 0.088770 0.705025
O O11 0.503938 0.343563 0.923247
O O12 0.886214 0.105143 0.507497
O O13 0.000000 0.000000 0.500000
#
# Coordination Sequence:
#
# PCOD8120825 Si02
#       6
#     4   4   4   4   4   4
#     4  10  24  39  63  97 123 161 211 259 326 360
#     4  12  23  41  62  92 129 171 202 249 312 385
#     4  11  20  38  63  96 126 157 199 265 311 382
#     4  11  22  38  66  90 119 169 217 239 311 375
#     4  12  24  39  65  95 132 160 204 263 315 380
#     4  10  21  43  67  84 122 167 207 265 304 378
#
# _framework density 20.788198999999999
#
# number of rings (size 3 to 8) (size 9 to 14) (size 15 to 20)
#    0.000    1.000    5.000    2.000    2.333    0.000 
#    0.000    5.000    0.000    0.000    0.000    0.000 
#    0.000    0.000    0.000    0.000    0.000    0.000 
#
# Total GULP energy -297513.428668 kJ/mol
# GULP energy per Si atom -12396.392861 kJ/mol
# Density = 2.074088 g / cm^3
# Si number density = 20.788199 Si / 1000 Ang^3
#
#
#
# Elastic Constant Matrix: (Units=GPa)
#
#
# Indices 1 2 3 4 5 6 
#
# 1 128.9193 4.7782 60.1419 0.0000 44.4952 0.0000
# 2 4.7782 87.4821 26.7790 0.0000 14.3887 0.0000
# 3 60.1419 26.7790 102.3726 0.0000 24.1941 0.0000
# 4 0.0000 0.0000 0.0000 20.5924 0.0000 1.1582
# 5 44.4952 14.3887 24.1941 0.0000 37.7411 0.0000
# 6 0.0000 0.0000 0.0000 1.1582 0.0000 40.6991
#
#
#
# Elastic Compliance Matrix: (Units=1/GPa)
#
#
# Indices 1 2 3 4 5 6 
#
# 1 0.016514 0.003910 -0.006801 0.000000 -0.016600 0.000000
# 2 0.003910 0.013673 -0.004187 0.000000 -0.007139 0.000000
# 3 -0.006801 -0.004187 0.014834 0.000000 0.000105 0.000000
# 4 0.000000 0.000000 0.000000 0.048639 0.000000 -0.001384
# 5 -0.016600 -0.007139 0.000105 0.000000 0.048722 0.000000
# 6 0.000000 0.000000 0.000000 -0.001384 0.000000 0.024610
#
#
# Mechanical properties :
#
#
# Convention : Reuss Voigt Hill
#
# Bulk Modulus (GPa) = 32.39822 55.79692 44.09757
# Shear Modulus (GPa) = 26.11828 34.94485 30.53157
#
# Velocity S-wave (km/s) = 3.54842 4.10444 3.83652
# Velocity P-wave (km/s) = 5.69272 7.02573 6.39406
#
# Compressibility (1/GPa) = 0.03086589
#
# Stress axis : x y z
#
# Youngs Moduli (GPa) = 60.55399 73.13628 67.41145
#
# Poissons Ratio (x) = -0.28599 0.45850
# Poissons Ratio (y) = -0.23679 0.28223
# Poissons Ratio (z) = 0.41185 0.30620
#
# Static dielectric constant tensor:
#      x y z
#    x 3.819030 0.000000 -0.054220 
#    y 0.000000 3.662370 0.000000 
#    z -0.054220 0.000000 3.199000 
# 
# 
# High freq. dielectric constant tensor:
#      x y z
#    x 1.823160 0.000000 0.028390 
#    y 0.000000 1.819480 0.000000 
#    z 0.028390 0.000000 1.796820 
# 
# From -- ./inp_files/81407.got.cif
#   From: 2010.06.25/outbox.cif.g09.slc.cpg/sg13_41_cif.got.tgz:81407.got - 2010.06.28 04:50:58.
