data_PCOD8120836
_publ_section_title
;
Structure prediction by ZEFSAII (Michael W. Deem and Ramdas Pophale) SiO2 
 PCOD8120836
Probable space group: P 2/C
;
_chemical_formula_sum "Si O2"
_cell_formula_units_Z 26
_cell_length_a 7.761765
_cell_length_b 20.005147
_cell_length_c 12.635198
_cell_angle_alpha 90.000000
_cell_angle_beta 145.071042
_cell_angle_gamma 90.000000
_cell_volume 1123.325278
_symmetry_space_group_name_H-M "P 2/C"
_symmetry_group_IT_number 13
_symmetry_cell_setting 'monoclinic'
loop_
_space_group_symop_operation_xyz
x,y,z
-x,y,1/2-z
-x,-y,-z
x,-y,1/2+z
loop_
_atom_site_type_symbol
_atom_site_label
_atom_site_fract_x
_atom_site_fract_y
_atom_site_fract_z
Si Si1 0.712391 0.073971 0.730302
Si Si2 0.801375 0.163069 0.250919
Si Si3 0.207102 0.213032 0.644134
Si Si4 0.000000 0.510974 0.750000
Si Si5 0.644507 0.048713 0.451005
Si Si6 0.366967 0.726467 0.566233
Si Si7 0.526375 0.423135 0.389548
O O1 0.632860 0.150890 0.713428
O O2 0.714174 0.055295 0.608841
O O3 0.456034 0.023829 0.644516
O O4 0.040651 0.063495 0.948413
O O5 0.621126 0.100678 0.210553
O O6 0.556247 0.219889 0.092265
O O7 0.000000 0.140435 0.250000
O O8 0.013951 0.191083 0.447427
O O9 0.500000 0.255276 0.750000
O O10 0.991314 0.255209 0.613876
O O11 0.801393 0.467220 0.570077
O O12 0.788356 0.556838 0.715918
O O13 0.500000 0.729579 0.750000
O O14 0.405655 0.652528 0.539696
O O15 0.500000 0.430898 0.250000
#
# Coordination Sequence:
#
# PCOD8120836 Si02
#       7
#     4   4   4   2   4   4   4
#     4  10  22  39  58  83 116 154 202 266 320 391
#     4  11  23  40  62  86 120 163 208 263 325 386
#     4  11  23  42  60  90 121 159 213 264 321 390
#     4  10  22  40  70 112 136 184 240 264 330 422
#     4  10  22  38  59  84 115 154 203 262 331 380
#     4   9  21  43  64  89 130 171 210 260 327 384
#     4  10  21  43  69 101 148 185 223 287 333 393
#
# _framework density 23.145568000000001
#
# number of rings (size 3 to 8) (size 9 to 14) (size 15 to 20)
#    0.000    1.846    1.538    1.385    7.538    0.615 
#    5.538    3.846    0.000    0.000    0.000    0.000 
#    0.000    0.000    0.000    0.000    0.000    0.000 
#
# Total GULP energy -322222.975849 kJ/mol
# GULP energy per Si atom -12393.191379 kJ/mol
# Density = 2.309289 g / cm^3
# Si number density = 23.145568 Si / 1000 Ang^3
#
#
#
# Elastic Constant Matrix: (Units=GPa)
#
#
# Indices 1 2 3 4 5 6 
#
# 1 78.8441 24.2099 44.3880 0.0000 21.6784 0.0000
# 2 24.2099 124.0327 34.5105 0.0000 19.6774 0.0000
# 3 44.3880 34.5105 105.5516 0.0000 29.0566 0.0000
# 4 0.0000 0.0000 0.0000 49.3522 0.0000 22.7986
# 5 21.6784 19.6774 29.0566 0.0000 48.2541 0.0000
# 6 0.0000 0.0000 0.0000 22.7986 0.0000 42.9563
#
#
#
# Elastic Compliance Matrix: (Units=1/GPa)
#
#
# Indices 1 2 3 4 5 6 
#
# 1 0.017400 -0.001154 -0.005895 0.000000 -0.003797 0.000000
# 2 -0.001154 0.009153 -0.001945 0.000000 -0.002043 0.000000
# 3 -0.005895 -0.001945 0.013955 0.000000 -0.004962 0.000000
# 4 0.000000 0.000000 0.000000 0.026844 0.000000 -0.014247
# 5 -0.003797 -0.002043 -0.004962 0.000000 0.026250 0.000000
# 6 0.000000 0.000000 0.000000 -0.014247 0.000000 0.030841
#
#
# Mechanical properties :
#
#
# Convention : Reuss Voigt Hill
#
# Bulk Modulus (GPa) = 44.40389 57.18279 50.79334
# Shear Modulus (GPa) = 33.34724 41.80052 37.57388
#
# Velocity S-wave (km/s) = 3.79985 4.25430 4.03348
# Velocity P-wave (km/s) = 6.20307 6.99224 6.60945
#
# Compressibility (1/GPa) = 0.02252055
#
# Stress axis : x y z
#
# Youngs Moduli (GPa) = 57.47034 109.25542 71.65996
#
# Poissons Ratio (x) = 0.12606 0.42243
# Poissons Ratio (y) = 0.06631 0.13938
# Poissons Ratio (z) = 0.33878 0.21250
#
# Static dielectric constant tensor:
#      x y z
#    x 4.647120 0.000000 0.485640 
#    y 0.000000 4.196670 0.000000 
#    z 0.485640 0.000000 4.496770 
# 
# 
# High freq. dielectric constant tensor:
#      x y z
#    x 1.926600 0.000000 0.009690 
#    y 0.000000 1.884610 0.000000 
#    z 0.009690 0.000000 1.937860 
# 
# From -- ./inp_files/48186.got.cif
#   From: 2010.06.25/outbox.cif.g09.slc.cpg/sg13_25_cif.got.tgz:48186.got - 2010.06.28 04:50:58.
