data_PCOD8120216
_publ_section_title
;
Structure prediction by ZEFSAII (Michael W. Deem and Ramdas Pophale) SiO2 
 PCOD8120216
Probable space group: P 2/C
;
_chemical_formula_sum "Si O2"
_cell_formula_units_Z 32
_cell_length_a 14.103420
_cell_length_b 9.004117
_cell_length_c 23.944987
_cell_angle_alpha 90.000000
_cell_angle_beta 32.346425
_cell_angle_gamma 90.000000
_cell_volume 1626.911925
_symmetry_space_group_name_H-M "P 2/C"
_symmetry_group_IT_number 13
_symmetry_cell_setting 'monoclinic'
loop_
_space_group_symop_operation_xyz
x,y,z
-x,y,1/2-z
-x,-y,-z
x,-y,1/2+z
loop_
_atom_site_type_symbol
_atom_site_label
_atom_site_fract_x
_atom_site_fract_y
_atom_site_fract_z
Si Si1 0.206554 0.891286 0.642984
Si Si2 0.188394 0.413414 0.540388
Si Si3 0.468703 0.079842 0.828672
Si Si4 0.780378 0.922695 0.255792
Si Si5 0.188446 0.070511 0.542109
Si Si6 0.526132 0.571893 0.173570
Si Si7 0.305040 0.562964 0.594087
Si Si8 0.794941 0.417249 0.745635
O O1 0.316661 0.740206 0.583012
O O2 0.000000 0.852495 0.750000
O O3 0.270267 0.981019 0.665300
O O4 0.250831 0.990036 0.567329
O O5 0.238519 0.242256 0.523964
O O6 0.308042 0.483504 0.433022
O O7 0.206094 0.497349 0.590066
O O8 0.985481 0.429893 0.621050
O O9 0.500000 0.028525 0.750000
O O10 0.644514 0.033211 0.774804
O O11 0.431885 0.254544 0.851111
O O12 0.294666 0.996732 0.937282
O O13 0.759052 0.750808 0.283409
O O14 0.979486 0.954763 0.135373
O O15 0.500000 0.520070 0.250000
O O16 0.351521 0.528956 0.225519
O O17 0.500000 0.500000 0.500000
O O18 0.202041 0.521272 0.701628
#
# Coordination Sequence:
#
# PCOD8120216 Si02
#       8
#     4   4   4   4   4   4   4   4
#     4  10  21  38  59  87 117 151 193 235 285 351
#     4  11  22  39  60  86 119 155 191 243 296 346
#     4  10  22  39  60  83 114 155 196 240 289 344
#     4   9  21  39  60  85 117 154 191 239 290 345
#     4  10  22  38  60  87 116 152 194 239 292 344
#     4  10  22  41  61  86 116 154 202 242 289 351
#     4  12  23  35  58  91 120 151 190 240 288 351
#     4  10  21  40  60  84 121 155 192 239 295 348
#
# _framework density 19.669163999999999
#
# number of rings (size 3 to 8) (size 9 to 14) (size 15 to 20)
#    0.000    1.750    1.250    2.625    3.500    5.000 
#    0.000    0.000    0.000    0.000    0.000    0.000 
#    0.000    0.000    0.000    0.000    0.000    0.000 
#
# Total GULP energy -396965.382958 kJ/mol
# GULP energy per Si atom -12405.168217 kJ/mol
# Density = 1.962440 g / cm^3
# Si number density = 19.669164 Si / 1000 Ang^3
#
#
#
# Elastic Constant Matrix: (Units=GPa)
#
#
# Indices 1 2 3 4 5 6 
#
# 1 88.8146 40.0682 55.4930 0.0000 17.9813 0.0000
# 2 40.0682 98.7184 62.4581 0.0000 10.4006 0.0000
# 3 55.4930 62.4581 133.6286 0.0000 14.5037 0.0000
# 4 0.0000 0.0000 0.0000 39.6672 0.0000 3.0673
# 5 17.9813 10.4006 14.5037 0.0000 34.1949 0.0000
# 6 0.0000 0.0000 0.0000 3.0673 0.0000 24.4149
#
#
#
# Elastic Compliance Matrix: (Units=1/GPa)
#
#
# Indices 1 2 3 4 5 6 
#
# 1 0.016945 -0.003139 -0.004934 0.000000 -0.005863 0.000000
# 2 -0.003139 0.015048 -0.005674 0.000000 -0.000520 0.000000
# 3 -0.004934 -0.005674 0.012281 0.000000 -0.000889 0.000000
# 4 0.000000 0.000000 0.000000 0.025457 0.000000 -0.003198
# 5 -0.005863 -0.000520 -0.000889 0.000000 0.032863 0.000000
# 6 0.000000 0.000000 0.000000 -0.003198 0.000000 0.041360
#
#
# Mechanical properties :
#
#
# Convention : Reuss Voigt Hill
#
# Bulk Modulus (GPa) = 59.58705 70.80003 65.19354
# Shear Modulus (GPa) = 28.24228 30.53154 29.38691
#
# Velocity S-wave (km/s) = 3.79339 3.94414 3.86950
# Velocity P-wave (km/s) = 7.03895 7.53759 7.29253
#
# Compressibility (1/GPa) = 0.01678217
#
# Stress axis : x y z
#
# Youngs Moduli (GPa) = 59.01450 66.45306 81.42940
#
# Poissons Ratio (x) = 0.20857 0.40173
# Poissons Ratio (y) = 0.18522 0.46201
# Poissons Ratio (z) = 0.29115 0.37704
#
# Static dielectric constant tensor:
#      x y z
#    x 3.642160 0.000000 -0.056910 
#    y 0.000000 3.611740 0.000000 
#    z -0.056910 0.000000 3.612830 
# 
# 
# High freq. dielectric constant tensor:
#      x y z
#    x 1.763740 0.000000 -0.007710 
#    y 0.000000 1.768750 0.000000 
#    z -0.007710 0.000000 1.773990 
# 
# From -- ./inp_files/87388.got.cif
#   From: 2010.06.25/outbox.cif.g09.slc.cpg/sg13_44_cif.got.tgz:87388.got - 2010.06.28 04:50:58.
