data_PCOD8120494
_publ_section_title
;
Structure prediction by ZEFSAII (Michael W. Deem and Ramdas Pophale) SiO2 
 PCOD8120494
Probable space group: P 2/C
;
_chemical_formula_sum "Si O2"
_cell_formula_units_Z 26
_cell_length_a 19.048421
_cell_length_b 6.104756
_cell_length_c 19.330600
_cell_angle_alpha 90.000000
_cell_angle_beta 31.538101
_cell_angle_gamma 90.000000
_cell_volume 1175.787004
_symmetry_space_group_name_H-M "P 2/C"
_symmetry_group_IT_number 13
_symmetry_cell_setting 'monoclinic'
loop_
_space_group_symop_operation_xyz
x,y,z
-x,y,1/2-z
-x,-y,-z
x,-y,1/2+z
loop_
_atom_site_type_symbol
_atom_site_label
_atom_site_fract_x
_atom_site_fract_y
_atom_site_fract_z
Si Si1 0.000000 0.046971 0.250000
Si Si2 0.096111 0.190091 0.444255
Si Si3 0.149865 0.571098 0.303016
Si Si4 0.562878 0.966031 0.124406
Si Si5 0.710355 0.832505 0.197109
Si Si6 0.219998 0.717478 0.099825
Si Si7 0.211129 0.664673 0.508778
O O1 0.073520 0.199099 0.131831
O O2 0.106764 0.902743 0.202211
O O3 0.155102 0.327480 0.329926
O O4 0.007071 0.351079 0.567488
O O5 0.220101 0.069267 0.378350
O O6 0.000000 0.000000 0.500000
O O7 0.242332 0.737566 0.269527
O O8 0.210866 0.563048 0.174916
O O9 0.500000 0.044174 0.250000
O O10 0.449107 0.871489 0.168831
O O11 0.669625 0.774695 0.047681
O O12 0.633297 0.173314 0.028827
O O13 0.751527 0.656600 0.103548
O O14 0.191271 0.579126 0.054510
#
# Coordination Sequence:
#
# PCOD8120494 Si02
#       7
#     2   4   4   4   4   4   4
#     4  10  22  38  60  88 120 154 194 242 298 350
#     4   9  20  37  59  84 119 155 191 236 292 356
#     4  10  22  37  60  93 120 151 195 246 300 353
#     4   9  22  41  60  84 116 157 202 246 292 350
#     4  10  21  40  61  82 116 161 200 239 295 357
#     4  11  23  39  62  91 121 152 196 250 299 350
#     4  10  22  38  59  86 117 154 199 246 291 350
#
# _framework density 22.112848
#
# number of rings (size 3 to 8) (size 9 to 14) (size 15 to 20)
#    0.000    2.154    0.000    1.385    0.000   19.692 
#    0.000    1.538    0.000    0.000    0.000    0.000 
#    0.000    0.000    0.000    0.000    0.000    0.000 
#
# Total GULP energy -322440.945360 kJ/mol
# GULP energy per Si atom -12401.574822 kJ/mol
# Density = 2.206252 g / cm^3
# Si number density = 22.112848 Si / 1000 Ang^3
#
#
#
# Elastic Constant Matrix: (Units=GPa)
#
#
# Indices 1 2 3 4 5 6 
#
# 1 59.1324 6.8375 26.7416 0.0000 -6.8621 0.0000
# 2 6.8375 72.8248 28.1900 0.0000 -3.5730 0.0000
# 3 26.7416 28.1900 106.4853 0.0000 -9.1730 0.0000
# 4 0.0000 0.0000 0.0000 31.7336 0.0000 7.3420
# 5 -6.8621 -3.5730 -9.1730 0.0000 40.0331 0.0000
# 6 0.0000 0.0000 0.0000 7.3420 0.0000 24.4469
#
#
#
# Elastic Compliance Matrix: (Units=1/GPa)
#
#
# Indices 1 2 3 4 5 6 
#
# 1 0.019273 0.000111 -0.004676 0.000000 0.002242 0.000000
# 2 0.000111 0.015308 -0.004041 0.000000 0.000459 0.000000
# 3 -0.004676 -0.004041 0.011767 0.000000 0.001534 0.000000
# 4 0.000000 0.000000 0.000000 0.033865 0.000000 -0.010171
# 5 0.002242 0.000459 0.001534 0.000000 0.025756 0.000000
# 6 0.000000 0.000000 0.000000 -0.010171 0.000000 0.043959
#
#
# Mechanical properties :
#
#
# Convention : Reuss Voigt Hill
#
# Bulk Modulus (GPa) = 34.32217 40.22008 37.27113
# Shear Modulus (GPa) = 28.27193 31.02095 29.64644
#
# Velocity S-wave (km/s) = 3.57953 3.74952 3.66551
# Velocity P-wave (km/s) = 5.71307 6.08057 5.89968
#
# Compressibility (1/GPa) = 0.02913569
#
# Stress axis : x y z
#
# Youngs Moduli (GPa) = 51.88515 65.32587 84.98235
#
# Poissons Ratio (x) = -0.00722 0.39740
# Poissons Ratio (y) = -0.00574 0.34339
# Poissons Ratio (z) = 0.24263 0.26396
#
# Static dielectric constant tensor:
#      x y z
#    x 3.736300 0.000000 -0.280370 
#    y 0.000000 4.101080 0.000000 
#    z -0.280370 0.000000 4.180840 
# 
# 
# High freq. dielectric constant tensor:
#      x y z
#    x 1.854050 0.000000 -0.010090 
#    y 0.000000 1.870260 0.000000 
#    z -0.010090 0.000000 1.867550 
# 
# From -- ./inp_files/81351.got.cif
#   From: 2010.06.25/outbox.cif.g09.slc.cpg/sg13_41_cif.got.tgz:81351.got - 2010.06.28 04:50:58.
