data_PCOD8120829
_publ_section_title
;
Structure prediction by ZEFSAII (Michael W. Deem and Ramdas Pophale) SiO2 
 PCOD8120829
Probable space group: P 2/C
;
_chemical_formula_sum "Si O2"
_cell_formula_units_Z 26
_cell_length_a 10.457308
_cell_length_b 15.200361
_cell_length_c 13.269181
_cell_angle_alpha 90.000000
_cell_angle_beta 145.507480
_cell_angle_gamma 90.000000
_cell_volume 1194.437528
_symmetry_space_group_name_H-M "P 2/C"
_symmetry_group_IT_number 13
_symmetry_cell_setting 'monoclinic'
loop_
_space_group_symop_operation_xyz
x,y,z
-x,y,1/2-z
-x,-y,-z
x,-y,1/2+z
loop_
_atom_site_type_symbol
_atom_site_label
_atom_site_fract_x
_atom_site_fract_y
_atom_site_fract_z
Si Si1 0.821286 0.244488 0.519837
Si Si2 0.500000 0.930187 0.250000
Si Si3 0.797831 0.379250 0.337116
Si Si4 0.256060 0.936405 0.447176
Si Si5 0.587047 0.665588 0.051024
Si Si6 0.316226 0.167589 0.804230
Si Si7 0.717502 0.427350 0.830674
O O1 0.737317 0.293190 0.364546
O O2 0.704960 0.149427 0.457189
O O3 0.761712 0.309539 0.574149
O O4 0.085279 0.218849 0.683758
O O5 0.677272 0.868366 0.305385
O O6 0.638148 0.983454 0.423015
O O7 0.744288 0.468208 0.363990
O O8 0.062858 0.378657 0.480422
O O9 0.643785 0.377155 0.138474
O O10 0.372807 0.914297 0.415604
O O11 0.000000 0.959212 0.250000
O O12 0.507794 0.753187 0.061893
O O13 0.296876 0.404038 0.797677
O O14 0.500000 0.393024 0.750000
#
# Coordination Sequence:
#
# PCOD8120829 Si02
#       7
#     4   2   4   4   4   4   4
#     4  10  21  43  67  98 129 173 230 275 323 400
#     4  12  24  42  66  94 136 172 210 284 346 384
#     4  11  24  41  70 100 125 183 227 267 331 395
#     4   9  22  41  64  95 125 166 224 274 326 401
#     4  11  22  41  67  93 134 176 223 273 324 392
#     4  10  23  41  65  97 133 172 219 276 337 398
#     4  11  25  43  63  99 143 169 222 284 325 382
#
# _framework density 21.767568000000001
#
# number of rings (size 3 to 8) (size 9 to 14) (size 15 to 20)
#    0.000    1.538    1.538    3.692    5.385    3.077 
#    2.769    0.000    0.000    0.000    0.000    0.000 
#    0.000    0.000    0.000    0.000    0.000    0.000 
#
# Total GULP energy -322138.708574 kJ/mol
# GULP energy per Si atom -12389.950330 kJ/mol
# Density = 2.171802 g / cm^3
# Si number density = 21.767568 Si / 1000 Ang^3
#
#
#
# Elastic Constant Matrix: (Units=GPa)
#
#
# Indices 1 2 3 4 5 6 
#
# 1 108.5711 43.8742 40.7527 0.0000 8.3042 0.0000
# 2 43.8742 76.2880 36.5847 0.0000 -4.6193 0.0000
# 3 40.7527 36.5847 124.0025 0.0000 3.4720 0.0000
# 4 0.0000 0.0000 0.0000 34.9611 0.0000 -10.3190
# 5 8.3042 -4.6193 3.4720 0.0000 26.6316 0.0000
# 6 0.0000 0.0000 0.0000 -10.3190 0.0000 26.4033
#
#
#
# Elastic Compliance Matrix: (Units=1/GPa)
#
#
# Indices 1 2 3 4 5 6 
#
# 1 0.013172 -0.006837 -0.002171 0.000000 -0.005010 0.000000
# 2 -0.006837 0.019103 -0.003554 0.000000 0.005909 0.000000
# 3 -0.002171 -0.003554 0.009861 0.000000 -0.001225 0.000000
# 4 0.000000 0.000000 0.000000 0.032333 0.000000 0.012636
# 5 -0.005010 0.005909 -0.001225 0.000000 0.040296 0.000000
# 6 0.000000 0.000000 0.000000 0.012636 0.000000 0.042813
#
#
# Mechanical properties :
#
#
# Convention : Reuss Voigt Hill
#
# Bulk Modulus (GPa) = 58.79079 61.25388 60.02234
# Shear Modulus (GPa) = 26.54309 30.10920 28.32615
#
# Velocity S-wave (km/s) = 3.49576 3.72319 3.61127
# Velocity P-wave (km/s) = 6.58490 6.83257 6.70987
#
# Compressibility (1/GPa) = 0.01700947
#
# Stress axis : x y z
#
# Youngs Moduli (GPa) = 75.91983 52.34839 101.41084
#
# Poissons Ratio (x) = 0.35792 0.22019
# Poissons Ratio (y) = 0.51909 0.36045
# Poissons Ratio (z) = 0.16485 0.18606
#
# Static dielectric constant tensor:
#      x y z
#    x 3.800730 0.000000 -0.023020 
#    y 0.000000 4.068680 0.000000 
#    z -0.023020 0.000000 3.861580 
# 
# 
# High freq. dielectric constant tensor:
#      x y z
#    x 1.838810 0.000000 -0.005220 
#    y 0.000000 1.861410 0.000000 
#    z -0.005220 0.000000 1.850270 
# 
# From -- ./inp_files/51546.got.cif
#   From: 2010.06.25/outbox.cif.g09.slc.cpg/sg13_26_cif.got.tgz:51546.got - 2010.06.28 04:50:58.
