data_PCOD8120535
_publ_section_title
;
Structure prediction by ZEFSAII (Michael W. Deem and Ramdas Pophale) SiO2 
 PCOD8120535
Probable space group: P 2/C
;
_chemical_formula_sum "Si O2"
_cell_formula_units_Z 22
_cell_length_a 16.133300
_cell_length_b 11.951619
_cell_length_c 13.803009
_cell_angle_alpha 90.000000
_cell_angle_beta 22.279128
_cell_angle_gamma 90.000000
_cell_volume 1009.019081
_symmetry_space_group_name_H-M "P 2/C"
_symmetry_group_IT_number 13
_symmetry_cell_setting 'monoclinic'
loop_
_space_group_symop_operation_xyz
x,y,z
-x,y,1/2-z
-x,-y,-z
x,-y,1/2+z
loop_
_atom_site_type_symbol
_atom_site_label
_atom_site_fract_x
_atom_site_fract_y
_atom_site_fract_z
Si Si1 0.266956 0.073229 0.326931
Si Si2 0.640585 0.829060 0.304419
Si Si3 0.553404 0.389983 0.804265
Si Si4 0.500000 0.175590 0.250000
Si Si5 0.816869 0.560937 0.639699
Si Si6 0.103705 0.762754 0.287311
O O1 0.426742 0.094329 0.243855
O O2 0.022862 0.121816 0.597862
O O3 0.225257 0.940456 0.366629
O O4 0.395158 0.129467 0.097561
O O5 0.634512 0.739154 0.223321
O O6 0.773087 0.762644 0.243737
O O7 0.500000 0.416355 0.750000
O O8 0.728256 0.481854 0.650003
O O9 0.356414 0.398801 0.093577
O O10 0.294867 0.253830 0.500987
O O11 0.000000 0.500000 0.500000
O O12 0.923137 0.666963 0.471672
#
# Coordination Sequence:
#
# PCOD8120535 Si02
#       6
#     4   4   4   2   4   4
#     4  10  21  40  63  99 136 173 215 269 337 394
#     4  10  21  40  69  95 133 175 215 272 335 402
#     4  11  25  46  70 103 130 174 230 277 336 409
#     4  10  24  38  62 102 130 174 230 266 324 398
#     4  11  24  48  68  93 139 178 220 281 341 392
#     4  11  21  44  67  94 133 177 222 273 328 394
#
# _framework density 21.803353000000001
#
# number of rings (size 3 to 8) (size 9 to 14) (size 15 to 20)
#    0.000    1.455    3.636    1.091    1.273    0.727 
#    9.818    1.818    0.000    0.000    0.000    1.273 
#    0.000    0.000    0.000    0.000    0.000    0.000 
#
# Total GULP energy -272736.988903 kJ/mol
# GULP energy per Si atom -12397.135859 kJ/mol
# Density = 2.175373 g / cm^3
# Si number density = 21.803353 Si / 1000 Ang^3
#
#
#
# Elastic Constant Matrix: (Units=GPa)
#
#
# Indices 1 2 3 4 5 6 
#
# 1 108.4505 53.3914 33.7515 0.0000 4.5577 0.0000
# 2 53.3914 155.1704 61.3387 0.0000 2.0752 0.0000
# 3 33.7515 61.3387 123.8804 0.0000 -7.1541 0.0000
# 4 0.0000 0.0000 0.0000 27.1355 0.0000 -7.2491
# 5 4.5577 2.0752 -7.1541 0.0000 28.0824 0.0000
# 6 0.0000 0.0000 0.0000 -7.2491 0.0000 26.2672
#
#
#
# Elastic Compliance Matrix: (Units=1/GPa)
#
#
# Indices 1 2 3 4 5 6 
#
# 1 0.011414 -0.003264 -0.001610 0.000000 -0.002021 0.000000
# 2 -0.003264 0.009020 -0.003638 0.000000 -0.001064 0.000000
# 3 -0.001610 -0.003638 0.010498 0.000000 0.003205 0.000000
# 4 0.000000 0.000000 0.000000 0.039785 0.000000 0.010980
# 5 -0.002021 -0.001064 0.003205 0.000000 0.036832 0.000000
# 6 0.000000 0.000000 0.000000 0.010980 0.000000 0.041101
#
#
# Mechanical properties :
#
#
# Convention : Reuss Voigt Hill
#
# Bulk Modulus (GPa) = 71.90979 76.05162 73.98071
# Shear Modulus (GPa) = 29.35822 32.23167 30.79495
#
# Velocity S-wave (km/s) = 3.67345 3.84902 3.76226
# Velocity P-wave (km/s) = 7.14458 7.39660 7.27168
#
# Compressibility (1/GPa) = 0.01390631
#
# Stress axis : x y z
#
# Youngs Moduli (GPa) = 87.61430 110.86498 95.25897
#
# Poissons Ratio (x) = 0.36182 0.15341
# Poissons Ratio (y) = 0.28594 0.34660
# Poissons Ratio (z) = 0.14110 0.40338
#
# Static dielectric constant tensor:
#      x y z
#    x 3.896990 0.000000 -0.166130 
#    y 0.000000 4.275170 0.000000 
#    z -0.166130 0.000000 4.035670 
# 
# 
# High freq. dielectric constant tensor:
#      x y z
#    x 1.854280 0.000000 -0.016130 
#    y 0.000000 1.862720 0.000000 
#    z -0.016130 0.000000 1.853500 
# 
# From -- ./inp_files/55623.got.cif
#   From: 2010.06.25/outbox.cif.g09.slc.cpg/sg13_28_cif.got.tgz:55623.got - 2010.06.28 04:50:58.
