data_PCOD8120147
_publ_section_title
;
Structure prediction by ZEFSAII (Michael W. Deem and Ramdas Pophale) SiO2 
 PCOD8120147
Probable space group: P 2/C
;
_chemical_formula_sum "Si O2"
_cell_formula_units_Z 32
_cell_length_a 27.268575
_cell_length_b 6.692281
_cell_length_c 16.896820
_cell_angle_alpha 90.000000
_cell_angle_beta 30.826125
_cell_angle_gamma 90.000000
_cell_volume 1580.083086
_symmetry_space_group_name_H-M "P 2/C"
_symmetry_group_IT_number 13
_symmetry_cell_setting 'monoclinic'
loop_
_space_group_symop_operation_xyz
x,y,z
-x,y,1/2-z
-x,-y,-z
x,-y,1/2+z
loop_
_atom_site_type_symbol
_atom_site_label
_atom_site_fract_x
_atom_site_fract_y
_atom_site_fract_z
Si Si1 0.491707 0.020032 0.604496
Si Si2 0.326806 0.027713 0.044863
Si Si3 0.876170 0.167048 0.140091
Si Si4 0.881675 0.224063 0.869750
Si Si5 0.039724 0.552631 0.086503
Si Si6 0.675732 0.242773 0.092772
Si Si7 0.983466 0.886983 0.649247
Si Si8 0.581896 0.355819 0.692477
O O1 0.594059 0.966654 0.500657
O O2 0.414579 0.863767 0.743046
O O3 0.500000 0.000000 0.500000
O O4 0.463066 0.246156 0.668337
O O5 0.234610 0.112714 0.217818
O O6 0.302757 0.831817 0.026127
O O7 0.363034 0.192295 0.934092
O O8 0.903132 0.156431 0.194508
O O9 0.901457 0.392506 0.074803
O O10 0.933106 0.017106 0.004641
O O11 0.905747 0.331610 0.918543
O O12 0.931056 0.358642 0.732053
O O13 0.929231 0.001501 0.796506
O O14 0.768371 0.207952 0.018413
O O15 0.033415 0.316427 0.110339
O O16 0.655408 0.478074 0.119357
O O17 0.500000 0.452825 0.750000
#
# Coordination Sequence:
#
# PCOD8120147 Si02
#       8
#     4   4   4   4   4   4   4   4
#     4  10  23  40  60  89 126 158 194 257 313 366
#     4  10  21  39  62  90 119 161 207 251 302 361
#     4  10  21  37  63  91 118 160 205 257 301 368
#     4  10  23  39  59  91 121 163 208 253 308 369
#     4  10  23  38  58  88 125 163 206 256 306 372
#     4  11  21  39  64  88 119 162 210 245 305 368
#     4  10  21  42  61  86 126 160 202 259 309 355
#     4   9  20  39  62  86 115 157 204 251 293 363
#
# _framework density 20.252099000000001
#
# number of rings (size 3 to 8) (size 9 to 14) (size 15 to 20)
#    0.000    2.000    1.250    2.250    3.500    5.500 
#    2.250    0.000    0.000    0.000    0.000    0.000 
#    0.000    0.000    0.000    0.000    0.000    0.000 
#
# Total GULP energy -396721.754558 kJ/mol
# GULP energy per Si atom -12397.554830 kJ/mol
# Density = 2.020600 g / cm^3
# Si number density = 20.252099 Si / 1000 Ang^3
#
#
#
# Elastic Constant Matrix: (Units=GPa)
#
#
# Indices 1 2 3 4 5 6 
#
# 1 111.4155 50.3229 49.6485 0.0000 -15.6962 0.0000
# 2 50.3229 115.1032 20.1758 0.0000 0.3794 0.0000
# 3 49.6485 20.1758 90.0932 0.0000 -15.0150 0.0000
# 4 0.0000 0.0000 0.0000 17.5222 0.0000 -1.4399
# 5 -15.6962 0.3794 -15.0150 0.0000 35.9570 0.0000
# 6 0.0000 0.0000 0.0000 -1.4399 0.0000 23.6870
#
#
#
# Elastic Compliance Matrix: (Units=1/GPa)
#
#
# Indices 1 2 3 4 5 6 
#
# 1 0.014736 -0.005355 -0.006277 0.000000 0.003868 0.000000
# 2 -0.005355 0.011023 0.000079 0.000000 -0.002421 0.000000
# 3 -0.006277 0.000079 0.015138 0.000000 0.003580 0.000000
# 4 0.000000 0.000000 0.000000 0.057357 0.000000 0.003487
# 5 0.003868 -0.002421 0.003580 0.000000 0.031020 0.000000
# 6 0.000000 0.000000 0.000000 0.003487 0.000000 0.042429
#
#
# Mechanical properties :
#
#
# Convention : Reuss Voigt Hill
#
# Bulk Modulus (GPa) = 56.20781 61.87850 59.04315
# Shear Modulus (GPa) = 24.90785 28.53088 26.71937
#
# Velocity S-wave (km/s) = 3.51078 3.75745 3.63621
# Velocity P-wave (km/s) = 6.65195 7.03172 6.84447
#
# Compressibility (1/GPa) = 0.01779112
#
# Stress axis : x y z
#
# Youngs Moduli (GPa) = 67.86016 90.71750 66.06031
#
# Poissons Ratio (x) = 0.48580 0.41465
# Poissons Ratio (y) = 0.36340 -0.00522
# Poissons Ratio (z) = 0.42595 -0.00717
#
# Static dielectric constant tensor:
#      x y z
#    x 3.654800 0.000000 -0.074880 
#    y 0.000000 3.747440 0.000000 
#    z -0.074880 0.000000 3.818270 
# 
# 
# High freq. dielectric constant tensor:
#      x y z
#    x 1.786680 0.000000 -0.004500 
#    y 0.000000 1.790200 0.000000 
#    z -0.004500 0.000000 1.789010 
# 
# From -- ./inp_files/72207.got.cif
#   From: 2010.06.25/outbox.cif.g09.slc.cpg/sg13_37_cif.got.tgz:72207.got - 2010.06.28 04:50:58.
