data_PCOD8120729
_publ_section_title
;
Structure prediction by ZEFSAII (Michael W. Deem and Ramdas Pophale) SiO2 
 PCOD8120729
Probable space group: P 2/C
;
_chemical_formula_sum "Si O2"
_cell_formula_units_Z 28
_cell_length_a 14.253680
_cell_length_b 5.721237
_cell_length_c 16.767981
_cell_angle_alpha 90.000000
_cell_angle_beta 110.490313
_cell_angle_gamma 90.000000
_cell_volume 1280.892810
_symmetry_space_group_name_H-M "P 2/C"
_symmetry_group_IT_number 13
_symmetry_cell_setting 'monoclinic'
loop_
_space_group_symop_operation_xyz
x,y,z
-x,y,1/2-z
-x,-y,-z
x,-y,1/2+z
loop_
_atom_site_type_symbol
_atom_site_label
_atom_site_fract_x
_atom_site_fract_y
_atom_site_fract_z
Si Si1 0.356632 0.590109 0.292022
Si Si2 0.500000 0.102209 0.750000
Si Si3 0.865050 0.065051 0.128555
Si Si4 0.000000 0.709544 0.250000
Si Si5 0.154001 0.644348 0.720826
Si Si6 0.342632 0.111099 0.937243
Si Si7 0.505162 0.213082 0.101330
Si Si8 0.005717 0.250137 0.048185
O O1 0.398306 0.750718 0.233457
O O2 0.266450 0.434185 0.231741
O O3 0.312527 0.733683 0.352683
O O4 0.454440 0.452532 0.351152
O O5 0.524214 0.955268 0.835385
O O6 0.837948 0.168525 0.206563
O O7 0.913647 0.256419 0.084038
O O8 0.762679 0.974431 0.057341
O O9 0.946140 0.861235 0.165543
O O10 0.082103 0.563500 0.226777
O O11 0.110163 0.759185 0.627630
O O12 0.409789 0.891494 0.931000
O O13 0.404014 0.260874 0.020905
O O14 0.000000 0.500000 0.000000
O O15 0.000000 0.000000 0.000000
#
# Coordination Sequence:
#
# PCOD8120729 Si02
#       8
#     4   2   4   2   4   4   4   4
#     4  11  22  41  69  98 130 180 235 283 360 421
#     4  10  24  42  62  92 142 184 218 284 356 448
#     4  12  23  43  71  98 136 188 241 294 351 424
#     4  12  20  42  72 100 132 178 252 300 338 416
#     4  12  24  42  76  98 133 190 241 294 345 442
#     4  10  22  38  68  98 124 172 231 301 335 407
#     4  10  21  42  62  93 135 166 230 285 352 409
#     4  12  28  47  67 106 154 189 234 300 369 433
#
# _framework density 21.859752
#
# number of rings (size 3 to 8) (size 9 to 14) (size 15 to 20)
#    0.000    0.857    5.714    1.714    0.000    1.143 
#    5.143    0.000    0.000    0.000    0.000    0.000 
#    0.000    0.000    0.000    0.000    0.000    0.000 
#
# Total GULP energy -347187.933620 kJ/mol
# GULP energy per Si atom -12399.569058 kJ/mol
# Density = 2.181000 g / cm^3
# Si number density = 21.859752 Si / 1000 Ang^3
#
#
#
# Elastic Constant Matrix: (Units=GPa)
#
#
# Indices 1 2 3 4 5 6 
#
# 1 91.9992 25.3542 55.4610 0.0000 19.9603 0.0000
# 2 25.3542 88.9431 23.4968 0.0000 3.3797 0.0000
# 3 55.4610 23.4968 91.1862 0.0000 16.2431 0.0000
# 4 0.0000 0.0000 0.0000 17.2523 0.0000 5.7533
# 5 19.9603 3.3797 16.2431 0.0000 38.2852 0.0000
# 6 0.0000 0.0000 0.0000 5.7533 0.0000 24.6863
#
#
#
# Elastic Compliance Matrix: (Units=1/GPa)
#
#
# Indices 1 2 3 4 5 6 
#
# 1 0.018568 -0.002530 -0.009689 0.000000 -0.005346 0.000000
# 2 -0.002530 0.012412 -0.001838 0.000000 0.001003 0.000000
# 3 -0.009689 -0.001838 0.017746 0.000000 -0.002315 0.000000
# 4 0.000000 0.000000 0.000000 0.062848 0.000000 -0.014647
# 5 -0.005346 0.001003 -0.002315 0.000000 0.029801 0.000000
# 6 0.000000 0.000000 0.000000 -0.014647 0.000000 0.043922
#
#
# Mechanical properties :
#
#
# Convention : Reuss Voigt Hill
#
# Bulk Modulus (GPa) = 48.51814 53.41695 50.96755
# Shear Modulus (GPa) = 22.69835 27.23253 24.96544
#
# Velocity S-wave (km/s) = 3.22586 3.53340 3.38312
# Velocity P-wave (km/s) = 6.00985 6.41372 6.21506
#
# Compressibility (1/GPa) = 0.02061085
#
# Stress axis : x y z
#
# Youngs Moduli (GPa) = 53.85661 80.56806 56.35203
#
# Poissons Ratio (x) = 0.20385 0.54599
# Poissons Ratio (y) = 0.13627 0.10358
# Poissons Ratio (z) = 0.52181 0.14809
#
# Static dielectric constant tensor:
#      x y z
#    x 3.929890 0.000000 0.036260 
#    y 0.000000 4.035530 0.000000 
#    z 0.036260 0.000000 4.117880 
# 
# 
# High freq. dielectric constant tensor:
#      x y z
#    x 1.859790 0.000000 0.008240 
#    y 0.000000 1.862690 0.000000 
#    z 0.008240 0.000000 1.855220 
# 
# From -- ./inp_files/67644.got.cif
#   From: 2010.06.25/outbox.cif.g09.slc.cpg/sg13_34_cif.got.tgz:67644.got - 2010.06.28 04:50:58.
