data_PCOD8120759
_publ_section_title
;
Structure prediction by ZEFSAII (Michael W. Deem and Ramdas Pophale) SiO2 
 PCOD8120759
Probable space group: P 2/C
;
_chemical_formula_sum "Si O2"
_cell_formula_units_Z 28
_cell_length_a 6.370041
_cell_length_b 10.699901
_cell_length_c 19.697807
_cell_angle_alpha 90.000000
_cell_angle_beta 78.935271
_cell_angle_gamma 90.000000
_cell_volume 1317.621836
_symmetry_space_group_name_H-M "P 2/C"
_symmetry_group_IT_number 13
_symmetry_cell_setting 'monoclinic'
loop_
_space_group_symop_operation_xyz
x,y,z
-x,y,1/2-z
-x,-y,-z
x,-y,1/2+z
loop_
_atom_site_type_symbol
_atom_site_label
_atom_site_fract_x
_atom_site_fract_y
_atom_site_fract_z
Si Si1 0.500000 0.206729 0.250000
Si Si2 0.967283 0.236115 0.421597
Si Si3 0.328978 0.601866 0.956938
Si Si4 0.000000 0.595117 0.250000
Si Si5 0.348139 0.669171 0.456274
Si Si6 0.721837 0.607810 0.835427
Si Si7 0.876384 0.956924 0.685921
Si Si8 0.298205 0.229243 0.812653
O O1 0.345110 0.290319 0.214971
O O2 0.344688 0.119312 0.303106
O O3 0.784186 0.230528 0.490536
O O4 0.914538 0.336463 0.367021
O O5 0.186338 0.283917 0.441013
O O6 0.984265 0.099927 0.385090
O O7 0.217079 0.464154 0.966938
O O8 0.520804 0.573290 0.893262
O O9 0.419595 0.644416 0.024522
O O10 0.809409 0.515219 0.294113
O O11 0.885784 0.677552 0.200212
O O12 0.384741 0.724522 0.379680
O O13 0.000000 0.946712 0.750000
O O14 0.821565 0.098336 0.671954
O O15 0.500000 0.219201 0.750000
#
# Coordination Sequence:
#
# PCOD8120759 Si02
#       8
#     2   4   4   2   4   4   4   4
#     4  12  22  40  68 100 136 170 230 282 334 398
#     4  11  22  41  69  97 133 175 227 284 336 400
#     4  10  21  42  66  95 140 175 217 285 341 408
#     4  12  26  40  66 106 140 178 226 278 352 412
#     4  10  24  41  64  99 135 175 225 275 352 405
#     4  11  23  36  67 104 131 172 221 285 341 404
#     4  12  24  45  68  97 133 183 232 281 334 397
#     4  12  27  46  67  95 140 186 226 277 339 414
#
# _framework density 21.250408
#
# number of rings (size 3 to 8) (size 9 to 14) (size 15 to 20)
#    0.000    0.857    4.286    3.000    3.000    4.000 
#    0.000    0.714    0.000    0.000    0.000    0.000 
#    0.000    0.000    0.000    0.000    0.000    0.000 
#
# Total GULP energy -347212.540387 kJ/mol
# GULP energy per Si atom -12400.447871 kJ/mol
# Density = 2.120204 g / cm^3
# Si number density = 21.250408 Si / 1000 Ang^3
#
#
#
# Elastic Constant Matrix: (Units=GPa)
#
#
# Indices 1 2 3 4 5 6 
#
# 1 68.2960 39.1566 33.2060 0.0000 11.5510 0.0000
# 2 39.1566 127.2849 56.3645 0.0000 9.0655 0.0000
# 3 33.2060 56.3645 127.6675 0.0000 14.2655 0.0000
# 4 0.0000 0.0000 0.0000 33.6630 0.0000 9.2827
# 5 11.5510 9.0655 14.2655 0.0000 32.9063 0.0000
# 6 0.0000 0.0000 0.0000 9.2827 0.0000 58.7973
#
#
#
# Elastic Compliance Matrix: (Units=1/GPa)
#
#
# Indices 1 2 3 4 5 6 
#
# 1 0.019176 -0.004468 -0.002522 0.000000 -0.004407 0.000000
# 2 -0.004468 0.010830 -0.003637 0.000000 0.000162 0.000000
# 3 -0.002522 -0.003637 0.010387 0.000000 -0.002615 0.000000
# 4 0.000000 0.000000 0.000000 0.031058 0.000000 -0.004903
# 5 -0.004407 0.000162 -0.002615 0.000000 0.033025 0.000000
# 6 0.000000 0.000000 0.000000 -0.004903 0.000000 0.017782
#
#
# Mechanical properties :
#
#
# Convention : Reuss Voigt Hill
#
# Bulk Modulus (GPa) = 52.25511 64.52252 58.38882
# Shear Modulus (GPa) = 33.35708 38.04141 35.69925
#
# Velocity S-wave (km/s) = 3.96626 4.23561 4.10314
# Velocity P-wave (km/s) = 6.75415 7.37220 7.06993
#
# Compressibility (1/GPa) = 0.01913689
#
# Stress axis : x y z
#
# Youngs Moduli (GPa) = 52.14948 92.33515 96.27369
#
# Poissons Ratio (x) = 0.41257 0.24285
# Poissons Ratio (y) = 0.23301 0.35018
# Poissons Ratio (z) = 0.13155 0.33586
#
# Static dielectric constant tensor:
#      x y z
#    x 3.851610 0.000000 0.068180 
#    y 0.000000 3.829930 0.000000 
#    z 0.068180 0.000000 3.860070 
# 
# 
# High freq. dielectric constant tensor:
#      x y z
#    x 1.839590 0.000000 0.007770 
#    y 0.000000 1.828760 0.000000 
#    z 0.007770 0.000000 1.836500 
# 
# From -- ./inp_files/73617.got.cif
#   From: 2010.06.25/outbox.cif.g09.slc.cpg/sg13_37_cif.got.tgz:73617.got - 2010.06.28 04:50:58.
