data_PCOD8120307
_publ_section_title
;
Structure prediction by ZEFSAII (Michael W. Deem and Ramdas Pophale) SiO2 
 PCOD8120307
Probable space group: P 2/C
;
_chemical_formula_sum "Si O2"
_cell_formula_units_Z 24
_cell_length_a 11.147851
_cell_length_b 11.001170
_cell_length_c 14.725382
_cell_angle_alpha 90.000000
_cell_angle_beta 141.743494
_cell_angle_gamma 90.000000
_cell_volume 1118.190269
_symmetry_space_group_name_H-M "P 2/C"
_symmetry_group_IT_number 13
_symmetry_cell_setting 'monoclinic'
loop_
_space_group_symop_operation_xyz
x,y,z
-x,y,1/2-z
-x,-y,-z
x,-y,1/2+z
loop_
_atom_site_type_symbol
_atom_site_label
_atom_site_fract_x
_atom_site_fract_y
_atom_site_fract_z
Si Si1 0.033165 0.213418 0.516330
Si Si2 0.597469 0.183253 0.214128
Si Si3 0.402335 0.909663 0.285120
Si Si4 0.495687 0.694854 0.469313
Si Si5 0.073394 0.612684 0.200773
Si Si6 0.872079 0.644548 0.597798
O O1 0.168161 0.105003 0.635113
O O2 0.152921 0.274920 0.505878
O O3 0.827613 0.168266 0.359888
O O4 0.991210 0.312112 0.568556
O O5 0.500000 0.228681 0.250000
O O6 0.529751 0.046309 0.150610
O O7 0.540206 0.278952 0.101884
O O8 0.500000 0.866838 0.250000
O O9 0.475428 0.825754 0.410136
O O10 0.663958 0.617900 0.519639
O O11 0.306987 0.611593 0.342667
O O12 0.986668 0.478209 0.140922
O O13 0.000000 0.675746 0.250000
O O14 0.000000 0.715444 0.750000
#
# Coordination Sequence:
#
# PCOD8120307 Si02
#       6
#     4   4   4   4   4   4
#     4  11  21  41  62  91 128 160 206 260 305 371
#     4  11  23  39  63  94 126 162 205 258 315 369
#     4  10  21  38  65  94 123 162 207 253 314 372
#     4  11  22  42  66  89 129 165 207 261 304 373
#     4  10  24  40  62  90 125 165 209 252 311 365
#     4  11  22  40  65  92 121 165 213 251 309 365
#
# _framework density 21.463252000000001
#
# number of rings (size 3 to 8) (size 9 to 14) (size 15 to 20)
#    0.000    1.333    3.333    2.500    0.000    2.667 
#    3.000    0.000    3.667    0.000    0.000    0.000 
#    0.000    0.000    0.000    0.000    0.000    0.000 
#
# Total GULP energy -297566.899876 kJ/mol
# GULP energy per Si atom -12398.620828 kJ/mol
# Density = 2.141440 g / cm^3
# Si number density = 21.463252 Si / 1000 Ang^3
#
#
#
# Elastic Constant Matrix: (Units=GPa)
#
#
# Indices 1 2 3 4 5 6 
#
# 1 125.8764 29.4730 21.1272 0.0000 3.0686 0.0000
# 2 29.4730 64.9541 19.2736 0.0000 0.5358 0.0000
# 3 21.1272 19.2736 84.0104 0.0000 14.0416 0.0000
# 4 0.0000 0.0000 0.0000 50.6645 0.0000 22.9111
# 5 3.0686 0.5358 14.0416 0.0000 46.0578 0.0000
# 6 0.0000 0.0000 0.0000 22.9111 0.0000 40.4568
#
#
#
# Elastic Compliance Matrix: (Units=1/GPa)
#
#
# Indices 1 2 3 4 5 6 
#
# 1 0.009047 -0.003686 -0.001408 0.000000 -0.000131 0.000000
# 2 -0.003686 0.018067 -0.003397 0.000000 0.001071 0.000000
# 3 -0.001408 -0.003397 0.013713 0.000000 -0.004047 0.000000
# 4 0.000000 0.000000 0.000000 0.026532 0.000000 -0.015026
# 5 -0.000131 0.001071 -0.004047 0.000000 0.022942 0.000000
# 6 0.000000 0.000000 0.000000 -0.015026 0.000000 0.033227
#
#
# Mechanical properties :
#
#
# Convention : Reuss Voigt Hill
#
# Bulk Modulus (GPa) = 41.93650 46.06540 44.00095
# Shear Modulus (GPa) = 33.67940 41.10028 37.38984
#
# Velocity S-wave (km/s) = 3.96557 4.38072 4.17830
# Velocity P-wave (km/s) = 6.36779 6.86270 6.61987
#
# Compressibility (1/GPa) = 0.02384557
#
# Stress axis : x y z
#
# Youngs Moduli (GPa) = 110.53566 55.34868 72.92305
#
# Poissons Ratio (x) = 0.20403 0.10264
# Poissons Ratio (y) = 0.40747 0.24772
# Poissons Ratio (z) = 0.15559 0.18802
#
# Static dielectric constant tensor:
#      x y z
#    x 4.127520 0.000000 -0.048660 
#    y 0.000000 3.489230 0.000000 
#    z -0.048660 0.000000 3.906450 
# 
# 
# High freq. dielectric constant tensor:
#      x y z
#    x 1.857990 0.000000 0.001620 
#    y 0.000000 1.820810 0.000000 
#    z 0.001620 0.000000 1.850360 
# 
# From -- ./inp_files/66690.got.cif
#   From: 2010.06.25/outbox.cif.g09.slc.cpg/sg13_34_cif.got.tgz:66690.got - 2010.06.28 04:50:58.
