data_PCOD8120231
_publ_section_title
;
Structure prediction by ZEFSAII (Michael W. Deem and Ramdas Pophale) SiO2 
 PCOD8120231
Probable space group: P 2/C
;
_chemical_formula_sum "Si O2"
_cell_formula_units_Z 24
_cell_length_a 8.679431
_cell_length_b 13.520277
_cell_length_c 18.856586
_cell_angle_alpha 90.000000
_cell_angle_beta 148.315457
_cell_angle_gamma 90.000000
_cell_volume 1162.249700
_symmetry_space_group_name_H-M "P 2/C"
_symmetry_group_IT_number 13
_symmetry_cell_setting 'monoclinic'
loop_
_space_group_symop_operation_xyz
x,y,z
-x,y,1/2-z
-x,-y,-z
x,-y,1/2+z
loop_
_atom_site_type_symbol
_atom_site_label
_atom_site_fract_x
_atom_site_fract_y
_atom_site_fract_z
Si Si1 0.653713 0.386489 0.381303
Si Si2 0.335156 0.784513 0.018685
Si Si3 0.426600 0.785822 0.542390
Si Si4 0.118732 0.098026 0.720490
Si Si5 0.257904 0.895462 0.715455
Si Si6 0.667608 0.391802 0.883648
O O1 0.500000 0.344356 0.250000
O O2 0.569144 0.317614 0.414123
O O3 0.545360 0.498530 0.354366
O O4 0.995920 0.390401 0.504466
O O5 0.556015 0.859634 0.143299
O O6 0.389200 0.675862 0.070787
O O7 0.387203 0.774116 0.955793
O O8 0.006210 0.820772 0.906166
O O9 0.588245 0.870556 0.650044
O O10 0.093736 0.818366 0.395406
O O11 0.000000 0.061809 0.750000
O O12 0.128110 0.005850 0.670539
O O13 0.500000 0.887380 0.750000
O O14 0.500000 0.348179 0.750000
#
# Coordination Sequence:
#
# PCOD8120231 Si02
#       6
#     4   4   4   4   4   4
#     4  10  21  38  60  86 118 155 193 238 289 343
#     4  11  23  39  62  88 117 156 195 241 294 344
#     4  11  22  39  62  87 119 155 195 242 290 346
#     4  10  23  41  59  84 118 154 194 241 293 345
#     4  12  25  39  59  87 118 155 198 242 290 347
#     4  10  21  38  60  86 118 154 192 238 291 344
#
# _framework density 20.649607
#
# number of rings (size 3 to 8) (size 9 to 14) (size 15 to 20)
#    0.000    1.333    0.000    6.000    0.000    8.000 
#    0.000    0.000    0.000   10.000    0.000    0.000 
#    0.000    0.000    0.000    0.000    0.000    0.000 
#
# Total GULP energy -297727.927439 kJ/mol
# GULP energy per Si atom -12405.330310 kJ/mol
# Density = 2.060261 g / cm^3
# Si number density = 20.649607 Si / 1000 Ang^3
#
#
#
# Elastic Constant Matrix: (Units=GPa)
#
#
# Indices 1 2 3 4 5 6 
#
# 1 121.7409 70.1395 56.4200 0.0000 -4.4686 0.0000
# 2 70.1395 115.9071 33.3510 0.0000 -14.2819 0.0000
# 3 56.4200 33.3510 128.7523 0.0000 -1.6165 0.0000
# 4 0.0000 0.0000 0.0000 37.1298 0.0000 -8.8625
# 5 -4.4686 -14.2819 -1.6165 0.0000 34.1855 0.0000
# 6 0.0000 0.0000 0.0000 -8.8625 0.0000 38.5516
#
#
#
# Elastic Compliance Matrix: (Units=1/GPa)
#
#
# Indices 1 2 3 4 5 6 
#
# 1 0.014724 -0.007822 -0.004445 0.000000 -0.001554 0.000000
# 2 -0.007822 0.013994 -0.000137 0.000000 0.004817 0.000000
# 3 -0.004445 -0.000137 0.009748 0.000000 -0.000177 0.000000
# 4 0.000000 0.000000 0.000000 0.028496 0.000000 0.006551
# 5 -0.001554 0.004817 -0.000177 0.000000 0.031053 0.000000
# 6 0.000000 0.000000 0.000000 0.006551 0.000000 0.027445
#
#
# Mechanical properties :
#
#
# Convention : Reuss Voigt Hill
#
# Bulk Modulus (GPa) = 73.22065 76.24679 74.73372
# Shear Modulus (GPa) = 32.29509 35.73939 34.01724
#
# Velocity S-wave (km/s) = 3.95898 4.16475 4.06317
# Velocity P-wave (km/s) = 7.51223 7.75442 7.63429
#
# Compressibility (1/GPa) = 0.01365735
#
# Stress axis : x y z
#
# Youngs Moduli (GPa) = 67.91574 71.45865 102.58472
#
# Poissons Ratio (x) = 0.55898 0.45604
# Poissons Ratio (y) = 0.53126 0.01402
# Poissons Ratio (z) = 0.30192 0.00976
#
# Static dielectric constant tensor:
#      x y z
#    x 3.565770 0.000000 0.011690 
#    y 0.000000 3.928930 0.000000 
#    z 0.011690 0.000000 3.949440 
# 
# 
# High freq. dielectric constant tensor:
#      x y z
#    x 1.797130 0.000000 0.002000 
#    y 0.000000 1.813670 0.000000 
#    z 0.002000 0.000000 1.829320 
# 
# From -- ./inp_files/64689.got.cif
#   From: 2010.06.25/outbox.cif.g09.slc.cpg/sg13_33_cif.got.tgz:64689.got - 2010.06.28 04:50:58.
