data_PCOD8120938
_publ_section_title
;
Structure prediction by ZEFSAII (Michael W. Deem and Ramdas Pophale) SiO2 
 PCOD8120938
Probable space group: P 2/C
;
_chemical_formula_sum "Si O2"
_cell_formula_units_Z 28
_cell_length_a 16.398284
_cell_length_b 9.028593
_cell_length_c 21.131354
_cell_angle_alpha 90.000000
_cell_angle_beta 154.756299
_cell_angle_gamma 90.000000
_cell_volume 1334.238848
_symmetry_space_group_name_H-M "P 2/C"
_symmetry_group_IT_number 13
_symmetry_cell_setting 'monoclinic'
loop_
_space_group_symop_operation_xyz
x,y,z
-x,y,1/2-z
-x,-y,-z
x,-y,1/2+z
loop_
_atom_site_type_symbol
_atom_site_label
_atom_site_fract_x
_atom_site_fract_y
_atom_site_fract_z
Si Si1 0.815204 0.198786 0.703439
Si Si2 0.193211 0.406529 0.131704
Si Si3 0.270197 0.298156 0.442423
Si Si4 0.579956 0.345818 0.081417
Si Si5 0.614596 0.320626 0.769526
Si Si6 0.939538 0.157427 0.931675
Si Si7 0.000000 0.951663 0.750000
Si Si8 0.000000 0.560549 0.250000
O O1 0.595723 0.232142 0.529442
O O2 0.829302 0.165744 0.787840
O O3 0.889374 0.050124 0.722953
O O4 0.944113 0.338007 0.771097
O O5 0.292613 0.374439 0.268203
O O6 0.336263 0.504196 0.189078
O O7 0.000000 0.500000 0.000000
O O8 0.137231 0.249556 0.061784
O O9 0.277988 0.279128 0.371853
O O10 0.485114 0.297113 0.617345
O O11 0.173610 0.454786 0.394037
O O12 0.153923 0.159613 0.390577
O O13 0.500000 0.500000 0.000000
O O14 0.500000 0.264356 0.750000
O O15 0.805702 0.225622 0.892772
O O16 0.000000 0.000000 0.000000
#
# Coordination Sequence:
#
# PCOD8120938 Si02
#       8
#     4   4   4   4   4   4   2   2
#     4  11  23  45  64  94 135 171 225 267 330 401
#     4  10  23  41  66  98 127 170 215 274 332 394
#     4  11  23  41  67  99 127 168 221 273 337 385
#     4  12  20  41  73  98 124 167 229 276 325 393
#     4  11  24  42  66  93 131 169 222 278 328 389
#     4  11  26  44  64  93 133 182 215 267 339 406
#     4  10  28  40  64  98 132 176 212 280 334 390
#     4  10  22  36  70  94 126 164 210 284 318 386
#
# _framework density 20.985748999999998
#
# number of rings (size 3 to 8) (size 9 to 14) (size 15 to 20)
#    0.000    1.143    4.286    0.857    6.000    4.000 
#    0.000    0.714    0.000    0.000    0.000    0.000 
#    0.000    0.000    0.000    0.000    0.000    0.000 
#
# Total GULP energy -347054.856377 kJ/mol
# GULP energy per Si atom -12394.816299 kJ/mol
# Density = 2.093798 g / cm^3
# Si number density = 20.985749 Si / 1000 Ang^3
#
#
#
# Elastic Constant Matrix: (Units=GPa)
#
#
# Indices 1 2 3 4 5 6 
#
# 1 103.7472 38.8627 31.2963 0.0000 7.3055 0.0000
# 2 38.8627 152.8640 49.4006 0.0000 11.2144 0.0000
# 3 31.2963 49.4006 119.6546 0.0000 -2.4587 0.0000
# 4 0.0000 0.0000 0.0000 23.7374 0.0000 8.0766
# 5 7.3055 11.2144 -2.4587 0.0000 35.0882 0.0000
# 6 0.0000 0.0000 0.0000 8.0766 0.0000 32.5920
#
#
#
# Elastic Compliance Matrix: (Units=1/GPa)
#
#
# Indices 1 2 3 4 5 6 
#
# 1 0.011164 -0.002018 -0.002125 0.000000 -0.001829 0.000000
# 2 -0.002018 0.008165 -0.002892 0.000000 -0.002392 0.000000
# 3 -0.002125 -0.002892 0.010150 0.000000 0.002078 0.000000
# 4 0.000000 0.000000 0.000000 0.046007 0.000000 -0.011401
# 5 -0.001829 -0.002392 0.002078 0.000000 0.029791 0.000000
# 6 0.000000 0.000000 0.000000 -0.011401 0.000000 0.033508
#
#
# Mechanical properties :
#
#
# Convention : Reuss Voigt Hill
#
# Bulk Modulus (GPa) = 64.89351 68.37613 66.63482
# Shear Modulus (GPa) = 31.64755 35.39724 33.52240
#
# Velocity S-wave (km/s) = 3.88757 4.11143 4.00107
# Velocity P-wave (km/s) = 7.15128 7.42909 7.29151
#
# Compressibility (1/GPa) = 0.01540986
#
# Stress axis : x y z
#
# Youngs Moduli (GPa) = 89.57162 122.47526 98.52237
#
# Poissons Ratio (x) = 0.24710 0.20933
# Poissons Ratio (y) = 0.18071 0.28497
# Poissons Ratio (z) = 0.19031 0.35425
#
# Static dielectric constant tensor:
#      x y z
#    x 3.942470 0.000000 0.292980 
#    y 0.000000 4.064670 0.000000 
#    z 0.292980 0.000000 4.015720 
# 
# 
# High freq. dielectric constant tensor:
#      x y z
#    x 1.812460 0.000000 0.014310 
#    y 0.000000 1.825960 0.000000 
#    z 0.014310 0.000000 1.826830 
# 
# From -- ./inp_files/80040.got.cif
#   From: 2010.06.25/outbox.cif.g09.slc.cpg/sg13_41_cif.got.tgz:80040.got - 2010.06.28 04:50:58.
