data_PCOD8120408
_publ_section_title
;
Structure prediction by ZEFSAII (Michael W. Deem and Ramdas Pophale) SiO2 
 PCOD8120408
Probable space group: P 2/C
;
_chemical_formula_sum "Si O2"
_cell_formula_units_Z 32
_cell_length_a 12.293231
_cell_length_b 14.013079
_cell_length_c 17.633029
_cell_angle_alpha 90.000000
_cell_angle_beta 147.835898
_cell_angle_gamma 90.000000
_cell_volume 1617.039129
_symmetry_space_group_name_H-M "P 2/C"
_symmetry_group_IT_number 13
_symmetry_cell_setting 'monoclinic'
loop_
_space_group_symop_operation_xyz
x,y,z
-x,y,1/2-z
-x,-y,-z
x,-y,1/2+z
loop_
_atom_site_type_symbol
_atom_site_label
_atom_site_fract_x
_atom_site_fract_y
_atom_site_fract_z
Si Si1 0.363514 0.870435 0.829358
Si Si2 0.335793 0.694722 0.712521
Si Si3 0.040494 0.984730 0.186512
Si Si4 0.599749 0.456619 0.447662
Si Si5 0.947145 0.430892 0.536888
Si Si6 0.407281 0.972179 0.117978
Si Si7 0.609079 0.842407 0.121506
Si Si8 0.654982 0.377562 0.640036
O O1 0.288606 0.770998 0.749794
O O2 0.167248 0.917999 0.752181
O O3 0.455753 0.935528 0.818098
O O4 0.544266 0.856788 0.996385
O O5 0.500000 0.736701 0.750000
O O6 0.413309 0.596470 0.796157
O O7 0.130884 0.669126 0.545119
O O8 0.000000 0.965858 0.250000
O O9 0.172874 0.894319 0.234390
O O10 0.829889 0.996317 0.015538
O O11 0.776168 0.476311 0.490807
O O12 0.675233 0.388823 0.561162
O O13 0.533200 0.559494 0.440227
O O14 0.000000 0.500000 0.500000
O O15 0.139248 0.413878 0.702180
O O16 0.500000 0.929443 0.250000
O O17 0.434486 0.890462 0.070510
O O18 0.620239 0.730791 0.145291
#
# Coordination Sequence:
#
# PCOD8120408 Si02
#       8
#     4   4   4   4   4   4   4   4
#     4  11  21  40  65  92 126 164 214 261 310 382
#     4  10  21  39  64  91 122 163 208 255 314 367
#     4  11  21  40  67  88 124 171 207 253 319 377
#     4  10  22  42  64  88 127 170 207 264 318 375
#     4  11  23  41  63  94 127 165 210 263 323 378
#     4  11  24  42  61  94 132 164 206 265 322 373
#     4  11  23  40  66  96 123 167 220 261 312 383
#     4  11  23  41  66  93 129 166 220 264 313 383
#
# _framework density 19.789256000000002
#
# number of rings (size 3 to 8) (size 9 to 14) (size 15 to 20)
#    0.000    1.250    5.000    1.500    0.000    7.000 
#    4.500    0.000    2.750    0.000    0.000    0.000 
#    0.000    0.000    0.000    0.000    0.000    0.000 
#
# Total GULP energy -396868.276546 kJ/mol
# GULP energy per Si atom -12402.133642 kJ/mol
# Density = 1.974421 g / cm^3
# Si number density = 19.789256 Si / 1000 Ang^3
#
#
#
# Elastic Constant Matrix: (Units=GPa)
#
#
# Indices 1 2 3 4 5 6 
#
# 1 88.2754 44.2415 29.6085 0.0000 -0.4187 0.0000
# 2 44.2415 109.9117 20.0719 0.0000 9.9111 0.0000
# 3 29.6085 20.0719 109.2827 0.0000 1.1900 0.0000
# 4 0.0000 0.0000 0.0000 21.2920 0.0000 -10.5649
# 5 -0.4187 9.9111 1.1900 0.0000 32.4486 0.0000
# 6 0.0000 0.0000 0.0000 -10.5649 0.0000 24.3930
#
#
#
# Elastic Compliance Matrix: (Units=1/GPa)
#
#
# Indices 1 2 3 4 5 6 
#
# 1 0.015268 -0.005766 -0.003100 0.000000 0.002072 0.000000
# 2 -0.005766 0.011856 -0.000575 0.000000 -0.003674 0.000000
# 3 -0.003100 -0.000575 0.010099 0.000000 -0.000235 0.000000
# 4 0.000000 0.000000 0.000000 0.059822 0.000000 0.025910
# 5 0.002072 -0.003674 -0.000235 0.000000 0.031976 0.000000
# 6 0.000000 0.000000 0.000000 0.025910 0.000000 0.052217
#
#
# Mechanical properties :
#
#
# Convention : Reuss Voigt Hill
#
# Bulk Modulus (GPa) = 54.52856 55.03483 54.78169
# Shear Modulus (GPa) = 24.24441 29.86325 27.05383
#
# Velocity S-wave (km/s) = 3.50398 3.88888 3.70144
# Velocity P-wave (km/s) = 6.63212 6.93075 6.78308
#
# Compressibility (1/GPa) = 0.01833901
#
# Stress axis : x y z
#
# Youngs Moduli (GPa) = 65.49777 84.34821 99.02275
#
# Poissons Ratio (x) = 0.48637 0.30697
# Poissons Ratio (y) = 0.37768 0.05696
# Poissons Ratio (z) = 0.20304 0.04852
#
# Static dielectric constant tensor:
#      x y z
#    x 3.708710 0.000000 -0.121660 
#    y 0.000000 4.042910 0.000000 
#    z -0.121660 0.000000 3.747590 
# 
# 
# High freq. dielectric constant tensor:
#      x y z
#    x 1.773610 0.000000 -0.009890 
#    y 0.000000 1.761400 0.000000 
#    z -0.009890 0.000000 1.778660 
# 
# From -- ./inp_files/66931.got.cif
#   From: 2010.06.25/outbox.cif.g09.slc.cpg/sg13_34_cif.got.tgz:66931.got - 2010.06.28 04:50:58.
