data_PCOD8120769
_publ_section_title
;
Structure prediction by ZEFSAII (Michael W. Deem and Ramdas Pophale) SiO2 
 PCOD8120769
Probable space group: P 2/C
;
_chemical_formula_sum "Si O2"
_cell_formula_units_Z 28
_cell_length_a 9.057585
_cell_length_b 14.330568
_cell_length_c 10.768854
_cell_angle_alpha 90.000000
_cell_angle_beta 65.346705
_cell_angle_gamma 90.000000
_cell_volume 1270.389242
_symmetry_space_group_name_H-M "P 2/C"
_symmetry_group_IT_number 13
_symmetry_cell_setting 'monoclinic'
loop_
_space_group_symop_operation_xyz
x,y,z
-x,y,1/2-z
-x,-y,-z
x,-y,1/2+z
loop_
_atom_site_type_symbol
_atom_site_label
_atom_site_fract_x
_atom_site_fract_y
_atom_site_fract_z
Si Si1 0.377432 0.629476 0.682863
Si Si2 0.513436 0.809503 0.503155
Si Si3 0.500000 0.895045 0.250000
Si Si4 0.914896 0.644672 0.547267
Si Si5 0.144621 0.835152 0.023210
Si Si6 0.854921 0.481508 0.393225
Si Si7 0.000000 0.972688 0.250000
Si Si8 0.703788 0.937640 0.757515
O O1 0.500000 0.596544 0.750000
O O2 0.458418 0.707676 0.567869
O O3 0.212970 0.671060 0.799890
O O4 0.314204 0.543598 0.617966
O O5 0.456523 0.829350 0.382663
O O6 0.708411 0.815570 0.432974
O O7 0.446061 0.888728 0.620192
O O8 0.347894 0.962701 0.279266
O O9 0.956124 0.739692 0.461024
O O10 0.822624 0.570454 0.491088
O O11 0.083148 0.604930 0.543492
O O12 0.015659 0.908491 0.122202
O O13 0.224380 0.868912 0.868788
O O14 0.000000 0.509629 0.250000
O O15 0.845269 0.040012 0.304856
#
# Coordination Sequence:
#
# PCOD8120769 Si02
#       8
#     4   4   2   4   4   4   2   4
#     4  11  21  41  70  99 130 169 223 270 326 399
#     4  12  23  44  68  95 132 179 223 279 338 397
#     4  12  24  40  68  90 134 180 224 272 340 398
#     4  10  21  42  67  94 132 175 217 267 335 396
#     4  12  23  43  67  96 135 175 219 279 333 398
#     4   9  22  41  67 100 132 174 217 270 337 404
#     4  12  28  38  60 104 136 164 230 276 330 392
#     4  12  23  44  68  94 128 181 223 278 330 395
#
# _framework density 22.040486000000001
#
# number of rings (size 3 to 8) (size 9 to 14) (size 15 to 20)
#    0.000    0.857    5.714    1.714    1.000    2.857 
#    0.000    0.000    0.000    0.000    0.000    0.000 
#    0.000    0.000    0.000    0.000    0.000    0.000 
#
# Total GULP energy -347202.541998 kJ/mol
# GULP energy per Si atom -12400.090786 kJ/mol
# Density = 2.199032 g / cm^3
# Si number density = 22.040486 Si / 1000 Ang^3
#
#
#
# Elastic Constant Matrix: (Units=GPa)
#
#
# Indices 1 2 3 4 5 6 
#
# 1 97.6846 40.3203 14.0762 0.0000 16.3847 0.0000
# 2 40.3203 74.3245 32.0485 0.0000 10.8890 0.0000
# 3 14.0762 32.0485 85.9768 0.0000 17.1229 0.0000
# 4 0.0000 0.0000 0.0000 27.1977 0.0000 1.4367
# 5 16.3847 10.8890 17.1229 0.0000 35.6939 0.0000
# 6 0.0000 0.0000 0.0000 1.4367 0.0000 30.3342
#
#
#
# Elastic Compliance Matrix: (Units=1/GPa)
#
#
# Indices 1 2 3 4 5 6 
#
# 1 0.013920 -0.007479 0.001467 0.000000 -0.004812 0.000000
# 2 -0.007479 0.020213 -0.006375 0.000000 0.000325 0.000000
# 3 0.001467 -0.006375 0.014941 0.000000 -0.005896 0.000000
# 4 0.000000 0.000000 0.000000 0.036860 0.000000 -0.001746
# 5 -0.004812 0.000325 -0.005896 0.000000 0.032954 0.000000
# 6 0.000000 0.000000 0.000000 -0.001746 0.000000 0.033049
#
#
# Mechanical properties :
#
#
# Convention : Reuss Voigt Hill
#
# Bulk Modulus (GPa) = 41.15057 47.87510 44.51283
# Shear Modulus (GPa) = 27.05470 30.08122 28.56796
#
# Velocity S-wave (km/s) = 3.50737 3.69835 3.60413
# Velocity P-wave (km/s) = 5.92564 6.32500 6.12857
#
# Compressibility (1/GPa) = 0.02430100
#
# Stress axis : x y z
#
# Youngs Moduli (GPa) = 71.84036 49.47311 66.92815
#
# Poissons Ratio (x) = 0.37001 -0.09820
# Poissons Ratio (y) = 0.53730 0.42665
# Poissons Ratio (z) = -0.10541 0.31538
#
# Static dielectric constant tensor:
#      x y z
#    x 4.080800 0.000000 0.133860 
#    y 0.000000 3.857070 0.000000 
#    z 0.133860 0.000000 3.883270 
# 
# 
# High freq. dielectric constant tensor:
#      x y z
#    x 1.867230 0.000000 0.007070 
#    y 0.000000 1.858910 0.000000 
#    z 0.007070 0.000000 1.861490 
# 
# From -- ./inp_files/30336.got.cif
#   From: 2010.06.25/outbox.cif.g09.slc.cpg/sg13_16_cif.got.tgz:30336.got - 2010.06.28 04:50:58.
