data_PCOD8120709
_publ_section_title
;
Structure prediction by ZEFSAII (Michael W. Deem and Ramdas Pophale) SiO2 
 PCOD8120709
Probable space group: P 2/C
;
_chemical_formula_sum "Si O2"
_cell_formula_units_Z 22
_cell_length_a 10.716546
_cell_length_b 8.914671
_cell_length_c 13.474404
_cell_angle_alpha 90.000000
_cell_angle_beta 54.348945
_cell_angle_gamma 90.000000
_cell_volume 1046.012239
_symmetry_space_group_name_H-M "P 2/C"
_symmetry_group_IT_number 13
_symmetry_cell_setting 'monoclinic'
loop_
_space_group_symop_operation_xyz
x,y,z
-x,y,1/2-z
-x,-y,-z
x,-y,1/2+z
loop_
_atom_site_type_symbol
_atom_site_label
_atom_site_fract_x
_atom_site_fract_y
_atom_site_fract_z
Si Si1 0.668522 0.801274 0.718834
Si Si2 0.864191 0.919320 0.124871
Si Si3 0.648806 0.309654 0.613227
Si Si4 0.000000 0.756228 0.250000
Si Si5 0.242367 0.363796 0.500034
Si Si6 0.535819 0.673683 0.963474
O O1 0.500000 0.808037 0.750000
O O2 0.790624 0.724371 0.587014
O O3 0.666807 0.700856 0.819675
O O4 0.727920 0.966617 0.714405
O O5 0.784921 0.786726 0.097989
O O6 0.918983 0.861127 0.206269
O O7 0.000000 0.000000 0.000000
O O8 0.500000 0.335895 0.750000
O O9 0.719414 0.467558 0.547640
O O10 0.585380 0.236926 0.539973
O O11 0.103409 0.640104 0.140804
O O12 0.375969 0.267111 0.493084
O O13 0.500000 0.500000 0.000000
#
# Coordination Sequence:
#
# PCOD8120709 Si02
#       6
#     4   4   4   2   4   4
#     4  10  21  41  70  96 130 178 225 281 341 402
#     4  12  27  46  63  98 143 187 224 275 345 422
#     4  11  23  44  71 101 131 173 235 288 340 403
#     4  12  26  44  64  96 148 178 228 278 350 408
#     4  10  21  42  68 100 135 171 220 291 340 402
#     4   9  19  38  69 102 124 163 228 284 336 393
#
# _framework density 21.032259
#
# number of rings (size 3 to 8) (size 9 to 14) (size 15 to 20)
#    0.000    1.455    1.818    4.364    2.545    2.182 
#    6.545    4.545    0.000    0.000    0.000    0.000 
#    0.000    0.000    0.000    0.000    0.000    0.000 
#
# Total GULP energy -272577.035105 kJ/mol
# GULP energy per Si atom -12389.865232 kJ/mol
# Density = 2.098439 g / cm^3
# Si number density = 21.032259 Si / 1000 Ang^3
#
#
#
# Elastic Constant Matrix: (Units=GPa)
#
#
# Indices 1 2 3 4 5 6 
#
# 1 118.8803 59.2518 68.4243 0.0000 32.4235 0.0000
# 2 59.2518 103.6127 66.2182 0.0000 8.5190 0.0000
# 3 68.4243 66.2182 200.1369 0.0000 15.7631 0.0000
# 4 0.0000 0.0000 0.0000 37.7030 0.0000 -1.8202
# 5 32.4235 8.5190 15.7631 0.0000 35.5552 0.0000
# 6 0.0000 0.0000 0.0000 -1.8202 0.0000 31.6498
#
#
#
# Elastic Compliance Matrix: (Units=1/GPa)
#
#
# Indices 1 2 3 4 5 6 
#
# 1 0.016673 -0.006968 -0.002413 0.000000 -0.012466 0.000000
# 2 -0.006968 0.015199 -0.002964 0.000000 0.004026 0.000000
# 3 -0.002413 -0.002964 0.006811 0.000000 -0.000109 0.000000
# 4 0.000000 0.000000 0.000000 0.026597 0.000000 0.001530
# 5 -0.012466 0.004026 -0.000109 0.000000 0.038576 0.000000
# 6 0.000000 0.000000 0.000000 0.001530 0.000000 0.031684
#
#
# Mechanical properties :
#
#
# Convention : Reuss Voigt Hill
#
# Bulk Modulus (GPa) = 71.46005 90.04651 80.75328
# Shear Modulus (GPa) = 30.32249 36.23066 33.27657
#
# Velocity S-wave (km/s) = 3.80111 4.15495 3.98196
# Velocity P-wave (km/s) = 7.30169 8.11940 7.72138
#
# Compressibility (1/GPa) = 0.01399383
#
# Stress axis : x y z
#
# Youngs Moduli (GPa) = 59.97546 65.79416 146.82533
#
# Poissons Ratio (x) = 0.45843 0.35433
# Poissons Ratio (y) = 0.41789 0.43515
# Poissons Ratio (z) = 0.14474 0.19500
#
# Static dielectric constant tensor:
#      x y z
#    x 4.728730 0.000000 0.568040 
#    y 0.000000 3.577630 0.000000 
#    z 0.568040 0.000000 4.252290 
# 
# 
# High freq. dielectric constant tensor:
#      x y z
#    x 1.828810 0.000000 0.015510 
#    y 0.000000 1.809200 0.000000 
#    z 0.015510 0.000000 1.841160 
# 
# From -- ./inp_files/49544.got.cif
#   From: 2010.06.25/outbox.cif.g09.slc.cpg/sg13_25_cif.got.tgz:49544.got - 2010.06.28 04:50:58.
