data_PCOD8120256
_publ_section_title
;
Structure prediction by ZEFSAII (Michael W. Deem and Ramdas Pophale) SiO2 
 PCOD8120256
Probable space group: P 2/C
;
_chemical_formula_sum "Si O2"
_cell_formula_units_Z 30
_cell_length_a 9.331746
_cell_length_b 15.071157
_cell_length_c 11.144732
_cell_angle_alpha 90.000000
_cell_angle_beta 85.607807
_cell_angle_gamma 90.000000
_cell_volume 1562.794300
_symmetry_space_group_name_H-M "P 2/C"
_symmetry_group_IT_number 13
_symmetry_cell_setting 'monoclinic'
loop_
_space_group_symop_operation_xyz
x,y,z
-x,y,1/2-z
-x,-y,-z
x,-y,1/2+z
loop_
_atom_site_type_symbol
_atom_site_label
_atom_site_fract_x
_atom_site_fract_y
_atom_site_fract_z
Si Si1 0.834542 0.622122 0.736638
Si Si2 0.330608 0.910779 0.678279
Si Si3 0.608750 0.496300 0.149484
Si Si4 0.500000 0.068313 0.750000
Si Si5 0.791459 0.797171 0.608769
Si Si6 0.393291 0.363996 0.051447
Si Si7 0.968626 0.937608 0.889591
Si Si8 0.476527 0.179215 0.515348
O O1 0.759728 0.531280 0.698382
O O2 0.827551 0.695156 0.631980
O O3 0.747531 0.655271 0.859405
O O4 0.000000 0.600033 0.750000
O O5 0.301237 0.834600 0.775694
O O6 0.471684 0.884315 0.595568
O O7 0.199819 0.917691 0.593053
O O8 0.360076 0.005278 0.741555
O O9 0.500000 0.544477 0.250000
O O10 0.527722 0.405534 0.114720
O O11 0.651344 0.564322 0.044420
O O12 0.515059 0.132103 0.636077
O O13 0.941628 0.848801 0.590520
O O14 0.695125 0.806227 0.493944
O O15 0.440763 0.272303 0.989227
O O16 0.000000 0.973687 0.750000
O O17 0.000000 0.000000 0.000000
#
# Coordination Sequence:
#
# PCOD8120256 Si02
#       8
#     4   4   4   2   4   4   4   4
#     4  11  21  37  63  94 119 154 207 251 304 362
#     4  11  22  38  59  83 115 152 206 248 294 361
#     4   9  20  38  64  88 120 155 198 240 304 374
#     4  12  26  34  58  90 116 164 198 254 316 354
#     4  11  21  39  60  88 115 157 204 257 294 354
#     4  10  21  38  61  90 116 159 196 248 303 363
#     4  10  23  38  59  83 118 159 203 249 305 360
#     4  12  23  38  61  84 124 149 203 255 302 358
#
# _framework density 19.196383000000001
#
# number of rings (size 3 to 8) (size 9 to 14) (size 15 to 20)
#    0.000    1.333    4.000    2.400    4.667    0.533 
#    0.000    0.000    0.000    0.000    0.000    0.000 
#    0.000    0.000    0.000    0.000    0.000    0.000 
#
# Total GULP energy -371891.348449 kJ/mol
# GULP energy per Si atom -12396.378282 kJ/mol
# Density = 1.915269 g / cm^3
# Si number density = 19.196383 Si / 1000 Ang^3
#
#
#
# Elastic Constant Matrix: (Units=GPa)
#
#
# Indices 1 2 3 4 5 6 
#
# 1 144.8321 40.6043 27.3428 0.0000 24.0104 0.0000
# 2 40.6043 78.8074 36.1801 0.0000 7.7917 0.0000
# 3 27.3428 36.1801 52.7755 0.0000 16.9421 0.0000
# 4 0.0000 0.0000 0.0000 26.6465 0.0000 -2.4398
# 5 24.0104 7.7917 16.9421 0.0000 22.4901 0.0000
# 6 0.0000 0.0000 0.0000 -2.4398 0.0000 20.5785
#
#
#
# Elastic Compliance Matrix: (Units=1/GPa)
#
#
# Indices 1 2 3 4 5 6 
#
# 1 0.009520 -0.004528 0.001228 0.000000 -0.009520 0.000000
# 2 -0.004528 0.020969 -0.014837 0.000000 0.008746 0.000000
# 3 0.001228 -0.014837 0.035948 0.000000 -0.023250 0.000000
# 4 0.000000 0.000000 0.000000 0.037940 0.000000 0.004498
# 5 -0.009520 0.008746 -0.023250 0.000000 0.069112 0.000000
# 6 0.000000 0.000000 0.000000 0.004498 0.000000 0.049128
#
#
# Mechanical properties :
#
#
# Convention : Reuss Voigt Hill
#
# Bulk Modulus (GPa) = 33.15372 53.85217 43.50295
# Shear Modulus (GPa) = 18.59115 25.42887 22.01001
#
# Velocity S-wave (km/s) = 3.11540 3.64355 3.38978
# Velocity P-wave (km/s) = 5.49994 6.76866 6.16701
#
# Compressibility (1/GPa) = 0.03016253
#
# Stress axis : x y z
#
# Youngs Moduli (GPa) = 105.03813 47.68982 27.81832
#
# Poissons Ratio (x) = 0.21592 -0.03415
# Poissons Ratio (y) = 0.47556 0.41274
# Poissons Ratio (z) = -0.12894 0.70758
#
# Static dielectric constant tensor:
#      x y z
#    x 3.760500 0.000000 0.174380 
#    y 0.000000 3.344150 0.000000 
#    z 0.174380 0.000000 3.506700 
# 
# 
# High freq. dielectric constant tensor:
#      x y z
#    x 1.751130 0.000000 0.014110 
#    y 0.000000 1.737800 0.000000 
#    z 0.014110 0.000000 1.735510 
# 
# From -- ./inp_files/30134.got.cif
#   From: 2010.06.25/outbox.cif.g09.slc.cpg/sg13_16_cif.got.tgz:30134.got - 2010.06.28 04:50:58.
