data_PCOD8120148
_publ_section_title
;
Structure prediction by ZEFSAII (Michael W. Deem and Ramdas Pophale) SiO2 
 PCOD8120148
Probable space group: P 2/C
;
_chemical_formula_sum "Si O2"
_cell_formula_units_Z 32
_cell_length_a 27.494141
_cell_length_b 8.229281
_cell_length_c 21.352832
_cell_angle_alpha 90.000000
_cell_angle_beta 19.623376
_cell_angle_gamma 90.000000
_cell_volume 1622.499745
_symmetry_space_group_name_H-M "P 2/C"
_symmetry_group_IT_number 13
_symmetry_cell_setting 'monoclinic'
loop_
_space_group_symop_operation_xyz
x,y,z
-x,y,1/2-z
-x,-y,-z
x,-y,1/2+z
loop_
_atom_site_type_symbol
_atom_site_label
_atom_site_fract_x
_atom_site_fract_y
_atom_site_fract_z
Si Si1 0.846818 0.281572 0.402473
Si Si2 0.853110 0.405633 0.808330
Si Si3 0.149348 0.914486 0.104169
Si Si4 0.326287 0.447406 0.596329
Si Si5 0.374371 0.420436 0.737133
Si Si6 0.608262 0.802506 0.389403
Si Si7 0.303608 0.921927 0.791026
Si Si8 0.180654 0.375608 0.381704
O O1 0.828124 0.432360 0.378711
O O2 0.711032 0.295161 0.614585
O O3 0.000000 0.303408 0.250000
O O4 0.843927 0.098879 0.374446
O O5 0.826307 0.233746 0.876924
O O6 0.734750 0.419909 0.898034
O O7 0.011306 0.414165 0.586704
O O8 0.000000 0.883199 0.250000
O O9 0.271140 0.908604 0.903385
O O10 0.498392 0.485161 0.380522
O O11 0.302600 0.280238 0.662904
O O12 0.242312 0.584897 0.738020
O O13 0.456361 0.331766 0.580046
O O14 0.256954 0.540271 0.848972
O O15 0.475653 0.899197 0.579140
O O16 0.723965 0.903769 0.207906
O O17 0.204174 0.812856 0.866994
#
# Coordination Sequence:
#
# PCOD8120148 Si02
#       8
#     4   4   4   4   4   4   4   4
#     4  11  23  41  67  93 124 169 219 266 313 383
#     4  12  25  42  63  93 138 169 200 264 335 383
#     4  11  23  39  66  97 123 165 222 265 312 386
#     4  11  24  40  61  95 128 167 210 256 327 392
#     4  11  19  40  66  88 118 163 217 259 304 374
#     4  10  21  37  63  93 120 160 213 273 311 366
#     4  11  19  37  65  92 119 157 218 274 311 359
#     4  11  20  40  66  92 119 167 215 257 310 382
#
# _framework density 19.722653999999999
#
# number of rings (size 3 to 8) (size 9 to 14) (size 15 to 20)
#    0.000    1.000    6.250    2.250    0.000    0.500 
#    2.250    0.625    2.750    0.000    0.000    0.000 
#    0.000    0.000    0.000    0.000    0.000    0.000 
#
# Total GULP energy -396541.735529 kJ/mol
# GULP energy per Si atom -12391.929235 kJ/mol
# Density = 1.967776 g / cm^3
# Si number density = 19.722654 Si / 1000 Ang^3
#
#
#
# Elastic Constant Matrix: (Units=GPa)
#
#
# Indices 1 2 3 4 5 6 
#
# 1 125.0196 68.7324 37.5822 0.0000 -8.6524 0.0000
# 2 68.7324 137.4578 27.1655 0.0000 2.0974 0.0000
# 3 37.5822 27.1655 90.0756 0.0000 2.6738 0.0000
# 4 0.0000 0.0000 0.0000 27.8201 0.0000 5.0909
# 5 -8.6524 2.0974 2.6738 0.0000 27.7726 0.0000
# 6 0.0000 0.0000 0.0000 5.0909 0.0000 21.8835
#
#
#
# Elastic Compliance Matrix: (Units=1/GPa)
#
#
# Indices 1 2 3 4 5 6 
#
# 1 0.012502 -0.005598 -0.003667 0.000000 0.004671 0.000000
# 2 -0.005598 0.010246 -0.000682 0.000000 -0.002452 0.000000
# 3 -0.003667 -0.000682 0.012906 0.000000 -0.002333 0.000000
# 4 0.000000 0.000000 0.000000 0.037543 0.000000 -0.008734
# 5 0.004671 -0.002452 -0.002333 0.000000 0.037872 0.000000
# 6 0.000000 0.000000 0.000000 -0.008734 0.000000 0.047728
#
#
# Mechanical properties :
#
#
# Convention : Reuss Voigt Hill
#
# Bulk Modulus (GPa) = 63.44300 68.83480 66.13890
# Shear Modulus (GPa) = 27.18217 30.10010 28.64114
#
# Velocity S-wave (km/s) = 3.71647 3.91086 3.81490
# Velocity P-wave (km/s) = 7.11713 7.44112 7.28093
#
# Compressibility (1/GPa) = 0.01576218
#
# Stress axis : x y z
#
# Youngs Moduli (GPa) = 79.98901 97.59754 77.48080
#
# Poissons Ratio (x) = 0.54634 0.28408
# Poissons Ratio (y) = 0.44777 0.05282
# Poissons Ratio (z) = 0.29328 0.06653
#
# Static dielectric constant tensor:
#      x y z
#    x 3.280770 0.000000 0.203970 
#    y 0.000000 4.023290 0.000000 
#    z 0.203970 0.000000 3.739550 
# 
# 
# High freq. dielectric constant tensor:
#      x y z
#    x 1.731300 0.000000 0.014470 
#    y 0.000000 1.785980 0.000000 
#    z 0.014470 0.000000 1.780280 
# 
# From -- ./inp_files/82507.got.cif
#   From: 2010.06.25/outbox.cif.g09.slc.cpg/sg13_42_cif.got.tgz:82507.got - 2010.06.28 04:50:58.
