data_PCOD8120659
_publ_section_title
;
Structure prediction by ZEFSAII (Michael W. Deem and Ramdas Pophale) SiO2 
 PCOD8120659
Probable space group: P 2/C
;
_chemical_formula_sum "Si O2"
_cell_formula_units_Z 26
_cell_length_a 14.319926
_cell_length_b 8.563444
_cell_length_c 15.273506
_cell_angle_alpha 90.000000
_cell_angle_beta 134.486536
_cell_angle_gamma 90.000000
_cell_volume 1336.196394
_symmetry_space_group_name_H-M "P 2/C"
_symmetry_group_IT_number 13
_symmetry_cell_setting 'monoclinic'
loop_
_space_group_symop_operation_xyz
x,y,z
-x,y,1/2-z
-x,-y,-z
x,-y,1/2+z
loop_
_atom_site_type_symbol
_atom_site_label
_atom_site_fract_x
_atom_site_fract_y
_atom_site_fract_z
Si Si1 0.178210 0.305531 0.787608
Si Si2 0.431060 0.198246 0.047053
Si Si3 0.000000 0.441996 0.250000
Si Si4 0.324496 0.685941 0.203732
Si Si5 0.173041 0.798904 0.946670
Si Si6 0.435869 0.842006 0.047267
Si Si7 0.500000 0.577349 0.750000
Si Si8 0.000000 0.941257 0.250000
O O1 0.108579 0.461973 0.770939
O O2 0.233789 0.340189 0.728216
O O3 0.075675 0.162308 0.726897
O O4 0.292804 0.268348 0.930126
O O5 0.485941 0.311159 0.157246
O O6 0.418158 0.019795 0.068749
O O7 0.528938 0.189548 0.029533
O O8 0.932427 0.338037 0.130890
O O9 0.459666 0.768217 0.318536
O O10 0.369282 0.526569 0.183452
O O11 0.235931 0.798562 0.084924
O O12 0.293971 0.762887 0.961174
O O13 0.102097 0.960363 0.875218
#
# Coordination Sequence:
#
# PCOD8120659 Si02
#       8
#     4   4   2   4   4   4   2   2
#     4  10  22  42  60  88 121 165 204 252 296 367
#     4  10  23  38  64  90 123 155 206 249 309 354
#     4  10  24  38  64  82 122 172 196 242 306 356
#     4  11  24  39  63  92 127 154 204 254 313 354
#     4  11  21  40  62  89 122 158 206 253 293 370
#     4  10  21  41  64  89 120 161 198 257 304 357
#     4  12  24  36  60 102 120 160 186 254 320 366
#     4  10  22  40  64  84 118 172 214 242 302 344
#
# _framework density 19.458219
#
# number of rings (size 3 to 8) (size 9 to 14) (size 15 to 20)
#    0.000    1.538    3.077    0.923    4.308    2.462 
#    0.000    0.000    0.000    0.000    0.000    0.000 
#    0.000    0.000    0.000    0.000    0.000    0.000 
#
# Total GULP energy -322278.319721 kJ/mol
# GULP energy per Si atom -12395.319989 kJ/mol
# Density = 1.941393 g / cm^3
# Si number density = 19.458219 Si / 1000 Ang^3
#
#
#
# Elastic Constant Matrix: (Units=GPa)
#
#
# Indices 1 2 3 4 5 6 
#
# 1 106.6332 49.8232 33.4266 0.0000 6.0646 0.0000
# 2 49.8232 93.1152 25.1150 0.0000 -11.1949 0.0000
# 3 33.4266 25.1150 81.8465 0.0000 -7.0216 0.0000
# 4 0.0000 0.0000 0.0000 39.1289 0.0000 11.8852
# 5 6.0646 -11.1949 -7.0216 0.0000 28.0801 0.0000
# 6 0.0000 0.0000 0.0000 11.8852 0.0000 48.2989
#
#
#
# Elastic Compliance Matrix: (Units=1/GPa)
#
#
# Indices 1 2 3 4 5 6 
#
# 1 0.014671 -0.007565 -0.004293 0.000000 -0.007258 0.000000
# 2 -0.007565 0.016031 -0.001166 0.000000 0.007733 0.000000
# 3 -0.004293 -0.001166 0.014684 0.000000 0.004134 0.000000
# 4 0.000000 0.000000 0.000000 0.027621 0.000000 -0.006797
# 5 -0.007258 0.007733 0.004134 0.000000 0.041297 0.000000
# 6 0.000000 0.000000 0.000000 -0.006797 0.000000 0.022377
#
#
# Mechanical properties :
#
#
# Convention : Reuss Voigt Hill
#
# Bulk Modulus (GPa) = 51.71196 55.36938 53.54067
# Shear Modulus (GPa) = 29.55508 34.65025 32.10266
#
# Velocity S-wave (km/s) = 3.90153 4.22447 4.06621
# Velocity P-wave (km/s) = 6.85051 7.23272 7.04421
#
# Compressibility (1/GPa) = 0.01933788
#
# Stress axis : x y z
#
# Youngs Moduli (GPa) = 68.16155 62.37760 68.10184
#
# Poissons Ratio (x) = 0.47187 0.29237
# Poissons Ratio (y) = 0.51562 0.07943
# Poissons Ratio (z) = 0.29263 0.07276
#
# Static dielectric constant tensor:
#      x y z
#    x 3.874800 0.000000 0.321510 
#    y 0.000000 3.673610 0.000000 
#    z 0.321510 0.000000 3.642320 
# 
# 
# High freq. dielectric constant tensor:
#      x y z
#    x 1.766070 0.000000 0.011870 
#    y 0.000000 1.764070 0.000000 
#    z 0.011870 0.000000 1.756360 
# 
# From -- ./inp_files/49801.got.cif
#   From: 2010.06.25/outbox.cif.g09.slc.cpg/sg13_25_cif.got.tgz:49801.got - 2010.06.28 04:50:58.
