data_PCOD8120348
_publ_section_title
;
Structure prediction by ZEFSAII (Michael W. Deem and Ramdas Pophale) SiO2 
 PCOD8120348
Probable space group: P 2/C
;
_chemical_formula_sum "Si O2"
_cell_formula_units_Z 30
_cell_length_a 11.341805
_cell_length_b 15.703230
_cell_length_c 9.066664
_cell_angle_alpha 90.000000
_cell_angle_beta 114.517923
_cell_angle_gamma 90.000000
_cell_volume 1469.195739
_symmetry_space_group_name_H-M "P 2/C"
_symmetry_group_IT_number 13
_symmetry_cell_setting 'monoclinic'
loop_
_space_group_symop_operation_xyz
x,y,z
-x,y,1/2-z
-x,-y,-z
x,-y,1/2+z
loop_
_atom_site_type_symbol
_atom_site_label
_atom_site_fract_x
_atom_site_fract_y
_atom_site_fract_z
Si Si1 0.351668 0.909532 0.856516
Si Si2 0.109264 0.367942 0.405474
Si Si3 0.500000 0.491336 0.250000
Si Si4 0.670541 0.458025 0.096301
Si Si5 0.865699 0.605526 0.259902
Si Si6 0.647958 0.088363 0.490379
Si Si7 0.136193 0.806123 0.241996
Si Si8 0.879104 0.828085 0.596244
O O1 0.326004 0.919184 0.670057
O O2 0.254074 0.841611 0.881942
O O3 0.322248 0.997775 0.921961
O O4 0.501643 0.881985 0.955945
O O5 0.241505 0.376800 0.384492
O O6 0.116515 0.420464 0.560513
O O7 0.080919 0.269381 0.408657
O O8 0.000000 0.413177 0.250000
O O9 0.610848 0.437123 0.226267
O O10 0.561014 0.547284 0.412922
O O11 0.749489 0.548097 0.132402
O O12 0.831163 0.705613 0.241497
O O13 0.000000 0.586606 0.250000
O O14 0.746592 0.156928 0.603077
O O15 0.000000 0.824604 0.250000
O O16 0.134708 0.855721 0.082483
O O17 0.000000 0.870999 0.750000
#
# Coordination Sequence:
#
# PCOD8120348 Si02
#       8
#     4   4   2   4   4   4   4   4
#     4  10  21  39  61  88 118 152 192 234 282 344
#     4  10  22  38  60  84 112 147 193 242 288 339
#     4  10  24  38  58  78 120 150 190 244 280 346
#     4  11  21  42  56  84 113 155 194 236 290 337
#     4  10  22  38  60  84 112 147 193 242 288 339
#     4  10  21  39  61  88 118 152 192 234 282 344
#     4  10  21  39  59  86 118 151 191 241 289 340
#     4  10  21  39  59  86 118 151 191 241 289 340
#
# _framework density 20.419336000000001
#
# number of rings (size 3 to 8) (size 9 to 14) (size 15 to 20)
#    0.000    1.867    1.333    2.000    1.867    4.267 
#    4.800    2.667    0.000    0.000    0.000    0.000 
#    0.000    0.000    0.000    0.000    0.000    0.000 
#
# Total GULP energy -371754.429400 kJ/mol
# GULP energy per Si atom -12391.814313 kJ/mol
# Density = 2.037286 g / cm^3
# Si number density = 20.419336 Si / 1000 Ang^3
#
#
#
# Elastic Constant Matrix: (Units=GPa)
#
#
# Indices 1 2 3 4 5 6 
#
# 1 140.3958 18.2319 54.9357 0.0000 -14.7011 0.0000
# 2 18.2319 38.3195 30.7703 0.0000 5.5137 0.0000
# 3 54.9357 30.7703 137.9268 0.0000 -1.8384 0.0000
# 4 0.0000 0.0000 0.0000 34.2525 0.0000 3.0459
# 5 -14.7011 5.5137 -1.8384 0.0000 39.7530 0.0000
# 6 0.0000 0.0000 0.0000 3.0459 0.0000 31.6225
#
#
#
# Elastic Compliance Matrix: (Units=1/GPa)
#
#
# Indices 1 2 3 4 5 6 
#
# 1 0.008970 -0.002365 -0.002999 0.000000 0.003507 0.000000
# 2 -0.002365 0.033333 -0.006572 0.000000 -0.005802 0.000000
# 3 -0.002999 -0.006572 0.009914 0.000000 0.000261 0.000000
# 4 0.000000 0.000000 0.000000 0.029447 0.000000 -0.002836
# 5 0.003507 -0.005802 0.000261 0.000000 0.027269 0.000000
# 6 0.000000 0.000000 0.000000 -0.002836 0.000000 0.031896
#
#
# Mechanical properties :
#
#
# Convention : Reuss Voigt Hill
#
# Bulk Modulus (GPa) = 35.27635 58.27977 46.77806
# Shear Modulus (GPa) = 28.71093 35.30588 32.00841
#
# Velocity S-wave (km/s) = 3.75382 4.16269 3.96353
# Velocity P-wave (km/s) = 6.00847 7.19078 6.62605
#
# Compressibility (1/GPa) = 0.02834760
#
# Stress axis : x y z
#
# Youngs Moduli (GPa) = 111.47908 29.99991 100.86597
#
# Poissons Ratio (x) = 0.07094 0.30245
# Poissons Ratio (y) = 0.26361 0.66288
# Poissons Ratio (z) = 0.33428 0.19716
#
# Static dielectric constant tensor:
#      x y z
#    x 3.963790 0.000000 -0.116300 
#    y 0.000000 3.301570 0.000000 
#    z -0.116300 0.000000 4.117390 
# 
# 
# High freq. dielectric constant tensor:
#      x y z
#    x 1.814700 0.000000 -0.005480 
#    y 0.000000 1.764530 0.000000 
#    z -0.005480 0.000000 1.819920 
# 
# From -- ./inp_files/17181.got.cif
#   From: 2010.06.25/outbox.cif.g09.slc.cpg/sg13_9_cif.got.tgz:17181.got - 2010.06.28 04:50:58.
