data_PCOD8120872
_publ_section_title
;
Structure prediction by ZEFSAII (Michael W. Deem and Ramdas Pophale) SiO2 
 PCOD8120872
Probable space group: P 2/C
;
_chemical_formula_sum "Si O2"
_cell_formula_units_Z 30
_cell_length_a 29.135361
_cell_length_b 5.338929
_cell_length_c 24.825333
_cell_angle_alpha 90.000000
_cell_angle_beta 160.661089
_cell_angle_gamma 90.000000
_cell_volume 1278.796119
_symmetry_space_group_name_H-M "P 2/C"
_symmetry_group_IT_number 13
_symmetry_cell_setting 'monoclinic'
loop_
_space_group_symop_operation_xyz
x,y,z
-x,y,1/2-z
-x,-y,-z
x,-y,1/2+z
loop_
_atom_site_type_symbol
_atom_site_label
_atom_site_fract_x
_atom_site_fract_y
_atom_site_fract_z
Si Si1 0.500852 0.963318 0.141519
Si Si2 0.392911 0.357631 0.943620
Si Si3 0.000000 0.767332 0.750000
Si Si4 0.139389 0.181717 0.782217
Si Si5 0.341568 0.665718 0.270853
Si Si6 0.754882 0.311515 0.147252
Si Si7 0.108542 0.421601 0.949656
Si Si8 0.747184 0.872353 0.978959
O O1 0.611055 0.880727 0.217864
O O2 0.589127 0.057285 0.289880
O O3 0.397197 0.745253 0.048474
O O4 0.395127 0.167836 0.997462
O O5 0.335333 0.226925 0.825243
O O6 0.293717 0.599696 0.846404
O O7 0.551650 0.435746 0.110738
O O8 0.990769 0.603192 0.794288
O O9 0.857776 0.915243 0.588287
O O10 0.159186 0.453468 0.778323
O O11 0.978826 0.180697 0.625428
O O12 0.154092 0.943435 0.757945
O O13 0.248762 0.173792 0.952654
O O14 0.192306 0.555472 0.089898
O O15 0.212045 0.359847 0.014478
#
# Coordination Sequence:
#
# PCOD8120872 Si02
#       8
#     4   4   2   4   4   4   4   4
#     4  11  22  43  69  99 139 167 233 280 346 407
#     4  10  21  45  67 100 134 173 225 295 336 400
#     4  12  20  42  60  98 142 164 212 288 342 394
#     4  12  25  45  67  93 143 187 223 268 340 406
#     4  10  22  38  74 102 128 173 224 293 355 386
#     4  11  26  47  65  96 139 186 226 270 332 415
#     4  12  23  40  66 102 133 171 232 282 342 408
#     4  12  24  39  67 102 131 178 219 287 334 401
#
# _framework density 23.459564
#
# number of rings (size 3 to 8) (size 9 to 14) (size 15 to 20)
#    0.000    0.800    6.667    1.200    0.000    0.533 
#    2.400    1.333    0.000    0.000    0.000    0.000 
#    0.000    0.000    0.000    0.000    0.000    0.000 
#
# Total GULP energy -371698.494453 kJ/mol
# GULP energy per Si atom -12389.949815 kJ/mol
# Density = 2.340617 g / cm^3
# Si number density = 23.459564 Si / 1000 Ang^3
#
#
#
# Elastic Constant Matrix: (Units=GPa)
#
#
# Indices 1 2 3 4 5 6 
#
# 1 41.4935 14.2908 14.7258 0.0000 -7.8993 0.0000
# 2 14.2908 96.5529 16.0206 0.0000 0.7041 0.0000
# 3 14.7258 16.0206 64.3580 0.0000 -14.9925 0.0000
# 4 0.0000 0.0000 0.0000 31.8094 0.0000 10.7111
# 5 -7.8993 0.7041 -14.9925 0.0000 34.3731 0.0000
# 6 0.0000 0.0000 0.0000 10.7111 0.0000 40.2596
#
#
#
# Elastic Compliance Matrix: (Units=1/GPa)
#
#
# Indices 1 2 3 4 5 6 
#
# 1 0.027704 -0.003395 -0.004446 0.000000 0.004497 0.000000
# 2 -0.003395 0.011294 -0.002527 0.000000 -0.002114 0.000000
# 3 -0.004446 -0.002527 0.018876 0.000000 0.007263 0.000000
# 4 0.000000 0.000000 0.000000 0.034531 0.000000 -0.009187
# 5 0.004497 -0.002114 0.007263 0.000000 0.033337 0.000000
# 6 0.000000 0.000000 0.000000 -0.009187 0.000000 0.027283
#
#
# Mechanical properties :
#
#
# Convention : Reuss Voigt Hill
#
# Bulk Modulus (GPa) = 26.92712 32.49763 29.71238
# Shear Modulus (GPa) = 26.86127 31.77957 29.32042
#
# Velocity S-wave (km/s) = 3.38746 3.68455 3.53913
# Velocity P-wave (km/s) = 5.17715 5.65543 5.42157
#
# Compressibility (1/GPa) = 0.03713728
#
# Stress axis : x y z
#
# Youngs Moduli (GPa) = 36.09641 88.54031 52.97596
#
# Poissons Ratio (x) = 0.30064 0.23553
# Poissons Ratio (y) = 0.12256 0.13387
# Poissons Ratio (z) = 0.16049 0.22374
#
# Static dielectric constant tensor:
#      x y z
#    x 4.403110 0.000000 0.139800 
#    y 0.000000 4.263420 0.000000 
#    z 0.139800 0.000000 4.022810 
# 
# 
# High freq. dielectric constant tensor:
#      x y z
#    x 1.918590 0.000000 0.016060 
#    y 0.000000 1.926630 0.000000 
#    z 0.016060 0.000000 1.912970 
# 
# From -- ./inp_files/94365.got.cif
#   From: 2010.06.25/outbox.cif.g09.slc.cpg/sg13_48_cif.got.tgz:94365.got - 2010.06.28 04:50:58.
