data_PCOD8120016
_publ_section_title
;
Structure prediction by ZEFSAII (Michael W. Deem and Ramdas Pophale) SiO2 
 PCOD8120016
Probable space group: P 2/C
;
_chemical_formula_sum "Si O2"
_cell_formula_units_Z 30
_cell_length_a 5.273769
_cell_length_b 11.262302
_cell_length_c 27.613847
_cell_angle_alpha 90.000000
_cell_angle_beta 119.475309
_cell_angle_gamma 90.000000
_cell_volume 1427.834251
_symmetry_space_group_name_H-M "P 2/C"
_symmetry_group_IT_number 13
_symmetry_cell_setting 'monoclinic'
loop_
_space_group_symop_operation_xyz
x,y,z
-x,y,1/2-z
-x,-y,-z
x,-y,1/2+z
loop_
_atom_site_type_symbol
_atom_site_label
_atom_site_fract_x
_atom_site_fract_y
_atom_site_fract_z
Si Si1 0.669234 0.062093 0.623390
Si Si2 0.000000 0.665200 0.750000
Si Si3 0.780529 0.777542 0.818951
Si Si4 0.635601 0.736509 0.040466
Si Si5 0.596312 0.189094 0.082353
Si Si6 0.352380 0.968029 0.188460
Si Si7 0.169643 0.586700 0.051261
Si Si8 0.512136 0.601836 0.857911
O O1 0.663654 0.165437 0.583965
O O2 0.502213 0.943578 0.589225
O O3 0.489170 0.099885 0.654796
O O4 0.008260 0.041894 0.665313
O O5 0.188953 0.758488 0.736011
O O6 0.180101 0.585608 0.806393
O O7 0.571751 0.891003 0.808939
O O8 0.669590 0.649676 0.825424
O O9 0.063483 0.801724 0.877534
O O10 0.417454 0.638838 0.040239
O O11 0.949705 0.680518 0.055513
O O12 0.486932 0.798274 0.981046
O O13 0.444919 0.295477 0.097716
O O14 0.500000 0.912450 0.250000
O O15 0.341787 0.518950 0.110323
O O16 0.000000 0.500000 0.000000
#
# Coordination Sequence:
#
# PCOD8120016 Si02
#       8
#     4   2   4   4   4   4   4   4
#     4  11  24  42  65  99 132 172 216 270 334 397
#     4  10  22  34  62  94 136 166 208 290 340 404
#     4  10  21  36  61 101 134 164 214 273 349 401
#     4  12  26  45  66  96 135 176 223 266 326 393
#     4  10  22  38  65  98 134 169 208 273 338 407
#     4  11  22  39  67  95 131 174 217 272 327 391
#     4  12  26  43  71  93 129 177 226 275 320 396
#     4  11  21  39  63  96 132 168 222 271 347 390
#
# _framework density 21.010839000000001
#
# number of rings (size 3 to 8) (size 9 to 14) (size 15 to 20)
#    0.000    1.067    2.667    4.000    7.467    0.000 
#    0.000    3.333    5.867    0.000    0.000    0.000 
#    0.000    0.000    0.000    0.000    0.000    0.000 
#
# Total GULP energy -371748.119182 kJ/mol
# GULP energy per Si atom -12391.603973 kJ/mol
# Density = 2.096302 g / cm^3
# Si number density = 21.010839 Si / 1000 Ang^3
#
#
#
# Elastic Constant Matrix: (Units=GPa)
#
#
# Indices 1 2 3 4 5 6 
#
# 1 89.0080 12.9145 28.9839 0.0000 -20.8377 0.0000
# 2 12.9145 65.0266 46.7320 0.0000 -2.9416 0.0000
# 3 28.9839 46.7320 143.5177 0.0000 -10.6917 0.0000
# 4 0.0000 0.0000 0.0000 25.9771 0.0000 -5.1241
# 5 -20.8377 -2.9416 -10.6917 0.0000 34.4164 0.0000
# 6 0.0000 0.0000 0.0000 -5.1241 0.0000 32.0539
#
#
#
# Elastic Compliance Matrix: (Units=1/GPa)
#
#
# Indices 1 2 3 4 5 6 
#
# 1 0.013795 -0.001046 -0.001873 0.000000 0.007681 0.000000
# 2 -0.001046 0.020159 -0.006420 0.000000 -0.000905 0.000000
# 3 -0.001873 -0.006420 0.009532 0.000000 0.001278 0.000000
# 4 0.000000 0.000000 0.000000 0.039749 0.000000 0.006354
# 5 0.007681 -0.000905 0.001278 0.000000 0.034026 0.000000
# 6 0.000000 0.000000 0.000000 0.006354 0.000000 0.032213
#
#
# Mechanical properties :
#
#
# Convention : Reuss Voigt Hill
#
# Bulk Modulus (GPa) = 40.31152 52.75701 46.53426
# Shear Modulus (GPa) = 28.34112 32.41761 30.37937
#
# Velocity S-wave (km/s) = 3.67670 3.93224 3.80661
# Velocity P-wave (km/s) = 6.10343 6.76614 6.44331
#
# Compressibility (1/GPa) = 0.02480681
#
# Stress axis : x y z
#
# Youngs Moduli (GPa) = 72.49092 49.60516 104.91129
#
# Poissons Ratio (x) = 0.05189 0.19651
# Poissons Ratio (y) = 0.07584 0.67357
# Poissons Ratio (z) = 0.13578 0.31848
#
# Static dielectric constant tensor:
#      x y z
#    x 4.016000 0.000000 0.040540 
#    y 0.000000 3.726800 0.000000 
#    z 0.040540 0.000000 3.931060 
# 
# 
# High freq. dielectric constant tensor:
#      x y z
#    x 1.834050 0.000000 -0.000540 
#    y 0.000000 1.793150 0.000000 
#    z -0.000540 0.000000 1.841070 
# 
# From -- ./inp_files/90494.got.cif
#   From: 2010.06.25/outbox.cif.g09.slc.cpg/sg13_46_cif.got.tgz:90494.got - 2010.06.28 04:50:58.
