data_PCOD8120523
_publ_section_title
;
Structure prediction by ZEFSAII (Michael W. Deem and Ramdas Pophale) SiO2 
 PCOD8120523
Probable space group: P 2/C
;
_chemical_formula_sum "Si O2"
_cell_formula_units_Z 24
_cell_length_a 16.144408
_cell_length_b 8.283935
_cell_length_c 13.263752
_cell_angle_alpha 90.000000
_cell_angle_beta 143.134675
_cell_angle_gamma 90.000000
_cell_volume 1064.217101
_symmetry_space_group_name_H-M "P 2/C"
_symmetry_group_IT_number 13
_symmetry_cell_setting 'monoclinic'
loop_
_space_group_symop_operation_xyz
x,y,z
-x,y,1/2-z
-x,-y,-z
x,-y,1/2+z
loop_
_atom_site_type_symbol
_atom_site_label
_atom_site_fract_x
_atom_site_fract_y
_atom_site_fract_z
Si Si1 0.977589 0.348020 0.408555
Si Si2 0.136492 0.603175 0.334314
Si Si3 0.761364 0.793409 0.263015
Si Si4 0.391543 0.335232 0.218956
Si Si5 0.495661 0.324536 0.862399
Si Si6 0.721172 0.163159 0.208668
O O1 0.915751 0.420873 0.244485
O O2 0.873463 0.232388 0.364673
O O3 0.000000 0.500000 0.500000
O O4 0.118910 0.243185 0.537265
O O5 0.201375 0.694860 0.301756
O O6 0.255588 0.588988 0.534264
O O7 0.000000 0.691223 0.250000
O O8 0.619973 0.752340 0.179971
O O9 0.740265 0.975522 0.205745
O O10 0.500000 0.249441 0.250000
O O11 0.476148 0.482068 0.353552
O O12 0.354174 0.193334 0.258699
O O13 0.500000 0.271329 0.750000
O O14 0.642105 0.262416 0.045405
#
# Coordination Sequence:
#
# PCOD8120523 Si02
#       6
#     4   4   4   4   4   4
#     4  10  21  40  63  88 122 165 214 259 306 377
#     4  11  22  41  67  96 126 169 220 269 318 382
#     4  11  24  42  65  97 134 168 206 268 335 389
#     4  11  22  39  66  95 125 171 222 268 316 382
#     4  11  24  43  65  94 127 171 221 266 317 384
#     4  12  24  41  65  96 133 170 210 268 332 390
#
# _framework density 22.55179
#
# number of rings (size 3 to 8) (size 9 to 14) (size 15 to 20)
#    0.000    1.000    0.000    9.500    0.000    2.000 
#    0.000    0.833    0.000    2.000    0.000    0.000 
#    0.000    0.000    0.000    0.000    0.000    0.000 
#
# Total GULP energy -297422.524188 kJ/mol
# GULP energy per Si atom -12392.605175 kJ/mol
# Density = 2.250046 g / cm^3
# Si number density = 22.551790 Si / 1000 Ang^3
#
#
#
# Elastic Constant Matrix: (Units=GPa)
#
#
# Indices 1 2 3 4 5 6 
#
# 1 101.6920 24.6276 8.8647 0.0000 4.2053 0.0000
# 2 24.6276 97.0860 21.6457 0.0000 3.2179 0.0000
# 3 8.8647 21.6457 98.9487 0.0000 6.1745 0.0000
# 4 0.0000 0.0000 0.0000 13.2105 0.0000 8.6667
# 5 4.2053 3.2179 6.1745 0.0000 34.6713 0.0000
# 6 0.0000 0.0000 0.0000 8.6667 0.0000 25.1484
#
#
#
# Elastic Compliance Matrix: (Units=1/GPa)
#
#
# Indices 1 2 3 4 5 6 
#
# 1 0.010523 -0.002566 -0.000320 0.000000 -0.000981 0.000000
# 2 -0.002566 0.011466 -0.002256 0.000000 -0.000351 0.000000
# 3 -0.000320 -0.002256 0.010732 0.000000 -0.001663 0.000000
# 4 0.000000 0.000000 0.000000 0.097812 0.000000 -0.033708
# 5 -0.000981 -0.000351 -0.001663 0.000000 0.029290 0.000000
# 6 0.000000 0.000000 0.000000 -0.033708 0.000000 0.051381
#
#
# Mechanical properties :
#
#
# Convention : Reuss Voigt Hill
#
# Bulk Modulus (GPa) = 44.56955 45.33364 44.95160
# Shear Modulus (GPa) = 21.83720 30.77862 26.30791
#
# Velocity S-wave (km/s) = 3.11515 3.69832 3.41919
# Velocity P-wave (km/s) = 5.72232 6.19536 5.96353
#
# Compressibility (1/GPa) = 0.02243684
#
# Stress axis : x y z
#
# Youngs Moduli (GPa) = 95.02604 87.21701 93.17642
#
# Poissons Ratio (x) = 0.22376 0.02985
# Poissons Ratio (y) = 0.24379 0.21025
# Poissons Ratio (z) = 0.03044 0.19680
#
# Static dielectric constant tensor:
#      x y z
#    x 4.243320 0.000000 0.171570 
#    y 0.000000 3.647450 0.000000 
#    z 0.171570 0.000000 4.686500 
# 
# 
# High freq. dielectric constant tensor:
#      x y z
#    x 1.905460 0.000000 0.015580 
#    y 0.000000 1.860550 0.000000 
#    z 0.015580 0.000000 1.907460 
# 
# From -- ./inp_files/55378.got.cif
#   From: 2010.06.25/outbox.cif.g09.slc.cpg/sg13_28_cif.got.tgz:55378.got - 2010.06.28 04:50:58.
