data_PCOD8120743
_publ_section_title
;
Structure prediction by ZEFSAII (Michael W. Deem and Ramdas Pophale) SiO2 
 PCOD8120743
Probable space group: P 2/C
;
_chemical_formula_sum "Si O2"
_cell_formula_units_Z 26
_cell_length_a 14.176973
_cell_length_b 9.136017
_cell_length_c 11.429549
_cell_angle_alpha 90.000000
_cell_angle_beta 56.521217
_cell_angle_gamma 90.000000
_cell_volume 1234.759846
_symmetry_space_group_name_H-M "P 2/C"
_symmetry_group_IT_number 13
_symmetry_cell_setting 'monoclinic'
loop_
_space_group_symop_operation_xyz
x,y,z
-x,y,1/2-z
-x,-y,-z
x,-y,1/2+z
loop_
_atom_site_type_symbol
_atom_site_label
_atom_site_fract_x
_atom_site_fract_y
_atom_site_fract_z
Si Si1 0.000000 0.614142 0.250000
Si Si2 0.171940 0.730748 0.299750
Si Si3 0.207866 0.489325 0.975831
Si Si4 0.596177 0.713181 0.101861
Si Si5 0.540375 0.857641 0.907991
Si Si6 0.715293 0.973525 0.140297
Si Si7 0.691664 0.228150 0.016372
O O1 0.946490 0.722299 0.188623
O O2 0.906081 0.508881 0.370727
O O3 0.179235 0.583080 0.371155
O O4 0.183434 0.881313 0.367429
O O5 0.275782 0.728168 0.137973
O O6 0.292140 0.383556 0.987146
O O7 0.270895 0.645254 0.918255
O O8 0.500000 0.636935 0.250000
O O9 0.622539 0.863454 0.152494
O O10 0.559674 0.734531 0.993240
O O11 0.443455 0.797557 0.886462
O O12 0.655091 0.903816 0.763455
O O13 0.500000 0.000000 0.000000
O O14 0.759631 0.077784 0.004508
#
# Coordination Sequence:
#
# PCOD8120743 Si02
#       7
#     2   4   4   4   4   4   4
#     4  10  22  44  68  88 116 164 220 262 324 364
#     4  10  21  42  65  87 118 159 207 268 313 366
#     4  10  24  40  63  89 125 165 210 262 309 370
#     4  11  20  35  58  90 127 167 204 243 306 374
#     4  12  19  33  59  89 128 169 201 245 300 373
#     4  11  20  35  60  89 124 164 206 247 314 375
#     4  11  22  37  60  94 127 164 206 247 310 375
#
# _framework density 21.056726999999999
#
# number of rings (size 3 to 8) (size 9 to 14) (size 15 to 20)
#    0.000    1.231    4.615    1.846    0.000    4.308 
#    0.000    3.077    0.000   22.154    0.000    0.000 
#    0.000    0.000    0.000    0.000    0.000    0.000 
#
# Total GULP energy -322223.595906 kJ/mol
# GULP energy per Si atom -12393.215227 kJ/mol
# Density = 2.100880 g / cm^3
# Si number density = 21.056727 Si / 1000 Ang^3
#
#
#
# Elastic Constant Matrix: (Units=GPa)
#
#
# Indices 1 2 3 4 5 6 
#
# 1 149.6426 76.6890 43.7323 0.0000 8.4845 0.0000
# 2 76.6890 109.9889 46.6545 0.0000 4.5296 0.0000
# 3 43.7323 46.6545 88.4651 0.0000 -6.3523 0.0000
# 4 0.0000 0.0000 0.0000 30.2090 0.0000 4.2194
# 5 8.4845 4.5296 -6.3523 0.0000 33.8328 0.0000
# 6 0.0000 0.0000 0.0000 4.2194 0.0000 35.3187
#
#
#
# Elastic Compliance Matrix: (Units=1/GPa)
#
#
# Indices 1 2 3 4 5 6 
#
# 1 0.010755 -0.006552 -0.002019 0.000000 -0.002199 0.000000
# 2 -0.006552 0.015964 -0.005287 0.000000 -0.001487 0.000000
# 3 -0.002019 -0.005287 0.015385 0.000000 0.004103 0.000000
# 4 0.000000 0.000000 0.000000 0.033664 0.000000 -0.004022
# 5 -0.002199 -0.001487 0.004103 0.000000 0.031078 0.000000
# 6 0.000000 0.000000 0.000000 -0.004022 0.000000 0.028794
#
#
# Mechanical properties :
#
#
# Convention : Reuss Voigt Hill
#
# Bulk Modulus (GPa) = 69.50340 75.80533 72.65437
# Shear Modulus (GPa) = 29.73493 31.94014 30.83753
#
# Velocity S-wave (km/s) = 3.76191 3.89892 3.83103
# Velocity P-wave (km/s) = 7.20754 7.50649 7.35854
#
# Compressibility (1/GPa) = 0.01438778
#
# Stress axis : x y z
#
# Youngs Moduli (GPa) = 92.97923 62.64176 64.99857
#
# Poissons Ratio (x) = 0.41041 0.13126
# Poissons Ratio (y) = 0.60918 0.34364
# Poissons Ratio (z) = 0.18776 0.33118
#
# Static dielectric constant tensor:
#      x y z
#    x 3.981310 0.000000 -0.056530 
#    y 0.000000 3.944850 0.000000 
#    z -0.056530 0.000000 3.009530 
# 
# 
# High freq. dielectric constant tensor:
#      x y z
#    x 1.822460 0.000000 0.020620 
#    y 0.000000 1.820000 0.000000 
#    z 0.020620 0.000000 1.815560 
# 
# From -- ./inp_files/36106.got.cif
#   From: 2010.06.25/outbox.cif.g09.slc.cpg/sg13_19_cif.got.tgz:36106.got - 2010.06.28 04:50:58.
