data_PCOD8120506
_publ_section_title
;
Structure prediction by ZEFSAII (Michael W. Deem and Ramdas Pophale) SiO2 
 PCOD8120506
Probable space group: P 2/C
;
_chemical_formula_sum "Si O2"
_cell_formula_units_Z 32
_cell_length_a 13.819365
_cell_length_b 15.707445
_cell_length_c 10.469876
_cell_angle_alpha 90.000000
_cell_angle_beta 42.980670
_cell_angle_gamma 90.000000
_cell_volume 1549.392069
_symmetry_space_group_name_H-M "P 2/C"
_symmetry_group_IT_number 13
_symmetry_cell_setting 'monoclinic'
loop_
_space_group_symop_operation_xyz
x,y,z
-x,y,1/2-z
-x,-y,-z
x,-y,1/2+z
loop_
_atom_site_type_symbol
_atom_site_label
_atom_site_fract_x
_atom_site_fract_y
_atom_site_fract_z
Si Si1 0.145960 0.647591 0.078784
Si Si2 0.624637 0.470878 0.030171
Si Si3 0.608269 0.335990 0.829134
Si Si4 0.142530 0.762477 0.855189
Si Si5 0.347280 0.083399 0.232958
Si Si6 0.664286 0.059361 0.965697
Si Si7 0.690692 0.653380 0.974830
Si Si8 0.165669 0.215225 0.768946
O O1 0.133057 0.734610 0.171929
O O2 0.000000 0.596355 0.250000
O O3 0.275434 0.588787 0.984442
O O4 0.162040 0.676846 0.918782
O O5 0.500000 0.495616 0.250000
O O6 0.581416 0.417593 0.946294
O O7 0.701424 0.557248 0.907187
O O8 0.695595 0.364478 0.620820
O O9 0.698798 0.259688 0.799086
O O10 0.454049 0.301989 0.936542
O O11 0.247604 0.834914 0.808348
O O12 0.188060 0.723013 0.674606
O O13 0.978035 0.790830 0.007106
O O14 0.316445 0.038336 0.400979
O O15 0.319829 0.024119 0.136767
O O16 0.514700 0.106689 0.078895
O O17 0.793824 0.119250 0.801783
#
# Coordination Sequence:
#
# PCOD8120506 Si02
#       8
#     4   4   4   4   4   4   4   4
#     4   9  20  38  58  86 117 156 204 254 303 361
#     4  11  21  37  62  88 114 157 208 264 307 370
#     4  10  22  39  57  87 122 157 203 265 315 368
#     4  11  22  39  62  89 122 167 208 253 306 380
#     4  10  22  39  66  95 131 163 212 256 321 371
#     4  10  21  40  64  98 126 166 207 264 310 379
#     4  11  23  37  57  87 122 159 203 262 320 368
#     4  10  21  40  62  86 123 161 212 252 303 371
#
# _framework density 20.653262999999999
#
# number of rings (size 3 to 8) (size 9 to 14) (size 15 to 20)
#    0.000    1.750    2.500    1.875    1.750    3.000 
#    2.250    4.375    0.000    0.000    0.000    0.000 
#    0.000    0.000    0.000    0.000    0.000    0.000 
#
# Total GULP energy -396487.099778 kJ/mol
# GULP energy per Si atom -12390.221868 kJ/mol
# Density = 2.060626 g / cm^3
# Si number density = 20.653263 Si / 1000 Ang^3
#
#
#
# Elastic Constant Matrix: (Units=GPa)
#
#
# Indices 1 2 3 4 5 6 
#
# 1 46.3126 18.7920 23.6980 0.0000 19.1576 0.0000
# 2 18.7920 64.5038 47.8674 0.0000 0.1651 0.0000
# 3 23.6980 47.8674 112.0493 0.0000 8.0569 0.0000
# 4 0.0000 0.0000 0.0000 32.6264 0.0000 -3.5200
# 5 19.1576 0.1651 8.0569 0.0000 30.3097 0.0000
# 6 0.0000 0.0000 0.0000 -3.5200 0.0000 -146.2955
#
#
#
# Elastic Compliance Matrix: (Units=1/GPa)
#
#
# Indices 1 2 3 4 5 6 
#
# 1 0.035104 -0.008510 -0.002240 0.000000 -0.021546 0.000000
# 2 -0.008510 0.024949 -0.009416 0.000000 0.007746 0.000000
# 3 -0.002240 -0.009416 0.013575 0.000000 -0.002141 0.000000
# 4 0.000000 0.000000 0.000000 0.030571 0.000000 -0.000736
# 5 -0.021546 0.007746 -0.002141 0.000000 0.047138 0.000000
# 6 0.000000 0.000000 0.000000 -0.000736 0.000000 -0.006818
#
#
# Mechanical properties :
#
#
# Convention : Reuss Voigt Hill
#
# Bulk Modulus (GPa) = 30.03168 44.84227 37.43697
# Shear Modulus (GPa) = 25.51684 -7.83800 8.83942
#
# Velocity S-wave (km/s) = 3.51876 -1.95020 2.07104
# Velocity P-wave (km/s) = 5.57507 4.08510 4.88720
#
# Compressibility (1/GPa) = 0.03329818
#
# Stress axis : x y z
#
# Youngs Moduli (GPa) = 28.48665 40.08101 73.66674
#
# Poissons Ratio (x) = 0.34108 0.16500
# Poissons Ratio (y) = 0.24241 0.69361
# Poissons Ratio (z) = 0.06380 0.37739
#
# Static dielectric constant tensor:
#      x y z
#    x 3.964530 0.000000 -0.069030 
#    y 0.000000 3.413300 0.000000 
#    z -0.069030 0.000000 4.013820 
# 
# 
# High freq. dielectric constant tensor:
#      x y z
#    x 1.809330 0.000000 0.003510 
#    y 0.000000 1.789080 0.000000 
#    z 0.003510 0.000000 1.813680 
# 
# From -- ./inp_files/37527.got.cif
#   From: 2010.06.25/outbox.cif.g09.slc.cpg/sg13_19_cif.got.tgz:37527.got - 2010.06.28 04:50:58.
