data_PCOD8120308
_publ_section_title
;
Structure prediction by ZEFSAII (Michael W. Deem and Ramdas Pophale) SiO2 
 PCOD8120308
Probable space group: P 2/C
;
_chemical_formula_sum "Si O2"
_cell_formula_units_Z 28
_cell_length_a 7.891838
_cell_length_b 7.845398
_cell_length_c 29.118996
_cell_angle_alpha 90.000000
_cell_angle_beta 44.550595
_cell_angle_gamma 90.000000
_cell_volume 1264.798234
_symmetry_space_group_name_H-M "P 2/C"
_symmetry_group_IT_number 13
_symmetry_cell_setting 'monoclinic'
loop_
_space_group_symop_operation_xyz
x,y,z
-x,y,1/2-z
-x,-y,-z
x,-y,1/2+z
loop_
_atom_site_type_symbol
_atom_site_label
_atom_site_fract_x
_atom_site_fract_y
_atom_site_fract_z
Si Si1 0.826736 0.777695 0.984204
Si Si2 0.304233 0.749607 0.390645
Si Si3 0.586216 0.193879 0.442584
Si Si4 0.153850 0.406157 0.556395
Si Si5 0.642021 0.888293 0.605199
Si Si6 0.622257 0.445034 0.308059
Si Si7 0.931034 0.552030 0.835186
O O1 0.677208 0.889621 0.973788
O O2 0.905088 0.596595 0.948335
O O3 0.069859 0.872441 0.952056
O O4 0.665370 0.738360 0.060036
O O5 0.022159 0.731030 0.433028
O O6 0.436614 0.599848 0.337138
O O7 0.408898 0.936635 0.356808
O O8 0.446464 0.082664 0.431054
O O9 0.827854 0.266468 0.371902
O O10 0.424231 0.355653 0.489499
O O11 0.110243 0.402410 0.619691
O O12 0.514378 0.731388 0.654807
O O13 0.790748 0.504391 0.316973
O O14 0.783681 0.422879 0.231111
#
# Coordination Sequence:
#
# PCOD8120308 Si02
#       7
#     4   4   4   4   4   4   4
#     4  11  20  38  61  92 126 162 203 253 317 363
#     4  12  23  37  64  94 126 165 204 257 315 372
#     4  10  21  38  65  95 123 161 210 260 308 375
#     4  11  20  37  66  93 126 158 210 258 312 376
#     4  11  23  41  61  94 126 163 211 253 310 376
#     4  10  21  43  65  84 126 167 207 261 308 368
#     4   9  20  39  66  91 116 169 213 251 318 370
#
# _framework density 22.137917999999999
#
# number of rings (size 3 to 8) (size 9 to 14) (size 15 to 20)
#    0.000    1.429    2.857    5.143    0.000    1.143 
#    2.571    5.714    9.429    0.000    0.000    0.000 
#    0.000    0.000    0.000    0.000    0.000    0.000 
#
# Total GULP energy -347027.464238 kJ/mol
# GULP energy per Si atom -12393.838009 kJ/mol
# Density = 2.208753 g / cm^3
# Si number density = 22.137918 Si / 1000 Ang^3
#
#
#
# Elastic Constant Matrix: (Units=GPa)
#
#
# Indices 1 2 3 4 5 6 
#
# 1 99.1746 27.3910 25.1449 0.0000 -5.9288 0.0000
# 2 27.3910 95.2811 11.7407 0.0000 -6.7842 0.0000
# 3 25.1449 11.7407 80.9948 0.0000 -7.9607 0.0000
# 4 0.0000 0.0000 0.0000 2.1317 0.0000 8.2565
# 5 -5.9288 -6.7842 -7.9607 0.0000 27.0152 0.0000
# 6 0.0000 0.0000 0.0000 8.2565 0.0000 24.5200
#
#
#
# Elastic Compliance Matrix: (Units=1/GPa)
#
#
# Indices 1 2 3 4 5 6 
#
# 1 0.011739 -0.002924 -0.003130 0.000000 0.000920 0.000000
# 2 -0.002924 0.011554 -0.000561 0.000000 0.002094 0.000000
# 3 -0.003130 -0.000561 0.013716 0.000000 0.003214 0.000000
# 4 0.000000 0.000000 0.000000 -1.542065 0.000000 0.519254
# 5 0.000920 0.002094 0.003214 0.000000 0.038691 0.000000
# 6 0.000000 0.000000 0.000000 0.519254 0.000000 -0.134063
#
#
# Mechanical properties :
#
#
# Convention : Reuss Voigt Hill
#
# Bulk Modulus (GPa) = 42.05491 44.88930 43.47210
# Shear Modulus (GPa) = -3.16602 24.81163 10.82281
#
# Velocity S-wave (km/s) = -1.19718 3.35143 2.21346
# Velocity P-wave (km/s) = 4.13848 5.94115 5.11978
#
# Compressibility (1/GPa) = 0.02377844
#
# Stress axis : x y z
#
# Youngs Moduli (GPa) = 85.18373 86.54997 72.91014
#
# Poissons Ratio (x) = 0.25303 0.22823
# Poissons Ratio (y) = 0.24904 0.04093
# Poissons Ratio (z) = 0.26665 0.04858
#
# Static dielectric constant tensor:
#      x y z
#    x 4.322790 0.000000 0.080760 
#    y 0.000000 3.669530 0.000000 
#    z 0.080760 0.000000 3.960140 
# 
# 
# High freq. dielectric constant tensor:
#      x y z
#    x 1.887240 0.000000 -0.001070 
#    y 0.000000 1.852740 0.000000 
#    z -0.001070 0.000000 1.855390 
# 
# From -- ./inp_files/95929.got.cif
#   From: 2010.06.25/outbox.cif.g09.slc.cpg/sg13_48_cif.got.tgz:95929.got - 2010.06.28 04:50:58.
