data_PCOD8120058
_publ_section_title
;
Structure prediction by ZEFSAII (Michael W. Deem and Ramdas Pophale) SiO2 
 PCOD8120058
Probable space group: P 2/C
;
_chemical_formula_sum "Si O2"
_cell_formula_units_Z 28
_cell_length_a 14.873169
_cell_length_b 12.611586
_cell_length_c 8.311487
_cell_angle_alpha 90.000000
_cell_angle_beta 69.609559
_cell_angle_gamma 90.000000
_cell_volume 1461.332892
_symmetry_space_group_name_H-M "P 2/C"
_symmetry_group_IT_number 13
_symmetry_cell_setting 'monoclinic'
loop_
_space_group_symop_operation_xyz
x,y,z
-x,y,1/2-z
-x,-y,-z
x,-y,1/2+z
loop_
_atom_site_type_symbol
_atom_site_label
_atom_site_fract_x
_atom_site_fract_y
_atom_site_fract_z
Si Si1 0.394177 0.633380 0.856598
Si Si2 0.897527 0.125371 0.615919
Si Si3 0.603287 0.405647 0.766777
Si Si4 0.891289 0.107713 0.989982
Si Si5 0.302297 0.831185 0.749851
Si Si6 0.423449 0.033159 0.680326
Si Si7 0.707889 0.795657 0.114100
O O1 0.500000 0.670753 0.750000
O O2 0.363619 0.525606 0.785570
O O3 0.326962 0.725366 0.831825
O O4 0.392982 0.615712 0.046964
O O5 0.863764 0.115419 0.820571
O O6 0.822203 0.201961 0.573538
O O7 0.007411 0.167396 0.537606
O O8 0.896945 0.015354 0.523874
O O9 0.500000 0.386248 0.750000
O O10 0.678471 0.326384 0.640473
O O11 0.810502 0.158633 0.150650
O O12 0.319422 0.833139 0.548118
O O13 0.364148 0.930262 0.780025
O O14 0.500000 0.083726 0.750000
O O15 0.345879 0.129962 0.716300
O O16 0.500000 0.000000 0.500000
#
# Coordination Sequence:
#
# PCOD8120058 Si02
#       7
#     4   4   4   4   4   4   4
#     4  11  23  40  61  86 116 156 199 245 287 344
#     4  10  21  37  57  83 116 152 196 242 293 350
#     4  11  23  40  62  85 118 154 201 243 289 341
#     4  10  21  37  57  83 115 153 195 243 293 351
#     4  12  24  38  60  86 118 157 199 239 295 349
#     4  12  26  38  52  81 123 160 194 236 289 349
#     4  12  24  38  59  86 117 157 197 243 292 351
#
# _framework density 19.160589999999999
#
# number of rings (size 3 to 8) (size 9 to 14) (size 15 to 20)
#    0.000    0.857    2.857    6.000    6.000    1.714 
#    0.000    0.000    0.000    0.857    0.000    0.000 
#    0.000    0.000    0.000    0.000    0.000    0.000 
#
# Total GULP energy -346925.215462 kJ/mol
# GULP energy per Si atom -12390.186267 kJ/mol
# Density = 1.911698 g / cm^3
# Si number density = 19.160590 Si / 1000 Ang^3
#
#
#
# Elastic Constant Matrix: (Units=GPa)
#
#
# Indices 1 2 3 4 5 6 
#
# 1 106.7895 43.8550 22.2645 0.0000 -8.7796 0.0000
# 2 43.8550 85.7503 9.7168 0.0000 -11.0037 0.0000
# 3 22.2645 9.7168 80.9450 0.0000 -7.5203 0.0000
# 4 0.0000 0.0000 0.0000 27.2076 0.0000 3.7124
# 5 -8.7796 -11.0037 -7.5203 0.0000 35.9771 0.0000
# 6 0.0000 0.0000 0.0000 3.7124 0.0000 44.0410
#
#
#
# Elastic Compliance Matrix: (Units=1/GPa)
#
#
# Indices 1 2 3 4 5 6 
#
# 1 0.012419 -0.005969 -0.002639 0.000000 0.000654 0.000000
# 2 -0.005969 0.015110 0.000124 0.000000 0.003191 0.000000
# 3 -0.002639 0.000124 0.013266 0.000000 0.002167 0.000000
# 4 0.000000 0.000000 0.000000 0.037182 0.000000 -0.003134
# 5 0.000654 0.003191 0.002167 0.000000 0.029384 0.000000
# 6 0.000000 0.000000 0.000000 -0.003134 0.000000 0.022970
#
#
# Mechanical properties :
#
#
# Convention : Reuss Voigt Hill
#
# Bulk Modulus (GPa) = 41.96557 47.23971 44.60264
# Shear Modulus (GPa) = 32.20807 34.62172 33.41490
#
# Velocity S-wave (km/s) = 4.10439 4.25540 4.18058
# Velocity P-wave (km/s) = 6.66415 6.98947 6.82875
#
# Compressibility (1/GPa) = 0.02382906
#
# Stress axis : x y z
#
# Youngs Moduli (GPa) = 80.52025 66.18287 75.37894
#
# Poissons Ratio (x) = 0.39502 0.19891
# Poissons Ratio (y) = 0.48060 -0.00937
# Poissons Ratio (z) = 0.21248 -0.00823
#
# Static dielectric constant tensor:
#      x y z
#    x 3.774970 0.000000 -0.141720 
#    y 0.000000 3.476800 0.000000 
#    z -0.141720 0.000000 3.558980 
# 
# 
# High freq. dielectric constant tensor:
#      x y z
#    x 1.752110 0.000000 0.005900 
#    y 0.000000 1.720800 0.000000 
#    z 0.005900 0.000000 1.758270 
# 
# From -- ./inp_files/18942.got.cif
#   From: 2010.06.25/outbox.cif.g09.slc.cpg/sg13_10_cif.got.tgz:18942.got - 2010.06.28 04:50:58.
