data_PCOD8120329
_publ_section_title
;
Structure prediction by ZEFSAII (Michael W. Deem and Ramdas Pophale) SiO2 
 PCOD8120329
Probable space group: P 2/C
;
_chemical_formula_sum "Si O2"
_cell_formula_units_Z 16
_cell_length_a 7.663477
_cell_length_b 9.794384
_cell_length_c 8.634284
_cell_angle_alpha 90.000000
_cell_angle_beta 93.951119
_cell_angle_gamma 90.000000
_cell_volume 646.540678
_symmetry_space_group_name_H-M "P 2/C"
_symmetry_group_IT_number 13
_symmetry_cell_setting 'monoclinic'
loop_
_space_group_symop_operation_xyz
x,y,z
-x,y,1/2-z
-x,-y,-z
x,-y,1/2+z
loop_
_atom_site_type_symbol
_atom_site_label
_atom_site_fract_x
_atom_site_fract_y
_atom_site_fract_z
Si Si1 0.151741 0.600830 0.951780
Si Si2 0.677922 0.599377 0.849891
Si Si3 0.680141 0.851613 0.054319
Si Si4 0.725204 0.869316 0.415495
O O1 0.168903 0.589693 0.768570
O O2 0.326948 0.541610 0.051512
O O3 0.141177 0.760098 0.999963
O O4 0.000000 0.500000 0.000000
O O5 0.500000 0.632302 0.750000
O O6 0.742751 0.716793 0.970157
O O7 0.745511 0.853607 0.233619
O O8 0.470506 0.847981 0.033382
O O9 0.771946 0.977566 0.970875
#
# Coordination Sequence:
#
# PCOD8120329 Si02
#       4
#     4   4   4   4
#     4  12  26  43  65  98 146 189 231 291 362 427
#     4  12  24  42  67 101 134 186 243 295 350 418
#     4  10  21  38  69 104 136 174 239 296 343 412
#     4  10  21  39  66 104 139 179 228 295 356 412
#
# _framework density 24.747087000000001
#
# number of rings (size 3 to 8) (size 9 to 14) (size 15 to 20)
#    0.000    1.000    2.500    4.500    7.000    0.000 
#    0.000    1.250    0.000    3.000    0.000    0.000 
#    0.000    0.000    0.000    0.000    0.000    0.000 
#
# Total GULP energy -198384.616045 kJ/mol
# GULP energy per Si atom -12399.038503 kJ/mol
# Density = 2.469076 g / cm^3
# Si number density = 24.747087 Si / 1000 Ang^3
#
#
#
# Elastic Constant Matrix: (Units=GPa)
#
#
# Indices 1 2 3 4 5 6 
#
# 1 48.0825 13.7016 2.1365 0.0000 -11.3245 0.0000
# 2 13.7016 159.0664 51.5670 0.0000 -9.9465 0.0000
# 3 2.1365 51.5670 151.6219 0.0000 -30.0898 0.0000
# 4 0.0000 0.0000 0.0000 59.1066 0.0000 -0.6477
# 5 -11.3245 -9.9465 -30.0898 0.0000 25.4135 0.0000
# 6 0.0000 0.0000 0.0000 -0.6477 0.0000 38.3627
#
#
#
# Elastic Compliance Matrix: (Units=1/GPa)
#
#
# Indices 1 2 3 4 5 6 
#
# 1 0.024557 -0.002279 0.003168 0.000000 0.013802 0.000000
# 2 -0.002279 0.007277 -0.002718 0.000000 -0.001385 0.000000
# 3 0.003168 -0.002718 0.009861 0.000000 0.012024 0.000000
# 4 0.000000 0.000000 0.000000 0.016922 0.000000 0.000286
# 5 0.013802 -0.001385 0.012024 0.000000 0.059193 0.000000
# 6 0.000000 0.000000 0.000000 0.000286 0.000000 0.026072
#
#
# Mechanical properties :
#
#
# Convention : Reuss Voigt Hill
#
# Bulk Modulus (GPa) = 26.28975 54.84233 40.56604
# Shear Modulus (GPa) = 31.20709 44.00094 37.60402
#
# Velocity S-wave (km/s) = 3.55497 4.22124 3.90235
# Velocity P-wave (km/s) = 5.24374 6.77995 6.06071
#
# Compressibility (1/GPa) = 0.03803764
#
# Stress axis : x y z
#
# Youngs Moduli (GPa) = 40.72164 137.40986 101.40707
#
# Poissons Ratio (x) = 0.31320 -0.32128
# Poissons Ratio (y) = 0.09282 0.27562
# Poissons Ratio (z) = -0.12901 0.37347
#
# Static dielectric constant tensor:
#      x y z
#    x 4.202210 0.000000 0.029590 
#    y 0.000000 4.609560 0.000000 
#    z 0.029590 0.000000 4.707640 
# 
# 
# High freq. dielectric constant tensor:
#      x y z
#    x 1.967210 0.000000 -0.001400 
#    y 0.000000 1.995350 0.000000 
#    z -0.001400 0.000000 2.006300 
# 
# From -- ./inp_files/10871.got.cif
#   From: 2010.06.25/outbox.cif.g09.slc.cpg/sg13_6_cif.got.tgz:10871.got - 2010.06.28 04:50:58.
