data_PCOD8120272
_publ_section_title
;
Structure prediction by ZEFSAII (Michael W. Deem and Ramdas Pophale) SiO2 
 PCOD8120272
Probable space group: P 2/C
;
_chemical_formula_sum "Si O2"
_cell_formula_units_Z 28
_cell_length_a 5.973939
_cell_length_b 12.053929
_cell_length_c 20.868372
_cell_angle_alpha 90.000000
_cell_angle_beta 60.727306
_cell_angle_gamma 90.000000
_cell_volume 1310.826014
_symmetry_space_group_name_H-M "P 2/C"
_symmetry_group_IT_number 13
_symmetry_cell_setting 'monoclinic'
loop_
_space_group_symop_operation_xyz
x,y,z
-x,y,1/2-z
-x,-y,-z
x,-y,1/2+z
loop_
_atom_site_type_symbol
_atom_site_label
_atom_site_fract_x
_atom_site_fract_y
_atom_site_fract_z
Si Si1 0.488298 0.226491 0.377641
Si Si2 0.444643 0.630799 0.510302
Si Si3 0.252879 0.393787 0.826038
Si Si4 0.000000 0.700764 0.750000
Si Si5 0.682463 0.000768 0.539796
Si Si6 0.106400 0.374576 0.369130
Si Si7 0.498843 0.770332 0.119192
Si Si8 0.000000 0.713040 0.250000
O O1 0.442517 0.314140 0.441470
O O2 0.304147 0.274169 0.348905
O O3 0.773350 0.220536 0.308394
O O4 0.408497 0.103809 0.407341
O O5 0.500000 0.500000 0.500000
O O6 0.568390 0.695564 0.433375
O O7 0.141394 0.654266 0.554018
O O8 0.500000 0.420172 0.750000
O O9 0.196218 0.502465 0.876795
O O10 0.284383 0.292318 0.870470
O O11 0.026919 0.363776 0.808815
O O12 0.932040 0.617845 0.701960
O O13 0.606832 0.110882 0.587151
O O14 0.500000 0.000000 0.500000
O O15 0.000000 0.000000 0.500000
O O16 0.249262 0.787684 0.199654
#
# Coordination Sequence:
#
# PCOD8120272 Si02
#       8
#     4   4   4   2   4   4   4   2
#     4  11  24  43  68  98 136 180 232 285 348 413
#     4  11  23  38  63 100 134 177 226 285 344 420
#     4  10  21  38  62  96 135 180 224 283 348 412
#     4  10  23  41  66 100 138 177 231 282 350 418
#     4  12  28  49  75 103 140 187 233 292 356 416
#     4  11  22  39  64  98 140 181 226 283 350 414
#     4  11  24  43  66  97 134 177 234 283 350 413
#     4  10  23  41  66  96 136 177 227 286 350 418
#
# _framework density 21.360576999999999
#
# number of rings (size 3 to 8) (size 9 to 14) (size 15 to 20)
#    0.000    1.143    1.429    4.286    4.000    9.714 
#    0.000    4.286    0.000    0.000    0.000    0.000 
#    0.000    0.000    0.000    0.000    0.000    0.000 
#
# Total GULP energy -346941.755450 kJ/mol
# GULP energy per Si atom -12390.776980 kJ/mol
# Density = 2.131196 g / cm^3
# Si number density = 21.360577 Si / 1000 Ang^3
#
#
#
# Elastic Constant Matrix: (Units=GPa)
#
#
# Indices 1 2 3 4 5 6 
#
# 1 116.1058 47.8954 41.5152 0.0000 -5.3636 0.0000
# 2 47.8954 178.4328 57.3362 0.0000 -8.6572 0.0000
# 3 41.5152 57.3362 109.4541 0.0000 -8.3489 0.0000
# 4 0.0000 0.0000 0.0000 39.7312 0.0000 -7.0751
# 5 -5.3636 -8.6572 -8.3489 0.0000 29.2952 0.0000
# 6 0.0000 0.0000 0.0000 -7.0751 0.0000 5.4454
#
#
#
# Elastic Compliance Matrix: (Units=1/GPa)
#
#
# Indices 1 2 3 4 5 6 
#
# 1 0.010452 -0.001826 -0.002967 0.000000 0.000528 0.000000
# 2 -0.001826 0.007087 -0.002950 0.000000 0.000919 0.000000
# 3 -0.002967 -0.002950 0.011959 0.000000 0.001993 0.000000
# 4 0.000000 0.000000 0.000000 0.032745 0.000000 0.042545
# 5 0.000528 0.000919 0.001993 0.000000 0.035072 0.000000
# 6 0.000000 0.000000 0.000000 0.042545 0.000000 0.238917
#
#
# Mechanical properties :
#
#
# Convention : Reuss Voigt Hill
#
# Bulk Modulus (GPa) = 71.37190 77.49848 74.43519
# Shear Modulus (GPa) = 14.02967 32.04409 23.03688
#
# Velocity S-wave (km/s) = 2.56559 3.87738 3.28758
# Velocity P-wave (km/s) = 6.50091 7.51034 7.02378
#
# Compressibility (1/GPa) = 0.01401112
#
# Stress axis : x y z
#
# Youngs Moduli (GPa) = 95.67908 141.10373 83.62014
#
# Poissons Ratio (x) = 0.25771 0.24812
# Poissons Ratio (y) = 0.17474 0.24664
# Poissons Ratio (z) = 0.28390 0.41620
#
# Static dielectric constant tensor:
#      x y z
#    x 4.425060 0.000000 -0.034700 
#    y 0.000000 3.644450 0.000000 
#    z -0.034700 0.000000 4.003180 
# 
# 
# High freq. dielectric constant tensor:
#      x y z
#    x 1.851100 0.000000 -0.002620 
#    y 0.000000 1.828590 0.000000 
#    z -0.002620 0.000000 1.847310 
# 
# From -- ./inp_files/73556.got.cif
#   From: 2010.06.25/outbox.cif.g09.slc.cpg/sg13_37_cif.got.tgz:73556.got - 2010.06.28 04:50:58.
