data_PCOD8120396
_publ_section_title
;
Structure prediction by ZEFSAII (Michael W. Deem and Ramdas Pophale) SiO2 
 PCOD8120396
Probable space group: P 2/C
;
_chemical_formula_sum "Si O2"
_cell_formula_units_Z 20
_cell_length_a 9.706242
_cell_length_b 10.467006
_cell_length_c 7.370686
_cell_angle_alpha 90.000000
_cell_angle_beta 101.336966
_cell_angle_gamma 90.000000
_cell_volume 734.215919
_symmetry_space_group_name_H-M "P 2/C"
_symmetry_group_IT_number 13
_symmetry_cell_setting 'monoclinic'
loop_
_space_group_symop_operation_xyz
x,y,z
-x,y,1/2-z
-x,-y,-z
x,-y,1/2+z
loop_
_atom_site_type_symbol
_atom_site_label
_atom_site_fract_x
_atom_site_fract_y
_atom_site_fract_z
Si Si1 0.956446 0.349921 0.496975
Si Si2 0.792025 0.759624 0.625996
Si Si3 0.741648 0.789033 0.159372
Si Si4 0.487988 0.644933 0.959288
Si Si5 0.329757 0.025227 0.181626
O O1 0.839982 0.324514 0.312984
O O2 0.880529 0.301760 0.665797
O O3 0.000000 0.500000 0.500000
O O4 0.086412 0.253281 0.495141
O O5 0.661386 0.687241 0.502698
O O6 0.744885 0.902087 0.668761
O O7 0.735611 0.878462 0.340741
O O8 0.606188 0.702619 0.116721
O O9 0.719305 0.901673 0.007825
O O10 0.500000 0.685816 0.750000
O O11 0.500000 0.500000 0.000000
O O12 0.500000 0.023383 0.250000
#
# Coordination Sequence:
#
# PCOD8120396 Si02
#       5
#     4   4   4   4   4
#     4  10  21  41  65  91 130 178 228 274 329 393
#     4  10  21  39  63  91 131 180 213 277 341 384
#     4  11  23  43  68  99 137 179 220 280 341 396
#     4  12  23  42  65 100 133 175 230 281 337 398
#     4  11  21  40  69  95 137 173 217 276 339 401
#
# _framework density 27.239944000000001
#
# number of rings (size 3 to 8) (size 9 to 14) (size 15 to 20)
#    0.000    1.200    6.000    1.800    0.000    1.600 
#    0.000    4.000    0.000    0.000    0.000    0.000 
#    0.000    0.000    0.000    0.000    0.000    0.000 
#
# Total GULP energy -247896.910480 kJ/mol
# GULP energy per Si atom -12394.845524 kJ/mol
# Density = 2.717795 g / cm^3
# Si number density = 27.239944 Si / 1000 Ang^3
#
#
#
# Elastic Constant Matrix: (Units=GPa)
#
#
# Indices 1 2 3 4 5 6 
#
# 1 182.6346 80.4749 10.0241 0.0000 27.8486 0.0000
# 2 80.4749 224.8427 12.9471 0.0000 14.4239 0.0000
# 3 10.0241 12.9471 50.8393 0.0000 -20.5782 0.0000
# 4 0.0000 0.0000 0.0000 40.3893 0.0000 -4.6294
# 5 27.8486 14.4239 -20.5782 0.0000 24.1360 0.0000
# 6 0.0000 0.0000 0.0000 -4.6294 0.0000 64.4130
#
#
#
# Elastic Compliance Matrix: (Units=1/GPa)
#
#
# Indices 1 2 3 4 5 6 
#
# 1 0.009188 -0.001782 -0.007967 0.000000 -0.016329 0.000000
# 2 -0.001782 0.005420 -0.002302 0.000000 -0.003145 0.000000
# 3 -0.007967 -0.002302 0.039861 0.000000 0.044553 0.000000
# 4 0.000000 0.000000 0.000000 0.024965 0.000000 0.001794
# 5 -0.016329 -0.003145 0.044553 0.000000 0.100138 0.000000
# 6 0.000000 0.000000 0.000000 0.001794 0.000000 0.015654
#
#
# Mechanical properties :
#
#
# Convention : Reuss Voigt Hill
#
# Bulk Modulus (GPa) = 32.93170 73.91209 53.42189
# Shear Modulus (GPa) = 21.79138 49.44568 35.61853
#
# Velocity S-wave (km/s) = 2.83146 4.26513 3.61998
# Velocity P-wave (km/s) = 4.77549 7.17270 6.09315
#
# Compressibility (1/GPa) = 0.03036588
#
# Stress axis : x y z
#
# Youngs Moduli (GPa) = 108.83946 184.51049 25.08744
#
# Poissons Ratio (x) = 0.32884 0.19987
# Poissons Ratio (y) = 0.19397 0.05775
# Poissons Ratio (z) = 0.86713 0.42472
#
# Static dielectric constant tensor:
#      x y z
#    x 5.345090 0.000000 -0.302280 
#    y 0.000000 5.277890 0.000000 
#    z -0.302280 0.000000 5.999880 
# 
# 
# High freq. dielectric constant tensor:
#      x y z
#    x 2.102810 0.000000 -0.002600 
#    y 0.000000 2.117510 0.000000 
#    z -0.002600 0.000000 2.140440 
# 
# From -- ./inp_files/28255.got.cif
#   From: 2010.06.25/outbox.cif.g09.slc.cpg/sg13_15_cif.got.tgz:28255.got - 2010.06.28 04:50:58.
