data_PCOD8120968
_publ_section_title
;
Structure prediction by ZEFSAII (Michael W. Deem and Ramdas Pophale) SiO2 
 PCOD8120968
Probable space group: P 2/C
;
_chemical_formula_sum "Si O2"
_cell_formula_units_Z 26
_cell_length_a 5.194296
_cell_length_b 12.100222
_cell_length_c 21.469541
_cell_angle_alpha 90.000000
_cell_angle_beta 103.276977
_cell_angle_gamma 90.000000
_cell_volume 1313.338514
_symmetry_space_group_name_H-M "P 2/C"
_symmetry_group_IT_number 13
_symmetry_cell_setting 'monoclinic'
loop_
_space_group_symop_operation_xyz
x,y,z
-x,y,1/2-z
-x,-y,-z
x,-y,1/2+z
loop_
_atom_site_type_symbol
_atom_site_label
_atom_site_fract_x
_atom_site_fract_y
_atom_site_fract_z
Si Si1 0.748736 0.810221 0.082716
Si Si2 0.700193 0.258413 0.849684
Si Si3 0.500000 0.921412 0.250000
Si Si4 0.000000 0.414050 0.250000
Si Si5 0.398356 0.204364 0.067702
Si Si6 0.048731 0.254882 0.367374
Si Si7 0.500000 0.443936 0.750000
Si Si8 0.728587 0.965984 0.648087
O O1 0.500276 0.759786 0.104887
O O2 0.819109 0.932592 0.110283
O O3 0.002698 0.732226 0.107889
O O4 0.686032 0.816659 0.007033
O O5 0.692138 0.155757 0.801434
O O6 0.630179 0.371431 0.811471
O O7 0.317884 0.997215 0.283453
O O8 0.978656 0.339610 0.309719
O O9 0.267160 0.485153 0.268260
O O10 0.662898 0.280159 0.086599
O O11 0.167683 0.268306 0.090915
O O12 0.458573 0.085741 0.103634
O O13 0.045305 0.128893 0.340068
#
# Coordination Sequence:
#
# PCOD8120968 Si02
#       8
#     4   4   2   2   4   4   2   4
#     4  11  21  38  63  87 128 165 195 238 293 351
#     4  10  23  39  62  91 112 155 201 257 310 355
#     4   9  20  37  54  88 126 153 190 251 296 348
#     4  12  24  42  70  86 120 156 196 266 320 358
#     4  10  22  38  56  88 131 164 204 229 276 366
#     4  10  24  36  59  90 122 159 202 240 290 358
#     4  11  24  45  68  90 114 147 210 261 322 376
#     4   9  23  33  60  87 131 162 200 229 289 359
#
# _framework density 19.796876999999999
#
# number of rings (size 3 to 8) (size 9 to 14) (size 15 to 20)
#    0.923    0.923    0.000    3.231    6.462    5.538 
#    0.000    0.000    0.000   18.462    0.000    0.000 
#    0.000    0.000    0.000    0.000    0.000    0.000 
#
# Total GULP energy -322368.631109 kJ/mol
# GULP energy per Si atom -12398.793504 kJ/mol
# Density = 1.975182 g / cm^3
# Si number density = 19.796877 Si / 1000 Ang^3
#
#
#
# Elastic Constant Matrix: (Units=GPa)
#
#
# Indices 1 2 3 4 5 6 
#
# 1 152.4167 37.3905 63.9162 0.0000 -5.9881 0.0000
# 2 37.3905 79.9163 47.1722 0.0000 -7.5412 0.0000
# 3 63.9162 47.1722 98.7819 0.0000 -18.0328 0.0000
# 4 0.0000 0.0000 0.0000 29.1461 0.0000 -39.8319
# 5 -5.9881 -7.5412 -18.0328 0.0000 32.7649 0.0000
# 6 0.0000 0.0000 0.0000 -39.8319 0.0000 98.6578
#
#
#
# Elastic Compliance Matrix: (Units=1/GPa)
#
#
# Indices 1 2 3 4 5 6 
#
# 1 0.009158 -0.001064 -0.005733 0.000000 -0.001726 0.000000
# 2 -0.001064 0.017560 -0.007776 0.000000 -0.000433 0.000000
# 3 -0.005733 -0.007776 0.018930 0.000000 0.007581 0.000000
# 4 0.000000 0.000000 0.000000 0.076544 0.000000 0.030904
# 5 -0.001726 -0.000433 0.007581 0.000000 0.034278 0.000000
# 6 0.000000 0.000000 0.000000 0.030904 0.000000 0.022613
#
#
# Mechanical properties :
#
#
# Convention : Reuss Voigt Hill
#
# Bulk Modulus (GPa) = 60.59684 69.78587 65.19135
# Shear Modulus (GPa) = 23.39403 44.28950 33.84177
#
# Velocity S-wave (km/s) = 3.44132 4.73503 4.13903
# Velocity P-wave (km/s) = 6.81660 8.07598 7.47287
#
# Compressibility (1/GPa) = 0.01650251
#
# Stress axis : x y z
#
# Youngs Moduli (GPa) = 109.19166 56.94727 52.82576
#
# Poissons Ratio (x) = 0.06058 0.30284
# Poissons Ratio (y) = 0.11616 0.41079
# Poissons Ratio (z) = 0.62598 0.44284
#
# Static dielectric constant tensor:
#      x y z
#    x 3.657820 0.000000 -0.014910 
#    y 0.000000 3.420640 0.000000 
#    z -0.014910 0.000000 3.541510 
# 
# 
# High freq. dielectric constant tensor:
#      x y z
#    x 1.783060 0.000000 -0.001800 
#    y 0.000000 1.748180 0.000000 
#    z -0.001800 0.000000 1.773310 
# 
# From -- ./inp_files/73464.got.cif
#   From: 2010.06.25/outbox.cif.g09.slc.cpg/sg13_37_cif.got.tgz:73464.got - 2010.06.28 04:50:58.
