data_PCOD8120854
_publ_section_title
;
Structure prediction by ZEFSAII (Michael W. Deem and Ramdas Pophale) SiO2 
 PCOD8120854
Probable space group: P 2/C
;
_chemical_formula_sum "Si O2"
_cell_formula_units_Z 30
_cell_length_a 8.280034
_cell_length_b 6.775383
_cell_length_c 28.642897
_cell_angle_alpha 90.000000
_cell_angle_beta 112.278664
_cell_angle_gamma 90.000000
_cell_volume 1486.926119
_symmetry_space_group_name_H-M "P 2/C"
_symmetry_group_IT_number 13
_symmetry_cell_setting 'monoclinic'
loop_
_space_group_symop_operation_xyz
x,y,z
-x,y,1/2-z
-x,-y,-z
x,-y,1/2+z
loop_
_atom_site_type_symbol
_atom_site_label
_atom_site_fract_x
_atom_site_fract_y
_atom_site_fract_z
Si Si1 0.813201 0.965341 0.881874
Si Si2 0.917085 0.741457 0.109348
Si Si3 0.564323 0.290651 0.520565
Si Si4 0.835120 0.578473 0.823748
Si Si5 0.555504 0.743578 0.304124
Si Si6 0.445548 0.027925 0.070341
Si Si7 0.000000 0.772691 0.750000
Si Si8 0.733210 0.933866 0.171203
O O1 0.811376 0.775835 0.849876
O O2 0.737964 0.924329 0.925132
O O3 0.699932 0.129986 0.844548
O O4 0.000385 0.067458 0.907437
O O5 0.762918 0.684195 0.057907
O O6 0.037013 0.552103 0.130428
O O7 0.868392 0.811272 0.155682
O O8 0.500000 0.500000 0.500000
O O9 0.533000 0.167360 0.470870
O O10 0.455713 0.197124 0.551942
O O11 0.643629 0.470929 0.801331
O O12 0.918462 0.632145 0.781993
O O13 0.500000 0.845871 0.250000
O O14 0.377077 0.759705 0.314732
O O15 0.603041 0.063578 0.124402
O O16 0.158913 0.912993 0.784788
#
# Coordination Sequence:
#
# PCOD8120854 Si02
#       8
#     4   4   4   4   4   4   2   4
#     4  10  21  44  60  89 130 168 210 266 328 382
#     4  10  23  40  63  93 128 166 208 271 321 380
#     4  10  22  40  66  95 121 162 218 260 326 385
#     4  11  25  39  62  95 129 168 221 263 320 387
#     4  10  23  39  60  88 127 168 217 267 320 384
#     4   9  22  41  65  89 123 166 209 266 318 389
#     4  12  24  38  72  96 126 184 220 264 336 388
#     4  10  22  42  65  86 130 169 211 265 325 378
#
# _framework density 20.175851000000002
#
# number of rings (size 3 to 8) (size 9 to 14) (size 15 to 20)
#    0.000    1.867    1.333    0.800    5.600    8.533 
#    0.000    1.333    0.000    0.000    0.000    0.000 
#    0.000    0.000    0.000    0.000    0.000    0.000 
#
# Total GULP energy -371684.183179 kJ/mol
# GULP energy per Si atom -12389.472773 kJ/mol
# Density = 2.012993 g / cm^3
# Si number density = 20.175851 Si / 1000 Ang^3
#
#
#
# Elastic Constant Matrix: (Units=GPa)
#
#
# Indices 1 2 3 4 5 6 
#
# 1 108.8740 30.5062 28.9240 0.0000 -17.5847 0.0000
# 2 30.5062 70.2934 11.8173 0.0000 -9.4845 0.0000
# 3 28.9240 11.8173 89.0288 0.0000 -5.3123 0.0000
# 4 0.0000 0.0000 0.0000 161.8788 0.0000 140.1912
# 5 -17.5847 -9.4845 -5.3123 0.0000 31.7572 0.0000
# 6 0.0000 0.0000 0.0000 140.1912 0.0000 178.7268
#
#
#
# Elastic Compliance Matrix: (Units=1/GPa)
#
#
# Indices 1 2 3 4 5 6 
#
# 1 0.011903 -0.003994 -0.003045 0.000000 0.004889 0.000000
# 2 -0.003994 0.016429 -0.000730 0.000000 0.002573 0.000000
# 3 -0.003045 -0.000730 0.012328 0.000000 0.000158 0.000000
# 4 0.000000 0.000000 0.000000 0.019262 0.000000 -0.015109
# 5 0.004889 0.002573 0.000158 0.000000 0.034991 0.000000
# 6 0.000000 0.000000 0.000000 -0.015109 0.000000 0.017447
#
#
# Mechanical properties :
#
#
# Convention : Reuss Voigt Hill
#
# Bulk Modulus (GPa) = 39.80533 45.63236 42.71885
# Shear Modulus (GPa) = 36.69153 87.60245 62.14699
#
# Velocity S-wave (km/s) = 4.26912 6.59649 5.55604
# Velocity P-wave (km/s) = 6.63871 8.98247 7.89801
#
# Compressibility (1/GPa) = 0.02512226
#
# Stress axis : x y z
#
# Youngs Moduli (GPa) = 84.01537 60.86696 81.11673
#
# Poissons Ratio (x) = 0.24310 0.24701
# Poissons Ratio (y) = 0.33556 0.05919
# Poissons Ratio (z) = 0.25584 0.04441
#
# Static dielectric constant tensor:
#      x y z
#    x 4.604650 0.000000 -0.201740 
#    y 0.000000 3.398060 0.000000 
#    z -0.201740 0.000000 3.788270 
# 
# 
# High freq. dielectric constant tensor:
#      x y z
#    x 1.797980 0.000000 -0.002320 
#    y 0.000000 1.781310 0.000000 
#    z -0.002320 0.000000 1.796080 
# 
# From -- ./inp_files/95684.got.cif
#   From: 2010.06.25/outbox.cif.g09.slc.cpg/sg13_48_cif.got.tgz:95684.got - 2010.06.28 04:50:58.
