data_PCOD8120036
_publ_section_title
;
Structure prediction by ZEFSAII (Michael W. Deem and Ramdas Pophale) SiO2 
 PCOD8120036
Probable space group: P 2/C
;
_chemical_formula_sum "Si O2"
_cell_formula_units_Z 28
_cell_length_a 30.577839
_cell_length_b 8.571302
_cell_length_c 30.167080
_cell_angle_alpha 90.000000
_cell_angle_beta 170.717114
_cell_angle_gamma 90.000000
_cell_volume 1275.397556
_symmetry_space_group_name_H-M "P 2/C"
_symmetry_group_IT_number 13
_symmetry_cell_setting 'monoclinic'
loop_
_space_group_symop_operation_xyz
x,y,z
-x,y,1/2-z
-x,-y,-z
x,-y,1/2+z
loop_
_atom_site_type_symbol
_atom_site_label
_atom_site_fract_x
_atom_site_fract_y
_atom_site_fract_z
Si Si1 0.747642 0.188881 0.771307
Si Si2 0.572967 0.048624 0.414693
Si Si3 0.000000 0.696811 0.750000
Si Si4 0.757610 0.175061 0.289747
Si Si5 0.500000 0.903044 0.250000
Si Si6 0.616064 0.728304 0.234400
Si Si7 0.082962 0.765835 0.453643
Si Si8 0.112559 0.569641 0.770586
O O1 0.544662 0.219547 0.527348
O O2 0.649503 0.290495 0.714886
O O3 0.770203 0.010040 0.808890
O O4 0.042368 0.239090 0.048513
O O5 0.615439 0.006592 0.405679
O O6 0.481598 0.901129 0.351942
O O7 0.349701 0.184361 0.193512
O O8 0.853186 0.104282 0.716558
O O9 0.121096 0.589930 0.832128
O O10 0.750292 0.800875 0.481932
O O11 0.836712 0.255869 0.414814
O O12 0.910655 0.699347 0.549459
O O13 0.407644 0.599634 0.044621
O O14 0.979826 0.603401 0.331971
#
# Coordination Sequence:
#
# PCOD8120036 Si02
#       8
#     4   4   2   4   2   4   4   4
#     4  10  21  36  66  95 125 169 226 271 318 388
#     4  12  24  42  70  96 129 167 221 281 313 383
#     4  12  22  44  66  96 128 172 218 260 326 402
#     4  10  21  38  61  97 130 169 213 281 327 376
#     4  12  24  42  70 102 126 158 232 280 318 366
#     4  12  23  44  67 101 124 179 226 264 319 398
#     4  12  26  44  65 101 138 172 214 272 342 387
#     4  12  26  43  67  94 138 177 209 268 338 402
#
# _framework density 21.953938999999998
#
# number of rings (size 3 to 8) (size 9 to 14) (size 15 to 20)
#    0.000    0.571    4.286    4.286    4.000    1.143 
#    0.000    4.286    0.000    0.000    0.000    0.000 
#    0.000    0.000    0.000    0.000    0.000    0.000 
#
# Total GULP energy -347362.819670 kJ/mol
# GULP energy per Si atom -12405.814988 kJ/mol
# Density = 2.190397 g / cm^3
# Si number density = 21.953939 Si / 1000 Ang^3
#
#
#
# Elastic Constant Matrix: (Units=GPa)
#
#
# Indices 1 2 3 4 5 6 
#
# 1 126.6657 34.6585 19.9485 0.0000 -3.6018 0.0000
# 2 34.6585 59.0684 3.8023 0.0000 -1.4060 0.0000
# 3 19.9485 3.8023 90.0156 0.0000 2.4214 0.0000
# 4 0.0000 0.0000 0.0000 33.3870 0.0000 -2.4559
# 5 -3.6018 -1.4060 2.4214 0.0000 35.6434 0.0000
# 6 0.0000 0.0000 0.0000 -2.4559 0.0000 16.5174
#
#
#
# Elastic Compliance Matrix: (Units=1/GPa)
#
#
# Indices 1 2 3 4 5 6 
#
# 1 0.009753 -0.005576 -0.001950 0.000000 0.000898 0.000000
# 2 -0.005576 0.020182 0.000378 0.000000 0.000207 0.000000
# 3 -0.001950 0.000378 0.011551 0.000000 -0.000967 0.000000
# 4 0.000000 0.000000 0.000000 0.030283 0.000000 0.004503
# 5 0.000898 0.000207 -0.000967 0.000000 0.028220 0.000000
# 6 0.000000 0.000000 0.000000 0.004503 0.000000 0.061212
#
#
# Mechanical properties :
#
#
# Convention : Reuss Voigt Hill
#
# Bulk Modulus (GPa) = 36.77845 43.61872 40.19858
# Shear Modulus (GPa) = 27.09136 31.59893 29.34515
#
# Velocity S-wave (km/s) = 3.51666 3.79796 3.66001
# Velocity P-wave (km/s) = 5.76872 6.25653 6.01757
#
# Compressibility (1/GPa) = 0.02718983
#
# Stress axis : x y z
#
# Youngs Moduli (GPa) = 102.53160 49.54981 86.56961
#
# Poissons Ratio (x) = 0.27628 0.16881
# Poissons Ratio (y) = 0.57169 -0.03269
# Poissons Ratio (z) = 0.19994 -0.01871
#
# Static dielectric constant tensor:
#      x y z
#    x 4.042070 0.000000 0.145580 
#    y 0.000000 3.615290 0.000000 
#    z 0.145580 0.000000 4.268060 
# 
# 
# High freq. dielectric constant tensor:
#      x y z
#    x 1.874040 0.000000 0.001890 
#    y 0.000000 1.834310 0.000000 
#    z 0.001890 0.000000 1.884090 
# 
# From -- ./inp_files/98139.got.cif
#   From: 2010.06.25/outbox.cif.g09.slc.cpg/sg13_50_cif.got.tgz:98139.got - 2010.06.28 04:50:58.
