data_PCOD8120000
_publ_section_title
;
Structure prediction by ZEFSAII (Michael W. Deem and Ramdas Pophale) SiO2 
 PCOD8120000
Probable space group: P 2/C
;
_chemical_formula_sum "Si O2"
_cell_formula_units_Z 20
_cell_length_a 28.245365
_cell_length_b 5.186095
_cell_length_c 14.219319
_cell_angle_alpha 90.000000
_cell_angle_beta 25.872343
_cell_angle_gamma 90.000000
_cell_volume 908.905790
_symmetry_space_group_name_H-M "P 2/C"
_symmetry_group_IT_number 13
_symmetry_cell_setting 'monoclinic'
loop_
_space_group_symop_operation_xyz
x,y,z
-x,y,1/2-z
-x,-y,-z
x,-y,1/2+z
loop_
_atom_site_type_symbol
_atom_site_label
_atom_site_fract_x
_atom_site_fract_y
_atom_site_fract_z
Si Si1 0.032182 0.056202 0.048150
Si Si2 0.191083 0.249750 0.037640
Si Si3 0.400403 0.988027 0.108146
Si Si4 0.836250 0.426867 0.201985
Si Si5 0.669091 0.505627 0.853733
O O1 0.106220 0.305968 0.922375
O O2 0.098637 0.806930 0.966194
O O3 0.918603 0.111001 0.305778
O O4 0.000000 0.000000 0.000000
O O5 0.171025 0.379754 0.174058
O O6 0.225461 0.473846 0.903051
O O7 0.288917 0.040119 0.868092
O O8 0.402461 0.249491 0.045589
O O9 0.407766 0.747302 0.021286
O O10 0.500000 0.000000 0.000000
O O11 0.714554 0.450588 0.377570
#
# Coordination Sequence:
#
# PCOD8120000 Si02
#       5
#     4   4   4   4   4
#     4  10  21  36  58  89 125 165 196 234 294 365
#     4   9  23  37  63  85 123 162 196 235 313 341
#     4  10  22  42  63  83 119 157 202 258 304 350
#     4  11  22  39  60  89 130 154 200 246 287 368
#     4  10  23  39  62  90 119 155 206 246 299 357
#
# _framework density 22.004477999999999
#
# number of rings (size 3 to 8) (size 9 to 14) (size 15 to 20)
#    1.200    0.800    0.000    4.200    8.400    0.800 
#    0.000    1.000    0.000    0.000    0.000    0.000 
#    0.000    0.000    0.000    0.000    0.000    0.000 
#
# Total GULP energy -247841.357873 kJ/mol
# GULP energy per Si atom -12392.067894 kJ/mol
# Density = 2.195440 g / cm^3
# Si number density = 22.004478 Si / 1000 Ang^3
#
#
#
# Elastic Constant Matrix: (Units=GPa)
#
#
# Indices 1 2 3 4 5 6 
#
# 1 65.1573 28.9395 -3.7448 0.0000 -27.9990 0.0000
# 2 28.9395 170.9557 3.6650 0.0000 -23.0058 0.0000
# 3 -3.7448 3.6650 30.3622 0.0000 -15.1742 0.0000
# 4 0.0000 0.0000 0.0000 19.0939 0.0000 -19.2477
# 5 -27.9990 -23.0058 -15.1742 0.0000 38.6823 0.0000
# 6 0.0000 0.0000 0.0000 -19.2477 0.0000 32.9023
#
#
#
# Elastic Compliance Matrix: (Units=1/GPa)
#
#
# Indices 1 2 3 4 5 6 
#
# 1 0.028185 -0.001635 0.016647 0.000000 0.025959 0.000000
# 2 -0.001635 0.006501 0.000441 0.000000 0.002856 0.000000
# 3 0.016647 0.000441 0.051109 0.000000 0.032361 0.000000
# 4 0.000000 0.000000 0.000000 0.127649 0.000000 0.074674
# 5 0.025959 0.002856 0.032361 0.000000 0.059035 0.000000
# 6 0.000000 0.000000 0.000000 0.074674 0.000000 0.074077
#
#
# Mechanical properties :
#
#
# Convention : Reuss Voigt Hill
#
# Bulk Modulus (GPa) = 8.56878 36.02163 22.29520
# Shear Modulus (GPa) = 14.10242 33.97674 24.03958
#
# Velocity S-wave (km/s) = 2.53432 3.93375 3.30886
# Velocity P-wave (km/s) = 3.53076 6.08590 4.97516
#
# Compressibility (1/GPa) = 0.11670280
#
# Stress axis : x y z
#
# Youngs Moduli (GPa) = 35.47931 153.81995 19.56611
#
# Poissons Ratio (x) = 0.25146 -0.32573
# Poissons Ratio (y) = 0.05800 -0.00863
# Poissons Ratio (z) = -0.59064 -0.06784
#
# Static dielectric constant tensor:
#      x y z
#    x 10.451360 0.000000 -1.065800 
#    y 0.000000 4.379430 0.000000 
#    z -1.065800 0.000000 3.974900 
# 
# 
# High freq. dielectric constant tensor:
#      x y z
#    x 1.862030 0.000000 -0.021780 
#    y 0.000000 1.877910 0.000000 
#    z -0.021780 0.000000 1.835580 
# 
# From -- ./inp_files/59088.got.cif
#   From: 2010.06.25/outbox.cif.g09.slc.cpg/sg13_30_cif.got.tgz:59088.got - 2010.06.28 04:50:58.
