data_PCOD8120850
_publ_section_title
;
Structure prediction by ZEFSAII (Michael W. Deem and Ramdas Pophale) SiO2 
 PCOD8120850
Probable space group: P 2/C
;
_chemical_formula_sum "Si O2"
_cell_formula_units_Z 28
_cell_length_a 9.612085
_cell_length_b 14.120390
_cell_length_c 22.007237
_cell_angle_alpha 90.000000
_cell_angle_beta 151.681016
_cell_angle_gamma 90.000000
_cell_volume 1416.955161
_symmetry_space_group_name_H-M "P 2/C"
_symmetry_group_IT_number 13
_symmetry_cell_setting 'monoclinic'
loop_
_space_group_symop_operation_xyz
x,y,z
-x,y,1/2-z
-x,-y,-z
x,-y,1/2+z
loop_
_atom_site_type_symbol
_atom_site_label
_atom_site_fract_x
_atom_site_fract_y
_atom_site_fract_z
Si Si1 0.680527 0.707574 0.766416
Si Si2 0.965163 0.899106 0.903360
Si Si3 0.684674 0.778956 0.983285
Si Si4 0.809237 0.096948 0.878572
Si Si5 0.873312 0.408867 0.134641
Si Si6 0.727357 0.081610 0.102840
Si Si7 0.193584 0.376861 0.881259
O O1 0.500000 0.652763 0.750000
O O2 0.478249 0.720539 0.630642
O O3 0.762785 0.807306 0.829636
O O4 0.958684 0.645701 0.854076
O O5 0.153653 0.882071 0.915403
O O6 0.168111 0.911696 0.040303
O O7 0.778444 0.996464 0.830598
O O8 0.867195 0.702834 0.092008
O O9 0.912589 0.851293 0.042349
O O10 0.440264 0.832871 0.928846
O O11 0.500000 0.151039 0.750000
O O12 0.912114 0.520383 0.136599
O O13 0.000000 0.382468 0.250000
O O14 0.537770 0.378499 0.998600
O O15 0.000000 0.047036 0.250000
O O16 0.500000 0.000000 0.000000
O O17 0.000000 0.344996 0.750000
#
# Coordination Sequence:
#
# PCOD8120850 Si02
#       7
#     4   4   4   4   4   4   4
#     4  12  23  41  69  98 124 169 224 266 319 395
#     4  11  24  41  64  92 128 175 219 259 325 389
#     4  12  24  43  64  99 128 172 223 268 320 397
#     4  11  26  42  62  89 137 178 212 264 327 394
#     4  10  21  43  73  97 126 168 219 270 333 401
#     4  12  26  40  66  99 131 170 225 281 322 377
#     4  10  23  42  69  99 131 167 212 275 340 387
#
# _framework density 19.760681000000002
#
# number of rings (size 3 to 8) (size 9 to 14) (size 15 to 20)
#    0.000    0.857    5.714    1.286    4.000    2.857 
#    0.000    1.429    0.000    0.000    0.000    0.000 
#    0.000    0.000    0.000    0.000    0.000    0.000 
#
# Total GULP energy -347180.058795 kJ/mol
# GULP energy per Si atom -12399.287814 kJ/mol
# Density = 1.971570 g / cm^3
# Si number density = 19.760681 Si / 1000 Ang^3
#
#
#
# Elastic Constant Matrix: (Units=GPa)
#
#
# Indices 1 2 3 4 5 6 
#
# 1 143.7979 37.4773 45.8653 0.0000 0.7655 0.0000
# 2 37.4773 80.7032 36.0640 0.0000 -6.9298 0.0000
# 3 45.8653 36.0640 126.4576 0.0000 -6.2690 0.0000
# 4 0.0000 0.0000 0.0000 23.4834 0.0000 -7.5138
# 5 0.7655 -6.9298 -6.2690 0.0000 31.0652 0.0000
# 6 0.0000 0.0000 0.0000 -7.5138 0.0000 13.8103
#
#
#
# Elastic Compliance Matrix: (Units=1/GPa)
#
#
# Indices 1 2 3 4 5 6 
#
# 1 0.008479 -0.003036 -0.002276 0.000000 -0.001345 0.000000
# 2 -0.003036 0.015463 -0.003166 0.000000 0.002885 0.000000
# 3 -0.002276 -0.003166 0.009701 0.000000 0.001308 0.000000
# 4 0.000000 0.000000 0.000000 0.051559 0.000000 0.028051
# 5 -0.001345 0.002885 0.001308 0.000000 0.033131 0.000000
# 6 0.000000 0.000000 0.000000 0.028051 0.000000 0.087672
#
#
# Mechanical properties :
#
#
# Convention : Reuss Voigt Hill
#
# Bulk Modulus (GPa) = 59.92486 65.53020 62.72753
# Shear Modulus (GPa) = 21.87975 29.10858 25.49417
#
# Velocity S-wave (km/s) = 3.33113 3.84220 3.59576
# Velocity P-wave (km/s) = 6.72208 7.27443 7.00370
#
# Compressibility (1/GPa) = 0.01668756
#
# Stress axis : x y z
#
# Youngs Moduli (GPa) = 117.94530 64.66918 103.08242
#
# Poissons Ratio (x) = 0.19632 0.23462
# Poissons Ratio (y) = 0.35805 0.32634
# Poissons Ratio (z) = 0.26845 0.20473
#
# Static dielectric constant tensor:
#      x y z
#    x 2.922800 0.000000 -0.442440 
#    y 0.000000 3.645480 0.000000 
#    z -0.442440 0.000000 3.510050 
# 
# 
# High freq. dielectric constant tensor:
#      x y z
#    x 1.777090 0.000000 0.000700 
#    y 0.000000 1.761820 0.000000 
#    z 0.000700 0.000000 1.780060 
# 
# From -- ./inp_files/76699.got.cif
#   From: 2010.06.25/outbox.cif.g09.slc.cpg/sg13_39_cif.got.tgz:76699.got - 2010.06.28 04:50:58.
