data_PCOD8120905
_publ_section_title
;
Structure prediction by ZEFSAII (Michael W. Deem and Ramdas Pophale) SiO2 
 PCOD8120905
Probable space group: P 2/C
;
_chemical_formula_sum "Si O2"
_cell_formula_units_Z 20
_cell_length_a 5.124107
_cell_length_b 13.675409
_cell_length_c 14.473049
_cell_angle_alpha 90.000000
_cell_angle_beta 85.111943
_cell_angle_gamma 90.000000
_cell_volume 1010.499662
_symmetry_space_group_name_H-M "P 2/C"
_symmetry_group_IT_number 13
_symmetry_cell_setting 'monoclinic'
loop_
_space_group_symop_operation_xyz
x,y,z
-x,y,1/2-z
-x,-y,-z
x,-y,1/2+z
loop_
_atom_site_type_symbol
_atom_site_label
_atom_site_fract_x
_atom_site_fract_y
_atom_site_fract_z
Si Si1 0.985929 0.424070 0.355622
Si Si2 0.774492 0.289146 0.515588
Si Si3 0.513372 0.550882 0.143646
Si Si4 0.028047 0.160405 0.644628
Si Si5 0.441720 0.905730 0.442187
O O1 0.916197 0.332271 0.421757
O O2 0.767045 0.507227 0.376052
O O3 0.000000 0.386122 0.250000
O O4 0.266184 0.467446 0.375846
O O5 0.572335 0.362080 0.571540
O O6 0.997636 0.258610 0.583562
O O7 0.613765 0.190484 0.491931
O O8 0.500000 0.588789 0.250000
O O9 0.807516 0.080739 0.618922
O O10 0.000000 0.194363 0.750000
O O11 0.308345 0.111596 0.628520
O O12 0.500000 0.000000 0.500000
#
# Coordination Sequence:
#
# PCOD8120905 Si02
#       5
#     4   4   4   4   4
#     4  10  22  39  55  86 126 168 207 250 299 371
#     4  10  24  34  68  84 129 157 211 248 322 359
#     4  10  22  35  57  88 125 160 207 253 304 368
#     4  10  23  38  65  93 124 156 203 260 315 365
#     4  10  23  41  63  90 126 158 201 261 314 374
#
# _framework density 19.792189
#
# number of rings (size 3 to 8) (size 9 to 14) (size 15 to 20)
#    1.200    0.800    0.000    2.400    8.400    0.800 
#    0.000    1.000    4.400    0.000    0.000    0.000 
#    0.000    0.000    0.000    0.000    0.000    0.000 
#
# Total GULP energy -247882.635862 kJ/mol
# GULP energy per Si atom -12394.131793 kJ/mol
# Density = 1.974714 g / cm^3
# Si number density = 19.792189 Si / 1000 Ang^3
#
#
#
# Elastic Constant Matrix: (Units=GPa)
#
#
# Indices 1 2 3 4 5 6 
#
# 1 76.9964 9.7277 16.7978 0.0000 -18.6859 0.0000
# 2 9.7277 105.7100 69.2074 0.0000 -11.5774 0.0000
# 3 16.7978 69.2074 115.7080 0.0000 -16.2411 0.0000
# 4 0.0000 0.0000 0.0000 13.7385 0.0000 4.3747
# 5 -18.6859 -11.5774 -16.2411 0.0000 31.6758 0.0000
# 6 0.0000 0.0000 0.0000 4.3747 0.0000 17.8638
#
#
#
# Elastic Compliance Matrix: (Units=1/GPa)
#
#
# Indices 1 2 3 4 5 6 
#
# 1 0.015277 0.000322 -0.001217 0.000000 0.008506 0.000000
# 2 0.000322 0.015584 -0.009204 0.000000 0.001167 0.000000
# 3 -0.001217 -0.009204 0.014818 0.000000 0.003516 0.000000
# 4 0.000000 0.000000 0.000000 0.078944 0.000000 -0.019333
# 5 0.008506 0.001167 0.003516 0.000000 0.038816 0.000000
# 6 0.000000 0.000000 0.000000 -0.019333 0.000000 0.060714
#
#
# Mechanical properties :
#
#
# Convention : Reuss Voigt Hill
#
# Bulk Modulus (GPa) = 39.24450 54.43112 46.83781
# Shear Modulus (GPa) = 19.77514 26.16773 22.97143
#
# Velocity S-wave (km/s) = 3.16434 3.64005 3.41050
# Velocity P-wave (km/s) = 5.76386 6.72515 6.26297
#
# Compressibility (1/GPa) = 0.02548128
#
# Stress axis : x y z
#
# Youngs Moduli (GPa) = 65.45985 64.16944 67.48712
#
# Poissons Ratio (x) = -0.02068 0.08211
# Poissons Ratio (y) = -0.02110 0.62115
# Poissons Ratio (z) = 0.07964 0.59061
#
# Static dielectric constant tensor:
#      x y z
#    x 3.904270 0.000000 -0.208800 
#    y 0.000000 3.421500 0.000000 
#    z -0.208800 0.000000 3.635690 
# 
# 
# High freq. dielectric constant tensor:
#      x y z
#    x 1.790650 0.000000 -0.010430 
#    y 0.000000 1.743070 0.000000 
#    z -0.010430 0.000000 1.764190 
# 
# From -- ./inp_files/43417.got.cif
#   From: 2010.06.25/outbox.cif.g09.slc.cpg/sg13_22_cif.got.tgz:43417.got - 2010.06.28 04:50:58.
