data_PCOD8120099
_publ_section_title
;
Structure prediction by ZEFSAII (Michael W. Deem and Ramdas Pophale) SiO2 
 PCOD8120099
Probable space group: P 2/C
;
_chemical_formula_sum "Si O2"
_cell_formula_units_Z 26
_cell_length_a 10.971487
_cell_length_b 11.990336
_cell_length_c 8.599784
_cell_angle_alpha 90.000000
_cell_angle_beta 94.307336
_cell_angle_gamma 90.000000
_cell_volume 1128.121822
_symmetry_space_group_name_H-M "P 2/C"
_symmetry_group_IT_number 13
_symmetry_cell_setting 'monoclinic'
loop_
_space_group_symop_operation_xyz
x,y,z
-x,y,1/2-z
-x,-y,-z
x,-y,1/2+z
loop_
_atom_site_type_symbol
_atom_site_label
_atom_site_fract_x
_atom_site_fract_y
_atom_site_fract_z
Si Si1 0.757923 0.486266 0.191405
Si Si2 0.000000 0.808508 0.250000
Si Si3 0.405375 0.413291 0.060305
Si Si4 0.452320 0.161861 0.077246
Si Si5 0.839034 0.660472 0.437283
Si Si6 0.684930 0.870719 0.422764
Si Si7 0.766186 0.937857 0.110359
O O1 0.637133 0.435026 0.265090
O O2 0.715808 0.574762 0.057093
O O3 0.837015 0.555178 0.321619
O O4 0.839746 0.389016 0.114123
O O5 0.102060 0.884568 0.341792
O O6 0.953619 0.734474 0.391881
O O7 0.500000 0.500000 0.000000
O O8 0.463386 0.293292 0.054752
O O9 0.500000 0.126295 0.250000
O O10 0.546427 0.109329 0.962877
O O11 0.312674 0.124471 0.032113
O O12 0.719724 0.740089 0.413752
O O13 0.687832 0.931573 0.258511
O O14 0.778677 0.934134 0.551744
#
# Coordination Sequence:
#
# PCOD8120099 Si02
#       7
#     4   2   4   4   4   4   4
#     4  10  21  37  59  93 132 175 223 273 331 398
#     4  10  24  46  70  98 130 178 232 284 334 394
#     4  11  20  33  57  92 134 179 222 271 334 411
#     4  12  23  39  64  97 135 172 217 275 343 411
#     4  10  22  41  66  93 130 174 224 277 335 401
#     4  11  23  42  65  97 133 172 218 277 344 407
#     4  11  25  43  68  95 131 173 224 280 336 401
#
# _framework density 23.047156999999999
#
# number of rings (size 3 to 8) (size 9 to 14) (size 15 to 20)
#    0.000    1.231    0.000    7.846    0.000    4.308 
#    0.000    0.000    0.000   23.077    0.000    0.000 
#    0.000    0.000    0.000    0.000    0.000    0.000 
#
# Total GULP energy -322219.160198 kJ/mol
# GULP energy per Si atom -12393.044623 kJ/mol
# Density = 2.299470 g / cm^3
# Si number density = 23.047157 Si / 1000 Ang^3
#
#
#
# Elastic Constant Matrix: (Units=GPa)
#
#
# Indices 1 2 3 4 5 6 
#
# 1 118.0314 33.4876 43.2877 0.0000 1.0769 0.0000
# 2 33.4876 91.6726 42.5081 0.0000 0.2567 0.0000
# 3 43.2877 42.5081 130.4072 0.0000 -5.4174 0.0000
# 4 0.0000 0.0000 0.0000 36.0118 0.0000 0.8413
# 5 1.0769 0.2567 -5.4174 0.0000 36.2501 0.0000
# 6 0.0000 0.0000 0.0000 0.8413 0.0000 26.3309
#
#
#
# Elastic Compliance Matrix: (Units=1/GPa)
#
#
# Indices 1 2 3 4 5 6 
#
# 1 0.010134 -0.002506 -0.002575 0.000000 -0.000668 0.000000
# 2 -0.002506 0.013489 -0.003588 0.000000 -0.000557 0.000000
# 3 -0.002575 -0.003588 0.009757 0.000000 0.001560 0.000000
# 4 0.000000 0.000000 0.000000 0.027789 0.000000 -0.000888
# 5 -0.000668 -0.000557 0.001560 0.000000 0.027843 0.000000
# 6 0.000000 0.000000 0.000000 -0.000888 0.000000 0.038006
#
#
# Mechanical properties :
#
#
# Convention : Reuss Voigt Hill
#
# Bulk Modulus (GPa) = 62.33522 64.29754 63.31638
# Shear Modulus (GPa) = 33.39907 34.44044 33.91975
#
# Velocity S-wave (km/s) = 3.81092 3.86987 3.84051
# Velocity P-wave (km/s) = 6.81686 6.92291 6.87009
#
# Compressibility (1/GPa) = 0.01604230
#
# Stress axis : x y z
#
# Youngs Moduli (GPa) = 98.68080 74.13298 102.48634
#
# Poissons Ratio (x) = 0.18578 0.26387
# Poissons Ratio (y) = 0.24730 0.36775
# Poissons Ratio (z) = 0.25407 0.26601
#
# Static dielectric constant tensor:
#      x y z
#    x 3.896650 0.000000 -0.192130 
#    y 0.000000 4.280060 0.000000 
#    z -0.192130 0.000000 4.500460 
# 
# 
# High freq. dielectric constant tensor:
#      x y z
#    x 1.886870 0.000000 -0.016040 
#    y 0.000000 1.920080 0.000000 
#    z -0.016040 0.000000 1.922020 
# 
# From -- ./inp_files/15908.got.cif
#   From: 2010.06.25/outbox.cif.g09.slc.cpg/sg13_8_cif.got.tgz:15908.got - 2010.06.28 04:50:58.
