data_PCOD8121743
_publ_section_title
;
Structure prediction by ZEFSAII (Michael W. Deem and Ramdas Pophale) SiO2 
 PCOD8121743
Probable space group: P 2/C
;
_chemical_formula_sum "Si O2"
_cell_formula_units_Z 28
_cell_length_a 7.988039
_cell_length_b 8.841724
_cell_length_c 28.225671
_cell_angle_alpha 90.000000
_cell_angle_beta 40.165987
_cell_angle_gamma 90.000000
_cell_volume 1285.831077
_symmetry_space_group_name_H-M "P 2/C"
_symmetry_group_IT_number 13
_symmetry_cell_setting 'monoclinic'
loop_
_space_group_symop_operation_xyz
x,y,z
-x,y,1/2-z
-x,-y,-z
x,-y,1/2+z
loop_
_atom_site_type_symbol
_atom_site_label
_atom_site_fract_x
_atom_site_fract_y
_atom_site_fract_z
Si Si1 0.829289 0.058338 0.832672
Si Si2 0.084685 0.621831 0.444796
Si Si3 0.220793 0.564578 0.829725
Si Si4 0.131320 0.840242 0.593444
Si Si5 0.477845 0.395423 0.459013
Si Si6 0.136107 0.414973 0.671713
Si Si7 0.748184 0.910496 0.038274
O O1 0.948748 0.976113 0.853499
O O2 0.000000 0.012757 0.750000
O O3 0.837141 0.236542 0.841024
O O4 0.527257 0.012008 0.888654
O O5 0.808046 0.675057 0.483610
O O6 0.000000 0.500000 0.500000
O O7 0.257541 0.544550 0.366860
O O8 0.248562 0.752139 0.434418
O O9 0.500000 0.599971 0.750000
O O10 0.105556 0.728675 0.868301
O O11 0.038537 0.480424 0.832245
O O12 0.348658 0.751957 0.575270
O O13 0.248322 0.899049 0.519101
O O14 0.500000 0.500000 0.500000
O O15 0.581430 0.501316 0.392814
O O16 0.000000 0.458257 0.750000
O O17 0.000000 0.000000 0.000000
#
# Coordination Sequence:
#
# PCOD8121743 Si02
#       7
#     4   4   4   4   4   4   4
#     4  11  26  46  67  97 138 184 230 277 344 414
#     4  12  23  42  68  99 137 168 222 282 335 395
#     4  11  26  42  66 104 135 175 221 287 349 390
#     4  11  24  46  68  96 135 178 230 275 330 420
#     4  11  20  41  69  96 127 173 225 275 329 396
#     4  10  23  40  67  96 130 176 225 272 333 409
#     4  12  27  43  69 104 134 182 228 283 342 402
#
# _framework density 21.775798999999999
#
# number of rings (size 3 to 8) (size 9 to 14) (size 15 to 20)
#    0.000    0.857    4.286    3.000    8.000    3.429 
#    0.000    0.714    0.000    0.000    0.000    0.000 
#    0.000    0.000    0.000    0.000    0.000    0.000 
#
# Total GULP energy -347163.751400 kJ/mol
# GULP energy per Si atom -12398.705407 kJ/mol
# Density = 2.172624 g / cm^3
# Si number density = 21.775799 Si / 1000 Ang^3
#
#
#
# Elastic Constant Matrix: (Units=GPa)
#
#
# Indices 1 2 3 4 5 6 
#
# 1 59.6474 22.2397 40.4625 0.0000 5.7602 0.0000
# 2 22.2397 79.5962 43.6262 0.0000 12.2476 0.0000
# 3 40.4625 43.6262 167.3612 0.0000 5.7992 0.0000
# 4 0.0000 0.0000 0.0000 31.7430 0.0000 8.0102
# 5 5.7602 12.2476 5.7992 0.0000 46.3401 0.0000
# 6 0.0000 0.0000 0.0000 8.0102 0.0000 32.9639
#
#
#
# Elastic Compliance Matrix: (Units=1/GPa)
#
#
# Indices 1 2 3 4 5 6 
#
# 1 0.020956 -0.003405 -0.004138 0.000000 -0.001187 0.000000
# 2 -0.003405 0.015768 -0.003171 0.000000 -0.003347 0.000000
# 3 -0.004138 -0.003171 0.007789 0.000000 0.000378 0.000000
# 4 0.000000 0.000000 0.000000 0.033561 0.000000 -0.008155
# 5 -0.001187 -0.003347 0.000378 0.000000 0.022565 0.000000
# 6 0.000000 0.000000 0.000000 -0.008155 0.000000 0.032318
#
#
# Mechanical properties :
#
#
# Convention : Reuss Voigt Hill
#
# Bulk Modulus (GPa) = 43.31669 57.69574 50.50621
# Shear Modulus (GPa) = 30.84912 35.56117 33.20515
#
# Velocity S-wave (km/s) = 3.76795 4.04550 3.90919
# Velocity P-wave (km/s) = 6.23420 6.95516 6.60453
#
# Compressibility (1/GPa) = 0.02308579
#
# Stress axis : x y z
#
# Youngs Moduli (GPa) = 47.71839 63.42032 128.38561
#
# Poissons Ratio (x) = 0.21593 0.53125
# Poissons Ratio (y) = 0.16247 0.40712
# Poissons Ratio (z) = 0.19745 0.20111
#
# Static dielectric constant tensor:
#      x y z
#    x 3.721570 0.000000 0.026090 
#    y 0.000000 3.943130 0.000000 
#    z 0.026090 0.000000 4.173180 
# 
# 
# High freq. dielectric constant tensor:
#      x y z
#    x 1.857400 0.000000 -0.000570 
#    y 0.000000 1.856250 0.000000 
#    z -0.000570 0.000000 1.867990 
# 
# From -- ./inp_files/91416.got.cif
#   From: 2010.06.25/outbox.cif.g09.slc.cpg/sg13_46_cif.got.tgz:91416.got - 2010.06.28 04:50:58.
