data_PCOD8121023
_publ_section_title
;
Structure prediction by ZEFSAII (Michael W. Deem and Ramdas Pophale) SiO2 
 PCOD8121023
Probable space group: P 2/C
;
_chemical_formula_sum "Si O2"
_cell_formula_units_Z 26
_cell_length_a 9.370173
_cell_length_b 7.967577
_cell_length_c 20.232232
_cell_angle_alpha 90.000000
_cell_angle_beta 127.099438
_cell_angle_gamma 90.000000
_cell_volume 1204.750988
_symmetry_space_group_name_H-M "P 2/C"
_symmetry_group_IT_number 13
_symmetry_cell_setting 'monoclinic'
loop_
_space_group_symop_operation_xyz
x,y,z
-x,y,1/2-z
-x,-y,-z
x,-y,1/2+z
loop_
_atom_site_type_symbol
_atom_site_label
_atom_site_fract_x
_atom_site_fract_y
_atom_site_fract_z
Si Si1 0.000000 0.179508 0.250000
Si Si2 0.227984 0.304214 0.569816
Si Si3 0.636984 0.971542 0.949460
Si Si4 0.000000 0.670848 0.250000
Si Si5 0.500000 0.606703 0.250000
Si Si6 0.257522 0.065742 0.875743
Si Si7 0.831425 0.329251 0.444805
Si Si8 0.820879 0.423586 0.291502
O O1 0.843450 0.277701 0.244180
O O2 0.899696 0.071122 0.166474
O O3 0.359861 0.279146 0.669724
O O4 0.254427 0.496642 0.549780
O O5 0.019944 0.288287 0.533568
O O6 0.270059 0.154824 0.530709
O O7 0.702835 0.832080 0.915463
O O8 0.426065 0.998115 0.880954
O O9 0.682198 0.893164 0.033302
O O10 0.819715 0.772163 0.182778
O O11 0.957362 0.566925 0.304473
O O12 0.615286 0.487155 0.233358
O O13 0.873978 0.362752 0.379476
#
# Coordination Sequence:
#
# PCOD8121023 Si02
#       8
#     2   4   4   2   2   4   4   4
#     4  10  22  42  64  92 132 174 220 266 336 398
#     4  10  22  40  62  98 129 168 214 271 337 384
#     4  11  23  44  63  97 130 173 226 277 320 402
#     4  10  22  44  68  90 140 174 220 276 338 402
#     4  10  22  38  64  98 132 160 224 272 336 390
#     4  10  24  41  64  92 131 178 224 266 334 398
#     4  10  23  41  68  96 132 173 220 270 339 391
#     4  10  22  41  66  98 129 175 218 276 333 401
#
# _framework density 21.581223999999999
#
# number of rings (size 3 to 8) (size 9 to 14) (size 15 to 20)
#    0.000    1.846    0.000    2.308   10.769    0.000 
#    8.308    1.538    0.000    0.000    0.000    0.000 
#    0.000    0.000    0.000    0.000    0.000    0.000 
#
# Total GULP energy -322208.624629 kJ/mol
# GULP energy per Si atom -12392.639409 kJ/mol
# Density = 2.153210 g / cm^3
# Si number density = 21.581224 Si / 1000 Ang^3
#
#
#
# Elastic Constant Matrix: (Units=GPa)
#
#
# Indices 1 2 3 4 5 6 
#
# 1 122.3704 59.6284 37.8603 0.0000 5.1088 0.0000
# 2 59.6284 125.7229 32.6825 0.0000 -0.0687 0.0000
# 3 37.8603 32.6825 107.3071 0.0000 12.1363 0.0000
# 4 0.0000 0.0000 0.0000 15.5310 0.0000 -0.1234
# 5 5.1088 -0.0687 12.1363 0.0000 33.8442 0.0000
# 6 0.0000 0.0000 0.0000 -0.1234 0.0000 40.1461
#
#
#
# Elastic Compliance Matrix: (Units=1/GPa)
#
#
# Indices 1 2 3 4 5 6 
#
# 1 0.011255 -0.004703 -0.002444 0.000000 -0.000832 0.000000
# 2 -0.004703 0.010636 -0.001733 0.000000 0.001353 0.000000
# 3 -0.002444 -0.001733 0.011119 0.000000 -0.003622 0.000000
# 4 0.000000 0.000000 0.000000 0.064389 0.000000 0.000198
# 5 -0.000832 0.001353 -0.003622 0.000000 0.030974 0.000000
# 6 0.000000 0.000000 0.000000 0.000198 0.000000 0.024910
#
#
# Mechanical properties :
#
#
# Convention : Reuss Voigt Hill
#
# Bulk Modulus (GPa) = 65.58008 68.41585 66.99796
# Shear Modulus (GPa) = 28.38886 32.91955 30.65420
#
# Velocity S-wave (km/s) = 3.63084 3.90985 3.77292
# Velocity P-wave (km/s) = 6.93043 7.22170 7.07756
#
# Compressibility (1/GPa) = 0.01524853
#
# Stress axis : x y z
#
# Youngs Moduli (GPa) = 88.85322 94.02251 89.93662
#
# Poissons Ratio (x) = 0.44217 0.21984
# Poissons Ratio (y) = 0.41786 0.15587
# Poissons Ratio (z) = 0.21719 0.16295
#
# Static dielectric constant tensor:
#      x y z
#    x 3.835410 0.000000 0.212740 
#    y 0.000000 3.943650 0.000000 
#    z 0.212740 0.000000 3.710140 
# 
# 
# High freq. dielectric constant tensor:
#      x y z
#    x 1.838500 0.000000 0.017730 
#    y 0.000000 1.848790 0.000000 
#    z 0.017730 0.000000 1.843240 
# 
# From -- ./inp_files/76020.got.cif
#   From: 2010.06.25/outbox.cif.g09.slc.cpg/sg13_39_cif.got.tgz:76020.got - 2010.06.28 04:50:58.
