data_PCOD8121221
_publ_section_title
;
Structure prediction by ZEFSAII (Michael W. Deem and Ramdas Pophale) SiO2 
 PCOD8121221
Probable space group: P 2/C
;
_chemical_formula_sum "Si O2"
_cell_formula_units_Z 20
_cell_length_a 8.364255
_cell_length_b 11.875968
_cell_length_c 8.991034
_cell_angle_alpha 90.000000
_cell_angle_beta 93.970004
_cell_angle_gamma 90.000000
_cell_volume 890.968915
_symmetry_space_group_name_H-M "P 2/C"
_symmetry_group_IT_number 13
_symmetry_cell_setting 'monoclinic'
loop_
_space_group_symop_operation_xyz
x,y,z
-x,y,1/2-z
-x,-y,-z
x,-y,1/2+z
loop_
_atom_site_type_symbol
_atom_site_label
_atom_site_fract_x
_atom_site_fract_y
_atom_site_fract_z
Si Si1 0.843691 0.723688 0.054411
Si Si2 0.350557 0.134605 0.447563
Si Si3 0.615687 0.451105 0.387025
Si Si4 0.294091 0.916080 0.609740
Si Si5 0.799703 0.675550 0.379350
O O1 0.787828 0.738779 0.220900
O O2 0.017318 0.666423 0.054371
O O3 0.719338 0.651932 0.950758
O O4 0.848360 0.847942 0.981265
O O5 0.541229 0.134229 0.445855
O O6 0.274171 0.100726 0.284580
O O7 0.300613 0.258628 0.500631
O O8 0.285959 0.047627 0.568172
O O9 0.500000 0.405402 0.250000
O O10 0.500000 0.500000 0.500000
O O11 0.734169 0.550820 0.344180
#
# Coordination Sequence:
#
# PCOD8121221 Si02
#       5
#     4   4   4   4   4
#     4  11  25  43  66  94 133 170 213 263 322 381
#     4  10  22  40  67  97 130 168 215 264 315 378
#     4  12  25  44  69  94 125 169 218 268 316 379
#     4  10  22  40  66  98 128 169 215 263 315 378
#     4  11  25  44  64  95 133 172 210 264 322 381
#
# _framework density 22.447472999999999
#
# number of rings (size 3 to 8) (size 9 to 14) (size 15 to 20)
#    0.000    1.200    2.000    3.000    5.600    3.200 
#    0.000    0.000    0.000    0.000    0.000    0.000 
#    0.000    0.000    0.000    0.000    0.000    0.000 
#
# Total GULP energy -248068.659227 kJ/mol
# GULP energy per Si atom -12403.432961 kJ/mol
# Density = 2.239638 g / cm^3
# Si number density = 22.447473 Si / 1000 Ang^3
#
#
#
# Elastic Constant Matrix: (Units=GPa)
#
#
# Indices 1 2 3 4 5 6 
#
# 1 77.6548 18.4958 34.1875 0.0000 18.7429 0.0000
# 2 18.4958 78.3606 24.1863 0.0000 10.9398 0.0000
# 3 34.1875 24.1863 125.7567 0.0000 16.7258 0.0000
# 4 0.0000 0.0000 0.0000 42.3126 0.0000 1.7501
# 5 18.7429 10.9398 16.7258 0.0000 40.7964 0.0000
# 6 0.0000 0.0000 0.0000 1.7501 0.0000 16.2280
#
#
#
# Elastic Compliance Matrix: (Units=1/GPa)
#
#
# Indices 1 2 3 4 5 6 
#
# 1 0.016131 -0.002029 -0.003259 0.000000 -0.005530 0.000000
# 2 -0.002029 0.014113 -0.001886 0.000000 -0.002079 0.000000
# 3 -0.003259 -0.001886 0.009450 0.000000 -0.001871 0.000000
# 4 0.000000 0.000000 0.000000 0.023740 0.000000 -0.002560
# 5 -0.005530 -0.002079 -0.001871 0.000000 0.028377 0.000000
# 6 0.000000 0.000000 0.000000 -0.002560 0.000000 0.061898
#
#
# Mechanical properties :
#
#
# Convention : Reuss Voigt Hill
#
# Bulk Modulus (GPa) = 39.45785 48.39015 43.92400
# Shear Modulus (GPa) = 28.32783 33.52757 30.92770
#
# Velocity S-wave (km/s) = 3.55626 3.86891 3.71587
# Velocity P-wave (km/s) = 5.87186 6.44684 6.16605
#
# Compressibility (1/GPa) = 0.02534350
#
# Stress axis : x y z
#
# Youngs Moduli (GPa) = 61.99404 70.85725 105.82550
#
# Poissons Ratio (x) = 0.14379 0.34492
# Poissons Ratio (y) = 0.12580 0.19960
# Poissons Ratio (z) = 0.20206 0.13364
#
# Static dielectric constant tensor:
#      x y z
#    x 4.067490 0.000000 0.139610 
#    y 0.000000 3.999010 0.000000 
#    z 0.139610 0.000000 4.095450 
# 
# 
# High freq. dielectric constant tensor:
#      x y z
#    x 1.876180 0.000000 0.005140 
#    y 0.000000 1.886950 0.000000 
#    z 0.005140 0.000000 1.897090 
# 
# From -- ./inp_files/11658.got.cif
#   From: 2010.06.25/outbox.cif.g09.slc.cpg/sg13_6_cif.got.tgz:11658.got - 2010.06.28 04:50:58.
