data_PCOD8121270
_publ_section_title
;
Structure prediction by ZEFSAII (Michael W. Deem and Ramdas Pophale) SiO2 
 PCOD8121270
Probable space group: P 2/C
;
_chemical_formula_sum "Si O2"
_cell_formula_units_Z 28
_cell_length_a 8.549681
_cell_length_b 21.958711
_cell_length_c 9.722274
_cell_angle_alpha 90.000000
_cell_angle_beta 125.508136
_cell_angle_gamma 90.000000
_cell_volume 1485.821534
_symmetry_space_group_name_H-M "P 2/C"
_symmetry_group_IT_number 13
_symmetry_cell_setting 'monoclinic'
loop_
_space_group_symop_operation_xyz
x,y,z
-x,y,1/2-z
-x,-y,-z
x,-y,1/2+z
loop_
_atom_site_type_symbol
_atom_site_label
_atom_site_fract_x
_atom_site_fract_y
_atom_site_fract_z
Si Si1 0.500000 0.149131 0.750000
Si Si2 0.225292 0.051023 0.714455
Si Si3 0.481401 0.756120 0.007362
Si Si4 0.498784 0.441550 0.905366
Si Si5 0.500000 0.166590 0.250000
Si Si6 0.186715 0.655827 0.935116
Si Si7 0.226369 0.939152 0.527956
Si Si8 0.193068 0.662107 0.259500
O O1 0.316013 0.108570 0.687223
O O2 0.549495 0.189829 0.903732
O O3 0.001510 0.064475 0.586891
O O4 0.294175 0.990598 0.669824
O O5 0.294231 0.044580 0.907822
O O6 0.683813 0.721280 0.133113
O O7 0.460043 0.786694 0.850231
O O8 0.304722 0.711544 0.935774
O O9 0.500000 0.464649 0.750000
O O10 0.316074 0.399055 0.847301
O O11 0.500000 0.500000 0.000000
O O12 0.694439 0.405294 0.028552
O O13 0.684743 0.124748 0.377438
O O14 0.000000 0.648007 0.750000
O O15 0.139680 0.667212 0.071473
O O16 0.000000 0.659196 0.250000
#
# Coordination Sequence:
#
# PCOD8121270 Si02
#       8
#     2   4   4   4   2   4   4   4
#     4  12  21  40  64  82 111 162 188 240 298 352
#     4  10  23  40  62  82 115 150 189 239 302 352
#     4  11  24  41  58  86 121 154 199 243 296 347
#     4   9  20  40  62  90 125 160 201 248 292 343
#     4  12  25  38  62  90 115 148 204 246 286 360
#     4  10  22  41  62  88 123 160 200 244 295 349
#     4  10  23  42  58  86 114 148 191 242 294 359
#     4  10  22  41  63  86 123 164 197 242 299 347
#
# _framework density 18.844794
#
# number of rings (size 3 to 8) (size 9 to 14) (size 15 to 20)
#    0.000    1.714    2.857    1.286    4.000    5.143 
#    2.571    2.857    0.000    0.000    0.000    0.000 
#    0.000    0.000    0.000    0.000    0.000    0.000 
#
# Total GULP energy -347212.959142 kJ/mol
# GULP energy per Si atom -12400.462827 kJ/mol
# Density = 1.880190 g / cm^3
# Si number density = 18.844794 Si / 1000 Ang^3
#
#
#
# Elastic Constant Matrix: (Units=GPa)
#
#
# Indices 1 2 3 4 5 6 
#
# 1 132.9609 77.3646 84.3462 0.0000 -18.1008 0.0000
# 2 77.3646 139.3157 76.1722 0.0000 -21.6604 0.0000
# 3 84.3462 76.1722 144.2746 0.0000 -18.1517 0.0000
# 4 0.0000 0.0000 0.0000 39.1853 0.0000 -14.6766
# 5 -18.1008 -21.6604 -18.1517 0.0000 34.4042 0.0000
# 6 0.0000 0.0000 0.0000 -14.6766 0.0000 28.8850
#
#
#
# Elastic Compliance Matrix: (Units=1/GPa)
#
#
# Indices 1 2 3 4 5 6 
#
# 1 0.013817 -0.004386 -0.005564 0.000000 0.001572 0.000000
# 2 -0.004386 0.011968 -0.003317 0.000000 0.003477 0.000000
# 3 -0.005564 -0.003317 0.012108 0.000000 0.001373 0.000000
# 4 0.000000 0.000000 0.000000 0.031518 0.000000 0.016014
# 5 0.001572 0.003477 0.001373 0.000000 0.032807 0.000000
# 6 0.000000 0.000000 0.000000 0.016014 0.000000 0.042757
#
#
# Mechanical properties :
#
#
# Convention : Reuss Voigt Hill
#
# Bulk Modulus (GPa) = 88.04026 99.14637 93.59331
# Shear Modulus (GPa) = 28.52342 32.40610 30.46476
#
# Velocity S-wave (km/s) = 3.89472 4.15134 4.02508
# Velocity P-wave (km/s) = 8.18811 8.70083 8.44836
#
# Compressibility (1/GPa) = 0.01135844
#
# Stress axis : x y z
#
# Youngs Moduli (GPa) = 72.37547 83.55767 82.58962
#
# Poissons Ratio (x) = 0.36649 0.45954
# Poissons Ratio (y) = 0.31744 0.27394
# Poissons Ratio (z) = 0.40271 0.27716
#
# Static dielectric constant tensor:
#      x y z
#    x 3.309900 0.000000 0.289240 
#    y 0.000000 3.750010 0.000000 
#    z 0.289240 0.000000 2.816650 
# 
# 
# High freq. dielectric constant tensor:
#      x y z
#    x 1.741340 0.000000 -0.006990 
#    y 0.000000 1.739250 0.000000 
#    z -0.006990 0.000000 1.742100 
# 
# From -- ./inp_files/13702.got.cif
#   From: 2010.06.25/outbox.cif.g09.slc.cpg/sg13_7_cif.got.tgz:13702.got - 2010.06.28 04:50:58.
