data_PCOD8121114
_publ_section_title
;
Structure prediction by ZEFSAII (Michael W. Deem and Ramdas Pophale) SiO2 
 PCOD8121114
Probable space group: P 2/C
;
_chemical_formula_sum "Si O2"
_cell_formula_units_Z 18
_cell_length_a 12.815815
_cell_length_b 10.443533
_cell_length_c 13.221326
_cell_angle_alpha 90.000000
_cell_angle_beta 150.257541
_cell_angle_gamma 90.000000
_cell_volume 877.889525
_symmetry_space_group_name_H-M "P 2/C"
_symmetry_group_IT_number 13
_symmetry_cell_setting 'monoclinic'
loop_
_space_group_symop_operation_xyz
x,y,z
-x,y,1/2-z
-x,-y,-z
x,-y,1/2+z
loop_
_atom_site_type_symbol
_atom_site_label
_atom_site_fract_x
_atom_site_fract_y
_atom_site_fract_z
Si Si1 0.500000 0.061513 0.750000
Si Si2 0.818940 0.909967 0.890024
Si Si3 0.433437 0.787501 0.995677
Si Si4 0.887292 0.685122 0.352461
Si Si5 0.090965 0.418348 0.218379
O O1 0.591115 0.149971 0.915203
O O2 0.694540 0.974621 0.877222
O O3 0.657074 0.884876 0.663041
O O4 0.920280 0.777972 0.016201
O O5 0.000000 0.000000 0.000000
O O6 0.675449 0.766309 0.172638
O O7 0.313098 0.652255 0.891150
O O8 0.872889 0.570284 0.260009
O O9 0.921481 0.628910 0.493583
O O10 0.000000 0.382757 0.250000
#
# Coordination Sequence:
#
# PCOD8121114 Si02
#       5
#     2   4   4   4   4
#     4  12  24  40  68  98 124 182 214 254 330 388
#     4  11  25  43  61  95 132 165 215 267 316 384
#     4  11  23  42  65  92 129 168 219 264 317 383
#     4  10  22  43  62  91 133 162 210 273 315 375
#     4  10  22  39  65  94 121 170 213 261 325 378
#
# _framework density 20.503717999999999
#
# number of rings (size 3 to 8) (size 9 to 14) (size 15 to 20)
#    0.000    1.333    2.222    2.667    3.111    1.778 
#    0.000    0.000    0.000    0.000    0.000    0.000 
#    0.000    0.000    0.000    0.000    0.000    0.000 
#
# Total GULP energy -223312.233273 kJ/mol
# GULP energy per Si atom -12406.235182 kJ/mol
# Density = 2.045705 g / cm^3
# Si number density = 20.503718 Si / 1000 Ang^3
#
#
#
# Elastic Constant Matrix: (Units=GPa)
#
#
# Indices 1 2 3 4 5 6 
#
# 1 69.5471 29.5574 34.7682 0.0000 22.7951 0.0000
# 2 29.5574 117.1709 48.2573 0.0000 7.5569 0.0000
# 3 34.7682 48.2573 120.7958 0.0000 10.4806 0.0000
# 4 0.0000 0.0000 0.0000 41.2931 0.0000 3.5729
# 5 22.7951 7.5569 10.4806 0.0000 26.5374 0.0000
# 6 0.0000 0.0000 0.0000 3.5729 0.0000 36.4505
#
#
#
# Elastic Compliance Matrix: (Units=1/GPa)
#
#
# Indices 1 2 3 4 5 6 
#
# 1 0.023516 -0.003153 -0.003970 0.000000 -0.017734 0.000000
# 2 -0.003153 0.010685 -0.003450 0.000000 0.001029 0.000000
# 3 -0.003970 -0.003450 0.010788 0.000000 0.000132 0.000000
# 4 0.000000 0.000000 0.000000 0.024424 0.000000 -0.002394
# 5 -0.017734 0.001029 0.000132 0.000000 0.052571 0.000000
# 6 0.000000 0.000000 0.000000 -0.002394 0.000000 0.027669
#
#
# Mechanical properties :
#
#
# Convention : Reuss Voigt Hill
#
# Bulk Modulus (GPa) = 41.94338 59.18661 50.56499
# Shear Modulus (GPa) = 27.97245 33.85161 30.91203
#
# Velocity S-wave (km/s) = 3.69760 4.06766 3.88703
# Velocity P-wave (km/s) = 6.22339 7.14073 6.69778
#
# Compressibility (1/GPa) = 0.02384167
#
# Stress axis : x y z
#
# Youngs Moduli (GPa) = 42.52372 93.59290 92.69579
#
# Poissons Ratio (x) = 0.29513 0.36802
# Poissons Ratio (y) = 0.13409 0.31981
# Poissons Ratio (z) = 0.16883 0.32290
#
# Static dielectric constant tensor:
#      x y z
#    x 3.267090 0.000000 -0.105380 
#    y 0.000000 3.984700 0.000000 
#    z -0.105380 0.000000 3.803630 
# 
# 
# High freq. dielectric constant tensor:
#      x y z
#    x 1.788670 0.000000 0.002680 
#    y 0.000000 1.820420 0.000000 
#    z 0.002680 0.000000 1.812430 
# 
# From -- ./inp_files/25702.got.cif
#   From: 2010.06.25/outbox.cif.g09.slc.cpg/sg13_13_cif.got.tgz:25702.got - 2010.06.28 04:50:58.
