data_PCOD8121938
_publ_section_title
;
Structure prediction by ZEFSAII (Michael W. Deem and Ramdas Pophale) SiO2 
 PCOD8121938
Probable space group: P 2/C
;
_chemical_formula_sum "Si O2"
_cell_formula_units_Z 24
_cell_length_a 12.263845
_cell_length_b 9.928968
_cell_length_c 18.111476
_cell_angle_alpha 90.000000
_cell_angle_beta 152.684102
_cell_angle_gamma 90.000000
_cell_volume 1012.043032
_symmetry_space_group_name_H-M "P 2/C"
_symmetry_group_IT_number 13
_symmetry_cell_setting 'monoclinic'
loop_
_space_group_symop_operation_xyz
x,y,z
-x,y,1/2-z
-x,-y,-z
x,-y,1/2+z
loop_
_atom_site_type_symbol
_atom_site_label
_atom_site_fract_x
_atom_site_fract_y
_atom_site_fract_z
Si Si1 0.623038 0.495569 0.747043
Si Si2 0.031281 0.287702 0.992899
Si Si3 0.396276 0.862380 0.906567
Si Si4 0.656273 0.133753 0.414859
Si Si5 0.111808 0.142388 0.456260
Si Si6 0.256939 0.638627 0.934923
O O1 0.500000 0.459313 0.750000
O O2 0.752045 0.640490 0.830975
O O3 0.426377 0.486774 0.562201
O O4 0.824665 0.389075 0.847721
O O5 0.109877 0.223628 0.961568
O O6 0.934815 0.165392 0.985080
O O7 0.538086 0.816418 0.919095
O O8 0.397662 0.734989 0.962622
O O9 0.126190 0.901232 0.728041
O O10 0.500000 0.000000 0.000000
O O11 0.500000 0.166794 0.250000
O O12 0.700513 0.974891 0.444775
O O13 0.215620 0.279300 0.485363
O O14 0.000000 0.587299 0.750000
#
# Coordination Sequence:
#
# PCOD8121938 Si02
#       6
#     4   4   4   4   4   4
#     4  11  24  45  78  98 140 189 242 295 350 418
#     4  11  25  43  70 109 136 179 248 298 342 414
#     4  11  24  42  64 102 149 186 226 291 362 432
#     4  12  25  40  71 103 146 182 233 296 356 424
#     4  11  23  41  67 105 140 180 234 291 354 430
#     4  10  23  45  71 103 145 191 237 289 363 434
#
# _framework density 23.714407000000001
#
# number of rings (size 3 to 8) (size 9 to 14) (size 15 to 20)
#    0.000    1.000    5.000    1.000    4.667    0.000 
#    0.000    3.333    0.000    0.000    0.000    0.000 
#    0.000    0.000    0.000    0.000    0.000    0.000 
#
# Total GULP energy -297549.365184 kJ/mol
# GULP energy per Si atom -12397.890216 kJ/mol
# Density = 2.366043 g / cm^3
# Si number density = 23.714407 Si / 1000 Ang^3
#
#
#
# Elastic Constant Matrix: (Units=GPa)
#
#
# Indices 1 2 3 4 5 6 
#
# 1 143.9673 4.8288 23.0451 0.0000 3.4764 0.0000
# 2 4.8288 53.0578 25.7819 0.0000 3.6420 0.0000
# 3 23.0451 25.7819 89.4959 0.0000 -1.7850 0.0000
# 4 0.0000 0.0000 0.0000 36.3803 0.0000 4.5553
# 5 3.4764 3.6420 -1.7850 0.0000 29.2720 0.0000
# 6 0.0000 0.0000 0.0000 4.5553 0.0000 21.6341
#
#
#
# Elastic Compliance Matrix: (Units=1/GPa)
#
#
# Indices 1 2 3 4 5 6 
#
# 1 0.007279 0.000383 -0.002005 0.000000 -0.001034 0.000000
# 2 0.000383 0.022223 -0.006565 0.000000 -0.003211 0.000000
# 3 -0.002005 -0.006565 0.013619 0.000000 0.001885 0.000000
# 4 0.000000 0.000000 0.000000 0.028232 0.000000 -0.005944
# 5 -0.001034 -0.003211 0.001885 0.000000 0.034800 0.000000
# 6 0.000000 0.000000 0.000000 -0.005944 0.000000 0.047475
#
#
# Mechanical properties :
#
#
# Convention : Reuss Voigt Hill
#
# Bulk Modulus (GPa) = 37.38760 43.75917 40.57338
# Shear Modulus (GPa) = 27.94600 32.98164 30.46382
#
# Velocity S-wave (km/s) = 3.43657 3.73337 3.58804
# Velocity P-wave (km/s) = 5.61664 6.08906 5.85762
#
# Compressibility (1/GPa) = 0.02674683
#
# Stress axis : x y z
#
# Youngs Moduli (GPa) = 137.37870 44.99891 73.42796
#
# Poissons Ratio (x) = -0.01723 0.14725
# Poissons Ratio (y) = -0.05261 0.48202
# Poissons Ratio (z) = 0.27549 0.29540
#
# Static dielectric constant tensor:
#      x y z
#    x 4.751660 0.000000 0.360590 
#    y 0.000000 4.033980 0.000000 
#    z 0.360590 0.000000 4.433540 
# 
# 
# High freq. dielectric constant tensor:
#      x y z
#    x 1.951040 0.000000 0.015770 
#    y 0.000000 1.932480 0.000000 
#    z 0.015770 0.000000 1.932090 
# 
# From -- ./inp_files/66710.got.cif
#   From: 2010.06.25/outbox.cif.g09.slc.cpg/sg13_34_cif.got.tgz:66710.got - 2010.06.28 04:50:58.
