data_PCOD8121609
_publ_section_title
;
Structure prediction by ZEFSAII (Michael W. Deem and Ramdas Pophale) SiO2 
 PCOD8121609
Probable space group: P 2/C
;
_chemical_formula_sum "Si O2"
_cell_formula_units_Z 20
_cell_length_a 18.030948
_cell_length_b 8.204284
_cell_length_c 12.040353
_cell_angle_alpha 90.000000
_cell_angle_beta 150.401654
_cell_angle_gamma 90.000000
_cell_volume 879.735738
_symmetry_space_group_name_H-M "P 2/C"
_symmetry_group_IT_number 13
_symmetry_cell_setting 'monoclinic'
loop_
_space_group_symop_operation_xyz
x,y,z
-x,y,1/2-z
-x,-y,-z
x,-y,1/2+z
loop_
_atom_site_type_symbol
_atom_site_label
_atom_site_fract_x
_atom_site_fract_y
_atom_site_fract_z
Si Si1 0.437446 0.183488 0.435885
Si Si2 0.148863 0.299675 0.663650
Si Si3 0.812021 0.337165 0.246093
Si Si4 0.256084 0.774409 0.074305
Si Si5 0.342725 0.893294 0.590252
O O1 0.300933 0.205844 0.345513
O O2 0.580044 0.284013 0.666593
O O3 0.376839 0.236690 0.234792
O O4 0.500000 0.000000 0.500000
O O5 0.216721 0.481585 0.746690
O O6 0.141204 0.234079 0.527545
O O7 0.982564 0.288484 0.498333
O O8 0.255817 0.189335 0.877111
O O9 0.790588 0.345825 0.085351
O O10 0.248031 0.957525 0.016302
O O11 0.500000 0.965357 0.750000
#
# Coordination Sequence:
#
# PCOD8121609 Si02
#       5
#     4   4   4   4   4
#     4  10  22  44  71  99 134 183 229 293 349 410
#     4  11  27  46  67 105 142 187 235 285 361 419
#     4  11  26  46  69  99 148 182 232 297 351 421
#     4  11  23  45  72  97 138 184 233 290 347 421
#     4  11  23  44  72 102 140 177 234 290 346 418
#
# _framework density 22.734100000000002
#
# number of rings (size 3 to 8) (size 9 to 14) (size 15 to 20)
#    0.000    1.200    2.000    3.600    5.600    4.000 
#    7.200    0.000    0.000    0.000    0.000    0.000 
#    0.000    0.000    0.000    0.000    0.000    0.000 
#
# Total GULP energy -247976.299866 kJ/mol
# GULP energy per Si atom -12398.814993 kJ/mol
# Density = 2.268236 g / cm^3
# Si number density = 22.734100 Si / 1000 Ang^3
#
#
#
# Elastic Constant Matrix: (Units=GPa)
#
#
# Indices 1 2 3 4 5 6 
#
# 1 129.2180 57.1094 28.3308 0.0000 -10.2894 0.0000
# 2 57.1094 96.7493 40.5764 0.0000 8.1229 0.0000
# 3 28.3308 40.5764 71.2056 0.0000 -8.6545 0.0000
# 4 0.0000 0.0000 0.0000 29.4299 0.0000 1.3581
# 5 -10.2894 8.1229 -8.6545 0.0000 51.0533 0.0000
# 6 0.0000 0.0000 0.0000 1.3581 0.0000 30.8076
#
#
#
# Elastic Compliance Matrix: (Units=1/GPa)
#
#
# Indices 1 2 3 4 5 6 
#
# 1 0.010992 -0.006692 -0.000164 0.000000 0.003252 0.000000
# 2 -0.006692 0.018316 -0.008467 0.000000 -0.005698 0.000000
# 3 -0.000164 -0.008467 0.019496 0.000000 0.004619 0.000000
# 4 0.000000 0.000000 0.000000 0.034048 0.000000 -0.001501
# 5 0.003252 -0.005698 0.004619 0.000000 0.021932 0.000000
# 6 0.000000 0.000000 0.000000 -0.001501 0.000000 0.032526
#
#
# Mechanical properties :
#
#
# Convention : Reuss Voigt Hill
#
# Bulk Modulus (GPa) = 55.07994 61.02289 58.05142
# Shear Modulus (GPa) = 28.73413 33.66858 31.20136
#
# Velocity S-wave (km/s) = 3.55903 3.85252 3.70867
# Velocity P-wave (km/s) = 6.41634 6.83297 6.62793
#
# Compressibility (1/GPa) = 0.01815543
#
# Stress axis : x y z
#
# Youngs Moduli (GPa) = 90.97870 54.59753 51.29339
#
# Poissons Ratio (x) = 0.36538 0.00843
# Poissons Ratio (y) = 0.60885 0.43431
# Poissons Ratio (z) = 0.01496 0.46229
#
# Static dielectric constant tensor:
#      x y z
#    x 4.345240 0.000000 -0.376290 
#    y 0.000000 3.692370 0.000000 
#    z -0.376290 0.000000 4.536030 
# 
# 
# High freq. dielectric constant tensor:
#      x y z
#    x 1.910960 0.000000 -0.013710 
#    y 0.000000 1.864910 0.000000 
#    z -0.013710 0.000000 1.912370 
# 
# From -- ./inp_files/38743.got.cif
#   From: 2010.06.25/outbox.cif.g09.slc.cpg/sg13_20_cif.got.tgz:38743.got - 2010.06.28 04:50:58.
