data_PCOD8121558
_publ_section_title
;
Structure prediction by ZEFSAII (Michael W. Deem and Ramdas Pophale) SiO2 
 PCOD8121558
Probable space group: P 2/C
;
_chemical_formula_sum "Si O2"
_cell_formula_units_Z 24
_cell_length_a 13.554776
_cell_length_b 8.875525
_cell_length_c 9.929602
_cell_angle_alpha 90.000000
_cell_angle_beta 98.590417
_cell_angle_gamma 90.000000
_cell_volume 1181.186614
_symmetry_space_group_name_H-M "P 2/C"
_symmetry_group_IT_number 13
_symmetry_cell_setting 'monoclinic'
loop_
_space_group_symop_operation_xyz
x,y,z
-x,y,1/2-z
-x,-y,-z
x,-y,1/2+z
loop_
_atom_site_type_symbol
_atom_site_label
_atom_site_fract_x
_atom_site_fract_y
_atom_site_fract_z
Si Si1 0.300248 0.537199 0.245593
Si Si2 0.397888 0.906244 0.656802
Si Si3 0.932005 0.007611 0.357478
Si Si4 0.411034 0.398253 0.033074
Si Si5 0.212502 0.762788 0.768153
Si Si6 0.249999 0.835156 0.077174
O O1 0.387411 0.455410 0.178843
O O2 0.325612 0.580953 0.403955
O O3 0.210187 0.416595 0.239649
O O4 0.276287 0.681798 0.154546
O O5 0.500000 0.957338 0.750000
O O6 0.429763 0.782320 0.549318
O O7 0.316913 0.832637 0.739392
O O8 0.346506 0.055142 0.582405
O O9 0.835704 0.902889 0.346814
O O10 0.000000 0.950264 0.250000
O O11 0.886805 0.174728 0.324945
O O12 0.000000 0.000000 0.500000
O O13 0.500000 0.500000 0.000000
O O14 0.204029 0.801808 0.922976
#
# Coordination Sequence:
#
# PCOD8121558 Si02
#       6
#     4   4   4   4   4   4
#     4  11  23  41  63  91 131 176 220 272 336 392
#     4  10  24  39  63  95 135 176 227 277 319 391
#     4  11  23  43  74 100 130 167 214 274 339 401
#     4  11  22  39  62  91 131 181 229 273 325 385
#     4  10  22  44  64  95 135 171 218 275 330 394
#     4  11  24  42  67  97 132 177 221 273 341 395
#
# _framework density 20.318552
#
# number of rings (size 3 to 8) (size 9 to 14) (size 15 to 20)
#    0.000    1.333    3.333    2.500    4.667    3.333 
#    0.000    1.667    0.000    0.000    0.000    0.000 
#    0.000    0.000    0.000    0.000    0.000    0.000 
#
# Total GULP energy -297435.745108 kJ/mol
# GULP energy per Si atom -12393.156046 kJ/mol
# Density = 2.027231 g / cm^3
# Si number density = 20.318552 Si / 1000 Ang^3
#
#
#
# Elastic Constant Matrix: (Units=GPa)
#
#
# Indices 1 2 3 4 5 6 
#
# 1 96.7973 47.2743 33.0793 0.0000 7.9089 0.0000
# 2 47.2743 155.3989 46.2698 0.0000 13.8263 0.0000
# 3 33.0793 46.2698 105.7547 0.0000 6.6467 0.0000
# 4 0.0000 0.0000 0.0000 33.5005 0.0000 -5.6646
# 5 7.9089 13.8263 6.6467 0.0000 38.2218 0.0000
# 6 0.0000 0.0000 0.0000 -5.6646 0.0000 22.5257
#
#
#
# Elastic Compliance Matrix: (Units=1/GPa)
#
#
# Indices 1 2 3 4 5 6 
#
# 1 0.012785 -0.003014 -0.002611 0.000000 -0.001101 0.000000
# 2 -0.003014 0.008286 -0.002561 0.000000 -0.001928 0.000000
# 3 -0.002611 -0.002561 0.011426 0.000000 -0.000520 0.000000
# 4 0.000000 0.000000 0.000000 0.031176 0.000000 0.007840
# 5 -0.001101 -0.001928 -0.000520 0.000000 0.027179 0.000000
# 6 0.000000 0.000000 0.000000 0.007840 0.000000 0.046365
#
#
# Mechanical properties :
#
#
# Convention : Reuss Voigt Hill
#
# Bulk Modulus (GPa) = 62.01900 67.91088 64.96494
# Shear Modulus (GPa) = 31.45336 34.27141 32.86239
#
# Velocity S-wave (km/s) = 3.93875 4.11141 4.02600
# Velocity P-wave (km/s) = 7.16063 7.48558 7.32490
#
# Compressibility (1/GPa) = 0.01612409
#
# Stress axis : x y z
#
# Youngs Moduli (GPa) = 78.21571 120.68315 87.51982
#
# Poissons Ratio (x) = 0.36373 0.22854
# Poissons Ratio (y) = 0.23574 0.22418
# Poissons Ratio (z) = 0.20424 0.30912
#
# Static dielectric constant tensor:
#      x y z
#    x 3.710830 0.000000 -0.345420 
#    y 0.000000 4.278890 0.000000 
#    z -0.345420 0.000000 5.658370 
# 
# 
# High freq. dielectric constant tensor:
#      x y z
#    x 1.778790 0.000000 -0.005420 
#    y 0.000000 1.801050 0.000000 
#    z -0.005420 0.000000 1.803650 
# 
# From -- ./inp_files/18181.got.cif
#   From: 2010.06.25/outbox.cif.g09.slc.cpg/sg13_10_cif.got.tgz:18181.got - 2010.06.28 04:50:58.
