data_PCOD8121754
_publ_section_title
;
Structure prediction by ZEFSAII (Michael W. Deem and Ramdas Pophale) SiO2 
 PCOD8121754
Probable space group: P 2/C
;
_chemical_formula_sum "Si O2"
_cell_formula_units_Z 28
_cell_length_a 15.624721
_cell_length_b 12.824021
_cell_length_c 9.485392
_cell_angle_alpha 90.000000
_cell_angle_beta 51.563296
_cell_angle_gamma 90.000000
_cell_volume 1488.734811
_symmetry_space_group_name_H-M "P 2/C"
_symmetry_group_IT_number 13
_symmetry_cell_setting 'monoclinic'
loop_
_space_group_symop_operation_xyz
x,y,z
-x,y,1/2-z
-x,-y,-z
x,-y,1/2+z
loop_
_atom_site_type_symbol
_atom_site_label
_atom_site_fract_x
_atom_site_fract_y
_atom_site_fract_z
Si Si1 0.302410 0.752938 0.724786
Si Si2 0.369506 0.884933 0.901275
Si Si3 0.126652 0.601743 0.457598
Si Si4 0.627041 0.122437 0.600870
Si Si5 0.127675 0.605082 0.784395
Si Si6 0.498331 0.393099 0.083235
Si Si7 0.692201 0.246602 0.789392
O O1 0.296191 0.806627 0.883514
O O2 0.341062 0.849627 0.590021
O O3 0.188106 0.704896 0.789991
O O4 0.389391 0.660920 0.639524
O O5 0.500000 0.862152 0.750000
O O6 0.339381 0.003917 0.898934
O O7 0.327207 0.858256 0.100628
O O8 0.160370 0.587516 0.587317
O O9 0.158885 0.496861 0.341945
O O10 0.190664 0.697217 0.318440
O O11 0.000098 0.629020 0.570972
O O12 0.500000 0.135768 0.750000
O O13 0.686385 0.207798 0.635464
O O14 0.500000 0.408489 0.250000
O O15 0.500000 0.500000 0.000000
O O16 0.602046 0.329188 0.926381
#
# Coordination Sequence:
#
# PCOD8121754 Si02
#       7
#     4   4   4   4   4   4   4
#     4  12  21  39  60  87 120 155 194 244 297 347
#     4  11  22  40  59  88 125 157 198 246 286 354
#     4  10  23  41  62  88 117 155 200 244 293 354
#     4  11  22  36  63  90 117 157 202 240 296 356
#     4  10  23  41  62  88 117 155 200 244 293 354
#     4  12  26  38  55  87 126 158 189 239 297 360
#     4  12  21  39  60  87 120 155 194 244 297 347
#
# _framework density 18.807918000000001
#
# number of rings (size 3 to 8) (size 9 to 14) (size 15 to 20)
#    0.000    0.857    5.714    1.714    4.000    4.571 
#    0.000    0.000    0.000    5.143    0.000    0.000 
#    0.000    0.000    0.000    0.000    0.000    0.000 
#
# Total GULP energy -347199.187084 kJ/mol
# GULP energy per Si atom -12399.970967 kJ/mol
# Density = 1.876511 g / cm^3
# Si number density = 18.807918 Si / 1000 Ang^3
#
#
#
# Elastic Constant Matrix: (Units=GPa)
#
#
# Indices 1 2 3 4 5 6 
#
# 1 85.7350 52.3024 26.5688 0.0000 5.4423 0.0000
# 2 52.3024 116.1904 36.2429 0.0000 -1.7142 0.0000
# 3 26.5688 36.2429 71.9249 0.0000 3.7738 0.0000
# 4 0.0000 0.0000 0.0000 70.7426 0.0000 9.0760
# 5 5.4423 -1.7142 3.7738 0.0000 26.4878 0.0000
# 6 0.0000 0.0000 0.0000 9.0760 0.0000 31.8113
#
#
#
# Elastic Compliance Matrix: (Units=1/GPa)
#
#
# Indices 1 2 3 4 5 6 
#
# 1 0.016862 -0.006831 -0.002601 0.000000 -0.003536 0.000000
# 2 -0.006831 0.013031 -0.004192 0.000000 0.002844 0.000000
# 3 -0.002601 -0.004192 0.017091 0.000000 -0.002172 0.000000
# 4 0.000000 0.000000 0.000000 0.014673 0.000000 -0.004186
# 5 -0.003536 0.002844 -0.002172 0.000000 0.038973 0.000000
# 6 0.000000 0.000000 0.000000 -0.004186 0.000000 0.032630
#
#
# Mechanical properties :
#
#
# Convention : Reuss Voigt Hill
#
# Bulk Modulus (GPa) = 50.67165 56.00871 53.34018
# Shear Modulus (GPa) = 29.92478 36.39077 33.15778
#
# Velocity S-wave (km/s) = 3.99315 4.40348 4.20333
# Velocity P-wave (km/s) = 6.94698 7.46312 7.20967
#
# Compressibility (1/GPa) = 0.01973490
#
# Stress axis : x y z
#
# Youngs Moduli (GPa) = 59.30663 76.73944 58.51174
#
# Poissons Ratio (x) = 0.52420 0.15219
# Poissons Ratio (y) = 0.40512 0.24530
# Poissons Ratio (z) = 0.15425 0.32171
#
# Static dielectric constant tensor:
#      x y z
#    x 3.328530 0.000000 0.161290 
#    y 0.000000 3.419460 0.000000 
#    z 0.161290 0.000000 3.776550 
# 
# 
# High freq. dielectric constant tensor:
#      x y z
#    x 1.721650 0.000000 0.019200 
#    y 0.000000 1.737820 0.000000 
#    z 0.019200 0.000000 1.736260 
# 
# From -- ./inp_files/18941.got.cif
#   From: 2010.06.25/outbox.cif.g09.slc.cpg/sg13_10_cif.got.tgz:18941.got - 2010.06.28 04:50:58.
