data_PCOD8121723
_publ_section_title
;
Structure prediction by ZEFSAII (Michael W. Deem and Ramdas Pophale) SiO2 
 PCOD8121723
Probable space group: P 2/C
;
_chemical_formula_sum "Si O2"
_cell_formula_units_Z 14
_cell_length_a 7.461926
_cell_length_b 17.723785
_cell_length_c 5.182344
_cell_angle_alpha 90.000000
_cell_angle_beta 59.727259
_cell_angle_gamma 90.000000
_cell_volume 591.921518
_symmetry_space_group_name_H-M "P 2/C"
_symmetry_group_IT_number 13
_symmetry_cell_setting 'monoclinic'
loop_
_space_group_symop_operation_xyz
x,y,z
-x,y,1/2-z
-x,-y,-z
x,-y,1/2+z
loop_
_atom_site_type_symbol
_atom_site_label
_atom_site_fract_x
_atom_site_fract_y
_atom_site_fract_z
Si Si1 0.000000 0.448742 0.750000
Si Si2 0.268540 0.032132 0.703345
Si Si3 0.624474 0.658542 0.400992
Si Si4 0.860102 0.804795 0.103988
O O1 0.798627 0.397071 0.880267
O O2 0.000000 0.500000 0.500000
O O3 0.275854 0.119457 0.775160
O O4 0.500000 0.000000 0.500000
O O5 0.154689 0.017670 0.510770
O O6 0.500000 0.619684 0.250000
O O7 0.708598 0.733890 0.203164
O O8 0.500000 0.680174 0.750000
O O9 0.000000 0.794874 0.250000
O O10 0.000000 0.806872 0.750000
#
# Coordination Sequence:
#
# PCOD8121723 Si02
#       4
#     2   4   4   4
#     4  12  28  52  82 116 162 192 244 320 374 452
#     4  10  23  40  63  96 138 185 247 299 378 420
#     4  12  28  48  81 116 153 203 255 303 384 459
#     4  12  26  45  74 105 149 195 254 316 379 447
#
# _framework density 23.651783999999999
#
# number of rings (size 3 to 8) (size 9 to 14) (size 15 to 20)
#    0.000    0.571    1.429    5.143   10.000    6.857 
#    0.000    0.000    0.000    0.000    0.000    0.000 
#    0.000    0.000    0.000    0.000    0.000    0.000 
#
# Total GULP energy -173596.806966 kJ/mol
# GULP energy per Si atom -12399.771926 kJ/mol
# Density = 2.359795 g / cm^3
# Si number density = 23.651784 Si / 1000 Ang^3
#
#
#
# Elastic Constant Matrix: (Units=GPa)
#
#
# Indices 1 2 3 4 5 6 
#
# 1 122.5280 47.0640 70.1236 0.0000 22.6296 0.0000
# 2 47.0640 164.7773 66.4544 0.0000 -3.3423 0.0000
# 3 70.1236 66.4544 198.8196 0.0000 33.3425 0.0000
# 4 0.0000 0.0000 0.0000 20.9597 0.0000 31.1226
# 5 22.6296 -3.3423 33.3425 0.0000 48.3129 0.0000
# 6 0.0000 0.0000 0.0000 31.1226 0.0000 6.1580
#
#
#
# Elastic Compliance Matrix: (Units=1/GPa)
#
#
# Indices 1 2 3 4 5 6 
#
# 1 0.011159 -0.002214 -0.002594 0.000000 -0.003590 0.000000
# 2 -0.002214 0.007704 -0.002327 0.000000 0.003176 0.000000
# 3 -0.002594 -0.002327 0.007402 0.000000 -0.004055 0.000000
# 4 0.000000 0.000000 0.000000 -0.007335 0.000000 0.037071
# 5 -0.003590 0.003176 -0.004055 0.000000 0.025398 0.000000
# 6 0.000000 0.000000 0.000000 0.037071 0.000000 -0.024965
#
#
# Mechanical properties :
#
#
# Convention : Reuss Voigt Hill
#
# Bulk Modulus (GPa) = 83.35881 94.82322 89.09101
# Shear Modulus (GPa) = 132.86952 35.25165 84.06058
#
# Velocity S-wave (km/s) = 7.50329 3.86481 5.96809
# Velocity P-wave (km/s) = 10.50650 7.75204 9.23257
#
# Compressibility (1/GPa) = 0.01199633
#
# Stress axis : x y z
#
# Youngs Moduli (GPa) = 89.61093 129.80344 135.09603
#
# Poissons Ratio (x) = 0.28740 0.35041
# Poissons Ratio (y) = 0.19841 0.31432
# Poissons Ratio (z) = 0.23243 0.30201
#
# Static dielectric constant tensor:
#      x y z
#    x 4.720580 0.000000 -0.011120 
#    y 0.000000 4.425920 0.000000 
#    z -0.011120 0.000000 4.210820 
# 
# 
# High freq. dielectric constant tensor:
#      x y z
#    x 1.965200 0.000000 0.011750 
#    y 0.000000 1.933060 0.000000 
#    z 0.011750 0.000000 1.970930 
# 
# From -- ./inp_files/1008.got.cif
#   From: 2010.06.25/outbox.cif.g09.slc.cpg/sg13_1_cif.got.tgz:1008.got - 2010.06.28 04:50:58.
