data_PCOD8121244
_publ_section_title
;
Structure prediction by ZEFSAII (Michael W. Deem and Ramdas Pophale) SiO2 
 PCOD8121244
Probable space group: P 2/C
;
_chemical_formula_sum "Si O2"
_cell_formula_units_Z 22
_cell_length_a 10.458951
_cell_length_b 7.609852
_cell_length_c 30.002072
_cell_angle_alpha 90.000000
_cell_angle_beta 24.852391
_cell_angle_gamma 90.000000
_cell_volume 1003.590061
_symmetry_space_group_name_H-M "P 2/C"
_symmetry_group_IT_number 13
_symmetry_cell_setting 'monoclinic'
loop_
_space_group_symop_operation_xyz
x,y,z
-x,y,1/2-z
-x,-y,-z
x,-y,1/2+z
loop_
_atom_site_type_symbol
_atom_site_label
_atom_site_fract_x
_atom_site_fract_y
_atom_site_fract_z
Si Si1 0.157924 0.918694 0.531680
Si Si2 0.808919 0.694201 0.494749
Si Si3 0.625675 0.780563 0.127741
Si Si4 0.771249 0.532894 0.783150
Si Si5 0.500000 0.009085 0.250000
Si Si6 0.217612 0.405431 0.066982
O O1 0.280658 0.905443 0.442707
O O2 0.323899 0.782262 0.512496
O O3 0.198855 0.124187 0.531436
O O4 0.797974 0.870756 0.648932
O O5 0.475204 0.670687 0.621066
O O6 0.901834 0.531023 0.434385
O O7 0.063481 0.695024 0.452466
O O8 0.390997 0.638323 0.184309
O O9 0.457686 0.888110 0.219610
O O10 0.000000 0.475118 0.750000
O O11 0.955109 0.629649 0.685859
O O12 0.500000 0.500000 0.000000
#
# Coordination Sequence:
#
# PCOD8121244 Si02
#       6
#     4   4   4   4   2   4
#     4  11  25  42  71 100 140 175 226 288 337 404
#     4  11  24  46  67 104 135 176 231 286 338 406
#     4  11  23  45  69 103 141 173 227 291 338 406
#     4  12  24  44  70  99 136 184 228 274 348 415
#     4  10  22  40  70 108 130 184 232 276 346 408
#     4  12  26  46  67 100 138 182 230 276 341 410
#
# _framework density 21.921302000000001
#
# number of rings (size 3 to 8) (size 9 to 14) (size 15 to 20)
#    0.000    0.727    3.636    4.909    5.091    0.727 
#    0.000    2.727    0.000    0.000    0.000    0.000 
#    0.000    0.000    0.000    0.000    0.000    0.000 
#
# Total GULP energy -272814.650464 kJ/mol
# GULP energy per Si atom -12400.665930 kJ/mol
# Density = 2.187141 g / cm^3
# Si number density = 21.921302 Si / 1000 Ang^3
#
#
#
# Elastic Constant Matrix: (Units=GPa)
#
#
# Indices 1 2 3 4 5 6 
#
# 1 107.5735 44.8078 42.3970 0.0000 0.7426 0.0000
# 2 44.8078 102.4785 20.0533 -0.0001 6.4587 0.0001
# 3 42.3970 20.0533 122.4238 0.0002 22.4610 -0.0001
# 4 0.0000 -0.0001 0.0002 30.5095 0.0000 1.0620
# 5 0.7426 6.4587 22.4610 0.0000 47.2120 0.0000
# 6 0.0000 0.0001 -0.0001 1.0620 0.0000 34.2761
#
#
#
# Elastic Compliance Matrix: (Units=1/GPa)
#
#
# Indices 1 2 3 4 5 6 
#
# 1 0.013002 -0.005031 -0.004127 0.000000 0.002447 0.000000
# 2 -0.005031 0.012047 0.000062 0.000000 -0.001599 0.000000
# 3 -0.004127 0.000062 0.010493 0.000000 -0.004936 0.000000
# 4 0.000000 0.000000 0.000000 0.032812 0.000000 -0.001017
# 5 0.002447 -0.001599 -0.004936 0.000000 0.023709 0.000000
# 6 0.000000 0.000000 0.000000 -0.001017 0.000000 0.029206
#
#
# Mechanical properties :
#
#
# Convention : Reuss Voigt Hill
#
# Bulk Modulus (GPa) = 57.64219 60.77688 59.20954
# Shear Modulus (GPa) = 34.42470 37.41404 35.91937
#
# Velocity S-wave (km/s) = 3.96710 4.13576 4.05230
# Velocity P-wave (km/s) = 6.88011 7.11275 6.99740
#
# Compressibility (1/GPa) = 0.01734840
#
# Stress axis : x y z
#
# Youngs Moduli (GPa) = 76.91403 83.01101 95.30103
#
# Poissons Ratio (x) = 0.41766 0.39335
# Poissons Ratio (y) = 0.38698 -0.00595
# Poissons Ratio (z) = 0.31746 -0.00518
#
# Static dielectric constant tensor:
#      x y z
#    x 4.074520 0.000000 0.220620 
#    y 0.000000 3.845520 0.000000 
#    z 0.220620 0.000000 4.347450 
# 
# 
# High freq. dielectric constant tensor:
#      x y z
#    x 1.860800 0.000000 0.014330 
#    y 0.000000 1.855260 0.000000 
#    z 0.014330 0.000000 1.879670 
# 
# From -- ./inp_files/91202.got.cif
#   From: 2010.06.25/outbox.cif.g09.slc.cpg/sg13_46_cif.got.tgz:91202.got - 2010.06.28 04:50:58.
