data_PCOD8121766
_publ_section_title
;
Structure prediction by ZEFSAII (Michael W. Deem and Ramdas Pophale) SiO2 
 PCOD8121766
Probable space group: P 2/C
;
_chemical_formula_sum "Si O2"
_cell_formula_units_Z 20
_cell_length_a 21.183758
_cell_length_b 7.137879
_cell_length_c 9.182380
_cell_angle_alpha 90.000000
_cell_angle_beta 137.838591
_cell_angle_gamma 90.000000
_cell_volume 931.951459
_symmetry_space_group_name_H-M "P 2/C"
_symmetry_group_IT_number 13
_symmetry_cell_setting 'monoclinic'
loop_
_space_group_symop_operation_xyz
x,y,z
-x,y,1/2-z
-x,-y,-z
x,-y,1/2+z
loop_
_atom_site_type_symbol
_atom_site_label
_atom_site_fract_x
_atom_site_fract_y
_atom_site_fract_z
Si Si1 0.708901 0.132682 0.350575
Si Si2 0.084890 0.234789 0.467630
Si Si3 0.432414 0.567826 0.008554
Si Si4 0.916724 0.848495 0.200049
Si Si5 0.708267 0.765052 0.174061
O O1 0.629559 0.258124 0.143776
O O2 0.810818 0.224044 0.484292
O O3 0.697822 0.125118 0.504998
O O4 0.694807 0.918432 0.276861
O O5 0.060478 0.169771 0.589708
O O6 0.187551 0.330756 0.636821
O O7 0.086387 0.062960 0.356163
O O8 0.000000 0.362115 0.250000
O O9 0.368026 0.396321 0.949089
O O10 0.500000 0.641060 0.250000
O O11 0.500000 0.500000 0.000000
O O12 0.000000 0.744057 0.250000
#
# Coordination Sequence:
#
# PCOD8121766 Si02
#       5
#     4   4   4   4   4
#     4  10  23  41  64  92 123 160 201 249 301 361
#     4   9  16  30  53  85 121 153 191 238 288 351
#     4  12  26  46  63  87 122 158 204 258 310 359
#     4   9  16  30  53  85 120 154 193 234 289 354
#     4  10  23  41  64  93 122 159 204 246 302 363
#
# _framework density 21.460345
#
# number of rings (size 3 to 8) (size 9 to 14) (size 15 to 20)
#    0.000    2.000    2.000    2.400    2.800    3.200 
#    0.000    1.000    0.000    4.800    0.000    0.000 
#    0.000    0.000    0.000    0.000    0.000    0.000 
#
# Total GULP energy -247766.300620 kJ/mol
# GULP energy per Si atom -12388.315031 kJ/mol
# Density = 2.141150 g / cm^3
# Si number density = 21.460345 Si / 1000 Ang^3
#
#
#
# Elastic Constant Matrix: (Units=GPa)
#
#
# Indices 1 2 3 4 5 6 
#
# 1 89.1079 -1.1643 34.5261 0.0000 12.2895 0.0000
# 2 -1.1643 27.8892 13.2062 0.0000 8.3950 0.0000
# 3 34.5261 13.2062 162.7278 0.0000 13.8868 0.0000
# 4 0.0000 0.0000 0.0000 113.0193 0.0000 34.6755
# 5 12.2895 8.3950 13.8868 0.0000 40.8410 0.0000
# 6 0.0000 0.0000 0.0000 34.6755 0.0000 29.7790
#
#
#
# Elastic Compliance Matrix: (Units=1/GPa)
#
#
# Indices 1 2 3 4 5 6 
#
# 1 0.012769 0.002845 -0.002639 0.000000 -0.003530 0.000000
# 2 0.002845 0.039872 -0.003159 0.000000 -0.007978 0.000000
# 3 -0.002639 -0.003159 0.007043 0.000000 -0.000951 0.000000
# 4 0.000000 0.000000 0.000000 0.013766 0.000000 -0.016030
# 5 -0.003530 -0.007978 -0.000951 0.000000 0.027511 0.000000
# 6 0.000000 0.000000 0.000000 -0.016030 0.000000 0.052246
#
#
# Mechanical properties :
#
#
# Convention : Reuss Voigt Hill
#
# Bulk Modulus (GPa) = 18.59467 41.42897 30.01182
# Shear Modulus (GPa) = 28.24260 52.27165 40.25712
#
# Velocity S-wave (km/s) = 3.63166 4.94067 4.33585
# Velocity P-wave (km/s) = 5.12530 7.20373 6.25150
#
# Compressibility (1/GPa) = 0.05377886
#
# Stress axis : x y z
#
# Youngs Moduli (GPa) = 78.31588 25.08019 141.99217
#
# Poissons Ratio (x) = -0.07136 0.37469
# Poissons Ratio (y) = -0.22282 0.44850
# Poissons Ratio (z) = 0.20666 0.07922
#
# Static dielectric constant tensor:
#      x y z
#    x 4.344660 0.000000 0.497830 
#    y 0.000000 3.250680 0.000000 
#    z 0.497830 0.000000 4.563740 
# 
# 
# High freq. dielectric constant tensor:
#      x y z
#    x 1.858410 0.000000 0.009740 
#    y 0.000000 1.791530 0.000000 
#    z 0.009740 0.000000 1.875250 
# 
# From -- ./inp_files/22600.got.cif
#   From: 2010.06.25/outbox.cif.g09.slc.cpg/sg13_12_cif.got.tgz:22600.got - 2010.06.28 04:50:58.
