data_PCOD8121153
_publ_section_title
;
Structure prediction by ZEFSAII (Michael W. Deem and Ramdas Pophale) SiO2 
 PCOD8121153
Probable space group: P 2/C
;
_chemical_formula_sum "Si O2"
_cell_formula_units_Z 20
_cell_length_a 12.430367
_cell_length_b 9.276203
_cell_length_c 18.374031
_cell_angle_alpha 90.000000
_cell_angle_beta 151.848741
_cell_angle_gamma 90.000000
_cell_volume 999.579600
_symmetry_space_group_name_H-M "P 2/C"
_symmetry_group_IT_number 13
_symmetry_cell_setting 'monoclinic'
loop_
_space_group_symop_operation_xyz
x,y,z
-x,y,1/2-z
-x,-y,-z
x,-y,1/2+z
loop_
_atom_site_type_symbol
_atom_site_label
_atom_site_fract_x
_atom_site_fract_y
_atom_site_fract_z
Si Si1 0.230641 0.652888 0.579487
Si Si2 0.977718 0.348099 0.076103
Si Si3 0.778425 0.150540 0.068063
Si Si4 0.587525 0.655533 0.570064
Si Si5 0.786030 0.175056 0.569076
O O1 0.500000 0.669196 0.750000
O O2 0.176056 0.489295 0.524776
O O3 0.138176 0.763306 0.463731
O O4 0.095625 0.698300 0.571449
O O5 0.819252 0.219350 0.012539
O O6 0.164915 0.373954 0.249487
O O7 0.592166 0.245799 0.000215
O O8 0.000000 0.144000 0.250000
O O9 0.692436 0.987698 0.005233
O O10 0.500000 0.500000 0.500000
O O11 0.424726 0.729334 0.531115
O O12 0.000000 0.187654 0.750000
#
# Coordination Sequence:
#
# PCOD8121153 Si02
#       5
#     4   4   4   4   4
#     4  11  22  40  64  89 124 158 200 250 301 358
#     4  10  22  40  61  87 124 158 202 250 301 354
#     4   9  21  38  59  89 122 157 200 249 299 357
#     4  11  20  36  65  91 120 158 204 252 294 352
#     4  11  22  39  61  89 122 160 203 246 299 360
#
# _framework density 20.008413000000001
#
# number of rings (size 3 to 8) (size 9 to 14) (size 15 to 20)
#    0.000    1.600    2.000    3.000    0.000    2.400 
#    0.000    1.000    0.000    0.000    0.000    0.000 
#    0.000    0.000    0.000    0.000    0.000    0.000 
#
# Total GULP energy -248029.019869 kJ/mol
# GULP energy per Si atom -12401.450993 kJ/mol
# Density = 1.996287 g / cm^3
# Si number density = 20.008413 Si / 1000 Ang^3
#
#
#
# Elastic Constant Matrix: (Units=GPa)
#
#
# Indices 1 2 3 4 5 6 
#
# 1 139.9432 70.8455 18.1942 0.0000 -19.5083 0.0000
# 2 70.8455 146.3915 19.9835 0.0000 -14.0874 0.0000
# 3 18.1942 19.9835 58.4207 0.0000 -11.3191 0.0000
# 4 0.0000 0.0000 0.0000 19.7344 0.0000 0.3414
# 5 -19.5083 -14.0874 -11.3191 0.0000 23.7356 0.0000
# 6 0.0000 0.0000 0.0000 0.3414 0.0000 21.3101
#
#
#
# Elastic Compliance Matrix: (Units=1/GPa)
#
#
# Indices 1 2 3 4 5 6 
#
# 1 0.010177 -0.004309 -0.000628 0.000000 0.005507 0.000000
# 2 -0.004309 0.009248 -0.001591 0.000000 0.001188 0.000000
# 3 -0.000628 -0.001591 0.019363 0.000000 0.007773 0.000000
# 4 0.000000 0.000000 0.000000 0.050687 0.000000 -0.000812
# 5 0.005507 0.001188 0.007773 0.000000 0.051069 0.000000
# 6 0.000000 0.000000 0.000000 -0.000812 0.000000 0.046939
#
#
# Mechanical properties :
#
#
# Convention : Reuss Voigt Hill
#
# Bulk Modulus (GPa) = 38.86440 62.53354 50.69897
# Shear Modulus (GPa) = 23.91003 28.67151 26.29077
#
# Velocity S-wave (km/s) = 3.46063 3.78957 3.62883
# Velocity P-wave (km/s) = 5.95265 7.10417 6.55375
#
# Compressibility (1/GPa) = 0.02573049
#
# Stress axis : x y z
#
# Youngs Moduli (GPa) = 98.26414 108.13181 51.64428
#
# Poissons Ratio (x) = 0.46596 0.03245
# Poissons Ratio (y) = 0.42344 0.08217
# Poissons Ratio (z) = 0.06174 0.17205
#
# Static dielectric constant tensor:
#      x y z
#    x 3.743810 0.000000 -0.050450 
#    y 0.000000 3.830090 0.000000 
#    z -0.050450 0.000000 3.472040 
# 
# 
# High freq. dielectric constant tensor:
#      x y z
#    x 1.796710 0.000000 0.000280 
#    y 0.000000 1.787050 0.000000 
#    z 0.000280 0.000000 1.763550 
# 
# From -- ./inp_files/28278.got.cif
#   From: 2010.06.25/outbox.cif.g09.slc.cpg/sg13_15_cif.got.tgz:28278.got - 2010.06.28 04:50:58.
