data_PCOD8121068
_publ_section_title
;
Structure prediction by ZEFSAII (Michael W. Deem and Ramdas Pophale) SiO2 
 PCOD8121068
Probable space group: P 2/C
;
_chemical_formula_sum "Si O2"
_cell_formula_units_Z 24
_cell_length_a 8.860574
_cell_length_b 9.009841
_cell_length_c 29.808025
_cell_angle_alpha 90.000000
_cell_angle_beta 150.916116
_cell_angle_gamma 90.000000
_cell_volume 1156.720694
_symmetry_space_group_name_H-M "P 2/C"
_symmetry_group_IT_number 13
_symmetry_cell_setting 'monoclinic'
loop_
_space_group_symop_operation_xyz
x,y,z
-x,y,1/2-z
-x,-y,-z
x,-y,1/2+z
loop_
_atom_site_type_symbol
_atom_site_label
_atom_site_fract_x
_atom_site_fract_y
_atom_site_fract_z
Si Si1 0.287735 0.786730 0.073782
Si Si2 0.302165 0.918924 0.910157
Si Si3 0.648550 0.611162 0.242697
Si Si4 0.161458 0.784188 0.338545
Si Si5 0.724544 0.737475 0.768222
Si Si6 0.386105 0.128399 0.099966
O O1 0.420296 0.671644 0.144678
O O2 0.468052 0.757594 0.073004
O O3 0.342434 0.957180 0.102843
O O4 0.920151 0.769691 0.971365
O O5 0.522767 0.851878 0.928632
O O6 0.077108 0.790115 0.871247
O O7 0.088246 0.047112 0.833149
O O8 0.500000 0.000000 0.000000
O O9 0.500000 0.666323 0.250000
O O10 0.691395 0.436433 0.252488
O O11 0.000095 0.675833 0.332329
O O12 0.000000 0.749847 0.250000
O O13 0.500000 0.792346 0.750000
O O14 0.647826 0.809047 0.700458
#
# Coordination Sequence:
#
# PCOD8121068 Si02
#       6
#     4   4   4   4   4   4
#     4   9  20  37  63  92 118 162 204 257 312 377
#     4  11  24  39  64  96 121 160 210 265 317 378
#     4  10  22  39  60  90 128 170 211 251 319 386
#     4   9  19  38  61  86 118 159 204 254 308 379
#     4  11  25  41  61  91 127 168 208 262 322 384
#     4  10  22  40  64  93 125 156 213 265 315 383
#
# _framework density 20.748308999999999
#
# number of rings (size 3 to 8) (size 9 to 14) (size 15 to 20)
#    0.000    2.000    0.000    3.500    9.333    6.000 
#    0.000    0.833    0.000    0.000    0.000    0.000 
#    0.000    0.000    0.000    0.000    0.000    0.000 
#
# Total GULP energy -297431.405676 kJ/mol
# GULP energy per Si atom -12392.975237 kJ/mol
# Density = 2.070108 g / cm^3
# Si number density = 20.748309 Si / 1000 Ang^3
#
#
#
# Elastic Constant Matrix: (Units=GPa)
#
#
# Indices 1 2 3 4 5 6 
#
# 1 149.6602 54.0685 54.8266 0.0000 16.2975 0.0000
# 2 54.0685 76.7459 37.1155 0.0000 10.2901 0.0000
# 3 54.8266 37.1155 88.6316 0.0000 19.7967 0.0000
# 4 0.0000 0.0000 0.0000 28.5369 0.0000 0.7369
# 5 16.2975 10.2901 19.7967 0.0000 29.6184 0.0000
# 6 0.0000 0.0000 0.0000 0.7369 0.0000 34.0324
#
#
#
# Elastic Compliance Matrix: (Units=1/GPa)
#
#
# Indices 1 2 3 4 5 6 
#
# 1 0.010044 -0.005065 -0.003821 0.000000 -0.001213 0.000000
# 2 -0.005065 0.018936 -0.004643 0.000000 -0.000689 0.000000
# 3 -0.003821 -0.004643 0.017351 0.000000 -0.007882 0.000000
# 4 0.000000 0.000000 0.000000 0.035062 0.000000 -0.000759
# 5 -0.001213 -0.000689 -0.007882 0.000000 0.039938 0.000000
# 6 0.000000 0.000000 0.000000 -0.000759 0.000000 0.029400
#
#
# Mechanical properties :
#
#
# Convention : Reuss Voigt Hill
#
# Bulk Modulus (GPa) = 51.88579 67.45098 59.66839
# Shear Modulus (GPa) = 27.14264 29.70601 28.42433
#
# Velocity S-wave (km/s) = 3.62081 3.78793 3.70531
# Velocity P-wave (km/s) = 6.52241 7.19103 6.86487
#
# Compressibility (1/GPa) = 0.01927310
#
# Stress axis : x y z
#
# Youngs Moduli (GPa) = 99.56589 52.80897 57.63449
#
# Poissons Ratio (x) = 0.26750 0.22021
# Poissons Ratio (y) = 0.50435 0.26757
# Poissons Ratio (z) = 0.38042 0.24517
#
# Static dielectric constant tensor:
#      x y z
#    x 4.328270 0.000000 0.348310 
#    y 0.000000 3.855140 0.000000 
#    z 0.348310 0.000000 3.782690 
# 
# 
# High freq. dielectric constant tensor:
#      x y z
#    x 1.828350 0.000000 0.014420 
#    y 0.000000 1.796710 0.000000 
#    z 0.014420 0.000000 1.799980 
# 
# From -- ./inp_files/96012.got.cif
#   From: 2010.06.25/outbox.cif.g09.slc.cpg/sg13_49_cif.got.tgz:96012.got - 2010.06.28 04:50:58.
