data_PCOD8121682
_publ_section_title
;
Structure prediction by ZEFSAII (Michael W. Deem and Ramdas Pophale) SiO2 
 PCOD8121682
Probable space group: P 2/C
;
_chemical_formula_sum "Si O2"
_cell_formula_units_Z 22
_cell_length_a 8.913165
_cell_length_b 6.151754
_cell_length_c 22.327152
_cell_angle_alpha 90.000000
_cell_angle_beta 66.471374
_cell_angle_gamma 90.000000
_cell_volume 1122.451568
_symmetry_space_group_name_H-M "P 2/C"
_symmetry_group_IT_number 13
_symmetry_cell_setting 'monoclinic'
loop_
_space_group_symop_operation_xyz
x,y,z
-x,y,1/2-z
-x,-y,-z
x,-y,1/2+z
loop_
_atom_site_type_symbol
_atom_site_label
_atom_site_fract_x
_atom_site_fract_y
_atom_site_fract_z
Si Si1 0.045916 0.697489 0.948946
Si Si2 0.443808 0.302511 0.551054
Si Si3 0.253397 1.000000 0.496603
Si Si4 0.283261 0.617562 0.813158
Si Si5 0.590424 0.617562 0.313158
Si Si6 0.500000 0.000000 0.750000
O O1 0.110982 0.604068 0.875329
O O2 0.189447 0.849770 0.952776
O O3 0.888967 0.841084 0.958164
O O4 0.000000 0.500000 0.000000
O O5 0.500000 0.500000 0.500000
O O6 0.305296 0.158916 0.541835
O O7 0.361640 0.395932 0.624671
O O8 0.595000 0.150230 0.547224
O O9 0.271149 0.500002 0.750000
O O10 0.417342 0.499998 0.832657
O O11 0.342541 0.863523 0.795516
O O12 0.566431 0.863523 0.295514
#
# Coordination Sequence:
#
# PCOD8121682 Si02
#       6
#     4   4   4   4   4   2
#     4  11  21  38  58  84 116 146 188 236 277 334
#     4  11  21  38  58  84 116 146 188 236 277 334
#     4  10  23  34  58  86 111 152 188 226 287 332
#     4   9  18  31  54  82 107 142 182 229 282 325
#     4   9  18  31  54  82 107 142 182 229 282 325
#     4   8  16  32  52  80 110 136 186 236 266 330
#
# _framework density 19.599955999999999
#
# number of rings (size 3 to 8) (size 9 to 14) (size 15 to 20)
#    0.000    2.545    0.000    4.364    0.000    8.727 
#    0.000    0.000    0.000   16.364    0.000    2.545 
#    0.000    0.000    0.000    0.000    0.000    0.000 
#
# Total GULP energy -272725.710528 kJ/mol
# GULP energy per Si atom -12396.623206 kJ/mol
# Density = 1.955535 g / cm^3
# Si number density = 19.599956 Si / 1000 Ang^3
#
#
#
# Elastic Constant Matrix: (Units=GPa)
#
#
# Indices 1 2 3 4 5 6 
#
# 1 83.7692 35.8571 42.4565 0.0000 -0.4582 0.0000
# 2 35.8571 132.0595 64.3349 0.0000 -0.5205 0.0000
# 3 42.4565 64.3349 183.5414 0.0000 -1.3688 0.0000
# 4 0.0000 0.0000 0.0000 19.3865 0.0000 0.0586
# 5 -0.4582 -0.5205 -1.3688 0.0000 33.1765 0.0000
# 6 0.0000 0.0000 0.0000 0.0586 0.0000 22.5881
#
#
#
# Elastic Compliance Matrix: (Units=1/GPa)
#
#
# Indices 1 2 3 4 5 6 
#
# 1 0.014300 -0.002739 -0.002347 0.000000 0.000058 0.000000
# 2 -0.002739 0.009656 -0.002751 0.000000 0.000000 0.000000
# 3 -0.002347 -0.002751 0.006957 0.000000 0.000211 0.000000
# 4 0.000000 0.000000 0.000000 0.051583 0.000000 -0.000134
# 5 0.000058 0.000000 0.000211 0.000000 0.030151 0.000000
# 6 0.000000 0.000000 0.000000 -0.000134 0.000000 0.044271
#
#
# Mechanical properties :
#
#
# Convention : Reuss Voigt Hill
#
# Bulk Modulus (GPa) = 65.62293 76.07414 70.84853
# Shear Modulus (GPa) = 28.14150 32.14498 30.14324
#
# Velocity S-wave (km/s) = 3.79330 4.05415 3.92589
# Velocity P-wave (km/s) = 7.26218 7.79824 7.53498
#
# Compressibility (1/GPa) = 0.01523858
#
# Stress axis : x y z
#
# Youngs Moduli (GPa) = 69.93012 103.55921 143.73478
#
# Poissons Ratio (x) = 0.28365 0.33740
# Poissons Ratio (y) = 0.19154 0.39544
# Poissons Ratio (z) = 0.16415 0.28491
#
# Static dielectric constant tensor:
#      x y z
#    x 3.320140 0.000000 -0.003440 
#    y 0.000000 3.686500 0.000000 
#    z -0.003440 0.000000 3.508130 
# 
# 
# High freq. dielectric constant tensor:
#      x y z
#    x 1.726150 0.000000 -0.000700 
#    y 0.000000 1.785230 0.000000 
#    z -0.000700 0.000000 1.764310 
# 
# From -- ./inp_files/84179.got.cif
#   From: 2010.06.25/outbox.cif.g09.slc.cpg/sg13_43_cif.got.tgz:84179.got - 2010.06.28 04:50:58.
