data_PCOD8121943
_publ_section_title
;
Structure prediction by ZEFSAII (Michael W. Deem and Ramdas Pophale) SiO2 
 PCOD8121943
Probable space group: P 2/C
;
_chemical_formula_sum "Si O2"
_cell_formula_units_Z 32
_cell_length_a 28.818787
_cell_length_b 8.809358
_cell_length_c 12.666977
_cell_angle_alpha 90.000000
_cell_angle_beta 152.352501
_cell_angle_gamma 90.000000
_cell_volume 1492.242873
_symmetry_space_group_name_H-M "P 2/C"
_symmetry_group_IT_number 13
_symmetry_cell_setting 'monoclinic'
loop_
_space_group_symop_operation_xyz
x,y,z
-x,y,1/2-z
-x,-y,-z
x,-y,1/2+z
loop_
_atom_site_type_symbol
_atom_site_label
_atom_site_fract_x
_atom_site_fract_y
_atom_site_fract_z
Si Si1 0.273527 0.894216 0.122187
Si Si2 0.947985 0.380729 0.755737
Si Si3 0.389956 0.757417 0.542997
Si Si4 0.577240 0.959096 0.245002
Si Si5 0.122544 0.353884 0.258855
Si Si6 0.586614 0.341134 0.859065
Si Si7 0.263659 0.758187 0.661988
Si Si8 0.702982 0.559615 0.971245
O O1 0.344250 0.788721 0.336226
O O2 0.317106 0.913229 0.092933
O O3 0.267561 0.059721 0.162972
O O4 0.170373 0.803024 0.897041
O O5 0.914442 0.552105 0.714417
O O6 0.853195 0.271896 0.564804
O O7 0.000000 0.383490 0.750000
O O8 0.026086 0.310581 0.996439
O O9 0.500000 0.681636 0.750000
O O10 0.309685 0.652263 0.443682
O O11 0.406341 0.911328 0.638344
O O12 0.532908 0.813891 0.215244
O O13 0.500000 0.000000 0.000000
O O14 0.193815 0.466839 0.333314
O O15 0.500000 0.429100 0.750000
O O16 0.683280 0.306061 0.126669
O O17 0.616418 0.432687 0.812391
O O18 0.313282 0.674121 0.659677
#
# Coordination Sequence:
#
# PCOD8121943 Si02
#       8
#     4   4   4   4   4   4   4   4
#     4  12  24  43  69  97 135 180 230 274 336 404
#     4  10  23  45  72  96 134 171 220 281 351 408
#     4  12  25  40  64 101 137 186 225 270 329 398
#     4  12  23  43  65  94 141 183 225 274 332 398
#     4  10  24  45  69 100 129 178 221 283 344 407
#     4  12  25  41  66 100 138 181 230 276 336 398
#     4  11  25  45  69  98 135 177 224 282 336 411
#     4  11  25  42  65  98 137 175 227 281 334 391
#
# _framework density 21.444232
#
# number of rings (size 3 to 8) (size 9 to 14) (size 15 to 20)
#    0.000    0.750    5.000    2.250    5.250    1.000 
#    0.000    0.625    0.000    0.000    0.000    0.000 
#    0.000    0.000    0.000    0.000    0.000    0.000 
#
# Total GULP energy -396622.862867 kJ/mol
# GULP energy per Si atom -12394.464465 kJ/mol
# Density = 2.139542 g / cm^3
# Si number density = 21.444232 Si / 1000 Ang^3
#
#
#
# Elastic Constant Matrix: (Units=GPa)
#
#
# Indices 1 2 3 4 5 6 
#
# 1 102.0587 26.5080 21.9964 0.0000 1.0617 0.0000
# 2 26.5080 114.3603 35.7083 0.0000 0.5046 0.0000
# 3 21.9964 35.7083 103.4932 0.0000 10.2709 0.0000
# 4 0.0000 0.0000 0.0000 236.5836 0.0000 13.9475
# 5 1.0617 0.5046 10.2709 0.0000 22.9169 0.0000
# 6 0.0000 0.0000 0.0000 13.9475 0.0000 32.5319
#
#
#
# Elastic Compliance Matrix: (Units=1/GPa)
#
#
# Indices 1 2 3 4 5 6 
#
# 1 0.010654 -0.001967 -0.001613 0.000000 0.000273 0.000000
# 2 -0.001967 0.010204 -0.003233 0.000000 0.001315 0.000000
# 3 -0.001613 -0.003233 0.011623 0.000000 -0.005063 0.000000
# 4 0.000000 0.000000 0.000000 0.004336 0.000000 -0.001859
# 5 0.000273 0.001315 -0.005063 0.000000 0.045864 0.000000
# 6 0.000000 0.000000 0.000000 -0.001859 0.000000 0.031536
#
#
# Mechanical properties :
#
#
# Convention : Reuss Voigt Hill
#
# Bulk Modulus (GPa) = 53.03573 54.25973 53.64773
# Shear Modulus (GPa) = 37.27769 74.11979 55.69874
#
# Velocity S-wave (km/s) = 4.17388 5.88549 5.10198
# Velocity P-wave (km/s) = 6.92921 8.45831 7.73166
#
# Compressibility (1/GPa) = 0.01885521
#
# Stress axis : x y z
#
# Youngs Moduli (GPa) = 93.86172 98.00088 86.03425
#
# Poissons Ratio (x) = 0.19278 0.13875
# Poissons Ratio (y) = 0.18464 0.27816
# Poissons Ratio (z) = 0.15137 0.31685
#
# Static dielectric constant tensor:
#      x y z
#    x 4.279980 0.000000 0.003640 
#    y 0.000000 4.051380 0.000000 
#    z 0.003640 0.000000 3.700770 
# 
# 
# High freq. dielectric constant tensor:
#      x y z
#    x 1.857540 0.000000 -0.002370 
#    y 0.000000 1.852320 0.000000 
#    z -0.002370 0.000000 1.828930 
# 
# From -- ./inp_files/42773.got.cif
#   From: 2010.06.25/outbox.cif.g09.slc.cpg/sg13_22_cif.got.tgz:42773.got - 2010.06.28 04:50:58.
