data_PCOD8121994
_publ_section_title
;
Structure prediction by ZEFSAII (Michael W. Deem and Ramdas Pophale) SiO2 
 PCOD8121994
Probable space group: P 2/C
;
_chemical_formula_sum "Si O2"
_cell_formula_units_Z 20
_cell_length_a 13.523986
_cell_length_b 10.892853
_cell_length_c 16.714840
_cell_angle_alpha 90.000000
_cell_angle_beta 156.495578
_cell_angle_gamma 90.000000
_cell_volume 982.031321
_symmetry_space_group_name_H-M "P 2/C"
_symmetry_group_IT_number 13
_symmetry_cell_setting 'monoclinic'
loop_
_space_group_symop_operation_xyz
x,y,z
-x,y,1/2-z
-x,-y,-z
x,-y,1/2+z
loop_
_atom_site_type_symbol
_atom_site_label
_atom_site_fract_x
_atom_site_fract_y
_atom_site_fract_z
Si Si1 0.158924 0.824754 0.158659
Si Si2 0.220374 0.578371 0.128253
Si Si3 0.632130 0.945685 0.764995
Si Si4 0.742716 0.497002 0.026135
Si Si5 0.748515 0.770509 0.095323
O O1 0.145560 0.721173 0.079661
O O2 0.250075 0.759118 0.307606
O O3 0.349930 0.928375 0.271338
O O4 0.895766 0.886427 0.979597
O O5 0.487641 0.561545 0.371898
O O6 0.252729 0.528510 0.063882
O O7 0.000000 0.500000 0.000000
O O8 0.500000 0.975272 0.750000
O O9 0.484462 0.851055 0.601210
O O10 0.730808 0.640241 0.038063
O O11 0.000000 0.438288 0.250000
O O12 0.000000 0.835361 0.250000
#
# Coordination Sequence:
#
# PCOD8121994 Si02
#       5
#     4   4   4   4   4
#     4  11  25  42  66  99 126 171 215 263 329 382
#     4  11  23  41  65  94 133 170 214 266 323 386
#     4  11  24  42  69  92 130 169 213 269 322 382
#     4  10  24  39  64  95 130 169 214 266 323 380
#     4  11  21  40  67  95 125 168 216 257 315 391
#
# _framework density 20.365950000000002
#
# number of rings (size 3 to 8) (size 9 to 14) (size 15 to 20)
#    0.000    1.200    2.000    4.200    5.600    4.800 
#    0.000    1.000    0.000    0.000    0.000    0.000 
#    0.000    0.000    0.000    0.000    0.000    0.000 
#
# Total GULP energy -247945.064960 kJ/mol
# GULP energy per Si atom -12397.253248 kJ/mol
# Density = 2.031960 g / cm^3
# Si number density = 20.365950 Si / 1000 Ang^3
#
#
#
# Elastic Constant Matrix: (Units=GPa)
#
#
# Indices 1 2 3 4 5 6 
#
# 1 127.4056 63.7056 49.6255 0.0000 2.6343 0.0000
# 2 63.7056 104.2634 18.0303 0.0000 -7.4354 0.0000
# 3 49.6255 18.0303 94.7151 0.0000 13.1074 0.0000
# 4 0.0000 0.0000 0.0000 35.1646 0.0000 0.8242
# 5 2.6343 -7.4354 13.1074 0.0000 42.7262 0.0000
# 6 0.0000 0.0000 0.0000 0.8242 0.0000 15.8185
#
#
#
# Elastic Compliance Matrix: (Units=1/GPa)
#
#
# Indices 1 2 3 4 5 6 
#
# 1 0.013855 -0.007494 -0.005779 0.000000 -0.000385 0.000000
# 2 -0.007494 0.014213 0.000850 0.000000 0.002675 0.000000
# 3 -0.005779 0.000850 0.013946 0.000000 -0.003774 0.000000
# 4 0.000000 0.000000 0.000000 0.028472 0.000000 -0.001484
# 5 -0.000385 0.002675 -0.003774 0.000000 0.025052 0.000000
# 6 0.000000 0.000000 0.000000 -0.001484 0.000000 0.063294
#
#
# Mechanical properties :
#
#
# Convention : Reuss Voigt Hill
#
# Bulk Modulus (GPa) = 58.24231 65.45631 61.84931
# Shear Modulus (GPa) = 26.39890 31.74339 29.07114
#
# Velocity S-wave (km/s) = 3.60422 3.95226 3.78224
# Velocity P-wave (km/s) = 6.78089 7.28265 7.03624
#
# Compressibility (1/GPa) = 0.01716965
#
# Stress axis : x y z
#
# Youngs Moduli (GPa) = 72.17626 70.35630 71.70259
#
# Poissons Ratio (x) = 0.52722 0.41440
# Poissons Ratio (y) = 0.54085 -0.06097
# Poissons Ratio (z) = 0.41714 -0.05983
#
# Static dielectric constant tensor:
#      x y z
#    x 3.935710 0.000000 0.513520 
#    y 0.000000 3.652950 0.000000 
#    z 0.513520 0.000000 4.441250 
# 
# 
# High freq. dielectric constant tensor:
#      x y z
#    x 1.806640 0.000000 0.014530 
#    y 0.000000 1.788070 0.000000 
#    z 0.014530 0.000000 1.808930 
# 
# From -- ./inp_files/51218.got.cif
#   From: 2010.06.25/outbox.cif.g09.slc.cpg/sg13_26_cif.got.tgz:51218.got - 2010.06.28 04:50:58.
