data_PCOD8121967
_publ_section_title
;
Structure prediction by ZEFSAII (Michael W. Deem and Ramdas Pophale) SiO2 
 PCOD8121967
Probable space group: P 2/C
;
_chemical_formula_sum "Si O2"
_cell_formula_units_Z 24
_cell_length_a 8.387083
_cell_length_b 16.590610
_cell_length_c 14.811752
_cell_angle_alpha 90.000000
_cell_angle_beta 34.078329
_cell_angle_gamma 90.000000
_cell_volume 1154.835999
_symmetry_space_group_name_H-M "P 2/C"
_symmetry_group_IT_number 13
_symmetry_cell_setting 'monoclinic'
loop_
_space_group_symop_operation_xyz
x,y,z
-x,y,1/2-z
-x,-y,-z
x,-y,1/2+z
loop_
_atom_site_type_symbol
_atom_site_label
_atom_site_fract_x
_atom_site_fract_y
_atom_site_fract_z
Si Si1 0.261134 0.666320 0.683318
Si Si2 0.294179 0.627180 0.163175
Si Si3 0.299977 0.207890 0.759277
Si Si4 0.677000 0.080239 0.908381
Si Si5 0.365326 0.806065 0.907129
Si Si6 0.771104 0.475648 0.178726
O O1 0.461286 0.613204 0.524827
O O2 0.454827 0.729215 0.645619
O O3 0.119930 0.602231 0.817896
O O4 0.000000 0.707350 0.750000
O O5 0.376602 0.706675 0.180170
O O6 0.291384 0.550289 0.227584
O O7 0.000000 0.642329 0.250000
O O8 0.500000 0.191186 0.750000
O O9 0.379930 0.137759 0.650691
O O10 0.970780 0.211658 0.944941
O O11 0.000000 0.052416 0.750000
O O12 0.596359 0.125590 0.037316
O O13 0.500000 0.000000 0.000000
O O14 0.500000 0.836604 0.750000
O O15 0.500000 0.447900 0.250000
O O16 0.000000 0.500000 0.000000
#
# Coordination Sequence:
#
# PCOD8121967 Si02
#       6
#     4   4   4   4   4   4
#     4  12  25  42  65  95 133 181 232 276 339 399
#     4  12  22  44  67  90 135 180 227 281 337 398
#     4  11  24  44  71 102 136 181 225 273 339 400
#     4  10  23  47  71 102 139 176 218 273 334 402
#     4  11  25  43  69 103 140 176 226 278 331 403
#     4  12  26  42  62  97 134 174 233 285 336 397
#
# _framework density 20.782171999999999
#
# number of rings (size 3 to 8) (size 9 to 14) (size 15 to 20)
#    0.000    0.667    3.333    4.500    4.667    2.667 
#    0.000    3.333    0.000    0.000    0.000    0.000 
#    0.000    0.000    0.000    0.000    0.000    0.000 
#
# Total GULP energy -297617.143976 kJ/mol
# GULP energy per Si atom -12400.714332 kJ/mol
# Density = 2.073487 g / cm^3
# Si number density = 20.782172 Si / 1000 Ang^3
#
#
#
# Elastic Constant Matrix: (Units=GPa)
#
#
# Indices 1 2 3 4 5 6 
#
# 1 155.3690 58.6439 59.3957 0.0000 -1.4863 0.0000
# 2 58.6439 137.5856 47.2531 0.0000 6.4973 0.0000
# 3 59.3957 47.2531 137.8923 0.0000 16.8900 0.0000
# 4 0.0000 0.0000 0.0000 31.1308 0.0000 -10.1940
# 5 -1.4863 6.4973 16.8900 0.0000 37.2305 0.0000
# 6 0.0000 0.0000 0.0000 -10.1940 0.0000 16.7990
#
#
#
# Elastic Compliance Matrix: (Units=1/GPa)
#
#
# Indices 1 2 3 4 5 6 
#
# 1 0.008665 -0.002746 -0.003062 0.000000 0.002214 0.000000
# 2 -0.002746 0.009109 -0.001832 0.000000 -0.000868 0.000000
# 3 -0.003062 -0.001832 0.009715 0.000000 -0.004210 0.000000
# 4 0.000000 0.000000 0.000000 0.040088 0.000000 0.024326
# 5 0.002214 -0.000868 -0.004210 0.000000 0.029009 0.000000
# 6 0.000000 0.000000 0.000000 0.024326 0.000000 0.074289
#
#
# Mechanical properties :
#
#
# Convention : Reuss Voigt Hill
#
# Bulk Modulus (GPa) = 81.92191 84.60359 83.26275
# Shear Modulus (GPa) = 26.28459 34.73568 30.51014
#
# Velocity S-wave (km/s) = 3.56021 4.09273 3.83573
# Velocity P-wave (km/s) = 7.51033 7.94557 7.73101
#
# Compressibility (1/GPa) = 0.01220675
#
# Stress axis : x y z
#
# Youngs Moduli (GPa) = 115.41093 109.78231 102.93672
#
# Poissons Ratio (x) = 0.30146 0.31524
# Poissons Ratio (y) = 0.31692 0.18861
# Poissons Ratio (z) = 0.35344 0.20116
#
# Static dielectric constant tensor:
#      x y z
#    x 4.033620 0.000000 0.088490 
#    y 0.000000 3.591350 0.000000 
#    z 0.088490 0.000000 4.156340 
# 
# 
# High freq. dielectric constant tensor:
#      x y z
#    x 1.827660 0.000000 0.005060 
#    y 0.000000 1.806440 0.000000 
#    z 0.005060 0.000000 1.833570 
# 
# From -- ./inp_files/48050.got.cif
#   From: 2010.06.25/outbox.cif.g09.slc.cpg/sg13_25_cif.got.tgz:48050.got - 2010.06.28 04:50:58.
