data_PCOD8121600
_publ_section_title
;
Structure prediction by ZEFSAII (Michael W. Deem and Ramdas Pophale) SiO2 
 PCOD8121600
Probable space group: P 2/C
;
_chemical_formula_sum "Si O2"
_cell_formula_units_Z 18
_cell_length_a 16.097383
_cell_length_b 7.036181
_cell_length_c 24.610935
_cell_angle_alpha 90.000000
_cell_angle_beta 161.332539
_cell_angle_gamma 90.000000
_cell_volume 892.220415
_symmetry_space_group_name_H-M "P 2/C"
_symmetry_group_IT_number 13
_symmetry_cell_setting 'monoclinic'
loop_
_space_group_symop_operation_xyz
x,y,z
-x,y,1/2-z
-x,-y,-z
x,-y,1/2+z
loop_
_atom_site_type_symbol
_atom_site_label
_atom_site_fract_x
_atom_site_fract_y
_atom_site_fract_z
Si Si1 0.943469 0.432768 0.905164
Si Si2 0.724787 0.112327 0.431599
Si Si3 0.031709 0.749435 0.656868
Si Si4 0.000000 0.447114 0.250000
Si Si5 0.525009 0.350770 0.408518
O O1 0.631957 0.453402 0.703331
O O2 0.089302 0.574319 0.952910
O O3 0.000000 0.500000 0.000000
O O4 0.045530 0.220312 0.958676
O O5 0.500000 0.054408 0.250000
O O6 0.611443 0.246053 0.407752
O O7 0.847571 0.929149 0.535508
O O8 0.046072 0.691665 0.728331
O O9 0.326920 0.788470 0.818673
O O10 0.238985 0.590369 0.406819
#
# Coordination Sequence:
#
# PCOD8121600 Si02
#       5
#     4   4   4   2   4
#     4  10  22  44  69  98 138 173 220 285 340 391
#     4  12  23  43  71 104 134 174 228 277 348 400
#     4  10  26  41  66 102 134 177 222 284 324 400
#     4  12  22  48  70  92 140 188 228 260 338 414
#     4  10  23  43  68  96 137 179 223 274 333 401
#
# _framework density 20.174386999999999
#
# number of rings (size 3 to 8) (size 9 to 14) (size 15 to 20)
#    1.333    0.000    4.444    0.667    0.000    8.889 
#    0.000    3.333    0.000    0.000    0.000    0.000 
#    0.000    0.000    0.000    0.000    0.000    0.000 
#
# Total GULP energy -223073.728327 kJ/mol
# GULP energy per Si atom -12392.984907 kJ/mol
# Density = 2.012847 g / cm^3
# Si number density = 20.174387 Si / 1000 Ang^3
#
#
#
# Elastic Constant Matrix: (Units=GPa)
#
#
# Indices 1 2 3 4 5 6 
#
# 1 127.4263 30.2715 48.0747 0.0000 -22.6722 0.0000
# 2 30.2715 67.4104 48.3471 0.0000 -4.5209 0.0000
# 3 48.0747 48.3471 154.7271 0.0000 -5.2004 0.0000
# 4 0.0000 0.0000 0.0000 46.8411 0.0000 -5.9991
# 5 -22.6722 -4.5209 -5.2004 0.0000 34.9510 0.0000
# 6 0.0000 0.0000 0.0000 -5.9991 0.0000 15.8840
#
#
#
# Elastic Compliance Matrix: (Units=1/GPa)
#
#
# Indices 1 2 3 4 5 6 
#
# 1 0.010391 -0.002694 -0.002183 0.000000 0.006067 0.000000
# 2 -0.002694 0.019906 -0.005382 0.000000 0.000027 0.000000
# 3 -0.002183 -0.005382 0.008796 0.000000 -0.000803 0.000000
# 4 0.000000 0.000000 0.000000 0.022434 0.000000 0.008473
# 5 0.006067 0.000027 -0.000803 0.000000 0.032431 0.000000
# 6 0.000000 0.000000 0.000000 0.008473 0.000000 0.066157
#
#
# Mechanical properties :
#
#
# Convention : Reuss Voigt Hill
#
# Bulk Modulus (GPa) = 53.83474 66.99446 60.41460
# Shear Modulus (GPa) = 26.76328 34.39325 30.57826
#
# Velocity S-wave (km/s) = 3.64620 4.13340 3.89742
# Velocity P-wave (km/s) = 6.66851 7.48731 7.08974
#
# Compressibility (1/GPa) = 0.01857536
#
# Stress axis : x y z
#
# Youngs Moduli (GPa) = 96.24112 50.23610 113.68860
#
# Poissons Ratio (x) = 0.13532 0.24816
# Poissons Ratio (y) = 0.25923 0.61189
# Poissons Ratio (z) = 0.21008 0.27038
#
# Static dielectric constant tensor:
#      x y z
#    x 3.330360 0.000000 -0.282580 
#    y 0.000000 3.478870 0.000000 
#    z -0.282580 0.000000 3.439270 
# 
# 
# High freq. dielectric constant tensor:
#      x y z
#    x 1.804900 0.000000 -0.000490 
#    y 0.000000 1.764190 0.000000 
#    z -0.000490 0.000000 1.792350 
# 
# From -- ./inp_files/87138.got.cif
#   From: 2010.06.25/outbox.cif.g09.slc.cpg/sg13_44_cif.got.tgz:87138.got - 2010.06.28 04:50:58.
