data_PCOD8121983
_publ_section_title
;
Structure prediction by ZEFSAII (Michael W. Deem and Ramdas Pophale) SiO2 
 PCOD8121983
Probable space group: P 2/C
;
_chemical_formula_sum "Si O2"
_cell_formula_units_Z 20
_cell_length_a 15.077773
_cell_length_b 10.458769
_cell_length_c 9.020920
_cell_angle_alpha 90.000000
_cell_angle_beta 140.503760
_cell_angle_gamma 90.000000
_cell_volume 904.783251
_symmetry_space_group_name_H-M "P 2/C"
_symmetry_group_IT_number 13
_symmetry_cell_setting 'monoclinic'
loop_
_space_group_symop_operation_xyz
x,y,z
-x,y,1/2-z
-x,-y,-z
x,-y,1/2+z
loop_
_atom_site_type_symbol
_atom_site_label
_atom_site_fract_x
_atom_site_fract_y
_atom_site_fract_z
Si Si1 0.356983 0.584671 0.137960
Si Si2 0.823656 0.464438 0.366466
Si Si3 0.000000 0.743715 0.250000
Si Si4 0.145716 0.062660 0.730453
Si Si5 0.757171 0.840762 0.455504
Si Si6 0.000000 0.664622 0.750000
O O1 0.500000 0.537256 0.250000
O O2 0.321748 0.499885 0.236657
O O3 0.220891 0.553088 0.860853
O O4 0.369442 0.738011 0.189939
O O5 0.895597 0.336147 0.513956
O O6 0.933428 0.581233 0.529564
O O7 0.890556 0.825139 0.203761
O O8 0.229510 0.115304 0.697526
O O9 0.251107 0.962609 0.946724
O O10 0.000000 0.000000 0.500000
O O11 0.889152 0.758793 0.680354
#
# Coordination Sequence:
#
# PCOD8121983 Si02
#       6
#     4   4   2   4   4   2
#     4  11  25  46  63  85 125 173 218 258 296 358
#     4  10  24  37  65  92 125 160 206 253 317 376
#     4  11  23  34  66  98 133 155 194 254 330 383
#     4  12  20  36  59  95 128 164 192 250 320 378
#     4  11  23  37  63  90 129 162 208 251 312 371
#     4   9  19  36  58  98 125 149 188 258 320 375
#
# _framework density 22.104738999999999
#
# number of rings (size 3 to 8) (size 9 to 14) (size 15 to 20)
#    0.000    1.200    4.000    1.800    8.400    4.000 
#    0.000    1.000    0.000    0.000    0.000    0.000 
#    0.000    0.000    0.000    0.000    0.000    0.000 
#
# Total GULP energy -247916.320634 kJ/mol
# GULP energy per Si atom -12395.816032 kJ/mol
# Density = 2.205443 g / cm^3
# Si number density = 22.104739 Si / 1000 Ang^3
#
#
#
# Elastic Constant Matrix: (Units=GPa)
#
#
# Indices 1 2 3 4 5 6 
#
# 1 56.4860 18.8990 6.4071 0.0000 -13.5215 0.0000
# 2 18.8990 108.9883 17.9408 0.0000 -15.4899 0.0000
# 3 6.4071 17.9408 47.7743 0.0000 -19.3945 0.0000
# 4 0.0000 0.0000 0.0000 25.2931 0.0000 -12.5319
# 5 -13.5215 -15.4899 -19.3945 0.0000 36.6087 0.0000
# 6 0.0000 0.0000 0.0000 -12.5319 0.0000 14.0978
#
#
#
# Elastic Compliance Matrix: (Units=1/GPa)
#
#
# Indices 1 2 3 4 5 6 
#
# 1 0.020126 -0.002694 0.001105 0.000000 0.006879 0.000000
# 2 -0.002694 0.010370 -0.002746 0.000000 0.001938 0.000000
# 3 0.001105 -0.002746 0.027402 0.000000 0.013763 0.000000
# 4 0.000000 0.000000 0.000000 0.070655 0.000000 0.062807
# 5 0.006879 0.001938 0.013763 0.000000 0.037968 0.000000
# 6 0.000000 0.000000 0.000000 0.062807 0.000000 0.126764
#
#
# Mechanical properties :
#
#
# Convention : Reuss Voigt Hill
#
# Bulk Modulus (GPa) = 20.31358 33.30470 26.80914
# Shear Modulus (GPa) = 15.70524 26.53337 21.11930
#
# Velocity S-wave (km/s) = 2.66840 3.46836 3.09434
# Velocity P-wave (km/s) = 4.32475 5.58022 4.99211
#
# Compressibility (1/GPa) = 0.04922814
#
# Stress axis : x y z
#
# Youngs Moduli (GPa) = 49.68616 96.43246 36.49340
#
# Poissons Ratio (x) = 0.25981 -0.04034
# Poissons Ratio (y) = 0.13387 0.10022
# Poissons Ratio (z) = -0.05492 0.26483
#
# Static dielectric constant tensor:
#      x y z
#    x 6.739530 0.000000 -2.335500 
#    y 0.000000 4.544280 0.000000 
#    z -2.335500 0.000000 5.372730 
# 
# 
# High freq. dielectric constant tensor:
#      x y z
#    x 1.868390 0.000000 -0.028590 
#    y 0.000000 1.885720 0.000000 
#    z -0.028590 0.000000 1.842760 
# 
# From -- ./inp_files/15655.got.cif
#   From: 2010.06.25/outbox.cif.g09.slc.cpg/sg13_8_cif.got.tgz:15655.got - 2010.06.28 04:50:58.
