data_PCOD8121295
_publ_section_title
;
Structure prediction by ZEFSAII (Michael W. Deem and Ramdas Pophale) SiO2 
 PCOD8121295
Probable space group: P 2/C
;
_chemical_formula_sum "Si O2"
_cell_formula_units_Z 20
_cell_length_a 10.084604
_cell_length_b 6.706278
_cell_length_c 13.172190
_cell_angle_alpha 90.000000
_cell_angle_beta 85.715041
_cell_angle_gamma 90.000000
_cell_volume 888.347206
_symmetry_space_group_name_H-M "P 2/C"
_symmetry_group_IT_number 13
_symmetry_cell_setting 'monoclinic'
loop_
_space_group_symop_operation_xyz
x,y,z
-x,y,1/2-z
-x,-y,-z
x,-y,1/2+z
loop_
_atom_site_type_symbol
_atom_site_label
_atom_site_fract_x
_atom_site_fract_y
_atom_site_fract_z
Si Si1 0.268967 0.411494 0.365581
Si Si2 0.147957 0.095220 0.221739
Si Si3 0.690528 0.301211 0.806942
Si Si4 0.776479 0.387671 0.443814
Si Si5 0.484317 0.232446 0.501584
O O1 0.182553 0.259781 0.304122
O O2 0.343851 0.573625 0.291690
O O3 0.171851 0.539402 0.448226
O O4 0.373569 0.286580 0.424902
O O5 0.155659 0.190616 0.107207
O O6 0.000000 0.016269 0.250000
O O7 0.249628 0.913509 0.224812
O O8 0.798574 0.428491 0.865214
O O9 0.557514 0.280744 0.880599
O O10 0.617487 0.351114 0.466668
O O11 0.500000 0.000000 0.500000
#
# Coordination Sequence:
#
# PCOD8121295 Si02
#       5
#     4   4   4   4   4
#     4  10  24  42  67  99 129 177 215 267 337 389
#     4  11  25  44  65  95 130 176 232 271 315 387
#     4  10  22  41  64  95 135 168 213 265 327 387
#     4  10  23  44  65  97 136 166 213 274 330 393
#     4  11  22  43  69  99 139 164 207 273 331 398
#
# _framework density 22.513719999999999
#
# number of rings (size 3 to 8) (size 9 to 14) (size 15 to 20)
#    0.000    1.600    2.000    2.400    2.800   11.200 
#    0.000    7.000    0.000    0.000    0.000    0.000 
#    0.000    0.000    0.000    0.000    0.000    0.000 
#
# Total GULP energy -247854.783374 kJ/mol
# GULP energy per Si atom -12392.739169 kJ/mol
# Density = 2.246248 g / cm^3
# Si number density = 22.513720 Si / 1000 Ang^3
#
#
#
# Elastic Constant Matrix: (Units=GPa)
#
#
# Indices 1 2 3 4 5 6 
#
# 1 59.0818 18.6432 22.9692 0.0000 -17.8836 0.0000
# 2 18.6432 137.0480 53.5219 0.0000 1.7147 0.0000
# 3 22.9692 53.5219 142.9538 0.0000 -8.3571 0.0000
# 4 0.0000 0.0000 0.0000 44.8613 0.0000 -8.0085
# 5 -17.8836 1.7147 -8.3571 0.0000 24.7045 0.0000
# 6 0.0000 0.0000 0.0000 -8.0085 0.0000 12.4173
#
#
#
# Elastic Compliance Matrix: (Units=1/GPa)
#
#
# Indices 1 2 3 4 5 6 
#
# 1 0.023498 -0.002704 -0.001793 0.000000 0.016591 0.000000
# 2 -0.002704 0.008929 -0.003121 0.000000 -0.003633 0.000000
# 3 -0.001793 -0.003121 0.008558 0.000000 0.001813 0.000000
# 4 0.000000 0.000000 0.000000 0.025191 0.000000 0.016247
# 5 0.016591 -0.003633 0.001813 0.000000 0.053355 0.000000
# 6 0.000000 0.000000 0.000000 0.016247 0.000000 0.091011
#
#
# Mechanical properties :
#
#
# Convention : Reuss Voigt Hill
#
# Bulk Modulus (GPa) = 38.83678 58.81691 48.82685
# Shear Modulus (GPa) = 21.33463 32.65991 26.99727
#
# Velocity S-wave (km/s) = 3.08170 3.81289 3.46663
# Velocity P-wave (km/s) = 5.47268 6.75025 6.14476
#
# Compressibility (1/GPa) = 0.02574879
#
# Stress axis : x y z
#
# Youngs Moduli (GPa) = 42.55662 111.99738 116.85129
#
# Poissons Ratio (x) = 0.30281 0.20956
# Poissons Ratio (y) = 0.11506 0.36468
# Poissons Ratio (z) = 0.07632 0.34953
#
# Static dielectric constant tensor:
#      x y z
#    x 3.531990 0.000000 -0.253460 
#    y 0.000000 4.368810 0.000000 
#    z -0.253460 0.000000 4.590220 
# 
# 
# High freq. dielectric constant tensor:
#      x y z
#    x 1.839440 0.000000 -0.015940 
#    y 0.000000 1.910600 0.000000 
#    z -0.015940 0.000000 1.907880 
# 
# From -- ./inp_files/48917.got.cif
#   From: 2010.06.25/outbox.cif.g09.slc.cpg/sg13_25_cif.got.tgz:48917.got - 2010.06.28 04:50:58.
