data_PCOD8121521
_publ_section_title
;
Structure prediction by ZEFSAII (Michael W. Deem and Ramdas Pophale) SiO2 
 PCOD8121521
Probable space group: P 2/C
;
_chemical_formula_sum "Si O2"
_cell_formula_units_Z 22
_cell_length_a 25.210351
_cell_length_b 5.495503
_cell_length_c 12.421817
_cell_angle_alpha 90.000000
_cell_angle_beta 34.266610
_cell_angle_gamma 90.000000
_cell_volume 968.978662
_symmetry_space_group_name_H-M "P 2/C"
_symmetry_group_IT_number 13
_symmetry_cell_setting 'monoclinic'
loop_
_space_group_symop_operation_xyz
x,y,z
-x,y,1/2-z
-x,-y,-z
x,-y,1/2+z
loop_
_atom_site_type_symbol
_atom_site_label
_atom_site_fract_x
_atom_site_fract_y
_atom_site_fract_z
Si Si1 0.821617 0.857187 0.932876
Si Si2 0.321676 0.878400 0.945127
Si Si3 0.081516 0.627486 0.928618
Si Si4 0.000000 0.954088 0.250000
Si Si5 0.753176 0.380914 0.742200
Si Si6 0.603807 0.614340 0.121536
O O1 0.845878 0.746656 0.776689
O O2 0.761019 0.100990 0.007190
O O3 0.911775 0.891261 0.857191
O O4 0.753665 0.674776 0.113976
O O5 0.275651 0.860479 0.141721
O O6 0.381014 0.626646 0.826578
O O7 0.382309 0.129488 0.839045
O O8 0.140242 0.442811 0.901980
O O9 0.030972 0.811406 0.092903
O O10 0.000000 0.500000 0.000000
O O11 0.678697 0.595569 0.896484
O O12 0.500000 0.605317 0.250000
#
# Coordination Sequence:
#
# PCOD8121521 Si02
#       6
#     4   4   4   2   4   4
#     4  12  22  42  63 101 136 185 230 280 345 409
#     4  10  22  43  68  98 136 177 226 284 344 409
#     4  12  23  42  62  97 139 186 234 283 340 411
#     4  12  26  36  68 100 144 182 238 284 334 412
#     4  10  24  41  68  97 135 183 223 286 342 404
#     4  10  22  45  72  98 136 178 228 292 352 406
#
# _framework density 22.704318000000001
#
# number of rings (size 3 to 8) (size 9 to 14) (size 15 to 20)
#    1.091    0.000    1.818    5.455    0.000    1.455 
#    0.000    1.818    0.000    0.000    0.000    0.000 
#    0.000    0.000    0.000    0.000    0.000    0.000 
#
# Total GULP energy -272537.580876 kJ/mol
# GULP energy per Si atom -12388.071858 kJ/mol
# Density = 2.265264 g / cm^3
# Si number density = 22.704318 Si / 1000 Ang^3
#
#
#
# Elastic Constant Matrix: (Units=GPa)
#
#
# Indices 1 2 3 4 5 6 
#
# 1 48.4346 2.3813 14.4583 0.0000 -18.3167 0.0000
# 2 2.3813 104.3704 0.9716 0.0000 -12.0330 0.0000
# 3 14.4583 0.9716 56.7930 0.0000 -1.2529 0.0000
# 4 0.0000 0.0000 0.0000 21.7649 0.0000 -15.2255
# 5 -18.3167 -12.0330 -1.2529 0.0000 47.6780 0.0000
# 6 0.0000 0.0000 0.0000 -15.2255 0.0000 24.2657
#
#
#
# Elastic Compliance Matrix: (Units=1/GPa)
#
#
# Indices 1 2 3 4 5 6 
#
# 1 0.026386 0.000626 -0.006505 0.000000 0.010124 0.000000
# 2 0.000626 0.009884 -0.000268 0.000000 0.002728 0.000000
# 3 -0.006505 -0.000268 0.019223 0.000000 -0.002061 0.000000
# 4 0.000000 0.000000 0.000000 0.081889 0.000000 0.051381
# 5 0.010124 0.002728 -0.002061 0.000000 0.025498 0.000000
# 6 0.000000 0.000000 0.000000 0.051381 0.000000 0.073450
#
#
# Mechanical properties :
#
#
# Convention : Reuss Voigt Hill
#
# Bulk Modulus (GPa) = 23.14895 27.24670 25.19782
# Shear Modulus (GPa) = 19.00977 31.52751 25.26864
#
# Velocity S-wave (km/s) = 2.89671 3.73045 3.33970
# Velocity P-wave (km/s) = 4.62665 5.53008 5.09841
#
# Compressibility (1/GPa) = 0.04319851
#
# Stress axis : x y z
#
# Youngs Moduli (GPa) = 37.89897 101.17378 52.02145
#
# Poissons Ratio (x) = -0.06331 0.33838
# Poissons Ratio (y) = -0.02371 0.01395
# Poissons Ratio (z) = 0.24652 0.02714
#
# Static dielectric constant tensor:
#      x y z
#    x 3.872280 0.000000 0.028550 
#    y 0.000000 3.925500 0.000000 
#    z 0.028550 0.000000 4.457750 
# 
# 
# High freq. dielectric constant tensor:
#      x y z
#    x 1.898960 0.000000 -0.007460 
#    y 0.000000 1.890960 0.000000 
#    z -0.007460 0.000000 1.882350 
# 
# From -- ./inp_files/41216.got.cif
#   From: 2010.06.25/outbox.cif.g09.slc.cpg/sg13_21_cif.got.tgz:41216.got - 2010.06.28 04:50:58.
