data_PCOD8121510
_publ_section_title
;
Structure prediction by ZEFSAII (Michael W. Deem and Ramdas Pophale) SiO2 
 PCOD8121510
Probable space group: P 2/C
;
_chemical_formula_sum "Si O2"
_cell_formula_units_Z 20
_cell_length_a 6.700689
_cell_length_b 9.780152
_cell_length_c 23.712169
_cell_angle_alpha 90.000000
_cell_angle_beta 36.696605
_cell_angle_gamma 90.000000
_cell_volume 928.604288
_symmetry_space_group_name_H-M "P 2/C"
_symmetry_group_IT_number 13
_symmetry_cell_setting 'monoclinic'
loop_
_space_group_symop_operation_xyz
x,y,z
-x,y,1/2-z
-x,-y,-z
x,-y,1/2+z
loop_
_atom_site_type_symbol
_atom_site_label
_atom_site_fract_x
_atom_site_fract_y
_atom_site_fract_z
Si Si1 0.379934 0.064386 0.140987
Si Si2 0.386947 0.482202 0.413207
Si Si3 0.685850 0.235325 0.860130
Si Si4 0.702750 0.741645 0.649057
Si Si5 0.572870 0.278240 0.466515
O O1 0.658116 0.125967 0.119791
O O2 0.400899 0.143447 0.076927
O O3 0.000000 0.078300 0.250000
O O4 0.506576 0.909144 0.102465
O O5 0.523528 0.631736 0.369270
O O6 0.486739 0.384123 0.338798
O O7 0.515693 0.415237 0.442637
O O8 0.000000 0.500000 0.500000
O O9 0.000000 0.209697 0.750000
O O10 0.724161 0.262553 0.919236
O O11 0.500000 0.775912 0.750000
O O12 0.089303 0.706168 0.572801
#
# Coordination Sequence:
#
# PCOD8121510 Si02
#       5
#     4   4   4   4   4
#     4  10  22  43  66  99 131 170 224 268 327 398
#     4  11  25  43  65  97 130 170 223 271 326 397
#     4  11  25  43  65  97 136 170 212 280 337 381
#     4  11  23  40  70  94 127 175 220 267 325 395
#     4  11  23  44  70  91 131 179 218 265 329 397
#
# _framework density 21.537700999999998
#
# number of rings (size 3 to 8) (size 9 to 14) (size 15 to 20)
#    0.000    1.200    4.000    1.200    2.800    0.800 
#    3.600    1.000    0.000    0.000    0.000    0.000 
#    0.000    0.000    0.000    0.000    0.000    0.000 
#
# Total GULP energy -247816.950888 kJ/mol
# GULP energy per Si atom -12390.847544 kJ/mol
# Density = 2.148868 g / cm^3
# Si number density = 21.537701 Si / 1000 Ang^3
#
#
#
# Elastic Constant Matrix: (Units=GPa)
#
#
# Indices 1 2 3 4 5 6 
#
# 1 136.2675 62.6354 32.6772 0.0000 8.2116 0.0000
# 2 62.6354 179.7049 16.9641 0.0000 4.1488 0.0000
# 3 32.6772 16.9641 75.7985 0.0000 22.7420 0.0000
# 4 0.0000 0.0000 0.0000 24.5664 0.0000 8.1593
# 5 8.2116 4.1488 22.7420 0.0000 37.9023 0.0000
# 6 0.0000 0.0000 0.0000 8.1593 0.0000 1.6989
#
#
#
# Elastic Compliance Matrix: (Units=1/GPa)
#
#
# Indices 1 2 3 4 5 6 
#
# 1 0.009549 -0.003001 -0.003564 0.000000 0.000398 0.000000
# 2 -0.003001 0.006629 -0.000204 0.000000 0.000047 0.000000
# 3 -0.003564 -0.000204 0.017728 0.000000 -0.009843 0.000000
# 4 0.000000 0.000000 0.000000 -0.068398 0.000000 0.328495
# 5 0.000398 0.000047 -0.009843 0.000000 0.032198 0.000000
# 6 0.000000 0.000000 0.000000 0.328495 0.000000 -0.989048
#
#
# Mechanical properties :
#
#
# Convention : Reuss Voigt Hill
#
# Bulk Modulus (GPa) = 49.09839 68.48047 58.78943
# Shear Modulus (GPa) = -5.14925 31.46646 13.15861
#
# Velocity S-wave (km/s) = -1.54790 3.82644 2.47444
# Velocity P-wave (km/s) = 4.43298 7.16846 5.95979
#
# Compressibility (1/GPa) = 0.02036727
#
# Stress axis : x y z
#
# Youngs Moduli (GPa) = 104.72755 150.85728 56.40700
#
# Poissons Ratio (x) = 0.45270 0.20106
# Poissons Ratio (y) = 0.31427 0.01150
# Poissons Ratio (z) = 0.37329 0.03077
#
# Static dielectric constant tensor:
#      x y z
#    x 4.040890 0.000000 0.348580 
#    y 0.000000 3.337960 0.000000 
#    z 0.348580 0.000000 3.978270 
# 
# 
# High freq. dielectric constant tensor:
#      x y z
#    x 1.837520 0.000000 0.024150 
#    y 0.000000 1.869710 0.000000 
#    z 0.024150 0.000000 1.842450 
# 
# From -- ./inp_files/83633.got.cif
#   From: 2010.06.25/outbox.cif.g09.slc.cpg/sg13_42_cif.got.tgz:83633.got - 2010.06.28 04:50:58.
