data_PCOD8121350
_publ_section_title
;
Structure prediction by ZEFSAII (Michael W. Deem and Ramdas Pophale) SiO2 
 PCOD8121350
Probable space group: P 2/C
;
_chemical_formula_sum "Si O2"
_cell_formula_units_Z 28
_cell_length_a 14.321691
_cell_length_b 8.721956
_cell_length_c 20.924440
_cell_angle_alpha 90.000000
_cell_angle_beta 29.263574
_cell_angle_gamma 90.000000
_cell_volume 1277.668089
_symmetry_space_group_name_H-M "P 2/C"
_symmetry_group_IT_number 13
_symmetry_cell_setting 'monoclinic'
loop_
_space_group_symop_operation_xyz
x,y,z
-x,y,1/2-z
-x,-y,-z
x,-y,1/2+z
loop_
_atom_site_type_symbol
_atom_site_label
_atom_site_fract_x
_atom_site_fract_y
_atom_site_fract_z
Si Si1 0.521683 0.675713 0.811577
Si Si2 0.591949 0.965726 0.549360
Si Si3 0.134134 0.366994 0.755486
Si Si4 0.747712 0.511745 0.440569
Si Si5 0.864387 0.207733 0.425377
Si Si6 0.210707 0.026265 0.701282
Si Si7 0.078132 0.596351 0.895228
O O1 0.500000 0.641721 0.750000
O O2 0.403860 0.823880 0.904764
O O3 0.746483 0.703863 0.688685
O O4 0.436795 0.533288 0.903693
O O5 0.739187 0.948741 0.402887
O O6 0.668930 0.108375 0.546256
O O7 0.383432 0.975974 0.643322
O O8 0.286998 0.428209 0.610997
O O9 0.153508 0.190419 0.763421
O O10 0.174197 0.473122 0.791547
O O11 0.916086 0.381105 0.865243
O O12 0.820184 0.334777 0.396897
O O13 0.910524 0.300448 0.463411
O O14 0.045122 0.100605 0.301792
O O15 0.000000 0.500000 0.000000
#
# Coordination Sequence:
#
# PCOD8121350 Si02
#       7
#     4   4   4   4   4   4   4
#     4  12  24  47  69  99 145 186 238 298 350 430
#     4  11  25  41  67 106 140 181 235 285 364 424
#     4  10  22  41  68  96 142 174 237 290 357 423
#     4  10  23  40  69 108 127 189 232 286 359 415
#     4  11  24  43  71 100 144 183 235 294 354 426
#     4  11  23  42  67 105 145 179 229 297 356 427
#     4  11  26  48  69  99 139 191 241 295 363 423
#
# _framework density 21.914925
#
# number of rings (size 3 to 8) (size 9 to 14) (size 15 to 20)
#    0.000    1.143    2.857    3.000   12.000    0.571 
#    2.571    2.143    0.000    0.000    0.000    0.000 
#    0.000    0.000    0.000    0.000    0.000    0.000 
#
# Total GULP energy -347029.239671 kJ/mol
# GULP energy per Si atom -12393.901417 kJ/mol
# Density = 2.186505 g / cm^3
# Si number density = 21.914925 Si / 1000 Ang^3
#
#
#
# Elastic Constant Matrix: (Units=GPa)
#
#
# Indices 1 2 3 4 5 6 
#
# 1 82.0010 39.7119 45.1290 0.0000 16.0858 0.0000
# 2 39.7119 136.9055 37.5355 0.0000 3.0288 0.0000
# 3 45.1290 37.5355 94.2407 0.0000 15.4402 0.0000
# 4 0.0000 0.0000 0.0000 29.3298 0.0000 -6.1828
# 5 16.0858 3.0288 15.4402 0.0000 36.5973 0.0000
# 6 0.0000 0.0000 0.0000 -6.1828 0.0000 26.3259
#
#
#
# Elastic Compliance Matrix: (Units=1/GPa)
#
#
# Indices 1 2 3 4 5 6 
#
# 1 0.018519 -0.003430 -0.006676 0.000000 -0.005039 0.000000
# 2 -0.003430 0.008854 -0.002160 0.000000 0.001686 0.000000
# 3 -0.006676 -0.002160 0.015210 0.000000 -0.003304 0.000000
# 4 0.000000 0.000000 0.000000 0.035871 0.000000 0.008425
# 5 -0.005039 0.001686 -0.003304 0.000000 0.030794 0.000000
# 6 0.000000 0.000000 0.000000 0.008425 0.000000 0.039964
#
#
# Mechanical properties :
#
#
# Convention : Reuss Voigt Hill
#
# Bulk Modulus (GPa) = 55.40237 61.98887 58.69562
# Shear Modulus (GPa) = 27.81465 31.16865 29.49165
#
# Velocity S-wave (km/s) = 3.56646 3.77537 3.67240
# Velocity P-wave (km/s) = 6.50347 6.88129 6.69504
#
# Compressibility (1/GPa) = 0.01804977
#
# Stress axis : x y z
#
# Youngs Moduli (GPa) = 53.99909 112.94084 65.74602
#
# Poissons Ratio (x) = 0.38736 0.43895
# Poissons Ratio (y) = 0.18520 0.14204
# Poissons Ratio (z) = 0.36052 0.24400
#
# Static dielectric constant tensor:
#      x y z
#    x 4.117890 0.000000 0.039150 
#    y 0.000000 4.044170 0.000000 
#    z 0.039150 0.000000 4.024410 
# 
# 
# High freq. dielectric constant tensor:
#      x y z
#    x 1.863960 0.000000 -0.013430 
#    y 0.000000 1.868910 0.000000 
#    z -0.013430 0.000000 1.845220 
# 
# From -- ./inp_files/79946.got.cif
#   From: 2010.06.25/outbox.cif.g09.slc.cpg/sg13_40_cif.got.tgz:79946.got - 2010.06.28 04:50:58.
