data_PCOD8121127
_publ_section_title
;
Structure prediction by ZEFSAII (Michael W. Deem and Ramdas Pophale) SiO2 
 PCOD8121127
Probable space group: P 2/C
;
_chemical_formula_sum "Si O2"
_cell_formula_units_Z 26
_cell_length_a 10.030662
_cell_length_b 8.778866
_cell_length_c 19.946808
_cell_angle_alpha 90.000000
_cell_angle_beta 136.070915
_cell_angle_gamma 90.000000
_cell_volume 1218.583749
_symmetry_space_group_name_H-M "P 2/C"
_symmetry_group_IT_number 13
_symmetry_cell_setting 'monoclinic'
loop_
_space_group_symop_operation_xyz
x,y,z
-x,y,1/2-z
-x,-y,-z
x,-y,1/2+z
loop_
_atom_site_type_symbol
_atom_site_label
_atom_site_fract_x
_atom_site_fract_y
_atom_site_fract_z
Si Si1 0.500000 0.629264 0.750000
Si Si2 0.000000 0.490918 0.250000
Si Si3 0.000000 0.987550 0.750000
Si Si4 0.112330 0.117866 0.494881
Si Si5 0.684880 0.077309 0.536083
Si Si6 0.686165 0.580138 0.039879
Si Si7 0.206074 0.437541 0.557863
Si Si8 0.172736 0.245026 0.217074
O O1 0.356823 0.518121 0.660149
O O2 0.614420 0.734789 0.737745
O O3 0.844034 0.594185 0.155837
O O4 0.889661 0.396564 0.267053
O O5 0.870822 0.084932 0.652322
O O6 0.840725 0.889455 0.733097
O O7 0.215745 0.253885 0.573988
O O8 0.970493 0.208421 0.394895
O O9 0.270812 0.021140 0.513373
O O10 0.000000 0.000000 0.500000
O O11 0.636573 0.249710 0.496938
O O12 0.500000 0.000000 0.500000
O O13 0.500000 0.500000 0.000000
O O14 0.756254 0.473873 0.005687
O O15 0.000000 0.500000 0.500000
#
# Coordination Sequence:
#
# PCOD8121127 Si02
#       8
#     2   2   2   4   4   4   4   4
#     4  12  24  40  70 100 132 174 240 270 338 392
#     4  11  21  44  68  94 136 170 224 272 342 384
#     4   9  23  44  62  94 144 168 222 262 348 396
#     4  11  23  45  66  97 137 180 219 277 343 398
#     4  11  25  41  66  99 135 175 217 277 334 398
#     4  12  25  41  71 100 130 175 228 274 332 402
#     4  12  24  44  68  99 134 180 227 279 332 403
#     4  10  22  39  68  98 131 177 214 280 330 401
#
# _framework density 21.336244000000001
#
# number of rings (size 3 to 8) (size 9 to 14) (size 15 to 20)
#    0.000    0.923    3.077    3.231    6.462    0.000 
#    0.000    8.462    0.000    0.000    0.000    0.000 
#    0.000    0.000    0.000    0.000    0.000    0.000 
#
# Total GULP energy -322393.598179 kJ/mol
# GULP energy per Si atom -12399.753776 kJ/mol
# Density = 2.128768 g / cm^3
# Si number density = 21.336244 Si / 1000 Ang^3
#
#
#
# Elastic Constant Matrix: (Units=GPa)
#
#
# Indices 1 2 3 4 5 6 
#
# 1 194.3485 69.7006 29.1645 0.0000 12.5536 0.0000
# 2 69.7006 152.6559 17.4614 0.0000 7.6857 0.0000
# 3 29.1645 17.4614 81.8418 0.0000 6.3041 0.0000
# 4 0.0000 0.0000 0.0000 29.3200 0.0000 4.2281
# 5 12.5536 7.6857 6.3041 0.0000 32.6683 0.0000
# 6 0.0000 0.0000 0.0000 4.2281 0.0000 37.1993
#
#
#
# Elastic Compliance Matrix: (Units=1/GPa)
#
#
# Indices 1 2 3 4 5 6 
#
# 1 0.006448 -0.002683 -0.001607 0.000000 -0.001537 0.000000
# 2 -0.002683 0.007888 -0.000673 0.000000 -0.000695 0.000000
# 3 -0.001607 -0.000673 0.013070 0.000000 -0.001746 0.000000
# 4 0.000000 0.000000 0.000000 0.034675 0.000000 -0.003941
# 5 -0.001537 -0.000695 -0.001746 0.000000 0.031702 0.000000
# 6 0.000000 0.000000 0.000000 -0.003941 0.000000 0.027330
#
#
# Mechanical properties :
#
#
# Convention : Reuss Voigt Hill
#
# Bulk Modulus (GPa) = 57.21225 73.49992 65.35608
# Shear Modulus (GPa) = 36.53259 40.67218 38.60239
#
# Velocity S-wave (km/s) = 4.14240 4.37080 4.25813
# Velocity P-wave (km/s) = 7.05352 7.74564 7.40767
#
# Compressibility (1/GPa) = 0.01747877
#
# Stress axis : x y z
#
# Youngs Moduli (GPa) = 155.08744 126.78050 76.51396
#
# Poissons Ratio (x) = 0.34014 0.12296
# Poissons Ratio (y) = 0.41608 0.05152
# Poissons Ratio (z) = 0.24922 0.08536
#
# Static dielectric constant tensor:
#      x y z
#    x 4.023730 0.000000 -0.192170 
#    y 0.000000 3.906340 0.000000 
#    z -0.192170 0.000000 3.707470 
# 
# 
# High freq. dielectric constant tensor:
#      x y z
#    x 1.852940 0.000000 -0.001510 
#    y 0.000000 1.841140 0.000000 
#    z -0.001510 0.000000 1.832890 
# 
# From -- ./inp_files/52964.got.cif
#   From: 2010.06.25/outbox.cif.g09.slc.cpg/sg13_27_cif.got.tgz:52964.got - 2010.06.28 04:50:58.
