data_PCOD8121331
_publ_section_title
;
Structure prediction by ZEFSAII (Michael W. Deem and Ramdas Pophale) SiO2 
 PCOD8121331
Probable space group: P 2/C
;
_chemical_formula_sum "Si O2"
_cell_formula_units_Z 20
_cell_length_a 30.455167
_cell_length_b 4.957674
_cell_length_c 17.448968
_cell_angle_alpha 90.000000
_cell_angle_beta 161.718434
_cell_angle_gamma 90.000000
_cell_volume 826.428311
_symmetry_space_group_name_H-M "P 2/C"
_symmetry_group_IT_number 13
_symmetry_cell_setting 'monoclinic'
loop_
_space_group_symop_operation_xyz
x,y,z
-x,y,1/2-z
-x,-y,-z
x,-y,1/2+z
loop_
_atom_site_type_symbol
_atom_site_label
_atom_site_fract_x
_atom_site_fract_y
_atom_site_fract_z
Si Si1 0.146810 0.571879 0.280672
Si Si2 0.548202 0.714644 0.983248
Si Si3 0.964657 0.273583 0.604934
Si Si4 0.209691 0.222714 0.728822
Si Si5 0.629198 0.791501 0.283121
O O1 0.233587 0.730066 0.359394
O O2 0.227140 0.300042 0.438938
O O3 0.109239 0.746904 0.294623
O O4 0.000000 0.500000 0.000000
O O5 0.497092 0.407339 0.901843
O O6 0.410584 0.907427 0.755173
O O7 0.637746 0.755583 0.055530
O O8 0.645093 0.784715 0.217279
O O9 0.899903 0.572480 0.492135
O O10 0.000000 0.196862 0.750000
O O11 0.848275 0.076423 0.378115
#
# Coordination Sequence:
#
# PCOD8121331 Si02
#       5
#     4   4   4   4   4
#     4  10  24  43  64  96 134 171 211 267 333 392
#     4  10  22  41  66  96 123 169 218 266 319 376
#     4  11  23  40  66  93 127 174 220 268 323 391
#     4  11  23  41  63  94 133 167 218 273 328 391
#     4  10  22  41  67  93 128 166 216 267 317 386
#
# _framework density 24.200527999999998
#
# number of rings (size 3 to 8) (size 9 to 14) (size 15 to 20)
#    0.000    1.600    0.000    3.600    0.000   12.000 
#    0.000    2.000    0.000    0.000    0.000    0.000 
#    0.000    0.000    0.000    0.000    0.000    0.000 
#
# Total GULP energy -248081.241961 kJ/mol
# GULP energy per Si atom -12404.062098 kJ/mol
# Density = 2.414545 g / cm^3
# Si number density = 24.200528 Si / 1000 Ang^3
#
#
#
# Elastic Constant Matrix: (Units=GPa)
#
#
# Indices 1 2 3 4 5 6 
#
# 1 196.8412 22.4366 43.3004 0.0000 15.7655 0.0000
# 2 22.4366 65.8340 -0.0605 0.0000 -5.3662 0.0000
# 3 43.3004 -0.0605 83.5471 0.0000 -11.0783 0.0000
# 4 0.0000 0.0000 0.0000 49.5731 0.0000 -7.1114
# 5 15.7655 -5.3662 -11.0783 0.0000 44.8276 0.0000
# 6 0.0000 0.0000 0.0000 -7.1114 0.0000 22.4654
#
#
#
# Elastic Compliance Matrix: (Units=1/GPa)
#
#
# Indices 1 2 3 4 5 6 
#
# 1 0.006492 -0.002504 -0.003835 0.000000 -0.003531 0.000000
# 2 -0.002504 0.016311 0.001742 0.000000 0.003264 0.000000
# 3 -0.003835 0.001742 0.014644 0.000000 0.005176 0.000000
# 4 0.000000 0.000000 0.000000 0.021132 0.000000 0.006689
# 5 -0.003531 0.003264 0.005176 0.000000 0.025219 0.000000
# 6 0.000000 0.000000 0.000000 0.006689 0.000000 0.046630
#
#
# Mechanical properties :
#
#
# Convention : Reuss Voigt Hill
#
# Bulk Modulus (GPa) = 35.39248 53.06393 44.22821
# Shear Modulus (GPa) = 33.54834 42.07627 37.81230
#
# Velocity S-wave (km/s) = 3.72730 4.17424 3.95708
# Velocity P-wave (km/s) = 5.76022 6.72359 6.26046
#
# Compressibility (1/GPa) = 0.02825459
#
# Stress axis : x y z
#
# Youngs Moduli (GPa) = 154.03800 61.30964 68.28606
#
# Poissons Ratio (x) = 0.15351 0.26185
# Poissons Ratio (y) = 0.38568 -0.11897
# Poissons Ratio (z) = 0.59067 -0.10681
#
# Static dielectric constant tensor:
#      x y z
#    x 5.044170 0.000000 0.123650 
#    y 0.000000 4.239470 0.000000 
#    z 0.123650 0.000000 4.025480 
# 
# 
# High freq. dielectric constant tensor:
#      x y z
#    x 1.975810 0.000000 -0.000740 
#    y 0.000000 1.960270 0.000000 
#    z -0.000740 0.000000 1.953590 
# 
# From -- ./inp_files/72143.got.cif
#   From: 2010.06.25/outbox.cif.g09.slc.cpg/sg13_37_cif.got.tgz:72143.got - 2010.06.28 04:50:58.
