data_PCOD8121079
_publ_section_title
;
Structure prediction by ZEFSAII (Michael W. Deem and Ramdas Pophale) SiO2 
 PCOD8121079
Probable space group: P 2/C
;
_chemical_formula_sum "Si O2"
_cell_formula_units_Z 28
_cell_length_a 14.071748
_cell_length_b 12.222992
_cell_length_c 10.033145
_cell_angle_alpha 90.000000
_cell_angle_beta 56.078918
_cell_angle_gamma 90.000000
_cell_volume 1431.989267
_symmetry_space_group_name_H-M "P 2/C"
_symmetry_group_IT_number 13
_symmetry_cell_setting 'monoclinic'
loop_
_space_group_symop_operation_xyz
x,y,z
-x,y,1/2-z
-x,-y,-z
x,-y,1/2+z
loop_
_atom_site_type_symbol
_atom_site_label
_atom_site_fract_x
_atom_site_fract_y
_atom_site_fract_z
Si Si1 0.017512 0.901336 0.386542
Si Si2 0.810228 0.248362 0.118052
Si Si3 0.589838 0.895112 0.791937
Si Si4 0.444470 0.144109 0.658379
Si Si5 0.135851 0.589767 0.144795
Si Si6 0.135202 0.336513 0.142881
Si Si7 0.213288 0.252929 0.803811
O O1 0.930332 0.806092 0.490202
O O2 0.000000 0.944667 0.250000
O O3 0.143986 0.850825 0.300313
O O4 0.000000 0.000000 0.500000
O O5 0.708747 0.164128 0.167444
O O6 0.806237 0.285308 0.273447
O O7 0.801548 0.353422 0.029126
O O8 0.500000 0.859064 0.750000
O O9 0.611077 0.025081 0.771011
O O10 0.544384 0.860112 0.971504
O O11 0.500000 0.190489 0.750000
O O12 0.346922 0.226108 0.684205
O O13 0.168109 0.463321 0.110372
O O14 0.185076 0.637725 0.243758
O O15 0.000000 0.608767 0.250000
O O16 0.000000 0.319989 0.250000
O O17 0.185141 0.271175 0.979755
#
# Coordination Sequence:
#
# PCOD8121079 Si02
#       7
#     4   4   4   4   4   4   4
#     4  12  26  40  59  94 130 163 192 247 317 375
#     4  12  21  41  61  91 124 155 206 251 307 367
#     4  10  22  39  62  86 114 162 208 247 294 364
#     4  10  22  41  60  86 118 160 212 247 296 365
#     4  11  21  40  61  89 125 161 204 249 304 378
#     4  11  23  36  63  93 123 159 204 251 305 371
#     4  12  21  41  63  89 124 161 200 255 310 361
#
# _framework density 19.553218999999999
#
# number of rings (size 3 to 8) (size 9 to 14) (size 15 to 20)
#    0.000    0.857    4.286    3.429    2.000    2.286 
#    5.143    0.000    0.000   17.143    0.000    0.000 
#    0.000    0.000    0.000    0.000    0.000    0.000 
#
# Total GULP energy -347388.571778 kJ/mol
# GULP energy per Si atom -12406.734706 kJ/mol
# Density = 1.950871 g / cm^3
# Si number density = 19.553219 Si / 1000 Ang^3
#
#
#
# Elastic Constant Matrix: (Units=GPa)
#
#
# Indices 1 2 3 4 5 6 
#
# 1 94.0230 23.7630 22.8051 0.0000 8.4741 0.0000
# 2 23.7630 62.7378 11.1737 0.0000 2.1430 0.0000
# 3 22.8051 11.1737 76.0581 0.0000 28.4939 0.0000
# 4 0.0000 0.0000 0.0000 31.0714 0.0000 3.2285
# 5 8.4741 2.1430 28.4939 0.0000 43.5198 0.0000
# 6 0.0000 0.0000 0.0000 3.2285 0.0000 27.8894
#
#
#
# Elastic Compliance Matrix: (Units=1/GPa)
#
#
# Indices 1 2 3 4 5 6 
#
# 1 0.012445 -0.004166 -0.003032 0.000000 -0.000233 0.000000
# 2 -0.004166 0.017796 -0.001777 0.000000 0.001098 0.000000
# 3 -0.003032 -0.001777 0.018635 0.000000 -0.011523 0.000000
# 4 0.000000 0.000000 0.000000 0.032576 0.000000 -0.003771
# 5 -0.000233 0.001098 -0.011523 0.000000 0.030514 0.000000
# 6 0.000000 0.000000 0.000000 -0.003771 0.000000 0.036293
#
#
# Mechanical properties :
#
#
# Convention : Reuss Voigt Hill
#
# Bulk Modulus (GPa) = 32.33474 38.70028 35.51751
# Shear Modulus (GPa) = 28.32593 32.16790 30.24692
#
# Velocity S-wave (km/s) = 3.81025 4.06044 3.93733
# Velocity P-wave (km/s) = 5.99417 6.46670 6.23491
#
# Compressibility (1/GPa) = 0.03092649
#
# Stress axis : x y z
#
# Youngs Moduli (GPa) = 80.35358 56.19191 53.66251
#
# Poissons Ratio (x) = 0.23408 0.16272
# Poissons Ratio (y) = 0.33473 0.09535
# Poissons Ratio (z) = 0.24365 0.09984
#
# Static dielectric constant tensor:
#      x y z
#    x 3.715360 0.000000 0.194410 
#    y 0.000000 3.638210 0.000000 
#    z 0.194410 0.000000 3.498080 
# 
# 
# High freq. dielectric constant tensor:
#      x y z
#    x 1.763440 0.000000 0.018130 
#    y 0.000000 1.754860 0.000000 
#    z 0.018130 0.000000 1.771070 
# 
# From -- ./inp_files/16671.got.cif
#   From: 2010.06.25/outbox.cif.g09.slc.cpg/sg13_9_cif.got.tgz:16671.got - 2010.06.28 04:50:58.
