data_PCOD8121840
_publ_section_title
;
Structure prediction by ZEFSAII (Michael W. Deem and Ramdas Pophale) SiO2 
 PCOD8121840
Probable space group: P 2/C
;
_chemical_formula_sum "Si O2"
_cell_formula_units_Z 20
_cell_length_a 10.413656
_cell_length_b 11.243166
_cell_length_c 13.860966
_cell_angle_alpha 90.000000
_cell_angle_beta 147.221150
_cell_angle_gamma 90.000000
_cell_volume 878.621662
_symmetry_space_group_name_H-M "P 2/C"
_symmetry_group_IT_number 13
_symmetry_cell_setting 'monoclinic'
loop_
_space_group_symop_operation_xyz
x,y,z
-x,y,1/2-z
-x,-y,-z
x,-y,1/2+z
loop_
_atom_site_type_symbol
_atom_site_label
_atom_site_fract_x
_atom_site_fract_y
_atom_site_fract_z
Si Si1 0.476768 0.639816 0.487616
Si Si2 0.593981 0.978210 0.666022
Si Si3 0.807325 0.192170 0.554959
Si Si4 0.928099 0.787800 0.808592
Si Si5 0.797032 0.773268 0.342114
O O1 0.500000 0.500000 0.500000
O O2 0.311476 0.691886 0.469093
O O3 0.741833 0.683931 0.672004
O O4 0.373863 0.679847 0.318800
O O5 0.662476 0.100726 0.759144
O O6 0.500000 0.000000 0.500000
O O7 0.386225 0.908916 0.593239
O O8 0.826115 0.896575 0.806594
O O9 0.000000 0.136097 0.750000
O O10 0.942970 0.228133 0.543777
O O11 0.000000 0.838203 0.750000
O O12 0.150781 0.738238 0.013045
#
# Coordination Sequence:
#
# PCOD8121840 Si02
#       5
#     4   4   4   4   4
#     4  10  23  43  65  95 126 162 218 270 314 382
#     4  11  20  39  63  97 128 167 206 263 313 392
#     4   9  19  38  67  90 127 163 210 257 320 382
#     4  11  26  42  62  94 132 170 214 263 320 378
#     4  11  23  43  66  94 129 175 209 260 328 377
#
# _framework density 22.762924999999999
#
# number of rings (size 3 to 8) (size 9 to 14) (size 15 to 20)
#    0.000    1.600    6.000    0.600    2.800    7.200 
#    3.600    2.000    0.000    0.000    0.000    0.000 
#    0.000    0.000    0.000    0.000    0.000    0.000 
#
# Total GULP energy -247953.106330 kJ/mol
# GULP energy per Si atom -12397.655317 kJ/mol
# Density = 2.271112 g / cm^3
# Si number density = 22.762925 Si / 1000 Ang^3
#
#
#
# Elastic Constant Matrix: (Units=GPa)
#
#
# Indices 1 2 3 4 5 6 
#
# 1 70.5923 33.3177 40.7171 0.0000 0.5216 0.0000
# 2 33.3177 158.0062 74.4497 0.0000 12.5417 0.0000
# 3 40.7171 74.4497 171.3022 0.0000 -26.0802 0.0000
# 4 0.0000 0.0000 0.0000 16.0243 0.0000 -1.7304
# 5 0.5216 12.5417 -26.0802 0.0000 40.3198 0.0000
# 6 0.0000 0.0000 0.0000 -1.7304 0.0000 8.2177
#
#
#
# Elastic Compliance Matrix: (Units=1/GPa)
#
#
# Indices 1 2 3 4 5 6 
#
# 1 0.017085 -0.001741 -0.003611 0.000000 -0.002015 0.000000
# 2 -0.001741 0.009271 -0.004494 0.000000 -0.005768 0.000000
# 3 -0.003611 -0.004494 0.009838 0.000000 0.007808 0.000000
# 4 0.000000 0.000000 0.000000 0.063857 0.000000 0.013446
# 5 -0.002015 -0.005768 0.007808 0.000000 0.031672 0.000000
# 6 0.000000 0.000000 0.000000 0.013446 0.000000 0.124520
#
#
# Mechanical properties :
#
#
# Convention : Reuss Voigt Hill
#
# Bulk Modulus (GPa) = 60.59757 77.42997 69.01377
# Shear Modulus (GPa) = 17.76598 29.67342 23.71970
#
# Velocity S-wave (km/s) = 2.79674 3.61444 3.23155
# Velocity P-wave (km/s) = 6.09163 7.17695 6.65644
#
# Compressibility (1/GPa) = 0.01650231
#
# Stress axis : x y z
#
# Youngs Moduli (GPa) = 58.52942 107.86118 101.65020
#
# Poissons Ratio (x) = 0.18781 0.36707
# Poissons Ratio (y) = 0.10191 0.45678
# Poissons Ratio (z) = 0.21136 0.48469
#
# Static dielectric constant tensor:
#      x y z
#    x 4.543280 0.000000 0.288240 
#    y 0.000000 4.011150 0.000000 
#    z 0.288240 0.000000 4.497520 
# 
# 
# High freq. dielectric constant tensor:
#      x y z
#    x 1.897770 0.000000 0.003330 
#    y 0.000000 1.857920 0.000000 
#    z 0.003330 0.000000 1.925290 
# 
# From -- ./inp_files/51226.got.cif
#   From: 2010.06.25/outbox.cif.g09.slc.cpg/sg13_26_cif.got.tgz:51226.got - 2010.06.28 04:50:58.
