data_PCOD8121348
_publ_section_title
;
Structure prediction by ZEFSAII (Michael W. Deem and Ramdas Pophale) SiO2 
 PCOD8121348
Probable space group: P 2/C
;
_chemical_formula_sum "Si O2"
_cell_formula_units_Z 28
_cell_length_a 9.826481
_cell_length_b 5.444673
_cell_length_c 32.468623
_cell_angle_alpha 90.000000
_cell_angle_beta 134.375255
_cell_angle_gamma 90.000000
_cell_volume 1241.660640
_symmetry_space_group_name_H-M "P 2/C"
_symmetry_group_IT_number 13
_symmetry_cell_setting 'monoclinic'
loop_
_space_group_symop_operation_xyz
x,y,z
-x,y,1/2-z
-x,-y,-z
x,-y,1/2+z
loop_
_atom_site_type_symbol
_atom_site_label
_atom_site_fract_x
_atom_site_fract_y
_atom_site_fract_z
Si Si1 0.498848 0.249869 0.025977
Si Si2 0.190548 0.244547 0.569674
Si Si3 0.890721 0.825222 0.649350
Si Si4 0.824707 0.925019 0.343985
Si Si5 0.764875 0.745114 0.956260
Si Si6 0.793778 0.444913 0.767999
Si Si7 0.500000 0.744604 0.750000
Si Si8 0.000000 0.848198 0.250000
O O1 0.674067 0.246648 0.095040
O O2 0.308196 0.259177 0.012520
O O3 0.500000 0.500000 0.000000
O O4 0.500000 0.000000 0.000000
O O5 0.303286 0.496747 0.582238
O O6 0.992892 0.250919 0.503278
O O7 0.153360 0.234417 0.610480
O O8 0.306151 0.998112 0.580672
O O9 0.971380 0.959514 0.625396
O O10 0.007905 0.577638 0.680389
O O11 0.911067 0.989803 0.694619
O O12 0.657006 0.123248 0.311410
O O13 0.750860 0.761655 0.291638
O O14 0.607373 0.611333 0.734281
O O15 0.823958 0.319447 0.729578
#
# Coordination Sequence:
#
# PCOD8121348 Si02
#       8
#     4   4   4   4   4   4   2   2
#     4  12  27  46  72 104 143 186 239 298 343 434
#     4  10  22  42  67  93 136 174 219 283 341 407
#     4  10  24  43  69 102 134 187 237 279 370 413
#     4  10  22  41  68  95 131 181 224 283 346 420
#     4  10  23  43  64 101 131 172 229 276 346 401
#     4  10  22  43  68  97 133 185 230 292 357 424
#     4  10  22  42  62 106 130 170 246 278 350 434
#     4  10  22  46  70  98 140 186 228 304 350 442
#
# _framework density 22.550443999999999
#
# number of rings (size 3 to 8) (size 9 to 14) (size 15 to 20)
#    0.000    1.714    0.000    2.571   10.000    1.143 
#   12.857    0.000    0.000    0.000    0.000    0.000 
#    0.000    0.000    0.000    0.000    0.000    0.000 
#
# Total GULP energy -346995.085471 kJ/mol
# GULP energy per Si atom -12392.681624 kJ/mol
# Density = 2.249912 g / cm^3
# Si number density = 22.550444 Si / 1000 Ang^3
#
#
#
# Elastic Constant Matrix: (Units=GPa)
#
#
# Indices 1 2 3 4 5 6 
#
# 1 105.4640 67.6192 38.6356 0.0000 -27.7925 0.0000
# 2 67.6192 163.4862 33.3634 0.0000 -14.0160 0.0000
# 3 38.6356 33.3634 66.8600 0.0000 -8.8048 0.0000
# 4 0.0000 0.0000 0.0000 -2.3923 0.0000 -1.4523
# 5 -27.7925 -14.0160 -8.8048 0.0000 40.3316 0.0000
# 6 0.0000 0.0000 0.0000 -1.4523 0.0000 27.4760
#
#
#
# Elastic Compliance Matrix: (Units=1/GPa)
#
#
# Indices 1 2 3 4 5 6 
#
# 1 0.017446 -0.005164 -0.006340 0.000000 0.008843 0.000000
# 2 -0.005164 0.008450 -0.001354 0.000000 -0.000917 0.000000
# 3 -0.006340 -0.001354 0.019211 0.000000 -0.000645 0.000000
# 4 0.000000 0.000000 0.000000 -0.405019 0.000000 -0.021408
# 5 0.008843 -0.000917 -0.000645 0.000000 0.030429 0.000000
# 6 0.000000 0.000000 0.000000 -0.021408 0.000000 0.035264
#
#
# Mechanical properties :
#
#
# Convention : Reuss Voigt Hill
#
# Bulk Modulus (GPa) = 51.56720 68.33853 59.95286
# Shear Modulus (GPa) = -19.08088 26.16254 3.54083
#
# Velocity S-wave (km/s) = -2.91201 3.40983 1.25443
# Velocity P-wave (km/s) = 3.40745 6.77297 5.36115
#
# Compressibility (1/GPa) = 0.01939217
#
# Stress axis : x y z
#
# Youngs Moduli (GPa) = 57.32104 118.34242 52.05470
#
# Poissons Ratio (x) = 0.61109 0.33002
# Poissons Ratio (y) = 0.29599 0.07046
# Poissons Ratio (z) = 0.36340 0.16018
#
# Static dielectric constant tensor:
#      x y z
#    x 4.319510 0.000000 -0.167710 
#    y 0.000000 4.675530 0.000000 
#    z -0.167710 0.000000 3.626750 
# 
# 
# High freq. dielectric constant tensor:
#      x y z
#    x 1.897070 0.000000 -0.011110 
#    y 0.000000 1.911730 0.000000 
#    z -0.011110 0.000000 1.858970 
# 
# From -- ./inp_files/95564.got.cif
#   From: 2010.06.25/outbox.cif.g09.slc.cpg/sg13_48_cif.got.tgz:95564.got - 2010.06.28 04:50:58.
