data_PCOD8121151
_publ_section_title
;
Structure prediction by ZEFSAII (Michael W. Deem and Ramdas Pophale) SiO2 
 PCOD8121151
Probable space group: P 2/C
;
_chemical_formula_sum "Si O2"
_cell_formula_units_Z 28
_cell_length_a 7.868538
_cell_length_b 18.772179
_cell_length_c 12.839850
_cell_angle_alpha 90.000000
_cell_angle_beta 138.614017
_cell_angle_gamma 90.000000
_cell_volume 1253.875611
_symmetry_space_group_name_H-M "P 2/C"
_symmetry_group_IT_number 13
_symmetry_cell_setting 'monoclinic'
loop_
_space_group_symop_operation_xyz
x,y,z
-x,y,1/2-z
-x,-y,-z
x,-y,1/2+z
loop_
_atom_site_type_symbol
_atom_site_label
_atom_site_fract_x
_atom_site_fract_y
_atom_site_fract_z
Si Si1 0.735788 0.618844 0.504383
Si Si2 0.273363 0.776379 0.006837
Si Si3 0.839586 0.765123 0.301929
Si Si4 0.000000 0.011675 0.750000
Si Si5 0.164872 0.115700 0.195617
Si Si6 0.839004 0.609158 0.328604
Si Si7 0.266149 0.873424 0.501427
Si Si8 0.000000 0.491838 0.250000
O O1 0.780265 0.698871 0.569234
O O2 0.919580 0.605654 0.487933
O O3 0.461024 0.607206 0.329245
O O4 0.770524 0.562329 0.613845
O O5 0.576352 0.794434 0.125150
O O6 0.218242 0.769277 0.103088
O O7 0.078123 0.837009 0.874609
O O8 0.925411 0.684137 0.316607
O O9 0.086209 0.809577 0.377538
O O10 0.780557 0.058711 0.593656
O O11 0.138652 0.963900 0.726780
O O12 0.433026 0.149251 0.361937
O O13 0.174459 0.108386 0.076090
O O14 0.962664 0.540627 0.332761
#
# Coordination Sequence:
#
# PCOD8121151 Si02
#       8
#     4   4   4   2   4   4   4   2
#     4   9  19  36  55  77 108 145 184 225 273 331
#     4   8  16  35  61  82 106 147 191 229 277 335
#     4   8  16  35  61  82 106 147 191 229 277 335
#     4  12  24  38  56  84 118 158 182 210 278 356
#     4  10  22  40  61  86 114 144 186 237 278 321
#     4   9  19  36  55  77 108 145 184 225 273 331
#     4  10  22  40  61  86 114 144 186 237 278 321
#     4  12  20  30  52  84 112 142 180 228 276 322
#
# _framework density 22.330762
#
# number of rings (size 3 to 8) (size 9 to 14) (size 15 to 20)
#    0.000    2.571    0.000    3.429    0.000    3.429 
#    0.000    8.571    0.000    6.857    0.000    0.000 
#    0.000    0.000    0.000    0.000    0.000    0.000 
#
# Total GULP energy -346974.992367 kJ/mol
# GULP energy per Si atom -12391.964013 kJ/mol
# Density = 2.227994 g / cm^3
# Si number density = 22.330762 Si / 1000 Ang^3
#
#
#
# Elastic Constant Matrix: (Units=GPa)
#
#
# Indices 1 2 3 4 5 6 
#
# 1 51.5174 24.5939 28.4866 0.0000 27.3013 0.0000
# 2 24.5939 151.0571 70.5118 0.0000 24.7247 0.0000
# 3 28.4866 70.5118 111.3243 0.0000 10.9968 0.0000
# 4 0.0000 0.0000 0.0000 32.5412 0.0000 0.0460
# 5 27.3013 24.7247 10.9968 0.0000 25.5811 0.0000
# 6 0.0000 0.0000 0.0000 0.0460 0.0000 2.8890
#
#
#
# Elastic Compliance Matrix: (Units=1/GPa)
#
#
# Indices 1 2 3 4 5 6 
#
# 1 0.054330 0.006509 -0.012194 0.000000 -0.059032 0.000000
# 2 0.006509 0.011473 -0.007468 0.000000 -0.014825 0.000000
# 3 -0.012194 -0.007468 0.015492 0.000000 0.013571 0.000000
# 4 0.000000 0.000000 0.000000 0.030731 0.000000 -0.000489
# 5 -0.059032 -0.014825 0.013571 0.000000 0.110587 0.000000
# 6 0.000000 0.000000 0.000000 -0.000489 0.000000 0.346144
#
#
# Mechanical properties :
#
#
# Convention : Reuss Voigt Hill
#
# Bulk Modulus (GPa) = 18.18533 62.34259 40.26396
# Shear Modulus (GPa) = 8.15139 24.88937 16.52038
#
# Velocity S-wave (km/s) = 1.91265 3.34215 2.72288
# Velocity P-wave (km/s) = 3.61095 6.54765 5.28728
#
# Compressibility (1/GPa) = 0.05498939
#
# Stress axis : x y z
#
# Youngs Moduli (GPa) = 18.40606 87.16369 64.54796
#
# Poissons Ratio (x) = -0.56731 0.78707
# Poissons Ratio (y) = -0.11980 0.48203
# Poissons Ratio (z) = 0.22444 0.65092
#
# Static dielectric constant tensor:
#      x y z
#    x 3.390560 0.000000 0.251460 
#    y 0.000000 4.234300 0.000000 
#    z 0.251460 0.000000 3.974710 
# 
# 
# High freq. dielectric constant tensor:
#      x y z
#    x 1.875870 0.000000 -0.016480 
#    y 0.000000 1.878870 0.000000 
#    z -0.016480 0.000000 1.880420 
# 
# From -- ./inp_files/48118.got.cif
#   From: 2010.06.25/outbox.cif.g09.slc.cpg/sg13_25_cif.got.tgz:48118.got - 2010.06.28 04:50:58.
