data_PCOD8121678
_publ_section_title
;
Structure prediction by ZEFSAII (Michael W. Deem and Ramdas Pophale) SiO2 
 PCOD8121678
Probable space group: P 2/C
;
_chemical_formula_sum "Si O2"
_cell_formula_units_Z 26
_cell_length_a 12.449732
_cell_length_b 13.029076
_cell_length_c 8.887685
_cell_angle_alpha 90.000000
_cell_angle_beta 120.559324
_cell_angle_gamma 90.000000
_cell_volume 1241.416387
_symmetry_space_group_name_H-M "P 2/C"
_symmetry_group_IT_number 13
_symmetry_cell_setting 'monoclinic'
loop_
_space_group_symop_operation_xyz
x,y,z
-x,y,1/2-z
-x,-y,-z
x,-y,1/2+z
loop_
_atom_site_type_symbol
_atom_site_label
_atom_site_fract_x
_atom_site_fract_y
_atom_site_fract_z
Si Si1 0.000000 0.529530 0.750000
Si Si2 0.227184 0.888270 0.722603
Si Si3 0.995738 0.824629 0.412071
Si Si4 0.623937 0.255883 0.743219
Si Si5 0.200414 0.082207 0.526870
Si Si6 0.507126 0.886124 0.577111
Si Si7 0.138972 0.380746 0.628512
O O1 0.101978 0.468251 0.722220
O O2 0.914845 0.597103 0.576946
O O3 0.135292 0.808155 0.575896
O O4 0.357554 0.836091 0.861148
O O5 0.264694 0.979638 0.634202
O O6 0.163839 0.933808 0.827495
O O7 0.000000 0.874388 0.250000
O O8 0.926323 0.903552 0.471071
O O9 0.927287 0.717799 0.351388
O O10 0.500000 0.287099 0.750000
O O11 0.707819 0.179098 0.899946
O O12 0.590964 0.194012 0.565579
O O13 0.710787 0.357007 0.770527
O O14 0.500000 0.892692 0.750000
O O15 0.500000 0.000000 0.500000
#
# Coordination Sequence:
#
# PCOD8121678 Si02
#       7
#     2   4   4   4   4   4   4
#     4  10  22  48  72 108 120 164 200 278 362 410
#     4  12  23  37  59  86 128 183 222 269 313 371
#     4  11  24  39  60  95 129 163 216 277 329 387
#     4  11  23  43  62  96 133 177 222 264 314 388
#     4  11  23  37  58  85 132 178 224 272 313 372
#     4  12  24  37  58  86 128 180 231 261 306 367
#     4  10  24  42  75  97 135 155 212 271 343 410
#
# _framework density 20.943818
#
# number of rings (size 3 to 8) (size 9 to 14) (size 15 to 20)
#    0.000    0.923    3.846    3.231    8.615    0.000 
#    0.000    2.308    0.000    0.000    0.000    0.000 
#    0.000    0.000    0.000    0.000    0.000    0.000 
#
# Total GULP energy -322190.497628 kJ/mol
# GULP energy per Si atom -12391.942216 kJ/mol
# Density = 2.089615 g / cm^3
# Si number density = 20.943818 Si / 1000 Ang^3
#
#
#
# Elastic Constant Matrix: (Units=GPa)
#
#
# Indices 1 2 3 4 5 6 
#
# 1 131.4186 32.6972 62.1603 0.0000 5.0608 0.0000
# 2 32.6972 36.4618 18.7547 0.0000 4.7635 0.0000
# 3 62.1603 18.7547 143.4452 0.0000 -13.2493 0.0000
# 4 0.0000 0.0000 0.0000 29.4064 0.0000 6.8576
# 5 5.0608 4.7635 -13.2493 0.0000 49.1197 0.0000
# 6 0.0000 0.0000 0.0000 6.8576 0.0000 31.4151
#
#
#
# Elastic Compliance Matrix: (Units=1/GPa)
#
#
# Indices 1 2 3 4 5 6 
#
# 1 0.011637 -0.008116 -0.004122 0.000000 -0.001524 0.000000
# 2 -0.008116 0.035846 -0.001450 0.000000 -0.003031 0.000000
# 3 -0.004122 -0.001450 0.009229 0.000000 0.003055 0.000000
# 4 0.000000 0.000000 0.000000 0.035830 0.000000 -0.007821
# 5 -0.001524 -0.003031 0.003055 0.000000 0.021633 0.000000
# 6 0.000000 0.000000 0.000000 -0.007821 0.000000 0.033539
#
#
# Mechanical properties :
#
#
# Convention : Reuss Voigt Hill
#
# Bulk Modulus (GPa) = 34.08785 59.83888 46.96336
# Shear Modulus (GPa) = 27.04608 35.16914 31.10761
#
# Velocity S-wave (km/s) = 3.59745 4.10227 3.85812
# Velocity P-wave (km/s) = 5.79368 7.14642 6.50531
#
# Compressibility (1/GPa) = 0.02933597
#
# Stress axis : x y z
#
# Youngs Moduli (GPa) = 85.93174 27.89739 108.34952
#
# Poissons Ratio (x) = 0.22642 0.44666
# Poissons Ratio (y) = 0.69743 0.15706
# Poissons Ratio (z) = 0.35425 0.04044
#
# Static dielectric constant tensor:
#      x y z
#    x 3.157130 0.000000 0.308060 
#    y 0.000000 3.471980 0.000000 
#    z 0.308060 0.000000 3.950640 
# 
# 
# High freq. dielectric constant tensor:
#      x y z
#    x 1.838990 0.000000 -0.006320 
#    y 0.000000 1.770200 0.000000 
#    z -0.006320 0.000000 1.841150 
# 
# From -- ./inp_files/16623.got.cif
#   From: 2010.06.25/outbox.cif.g09.slc.cpg/sg13_9_cif.got.tgz:16623.got - 2010.06.28 04:50:58.
