data_PCOD8121899
_publ_section_title
;
Structure prediction by ZEFSAII (Michael W. Deem and Ramdas Pophale) SiO2 
 PCOD8121899
Probable space group: P 2/C
;
_chemical_formula_sum "Si O2"
_cell_formula_units_Z 32
_cell_length_a 12.452335
_cell_length_b 12.863525
_cell_length_c 17.348751
_cell_angle_alpha 90.000000
_cell_angle_beta 148.256614
_cell_angle_gamma 90.000000
_cell_volume 1462.043570
_symmetry_space_group_name_H-M "P 2/C"
_symmetry_group_IT_number 13
_symmetry_cell_setting 'monoclinic'
loop_
_space_group_symop_operation_xyz
x,y,z
-x,y,1/2-z
-x,-y,-z
x,-y,1/2+z
loop_
_atom_site_type_symbol
_atom_site_label
_atom_site_fract_x
_atom_site_fract_y
_atom_site_fract_z
Si Si1 0.660359 0.361125 0.911503
Si Si2 0.042718 0.839097 0.491106
Si Si3 0.821944 0.245901 0.584490
Si Si4 0.100535 0.664739 0.648009
Si Si5 0.508293 0.414875 0.343097
Si Si6 0.312676 0.977248 0.187331
Si Si7 0.503227 0.094139 0.058894
Si Si8 0.789024 0.237087 0.136360
O O1 0.500000 0.320627 0.750000
O O2 0.590236 0.469436 0.905744
O O3 0.682357 0.275604 0.992534
O O4 0.873698 0.380686 0.996542
O O5 0.072372 0.768610 0.433992
O O6 0.118261 0.774620 0.612265
O O7 0.164547 0.946328 0.549276
O O8 0.805594 0.873613 0.356708
O O9 0.647970 0.334154 0.475157
O O10 0.718102 0.140091 0.553233
O O11 0.000000 0.283086 0.750000
O O12 0.274227 0.585431 0.727637
O O13 0.125864 0.672078 0.756133
O O14 0.500000 0.379293 0.250000
O O15 0.500000 0.937368 0.250000
O O16 0.386996 0.053249 0.299022
O O17 0.626050 0.181237 0.089192
O O18 0.500000 0.000000 0.000000
O O19 0.000000 0.170446 0.250000
#
# Coordination Sequence:
#
# PCOD8121899 Si02
#       8
#     4   4   4   4   4   4   4   4
#     4  10  26  45  69 108 139 175 239 294 353 419
#     4  11  23  41  71 100 134 186 234 285 344 419
#     4  12  25  43  67 105 140 179 238 293 346 418
#     4  11  22  45  74  96 140 186 231 281 363 420
#     4  11  23  46  76  99 136 187 230 291 352 427
#     4  11  23  41  69  99 135 184 235 284 344 419
#     4  12  25  42  66  98 141 183 230 286 350 406
#     4  10  23  44  69  97 137 188 224 282 355 424
#
# _framework density 21.887173000000001
#
# number of rings (size 3 to 8) (size 9 to 14) (size 15 to 20)
#    0.000    1.000    5.000    0.750    0.000   10.000 
#    2.250    0.000    0.000    0.000    0.000    0.000 
#    0.000    0.000    0.000    0.000    0.000    0.000 
#
# Total GULP energy -396660.501972 kJ/mol
# GULP energy per Si atom -12395.640687 kJ/mol
# Density = 2.183736 g / cm^3
# Si number density = 21.887173 Si / 1000 Ang^3
#
#
#
# Elastic Constant Matrix: (Units=GPa)
#
#
# Indices 1 2 3 4 5 6 
#
# 1 131.7654 24.8234 63.4626 0.0000 14.2861 0.0000
# 2 24.8234 59.5747 35.1504 0.0000 5.3668 0.0000
# 3 63.4626 35.1504 142.5246 0.0000 4.5056 0.0000
# 4 0.0000 0.0000 0.0000 24.9531 0.0000 8.7370
# 5 14.2861 5.3668 4.5056 0.0000 48.1179 0.0000
# 6 0.0000 0.0000 0.0000 8.7370 0.0000 22.6516
#
#
#
# Elastic Compliance Matrix: (Units=1/GPa)
#
#
# Indices 1 2 3 4 5 6 
#
# 1 0.010094 -0.001615 -0.004019 0.000000 -0.002440 0.000000
# 2 -0.001615 0.020049 -0.004183 0.000000 -0.001365 0.000000
# 3 -0.004019 -0.004183 0.009814 0.000000 0.000741 0.000000
# 4 0.000000 0.000000 0.000000 0.046332 0.000000 -0.017871
# 5 -0.002440 -0.001365 0.000741 0.000000 0.021590 0.000000
# 6 0.000000 0.000000 0.000000 -0.017871 0.000000 0.051040
#
#
# Mechanical properties :
#
#
# Convention : Reuss Voigt Hill
#
# Bulk Modulus (GPa) = 49.20196 64.52639 56.86417
# Shear Modulus (GPa) = 26.97939 33.17307 30.07623
#
# Velocity S-wave (km/s) = 3.51473 3.89735 3.71097
# Velocity P-wave (km/s) = 6.24498 7.05675 6.66324
#
# Compressibility (1/GPa) = 0.02032439
#
# Stress axis : x y z
#
# Youngs Moduli (GPa) = 99.07103 49.87727 101.89457
#
# Poissons Ratio (x) = 0.08053 0.40953
# Poissons Ratio (y) = 0.15996 0.42618
# Poissons Ratio (z) = 0.39818 0.20862
#
# Static dielectric constant tensor:
#      x y z
#    x 4.164600 0.000000 0.253300 
#    y 0.000000 4.764020 0.000000 
#    z 0.253300 0.000000 3.892730 
# 
# 
# High freq. dielectric constant tensor:
#      x y z
#    x 1.876960 0.000000 0.009360 
#    y 0.000000 1.835790 0.000000 
#    z 0.009360 0.000000 1.871450 
# 
# From -- ./inp_files/66941.got.cif
#   From: 2010.06.25/outbox.cif.g09.slc.cpg/sg13_34_cif.got.tgz:66941.got - 2010.06.28 04:50:58.
