data_PCOD8121937
_publ_section_title
;
Structure prediction by ZEFSAII (Michael W. Deem and Ramdas Pophale) SiO2 
 PCOD8121937
Probable space group: P 2/C
;
_chemical_formula_sum "Si O2"
_cell_formula_units_Z 26
_cell_length_a 8.853134
_cell_length_b 14.897029
_cell_length_c 14.877486
_cell_angle_alpha 90.000000
_cell_angle_beta 143.415093
_cell_angle_gamma 90.000000
_cell_volume 1169.451610
_symmetry_space_group_name_H-M "P 2/C"
_symmetry_group_IT_number 13
_symmetry_cell_setting 'monoclinic'
loop_
_space_group_symop_operation_xyz
x,y,z
-x,y,1/2-z
-x,-y,-z
x,-y,1/2+z
loop_
_atom_site_type_symbol
_atom_site_label
_atom_site_fract_x
_atom_site_fract_y
_atom_site_fract_z
Si Si1 0.179221 0.785567 0.520307
Si Si2 0.500000 0.940195 0.750000
Si Si3 0.447585 0.940009 0.387994
Si Si4 0.671137 0.592269 0.508983
Si Si5 0.222152 0.465869 0.252762
Si Si6 0.500000 0.641559 0.750000
Si Si7 0.289842 0.778212 0.073896
Si Si8 0.000000 0.170528 0.750000
O O1 0.302458 0.882204 0.598050
O O2 0.376842 0.705250 0.617463
O O3 0.106723 0.770367 0.381862
O O4 0.972626 0.777360 0.499290
O O5 0.629106 0.002168 0.736077
O O6 0.670619 0.868205 0.468461
O O7 0.197572 0.887850 0.290766
O O8 0.500000 0.000000 0.500000
O O9 0.396083 0.556233 0.343332
O O10 0.678729 0.599382 0.620365
O O11 0.707885 0.691370 0.488386
O O12 0.913139 0.524312 0.603436
O O13 0.282834 0.420265 0.187568
O O14 0.500000 0.771812 0.250000
#
# Coordination Sequence:
#
# PCOD8121937 Si02
#       8
#     4   2   4   4   4   2   4   2
#     4  11  25  43  68 101 141 186 229 300 343 420
#     4  11  24  46  67  96 144 184 245 294 358 417
#     4  12  26  43  67 101 137 190 237 293 359 419
#     4  10  24  46  71 105 138 186 227 292 353 424
#     4  10  23  45  71 102 144 175 235 284 354 429
#     4  11  24  42  69 106 138 178 231 282 348 421
#     4  12  25  44  68 100 141 181 232 289 350 422
#     4  12  24  44  64 100 142 174 240 290 358 416
#
# _framework density 22.232644000000001
#
# number of rings (size 3 to 8) (size 9 to 14) (size 15 to 20)
#    0.000    0.923    5.385    0.000    5.385    3.077 
#    0.000    0.000    0.000    0.000    0.000    0.000 
#    0.000    0.000    0.000    0.000    0.000    0.000 
#
# Total GULP energy -322105.827125 kJ/mol
# GULP energy per Si atom -12388.685659 kJ/mol
# Density = 2.218204 g / cm^3
# Si number density = 22.232644 Si / 1000 Ang^3
#
#
#
# Elastic Constant Matrix: (Units=GPa)
#
#
# Indices 1 2 3 4 5 6 
#
# 1 105.6714 28.9975 15.1157 0.0000 -16.7764 0.0000
# 2 28.9975 82.2079 25.3512 0.0000 -15.6917 0.0000
# 3 15.1157 25.3512 83.4113 0.0000 -14.8459 0.0000
# 4 0.0000 0.0000 0.0000 77.3641 0.0000 -27.1261
# 5 -16.7764 -15.6917 -14.8459 0.0000 46.3496 0.0000
# 6 0.0000 0.0000 0.0000 -27.1261 0.0000 51.9945
#
#
#
# Elastic Compliance Matrix: (Units=1/GPa)
#
#
# Indices 1 2 3 4 5 6 
#
# 1 0.010828 -0.003144 -0.000529 0.000000 0.002686 0.000000
# 2 -0.003144 0.014871 -0.003453 0.000000 0.002791 0.000000
# 3 -0.000529 -0.003453 0.013671 0.000000 0.003018 0.000000
# 4 0.000000 0.000000 0.000000 0.015820 0.000000 0.008253
# 5 0.002686 0.002791 0.003018 0.000000 0.024459 0.000000
# 6 0.000000 0.000000 0.000000 0.008253 0.000000 0.023539
#
#
# Mechanical properties :
#
#
# Convention : Reuss Voigt Hill
#
# Bulk Modulus (GPa) = 39.81119 45.57991 42.69555
# Shear Modulus (GPa) = 39.74191 48.59671 44.16931
#
# Velocity S-wave (km/s) = 4.23253 4.68035 4.46206
# Velocity P-wave (km/s) = 6.46771 7.05361 6.76700
#
# Compressibility (1/GPa) = 0.02511857
#
# Stress axis : x y z
#
# Youngs Moduli (GPa) = 92.35339 67.24610 73.14531
#
# Poissons Ratio (x) = 0.21140 0.03868
# Poissons Ratio (y) = 0.29033 0.25259
# Poissons Ratio (z) = 0.04883 0.23222
#
# Static dielectric constant tensor:
#      x y z
#    x 4.059960 0.000000 -0.092670 
#    y 0.000000 3.815990 0.000000 
#    z -0.092670 0.000000 3.782060 
# 
# 
# High freq. dielectric constant tensor:
#      x y z
#    x 1.899770 0.000000 -0.006090 
#    y 0.000000 1.868680 0.000000 
#    z -0.006090 0.000000 1.873640 
# 
# From -- ./inp_files/47844.got.cif
#   From: 2010.06.25/outbox.cif.g09.slc.cpg/sg13_24_cif.got.tgz:47844.got - 2010.06.28 04:50:58.
