data_PCOD8121628
_publ_section_title
;
Structure prediction by ZEFSAII (Michael W. Deem and Ramdas Pophale) SiO2 
 PCOD8121628
Probable space group: P 2/C
;
_chemical_formula_sum "Si O2"
_cell_formula_units_Z 26
_cell_length_a 20.180507
_cell_length_b 7.892921
_cell_length_c 8.616638
_cell_angle_alpha 90.000000
_cell_angle_beta 130.572095
_cell_angle_gamma 90.000000
_cell_volume 1042.523533
_symmetry_space_group_name_H-M "P 2/C"
_symmetry_group_IT_number 13
_symmetry_cell_setting 'monoclinic'
loop_
_space_group_symop_operation_xyz
x,y,z
-x,y,1/2-z
-x,-y,-z
x,-y,1/2+z
loop_
_atom_site_type_symbol
_atom_site_label
_atom_site_fract_x
_atom_site_fract_y
_atom_site_fract_z
Si Si1 0.658231 0.995191 0.730546
Si Si2 0.955089 0.833190 0.843492
Si Si3 0.760713 0.448430 0.735274
Si Si4 0.117449 0.483773 0.827616
Si Si5 0.762049 0.831662 0.638078
Si Si6 0.595155 0.768275 0.895131
Si Si7 0.000000 0.210552 0.750000
O O1 0.743595 0.948339 0.759772
O O2 0.618518 0.831645 0.757608
O O3 0.587092 0.075861 0.504847
O O4 0.687724 0.136446 0.897574
O O5 0.955221 0.625897 0.829878
O O6 0.855129 0.888759 0.709272
O O7 0.000000 0.907146 0.750000
O O8 0.005052 0.884630 0.086409
O O9 0.842425 0.380559 0.756810
O O10 0.751235 0.643766 0.682122
O O11 0.669523 0.357298 0.569730
O O12 0.797563 0.422109 0.965955
O O13 0.082351 0.337825 0.889854
O O14 0.500000 0.678324 0.750000
#
# Coordination Sequence:
#
# PCOD8121628 Si02
#       7
#     4   4   4   4   4   4   2
#     4  10  23  44  69  88 133 187 218 263 344 438
#     4  11  22  36  59  94 136 179 231 291 343 397
#     4  11  22  37  66  96 131 166 225 290 341 389
#     4  11  19  35  55  92 134 172 216 273 347 411
#     4  10  22  45  64  95 129 178 233 274 342 419
#     4  11  23  42  68 102 131 172 224 278 342 411
#     4  12  20  34  58  94 140 176 228 282 348 406
#
# _framework density 24.939485000000001
#
# number of rings (size 3 to 8) (size 9 to 14) (size 15 to 20)
#    0.000    1.231    3.846    4.615    0.000    0.000 
#    2.769   10.769    0.000    0.000    0.000    0.000 
#    0.000    0.000    0.000    0.000    0.000    0.000 
#
# Total GULP energy -322215.194783 kJ/mol
# GULP energy per Si atom -12392.892107 kJ/mol
# Density = 2.488272 g / cm^3
# Si number density = 24.939485 Si / 1000 Ang^3
#
#
#
# Elastic Constant Matrix: (Units=GPa)
#
#
# Indices 1 2 3 4 5 6 
#
# 1 111.0697 30.9551 62.5769 0.0000 -2.2992 0.0000
# 2 30.9551 58.8377 43.2127 0.0000 -10.7676 0.0000
# 3 62.5769 43.2127 118.3134 0.0000 -15.9004 0.0000
# 4 0.0000 0.0000 0.0000 31.3444 0.0000 -1.6696
# 5 -2.2992 -10.7676 -15.9004 0.0000 41.0465 0.0000
# 6 0.0000 0.0000 0.0000 -1.6696 0.0000 38.6454
#
#
#
# Elastic Compliance Matrix: (Units=1/GPa)
#
#
# Indices 1 2 3 4 5 6 
#
# 1 0.013306 -0.002785 -0.006349 0.000000 -0.002445 0.000000
# 2 -0.002785 0.024155 -0.006877 0.000000 0.003517 0.000000
# 3 -0.006349 -0.006877 0.014802 0.000000 0.003574 0.000000
# 4 0.000000 0.000000 0.000000 0.031977 0.000000 0.001382
# 5 -0.002445 0.003517 0.003574 0.000000 0.026533 0.000000
# 6 0.000000 0.000000 0.000000 0.001382 0.000000 0.025936
#
#
# Mechanical properties :
#
#
# Convention : Reuss Voigt Hill
#
# Bulk Modulus (GPa) = 49.40243 62.41226 55.90735
# Shear Modulus (GPa) = 28.49354 32.30567 30.39961
#
# Velocity S-wave (km/s) = 3.38377 3.60302 3.49511
# Velocity P-wave (km/s) = 5.92608 6.51067 6.22524
#
# Compressibility (1/GPa) = 0.02024192
#
# Stress axis : x y z
#
# Youngs Moduli (GPa) = 75.15439 41.39886 67.55708
#
# Poissons Ratio (x) = 0.11529 0.42892
# Poissons Ratio (y) = 0.20929 0.46459
# Poissons Ratio (z) = 0.47716 0.28470
#
# Static dielectric constant tensor:
#      x y z
#    x 4.895720 0.000000 -0.447420 
#    y 0.000000 4.386710 0.000000 
#    z -0.447420 0.000000 4.454960 
# 
# 
# High freq. dielectric constant tensor:
#      x y z
#    x 1.997540 0.000000 -0.034460 
#    y 0.000000 1.994290 0.000000 
#    z -0.034460 0.000000 1.999910 
# 
# From -- ./inp_files/22986.got.cif
#   From: 2010.06.25/outbox.cif.g09.slc.cpg/sg13_12_cif.got.tgz:22986.got - 2010.06.28 04:50:58.
