data_PCOD8121813
_publ_section_title
;
Structure prediction by ZEFSAII (Michael W. Deem and Ramdas Pophale) SiO2 
 PCOD8121813
Probable space group: P 2/C
;
_chemical_formula_sum "Si O2"
_cell_formula_units_Z 24
_cell_length_a 17.254970
_cell_length_b 8.781615
_cell_length_c 21.948306
_cell_angle_alpha 90.000000
_cell_angle_beta 158.978522
_cell_angle_gamma 90.000000
_cell_volume 1193.006039
_symmetry_space_group_name_H-M "P 2/C"
_symmetry_group_IT_number 13
_symmetry_cell_setting 'monoclinic'
loop_
_space_group_symop_operation_xyz
x,y,z
-x,y,1/2-z
-x,-y,-z
x,-y,1/2+z
loop_
_atom_site_type_symbol
_atom_site_label
_atom_site_fract_x
_atom_site_fract_y
_atom_site_fract_z
Si Si1 0.663940 0.287475 0.242354
Si Si2 0.588300 0.414902 0.623315
Si Si3 0.773563 0.816989 0.596905
Si Si4 0.272069 0.063578 0.313421
Si Si5 0.342193 0.086828 0.078958
Si Si6 0.987559 0.791361 0.404299
O O1 0.630452 0.467591 0.209518
O O2 0.702788 0.220851 0.203795
O O3 0.454348 0.210185 0.117755
O O4 0.873403 0.259138 0.436487
O O5 0.500000 0.500000 0.500000
O O6 0.422590 0.293820 0.530515
O O7 0.809551 0.338302 0.762169
O O8 0.848682 0.911290 0.711564
O O9 0.000000 0.728092 0.750000
O O10 0.705936 0.932864 0.493589
O O11 0.500000 0.000000 0.500000
O O12 0.140142 0.947177 0.173835
O O13 0.500000 0.038571 0.250000
O O14 0.132215 0.175459 0.950627
#
# Coordination Sequence:
#
# PCOD8121813 Si02
#       6
#     4   4   4   4   4   4
#     4  11  23  42  64  93 134 169 208 261 323 390
#     4  12  25  43  63  94 132 170 215 260 326 394
#     4  12  24  41  65  97 126 166 217 271 319 372
#     4  12  20  39  68  96 124 165 220 265 311 370
#     4  10  23  42  66  96 126 163 213 268 320 373
#     4  11  23  41  67  95 125 171 215 264 318 376
#
# _framework density 20.117249000000001
#
# number of rings (size 3 to 8) (size 9 to 14) (size 15 to 20)
#    0.000    0.667    6.667    1.000    0.000    2.667 
#    0.000    2.500    0.000    0.000    0.000    0.000 
#    0.000    0.000    0.000    0.000    0.000    0.000 
#
# Total GULP energy -297475.461948 kJ/mol
# GULP energy per Si atom -12394.810915 kJ/mol
# Density = 2.007146 g / cm^3
# Si number density = 20.117249 Si / 1000 Ang^3
#
#
#
# Elastic Constant Matrix: (Units=GPa)
#
#
# Indices 1 2 3 4 5 6 
#
# 1 110.9351 52.3461 62.7171 0.0000 -2.1527 0.0000
# 2 52.3461 124.7190 73.1825 0.0000 -2.1897 0.0000
# 3 62.7171 73.1825 140.2568 0.0000 15.0878 0.0000
# 4 0.0000 0.0000 0.0000 37.7026 0.0000 -4.2122
# 5 -2.1527 -2.1897 15.0878 0.0000 33.0251 0.0000
# 6 0.0000 0.0000 0.0000 -4.2122 0.0000 36.1272
#
#
#
# Elastic Compliance Matrix: (Units=1/GPa)
#
#
# Indices 1 2 3 4 5 6 
#
# 1 0.012988 -0.002615 -0.004749 0.000000 0.002843 0.000000
# 2 -0.002615 0.012530 -0.005721 0.000000 0.003274 0.000000
# 3 -0.004749 -0.005721 0.012949 0.000000 -0.006605 0.000000
# 4 0.000000 0.000000 0.000000 0.026873 0.000000 0.003133
# 5 0.002843 0.003274 -0.006605 0.000000 0.033700 0.000000
# 6 0.000000 0.000000 0.000000 0.003133 0.000000 0.028045
#
#
# Mechanical properties :
#
#
# Convention : Reuss Voigt Hill
#
# Bulk Modulus (GPa) = 81.31777 83.60024 82.45901
# Shear Modulus (GPa) = 31.77548 33.88201 32.82874
#
# Velocity S-wave (km/s) = 3.97862 4.10839 4.04402
# Velocity P-wave (km/s) = 7.84956 8.00948 7.92992
#
# Compressibility (1/GPa) = 0.01229743
#
# Stress axis : x y z
#
# Youngs Moduli (GPa) = 76.99270 79.81056 77.22610
#
# Poissons Ratio (x) = 0.20867 0.36678
# Poissons Ratio (y) = 0.20130 0.44179
# Poissons Ratio (z) = 0.36567 0.45658
#
# Static dielectric constant tensor:
#      x y z
#    x 3.477130 0.000000 0.122770 
#    y 0.000000 3.716710 0.000000 
#    z 0.122770 0.000000 3.847440 
# 
# 
# High freq. dielectric constant tensor:
#      x y z
#    x 1.792180 0.000000 0.004750 
#    y 0.000000 1.779160 0.000000 
#    z 0.004750 0.000000 1.803770 
# 
# From -- ./inp_files/46001.got.cif
#   From: 2010.06.25/outbox.cif.g09.slc.cpg/sg13_24_cif.got.tgz:46001.got - 2010.06.28 04:50:58.
