data_PCOD8121797
_publ_section_title
;
Structure prediction by ZEFSAII (Michael W. Deem and Ramdas Pophale) SiO2 
 PCOD8121797
Probable space group: P 2/C
;
_chemical_formula_sum "Si O2"
_cell_formula_units_Z 20
_cell_length_a 22.741652
_cell_length_b 6.404804
_cell_length_c 13.234022
_cell_angle_alpha 90.000000
_cell_angle_beta 26.104430
_cell_angle_gamma 90.000000
_cell_volume 848.166027
_symmetry_space_group_name_H-M "P 2/C"
_symmetry_group_IT_number 13
_symmetry_cell_setting 'monoclinic'
loop_
_space_group_symop_operation_xyz
x,y,z
-x,y,1/2-z
-x,-y,-z
x,-y,1/2+z
loop_
_atom_site_type_symbol
_atom_site_label
_atom_site_fract_x
_atom_site_fract_y
_atom_site_fract_z
Si Si1 0.663724 0.312396 0.892286
Si Si2 0.861450 0.660436 0.819515
Si Si3 0.636858 0.347513 0.165144
Si Si4 0.103878 0.630906 0.966970
Si Si5 0.787839 0.972488 0.567802
O O1 0.770652 0.487480 0.696703
O O2 0.697964 0.096296 0.786252
O O3 0.667536 0.266997 0.005188
O O4 0.519554 0.394850 0.078226
O O5 0.891885 0.705090 0.655648
O O6 0.966931 0.492717 0.700403
O O7 0.713800 0.565565 0.064910
O O8 0.872311 0.876343 0.863548
O O9 0.684665 0.165516 0.164219
O O10 0.105954 0.834005 0.034188
#
# Coordination Sequence:
#
# PCOD8121797 Si02
#       5
#     4   4   4   4   4
#     4  10  23  42  63  93 134 174 213 263 322 381
#     4  10  24  45  66  93 132 172 211 263 325 385
#     4  10  23  42  63  93 134 174 213 263 322 381
#     4  10  24  45  66  93 132 172 211 263 325 385
#     4  12  23  39  68  98 123 165 222 270 315 381
#
# _framework density 23.580287999999999
#
# number of rings (size 3 to 8) (size 9 to 14) (size 15 to 20)
#    0.000    1.600    0.000    3.000    0.000   11.200 
#    0.000   10.000    0.000    3.600    0.000    0.000 
#    0.000    0.000    0.000    0.000    0.000    0.000 
#
# Total GULP energy -248159.650035 kJ/mol
# GULP energy per Si atom -12407.982502 kJ/mol
# Density = 2.352662 g / cm^3
# Si number density = 23.580288 Si / 1000 Ang^3
#
#
#
# Elastic Constant Matrix: (Units=GPa)
#
#
# Indices 1 2 3 4 5 6 
#
# 1 136.0293 82.5393 42.1415 0.0000 -17.9859 0.0000
# 2 82.5393 121.6531 39.4967 0.0000 -11.5951 0.0000
# 3 42.1415 39.4967 112.0518 0.0000 -34.6141 0.0000
# 4 0.0000 0.0000 0.0000 36.7496 0.0000 5.8433
# 5 -17.9859 -11.5951 -34.6141 0.0000 22.5047 0.0000
# 6 0.0000 0.0000 0.0000 5.8433 0.0000 55.5720
#
#
#
# Elastic Compliance Matrix: (Units=1/GPa)
#
#
# Indices 1 2 3 4 5 6 
#
# 1 0.013292 -0.008385 -0.000184 0.000000 0.006020 0.000000
# 2 -0.008385 0.014575 -0.003304 0.000000 -0.004274 0.000000
# 3 -0.000184 -0.003304 0.018265 0.000000 0.026245 0.000000
# 4 0.000000 0.000000 0.000000 0.027674 0.000000 -0.002910
# 5 0.006020 -0.004274 0.026245 0.000000 0.087411 0.000000
# 6 0.000000 0.000000 0.000000 -0.002910 0.000000 0.018301
#
#
# Mechanical properties :
#
#
# Convention : Reuss Voigt Hill
#
# Bulk Modulus (GPa) = 44.66963 77.56546 61.11755
# Shear Modulus (GPa) = 23.72755 36.66904 30.19830
#
# Velocity S-wave (km/s) = 3.17558 3.94772 3.58251
# Velocity P-wave (km/s) = 5.69478 7.33109 6.56412
#
# Compressibility (1/GPa) = 0.02238658
#
# Stress axis : x y z
#
# Youngs Moduli (GPa) = 75.23277 68.61294 54.74807
#
# Poissons Ratio (x) = 0.57532 0.01005
# Poissons Ratio (y) = 0.63083 0.18090
# Poissons Ratio (z) = 0.01381 0.22671
#
# Static dielectric constant tensor:
#      x y z
#    x 4.591200 0.000000 0.048750 
#    y 0.000000 4.081290 0.000000 
#    z 0.048750 0.000000 4.233230 
# 
# 
# High freq. dielectric constant tensor:
#      x y z
#    x 1.964670 0.000000 0.008600 
#    y 0.000000 1.923280 0.000000 
#    z 0.008600 0.000000 1.942420 
# 
# From -- ./inp_files/57995.got.cif
#   From: 2010.06.25/outbox.cif.g09.slc.cpg/sg13_29_cif.got.tgz:57995.got - 2010.06.28 04:50:58.
