data_PCOD8121006
_publ_section_title
;
Structure prediction by ZEFSAII (Michael W. Deem and Ramdas Pophale) SiO2 
 PCOD8121006
Probable space group: P 2/C
;
_chemical_formula_sum "Si O2"
_cell_formula_units_Z 30
_cell_length_a 14.393021
_cell_length_b 8.643921
_cell_length_c 21.625022
_cell_angle_alpha 90.000000
_cell_angle_beta 30.745832
_cell_angle_gamma 90.000000
_cell_volume 1375.422482
_symmetry_space_group_name_H-M "P 2/C"
_symmetry_group_IT_number 13
_symmetry_cell_setting 'monoclinic'
loop_
_space_group_symop_operation_xyz
x,y,z
-x,y,1/2-z
-x,-y,-z
x,-y,1/2+z
loop_
_atom_site_type_symbol
_atom_site_label
_atom_site_fract_x
_atom_site_fract_y
_atom_site_fract_z
Si Si1 0.300209 0.200333 0.938762
Si Si2 0.500000 0.427464 0.750000
Si Si3 0.203492 0.533139 0.664247
Si Si4 0.451591 0.991699 0.124366
Si Si5 0.813406 0.349433 0.081122
Si Si6 0.533714 0.251888 0.985433
Si Si7 0.012212 0.582089 0.893095
Si Si8 0.787228 0.015920 0.119122
O O1 0.448992 0.332356 0.840762
O O2 0.360682 0.075102 0.954628
O O3 0.289426 0.121432 0.877781
O O4 0.118890 0.290230 0.064517
O O5 0.343044 0.532443 0.812155
O O6 0.304293 0.371892 0.591443
O O7 0.349146 0.667861 0.563109
O O8 0.178734 0.548859 0.752319
O O9 0.000000 0.543423 0.750000
O O10 0.386783 0.870498 0.109299
O O11 0.295930 0.007322 0.264778
O O12 0.486759 0.160599 0.075453
O O13 0.939230 0.339545 0.069662
O O14 0.737704 0.177316 0.112769
O O15 0.918165 0.415540 0.960911
O O16 0.000000 0.000000 0.000000
#
# Coordination Sequence:
#
# PCOD8121006 Si02
#       8
#     4   2   4   4   4   4   4   4
#     4  11  22  41  66 100 129 179 213 273 344 392
#     4  10  22  38  62  94 136 176 216 260 330 408
#     4  11  24  47  70  98 128 173 234 276 331 387
#     4  11  24  46  65  94 140 171 226 268 332 402
#     4  10  23  38  61 102 129 172 213 263 341 392
#     4  10  26  46  70  96 129 185 221 281 328 389
#     4  10  22  41  66  93 134 165 220 275 325 399
#     4  12  24  40  66 100 138 172 214 274 337 395
#
# _framework density 21.811481000000001
#
# number of rings (size 3 to 8) (size 9 to 14) (size 15 to 20)
#    0.000    1.333    2.667    1.600    5.600    1.067 
#    4.800    1.333    0.000    0.000    0.000    0.000 
#    0.000    0.000    0.000    0.000    0.000    0.000 
#
# Total GULP energy -371853.485579 kJ/mol
# GULP energy per Si atom -12395.116186 kJ/mol
# Density = 2.176184 g / cm^3
# Si number density = 21.811481 Si / 1000 Ang^3
#
#
#
# Elastic Constant Matrix: (Units=GPa)
#
#
# Indices 1 2 3 4 5 6 
#
# 1 63.4496 23.6684 24.9664 0.0000 -6.7781 0.0000
# 2 23.6684 129.6453 52.6956 0.0000 1.7330 0.0000
# 3 24.9664 52.6956 111.2550 0.0000 3.9886 0.0000
# 4 0.0000 0.0000 0.0000 17.6701 0.0000 1.3847
# 5 -6.7781 1.7330 3.9886 0.0000 40.4942 0.0000
# 6 0.0000 0.0000 0.0000 1.3847 0.0000 34.6801
#
#
#
# Elastic Compliance Matrix: (Units=1/GPa)
#
#
# Indices 1 2 3 4 5 6 
#
# 1 0.018164 -0.002050 -0.003229 0.000000 0.003446 0.000000
# 2 -0.002050 0.009784 -0.004161 0.000000 -0.000352 0.000000
# 3 -0.003229 -0.004161 0.011738 0.000000 -0.001519 0.000000
# 4 0.000000 0.000000 0.000000 0.056770 0.000000 -0.002267
# 5 0.003446 -0.000352 -0.001519 0.000000 0.025436 0.000000
# 6 0.000000 0.000000 0.000000 -0.002267 0.000000 0.028926
#
#
# Mechanical properties :
#
#
# Convention : Reuss Voigt Hill
#
# Bulk Modulus (GPa) = 48.06306 56.33453 52.19880
# Shear Modulus (GPa) = 28.30725 32.10351 30.20538
#
# Velocity S-wave (km/s) = 3.60643 3.84065 3.72538
# Velocity P-wave (km/s) = 6.27895 6.74918 6.51831
#
# Compressibility (1/GPa) = 0.02080600
#
# Stress axis : x y z
#
# Youngs Moduli (GPa) = 55.05472 102.21067 85.19042
#
# Poissons Ratio (x) = 0.20950 0.27506
# Poissons Ratio (y) = 0.11285 0.35451
# Poissons Ratio (z) = 0.17776 0.42534
#
# Static dielectric constant tensor:
#      x y z
#    x 3.694650 0.000000 -0.073870 
#    y 0.000000 4.407920 0.000000 
#    z -0.073870 0.000000 5.046700 
# 
# 
# High freq. dielectric constant tensor:
#      x y z
#    x 1.838630 0.000000 0.000570 
#    y 0.000000 1.873910 0.000000 
#    z 0.000570 0.000000 1.861610 
# 
# From -- ./inp_files/87293.got.cif
#   From: 2010.06.25/outbox.cif.g09.slc.cpg/sg13_44_cif.got.tgz:87293.got - 2010.06.28 04:50:58.
