data_PCOD8121993
_publ_section_title
;
Structure prediction by ZEFSAII (Michael W. Deem and Ramdas Pophale) SiO2 
 PCOD8121993
Probable space group: P 2/C
;
_chemical_formula_sum "Si O2"
_cell_formula_units_Z 24
_cell_length_a 20.211649
_cell_length_b 5.273866
_cell_length_c 22.395904
_cell_angle_alpha 90.000000
_cell_angle_beta 26.331071
_cell_angle_gamma 90.000000
_cell_volume 1058.885862
_symmetry_space_group_name_H-M "P 2/C"
_symmetry_group_IT_number 13
_symmetry_cell_setting 'monoclinic'
loop_
_space_group_symop_operation_xyz
x,y,z
-x,y,1/2-z
-x,-y,-z
x,-y,1/2+z
loop_
_atom_site_type_symbol
_atom_site_label
_atom_site_fract_x
_atom_site_fract_y
_atom_site_fract_z
Si Si1 0.058034 0.415956 0.268616
Si Si2 0.095257 0.883341 0.847306
Si Si3 0.547737 0.910663 0.144347
Si Si4 0.072859 0.606114 0.014033
Si Si5 0.347523 0.199905 0.228001
Si Si6 0.645688 0.601036 0.512078
O O1 0.099175 0.157720 0.272112
O O2 0.000000 0.346509 0.250000
O O3 0.933647 0.567845 0.408112
O O4 0.205142 0.594286 0.148258
O O5 0.264471 0.890396 0.735245
O O6 0.014059 0.637765 0.944329
O O7 0.008434 0.132208 0.937439
O O8 0.500000 0.873919 0.250000
O O9 0.640612 0.664176 0.051137
O O10 0.399160 0.951127 0.223835
O O11 0.653154 0.160630 0.051978
O O12 0.242896 0.625096 0.855028
O O13 0.496464 0.363998 0.091760
#
# Coordination Sequence:
#
# PCOD8121993 Si02
#       6
#     4   4   4   4   4   4
#     4  10  26  44  66  93 135 171 212 263 322 393
#     4  10  24  40  67  96 130 168 218 258 324 377
#     4  10  24  38  66  92 130 162 218 264 320 370
#     4  10  24  39  67  93 130 167 217 257 320 377
#     4  10  24  41  70  94 129 165 220 272 313 375
#     4  10  25  41  64  97 127 167 216 260 327 375
#
# _framework density 22.665334000000001
#
# number of rings (size 3 to 8) (size 9 to 14) (size 15 to 20)
#    2.000    0.000    0.000    1.500    9.333    2.667 
#    0.000    1.667    0.000    0.000    0.000    0.000 
#    0.000    0.000    0.000    0.000    0.000    0.000 
#
# Total GULP energy -297354.155784 kJ/mol
# GULP energy per Si atom -12389.756491 kJ/mol
# Density = 2.261375 g / cm^3
# Si number density = 22.665334 Si / 1000 Ang^3
#
#
#
# Elastic Constant Matrix: (Units=GPa)
#
#
# Indices 1 2 3 4 5 6 
#
# 1 117.3256 24.4100 27.5855 0.0000 -8.2646 0.0000
# 2 24.4100 129.6559 -3.1733 0.0000 4.2688 0.0000
# 3 27.5855 -3.1733 75.5888 0.0000 -11.5627 0.0000
# 4 0.0000 0.0000 0.0000 20.2626 0.0000 6.4628
# 5 -8.2646 4.2688 -11.5627 0.0000 22.7752 0.0000
# 6 0.0000 0.0000 0.0000 6.4628 0.0000 16.6957
#
#
#
# Elastic Compliance Matrix: (Units=1/GPa)
#
#
# Indices 1 2 3 4 5 6 
#
# 1 0.009890 -0.002019 -0.003347 0.000000 0.002268 0.000000
# 2 -0.002019 0.008173 0.000795 0.000000 -0.001861 0.000000
# 3 -0.003347 0.000795 0.015478 0.000000 0.006494 0.000000
# 4 0.000000 0.000000 0.000000 0.056304 0.000000 -0.021795
# 5 0.002268 -0.001861 0.006494 0.000000 0.048376 0.000000
# 6 0.000000 0.000000 0.000000 -0.021795 0.000000 0.068332
#
#
# Mechanical properties :
#
#
# Convention : Reuss Voigt Hill
#
# Bulk Modulus (GPa) = 40.98323 46.69052 43.83687
# Shear Modulus (GPa) = 22.33862 30.19658 26.26760
#
# Velocity S-wave (km/s) = 3.14281 3.65400 3.40800
# Velocity P-wave (km/s) = 5.59382 6.20056 5.90499
#
# Compressibility (1/GPa) = 0.02440022
#
# Stress axis : x y z
#
# Youngs Moduli (GPa) = 101.11256 122.34698 64.60890
#
# Poissons Ratio (x) = 0.24696 0.21625
# Poissons Ratio (y) = 0.20410 -0.05137
# Poissons Ratio (z) = 0.33843 -0.09728
#
# Static dielectric constant tensor:
#      x y z
#    x 3.752650 0.000000 0.033350 
#    y 0.000000 3.915740 0.000000 
#    z 0.033350 0.000000 4.036010 
# 
# 
# High freq. dielectric constant tensor:
#      x y z
#    x 1.880650 0.000000 0.003800 
#    y 0.000000 1.891570 0.000000 
#    z 0.003800 0.000000 1.888350 
# 
# From -- ./inp_files/88257.got.cif
#   From: 2010.06.25/outbox.cif.g09.slc.cpg/sg13_45_cif.got.tgz:88257.got - 2010.06.28 04:50:58.
