data_PCOD8121650
_publ_section_title
;
Structure prediction by ZEFSAII (Michael W. Deem and Ramdas Pophale) SiO2 
 PCOD8121650
Probable space group: P 2/C
;
_chemical_formula_sum "Si O2"
_cell_formula_units_Z 22
_cell_length_a 8.698243
_cell_length_b 7.497903
_cell_length_c 18.981222
_cell_angle_alpha 90.000000
_cell_angle_beta 138.177379
_cell_angle_gamma 90.000000
_cell_volume 825.483752
_symmetry_space_group_name_H-M "P 2/C"
_symmetry_group_IT_number 13
_symmetry_cell_setting 'monoclinic'
loop_
_space_group_symop_operation_xyz
x,y,z
-x,y,1/2-z
-x,-y,-z
x,-y,1/2+z
loop_
_atom_site_type_symbol
_atom_site_label
_atom_site_fract_x
_atom_site_fract_y
_atom_site_fract_z
Si Si1 0.507825 0.174308 0.073167
Si Si2 0.587615 0.894978 0.205181
Si Si3 0.937660 0.197432 0.652674
Si Si4 0.626599 0.524379 0.390134
Si Si5 0.049666 0.542225 0.620508
Si Si6 0.000000 0.729601 0.750000
O O1 0.481947 0.370060 0.098782
O O2 0.780750 0.154839 0.146777
O O3 0.438388 0.015088 0.101549
O O4 0.335742 0.144777 0.946813
O O5 0.500000 0.955687 0.250000
O O6 0.562742 0.681073 0.184694
O O7 0.861512 0.951447 0.291833
O O8 0.000000 0.280409 0.750000
O O9 0.976786 0.336087 0.603142
O O10 0.713304 0.446915 0.343715
O O11 0.839539 0.623509 0.502880
O O12 0.085018 0.621389 0.710265
#
# Coordination Sequence:
#
# PCOD8121650 Si02
#       6
#     4   4   4   4   4   2
#     4  11  30  48  73 113 148 198 252 307 375 451
#     4  12  27  47  77 108 146 198 250 311 374 448
#     4  11  25  48  74 107 151 193 245 310 377 444
#     4  10  24  49  76 105 151 195 250 312 373 447
#     4  10  22  45  77 112 144 197 249 308 377 446
#     4  12  26  44  76 114 154 194 248 314 376 456
#
# _framework density 26.651039999999998
#
# number of rings (size 3 to 8) (size 9 to 14) (size 15 to 20)
#    0.000    1.091    2.727    1.091    6.364    4.364 
#    0.000    0.000    0.000    0.000    0.000    0.000 
#    0.000    0.000    0.000    0.000    0.000    0.000 
#
# Total GULP energy -272608.820458 kJ/mol
# GULP energy per Si atom -12391.310021 kJ/mol
# Density = 2.659038 g / cm^3
# Si number density = 26.651040 Si / 1000 Ang^3
#
#
#
# Elastic Constant Matrix: (Units=GPa)
#
#
# Indices 1 2 3 4 5 6 
#
# 1 96.1047 -1.1278 88.8268 0.0000 5.6293 0.0000
# 2 -1.1278 66.5837 42.7549 0.0000 -4.4890 0.0000
# 3 88.8268 42.7549 211.4569 0.0000 25.2279 0.0000
# 4 0.0000 0.0000 0.0000 35.2826 0.0000 -0.0040
# 5 5.6293 -4.4890 25.2279 0.0000 56.2777 0.0000
# 6 0.0000 0.0000 0.0000 -0.0040 0.0000 -12.1222
#
#
#
# Elastic Compliance Matrix: (Units=1/GPa)
#
#
# Indices 1 2 3 4 5 6 
#
# 1 0.019522 0.006940 -0.009970 0.000000 0.003070 0.000000
# 2 0.006940 0.020257 -0.007523 0.000000 0.004294 0.000000
# 3 -0.009970 -0.007523 0.010978 0.000000 -0.004524 0.000000
# 4 0.000000 0.000000 0.000000 0.028343 0.000000 -0.000009
# 5 0.003070 0.004294 -0.004524 0.000000 0.019832 0.000000
# 6 0.000000 0.000000 0.000000 -0.000009 0.000000 -0.082494
#
#
# Mechanical properties :
#
#
# Convention : Reuss Voigt Hill
#
# Bulk Modulus (GPa) = 33.72746 70.56145 52.14445
# Shear Modulus (GPa) = 105.42257 32.13371 68.77814
#
# Velocity S-wave (km/s) = 6.29623 3.47612 5.08556
# Velocity P-wave (km/s) = 8.09564 6.53029 7.35473
#
# Compressibility (1/GPa) = 0.02964943
#
# Stress axis : x y z
#
# Youngs Moduli (GPa) = 51.22454 49.36685 91.09085
#
# Poissons Ratio (x) = -0.34259 0.90817
# Poissons Ratio (y) = -0.35548 0.68529
# Poissons Ratio (z) = 0.51071 0.37139
#
# Static dielectric constant tensor:
#      x y z
#    x 4.805500 0.000000 0.161420 
#    y 0.000000 4.364860 0.000000 
#    z 0.161420 0.000000 5.345240 
# 
# 
# High freq. dielectric constant tensor:
#      x y z
#    x 2.074650 0.000000 0.007150 
#    y 0.000000 2.047490 0.000000 
#    z 0.007150 0.000000 2.103410 
# 
# From -- ./inp_files/75859.got.cif
#   From: 2010.06.25/outbox.cif.g09.slc.cpg/sg13_38_cif.got.tgz:75859.got - 2010.06.28 04:50:58.
