data_PCOD8121274
_publ_section_title
;
Structure prediction by ZEFSAII (Michael W. Deem and Ramdas Pophale) SiO2 
 PCOD8121274
Probable space group: P 2/C
;
_chemical_formula_sum "Si O2"
_cell_formula_units_Z 28
_cell_length_a 11.607018
_cell_length_b 9.040203
_cell_length_c 16.905395
_cell_angle_alpha 90.000000
_cell_angle_beta 128.406950
_cell_angle_gamma 90.000000
_cell_volume 1390.044250
_symmetry_space_group_name_H-M "P 2/C"
_symmetry_group_IT_number 13
_symmetry_cell_setting 'monoclinic'
loop_
_space_group_symop_operation_xyz
x,y,z
-x,y,1/2-z
-x,-y,-z
x,-y,1/2+z
loop_
_atom_site_type_symbol
_atom_site_label
_atom_site_fract_x
_atom_site_fract_y
_atom_site_fract_z
Si Si1 0.848897 0.579595 0.417501
Si Si2 0.125608 0.258607 0.247057
Si Si3 0.575860 0.764470 0.021988
Si Si4 0.571234 0.404331 0.358203
Si Si5 0.062071 0.872031 0.968850
Si Si6 0.301838 0.545475 0.302557
Si Si7 0.710711 0.080057 0.066868
O O1 0.728813 0.476386 0.408817
O O2 0.852151 0.747259 0.446767
O O3 0.819496 0.601114 0.311422
O O4 0.000000 0.500000 0.500000
O O5 0.255841 0.377933 0.302820
O O6 0.185627 0.111561 0.314040
O O7 0.000000 0.328318 0.250000
O O8 0.068495 0.209438 0.136102
O O9 0.680095 0.649457 0.113455
O O10 0.645545 0.923138 0.057223
O O11 0.574916 0.713412 0.930587
O O12 0.412918 0.788498 0.990598
O O13 0.500000 0.324785 0.250000
O O14 0.463674 0.540539 0.333401
O O15 0.188555 0.937460 0.967293
O O16 0.000000 0.000000 0.000000
#
# Coordination Sequence:
#
# PCOD8121274 Si02
#       7
#     4   4   4   4   4   4   4
#     4  11  24  41  62  97 132 163 225 267 323 392
#     4  10  22  41  62  93 129 170 211 270 328 390
#     4  11  23  40  71  93 128 171 223 271 327 401
#     4  10  23  40  66  98 131 166 217 278 328 386
#     4  11  25  43  66  89 136 179 211 270 337 391
#     4  11  22  40  67  95 125 170 217 271 324 386
#     4  10  24  44  60  97 131 169 220 267 332 402
#
# _framework density 20.143242999999998
#
# number of rings (size 3 to 8) (size 9 to 14) (size 15 to 20)
#    0.000    1.429    2.857    1.286    8.000    0.000 
#    0.000    0.000    0.000    0.000    0.000    0.000 
#    0.000    0.000    0.000    0.000    0.000    0.000 
#
# Total GULP energy -346989.837525 kJ/mol
# GULP energy per Si atom -12392.494197 kJ/mol
# Density = 2.009740 g / cm^3
# Si number density = 20.143243 Si / 1000 Ang^3
#
#
#
# Elastic Constant Matrix: (Units=GPa)
#
#
# Indices 1 2 3 4 5 6 
#
# 1 122.2448 44.6931 50.9939 0.0000 4.2882 0.0000
# 2 44.6931 81.7833 50.8042 0.0000 -4.7738 0.0000
# 3 50.9939 50.8042 137.7450 0.0000 -9.2420 0.0000
# 4 0.0000 0.0000 0.0000 30.2941 0.0000 -1.7831
# 5 4.2882 -4.7738 -9.2420 0.0000 33.7168 0.0000
# 6 0.0000 0.0000 0.0000 -1.7831 0.0000 25.1682
#
#
#
# Elastic Compliance Matrix: (Units=1/GPa)
#
#
# Indices 1 2 3 4 5 6 
#
# 1 0.011029 -0.004588 -0.002576 0.000000 -0.002758 0.000000
# 2 -0.004588 0.017784 -0.004740 0.000000 0.001802 0.000000
# 3 -0.002576 -0.004740 0.010125 0.000000 0.002432 0.000000
# 4 0.000000 0.000000 0.000000 0.033148 0.000000 0.002348
# 5 -0.002758 0.001802 0.002432 0.000000 0.030931 0.000000
# 6 0.000000 0.000000 0.000000 0.002348 0.000000 0.039899
#
#
# Mechanical properties :
#
#
# Convention : Reuss Voigt Hill
#
# Bulk Modulus (GPa) = 66.09176 70.52840 68.31008
# Shear Modulus (GPa) = 29.10909 30.85461 29.98185
#
# Velocity S-wave (km/s) = 3.80558 3.91802 3.86221
# Velocity P-wave (km/s) = 7.22440 7.45367 7.33993
#
# Compressibility (1/GPa) = 0.01513048
#
# Stress axis : x y z
#
# Youngs Moduli (GPa) = 90.67033 56.22917 98.76765
#
# Poissons Ratio (x) = 0.25798 0.25441
# Poissons Ratio (y) = 0.41600 0.46815
# Poissons Ratio (z) = 0.23355 0.26652
#
# Static dielectric constant tensor:
#      x y z
#    x 3.936840 0.000000 0.065660 
#    y 0.000000 3.461940 0.000000 
#    z 0.065660 0.000000 3.964070 
# 
# 
# High freq. dielectric constant tensor:
#      x y z
#    x 1.795620 0.000000 0.007330 
#    y 0.000000 1.773570 0.000000 
#    z 0.007330 0.000000 1.801230 
# 
# From -- ./inp_files/50425.got.cif
#   From: 2010.06.25/outbox.cif.g09.slc.cpg/sg13_26_cif.got.tgz:50425.got - 2010.06.28 04:50:58.
