data_PCOD8121304
_publ_section_title
;
Structure prediction by ZEFSAII (Michael W. Deem and Ramdas Pophale) SiO2 
 PCOD8121304
Probable space group: P 2/C
;
_chemical_formula_sum "Si O2"
_cell_formula_units_Z 20
_cell_length_a 5.091087
_cell_length_b 8.071689
_cell_length_c 25.614819
_cell_angle_alpha 90.000000
_cell_angle_beta 55.385739
_cell_angle_gamma 90.000000
_cell_volume 866.290257
_symmetry_space_group_name_H-M "P 2/C"
_symmetry_group_IT_number 13
_symmetry_cell_setting 'monoclinic'
loop_
_space_group_symop_operation_xyz
x,y,z
-x,y,1/2-z
-x,-y,-z
x,-y,1/2+z
loop_
_atom_site_type_symbol
_atom_site_label
_atom_site_fract_x
_atom_site_fract_y
_atom_site_fract_z
Si Si1 0.669863 0.144971 0.098695
Si Si2 0.039537 0.436179 0.090432
Si Si3 0.686859 0.256428 0.989940
Si Si4 0.126148 0.367735 0.792378
Si Si5 0.110176 0.053711 0.624727
O O1 0.714606 0.332814 0.115746
O O2 0.299293 0.088294 0.135336
O O3 0.831302 0.016913 0.119850
O O4 0.824931 0.148809 0.022693
O O5 0.035614 0.502939 0.149718
O O6 0.068886 0.591756 0.047689
O O7 0.338015 0.314713 0.048030
O O8 0.646809 0.148031 0.942044
O O9 0.500000 0.391815 0.750000
O O10 0.000000 0.411917 0.750000
O O11 0.041248 0.179208 0.816827
#
# Coordination Sequence:
#
# PCOD8121304 Si02
#       5
#     4   4   4   4   4
#     4  12  22  41  64 105 135 169 211 272 336 402
#     4  10  24  41  69 102 134 176 218 275 333 397
#     4  10  22  41  65 104 142 172 209 267 340 414
#     4  11  26  50  71  89 127 183 239 276 329 401
#     4  11  25  40  69  98 133 178 218 269 341 401
#
# _framework density 23.086950000000002
#
# number of rings (size 3 to 8) (size 9 to 14) (size 15 to 20)
#    0.000    1.200    2.000    3.000    5.600    0.000 
#    0.000    4.000    0.000    0.000    0.000    0.000 
#    0.000    0.000    0.000    0.000    0.000    0.000 
#
# Total GULP energy -247921.648612 kJ/mol
# GULP energy per Si atom -12396.082431 kJ/mol
# Density = 2.303440 g / cm^3
# Si number density = 23.086950 Si / 1000 Ang^3
#
#
#
# Elastic Constant Matrix: (Units=GPa)
#
#
# Indices 1 2 3 4 5 6 
#
# 1 125.9725 16.3997 24.2421 0.0000 13.2373 0.0000
# 2 16.3997 38.4663 -17.5137 0.0000 3.7951 0.0000
# 3 24.2421 -17.5137 59.7627 0.0000 12.5449 0.0000
# 4 0.0000 0.0000 0.0000 32.4417 0.0000 -0.6328
# 5 13.2373 3.7951 12.5449 0.0000 26.9976 0.0000
# 6 0.0000 0.0000 0.0000 -0.6328 0.0000 48.0007
#
#
#
# Elastic Compliance Matrix: (Units=1/GPa)
#
#
# Indices 1 2 3 4 5 6 
#
# 1 0.010081 -0.006821 -0.005819 0.000000 -0.001280 0.000000
# 2 -0.006821 0.036829 0.015452 0.000000 -0.009013 0.000000
# 3 -0.005819 0.015452 0.026016 0.000000 -0.011408 0.000000
# 4 0.000000 0.000000 0.000000 0.030832 0.000000 0.000406
# 5 -0.001280 -0.009013 -0.011408 0.000000 0.044235 0.000000
# 6 0.000000 0.000000 0.000000 0.000406 0.000000 0.020838
#
#
# Mechanical properties :
#
#
# Convention : Reuss Voigt Hill
#
# Bulk Modulus (GPa) = 12.73100 30.05086 21.39093
# Shear Modulus (GPa) = 26.40017 34.89290 30.64654
#
# Velocity S-wave (km/s) = 3.38525 3.89185 3.64736
# Velocity P-wave (km/s) = 4.56139 5.76541 5.19838
#
# Compressibility (1/GPa) = 0.07854845
#
# Stress axis : x y z
#
# Youngs Moduli (GPa) = 99.20042 27.15233 38.43761
#
# Poissons Ratio (x) = 0.18521 0.22368
# Poissons Ratio (y) = 0.67665 -0.59393
# Poissons Ratio (z) = 0.57729 -0.41955
#
# Static dielectric constant tensor:
#      x y z
#    x 4.022520 0.000000 0.192500 
#    y 0.000000 4.436840 0.000000 
#    z 0.192500 0.000000 4.042120 
# 
# 
# High freq. dielectric constant tensor:
#      x y z
#    x 1.911470 0.000000 0.017270 
#    y 0.000000 1.927650 0.000000 
#    z 0.017270 0.000000 1.889680 
# 
# From -- ./inp_files/94727.got.cif
#   From: 2010.06.25/outbox.cif.g09.slc.cpg/sg13_48_cif.got.tgz:94727.got - 2010.06.28 04:50:58.
