data_PCOD8121643
_publ_section_title
;
Structure prediction by ZEFSAII (Michael W. Deem and Ramdas Pophale) SiO2 
 PCOD8121643
Probable space group: P 2/C
;
_chemical_formula_sum "Si O2"
_cell_formula_units_Z 20
_cell_length_a 20.946771
_cell_length_b 5.243707
_cell_length_c 13.799628
_cell_angle_alpha 90.000000
_cell_angle_beta 32.661855
_cell_angle_gamma 90.000000
_cell_volume 818.011054
_symmetry_space_group_name_H-M "P 2/C"
_symmetry_group_IT_number 13
_symmetry_cell_setting 'monoclinic'
loop_
_space_group_symop_operation_xyz
x,y,z
-x,y,1/2-z
-x,-y,-z
x,-y,1/2+z
loop_
_atom_site_type_symbol
_atom_site_label
_atom_site_fract_x
_atom_site_fract_y
_atom_site_fract_z
Si Si1 0.972199 0.030713 0.675376
Si Si2 0.777455 0.152164 0.208696
Si Si3 0.349406 0.582026 0.791782
Si Si4 0.420434 0.191926 0.543342
Si Si5 0.827308 0.526653 0.818216
O O1 0.892120 0.255867 0.733863
O O2 0.000000 0.101182 0.750000
O O3 0.093224 0.024428 0.458775
O O4 0.912231 0.754493 0.745821
O O5 0.731923 0.201520 0.156802
O O6 0.781601 0.409280 0.268350
O O7 0.683968 0.957739 0.380637
O O8 0.354719 0.369021 0.703473
O O9 0.484463 0.664434 0.647457
O O10 0.287539 0.482751 0.967073
O O11 0.500000 0.000000 0.500000
#
# Coordination Sequence:
#
# PCOD8121643 Si02
#       5
#     4   4   4   4   4
#     4  12  25  45  71 104 147 191 236 295 362 426
#     4  11  24  43  71 104 145 186 239 296 354 430
#     4  10  22  45  70  99 142 185 239 292 364 417
#     4   9  21  43  71  97 133 189 233 296 355 419
#     4  12  27  43  72 108 142 189 239 297 355 430
#
# _framework density 24.449546999999999
#
# number of rings (size 3 to 8) (size 9 to 14) (size 15 to 20)
#    0.000    1.200    2.000    3.000    8.400    0.000 
#    0.000   11.000    0.000    0.000    0.000    0.000 
#    0.000    0.000    0.000    0.000    0.000    0.000 
#
# Total GULP energy -247930.000463 kJ/mol
# GULP energy per Si atom -12396.500023 kJ/mol
# Density = 2.439390 g / cm^3
# Si number density = 24.449547 Si / 1000 Ang^3
#
#
#
# Elastic Constant Matrix: (Units=GPa)
#
#
# Indices 1 2 3 4 5 6 
#
# 1 77.2797 7.1963 43.6032 0.0000 -8.4886 0.0000
# 2 7.1963 72.7151 37.2590 0.0000 -17.7162 0.0000
# 3 43.6032 37.2590 195.8313 0.0000 -18.9339 0.0000
# 4 0.0000 0.0000 0.0000 31.0349 0.0000 -13.2834
# 5 -8.4886 -17.7162 -18.9339 0.0000 33.2330 0.0000
# 6 0.0000 0.0000 0.0000 -13.2834 0.0000 23.4613
#
#
#
# Elastic Compliance Matrix: (Units=1/GPa)
#
#
# Indices 1 2 3 4 5 6 
#
# 1 0.014962 0.000762 -0.003246 0.000000 0.002378 0.000000
# 2 0.000762 0.016907 -0.002642 0.000000 0.007703 0.000000
# 3 -0.003246 -0.002642 0.006472 0.000000 0.001450 0.000000
# 4 0.000000 0.000000 0.000000 0.042528 0.000000 0.024079
# 5 0.002378 0.007703 0.001450 0.000000 0.035630 0.000000
# 6 0.000000 0.000000 0.000000 0.024079 0.000000 0.056256
#
#
# Mechanical properties :
#
#
# Convention : Reuss Voigt Hill
#
# Bulk Modulus (GPa) = 35.60076 57.99368 46.79722
# Shear Modulus (GPa) = 25.99144 34.73033 30.36089
#
# Velocity S-wave (km/s) = 3.26400 3.77303 3.52771
# Velocity P-wave (km/s) = 5.36633 6.53852 5.98121
#
# Compressibility (1/GPa) = 0.02808929
#
# Stress axis : x y z
#
# Youngs Moduli (GPa) = 66.83590 59.14649 154.50986
#
# Poissons Ratio (x) = -0.04508 0.50161
# Poissons Ratio (y) = -0.05094 0.40818
# Poissons Ratio (z) = 0.21698 0.15625
#
# Static dielectric constant tensor:
#      x y z
#    x 4.290590 0.000000 -0.542750 
#    y 0.000000 4.435480 0.000000 
#    z -0.542750 0.000000 5.017680 
# 
# 
# High freq. dielectric constant tensor:
#      x y z
#    x 1.961550 0.000000 -0.023890 
#    y 0.000000 1.981140 0.000000 
#    z -0.023890 0.000000 1.984260 
# 
# From -- ./inp_files/58144.got.cif
#   From: 2010.06.25/outbox.cif.g09.slc.cpg/sg13_30_cif.got.tgz:58144.got - 2010.06.28 04:50:58.
