data_PCOD8121756
_publ_section_title
;
Structure prediction by ZEFSAII (Michael W. Deem and Ramdas Pophale) SiO2 
 PCOD8121756
Probable space group: P 2/C
;
_chemical_formula_sum "Si O2"
_cell_formula_units_Z 32
_cell_length_a 28.769487
_cell_length_b 5.253194
_cell_length_c 17.908158
_cell_angle_alpha 90.000000
_cell_angle_beta 31.558072
_cell_angle_gamma 90.000000
_cell_volume 1416.475496
_symmetry_space_group_name_H-M "P 2/C"
_symmetry_group_IT_number 13
_symmetry_cell_setting 'monoclinic'
loop_
_space_group_symop_operation_xyz
x,y,z
-x,y,1/2-z
-x,-y,-z
x,-y,1/2+z
loop_
_atom_site_type_symbol
_atom_site_label
_atom_site_fract_x
_atom_site_fract_y
_atom_site_fract_z
Si Si1 0.755246 0.565943 0.850219
Si Si2 0.443202 0.828165 0.709323
Si Si3 0.355801 0.194001 0.599374
Si Si4 0.328240 0.470744 0.269756
Si Si5 0.817930 0.503938 0.924549
Si Si6 0.103428 0.000946 0.112575
Si Si7 0.591722 0.689287 0.161119
Si Si8 0.209475 0.827926 0.836753
O O1 0.712069 0.331495 0.864492
O O2 0.816702 0.488548 0.835958
O O3 0.820625 0.721264 0.703209
O O4 0.672158 0.734610 0.992911
O O5 0.549277 0.854120 0.567130
O O6 0.401650 0.746322 0.686171
O O7 0.414861 0.605000 0.805239
O O8 0.397965 0.101079 0.787131
O O9 0.376157 0.333382 0.649999
O O10 0.307853 0.936513 0.687737
O O11 0.284456 0.568094 0.408849
O O12 0.234212 0.397382 0.359681
O O13 0.881088 0.729910 0.867774
O O14 0.851242 0.225696 0.903315
O O15 0.000000 0.945852 0.250000
O O16 0.139987 0.008915 0.975799
O O17 0.500000 0.775328 0.250000
#
# Coordination Sequence:
#
# PCOD8121756 Si02
#       8
#     4   4   4   4   4   4   4   4
#     4  11  25  41  67  97 138 179 228 276 334 398
#     4  12  26  38  64  91 134 184 245 280 321 379
#     4  11  23  43  61  94 138 187 226 291 332 387
#     4  10  23  41  62  98 132 180 236 279 333 390
#     4  11  24  43  74 103 132 177 221 271 333 415
#     4  11  25  50  76 104 135 169 215 274 346 422
#     4  12  25  41  59  92 133 187 228 282 329 382
#     4  10  24  42  70  97 135 180 222 280 345 399
#
# _framework density 22.591284000000002
#
# number of rings (size 3 to 8) (size 9 to 14) (size 15 to 20)
#    0.000    1.000    3.750    1.875   10.500    0.500 
#    0.000    1.250    0.000    0.000    0.000    0.000 
#    0.000    0.000    0.000    0.000    0.000    0.000 
#
# Total GULP energy -396475.120128 kJ/mol
# GULP energy per Si atom -12389.847504 kJ/mol
# Density = 2.253987 g / cm^3
# Si number density = 22.591284 Si / 1000 Ang^3
#
#
#
# Elastic Constant Matrix: (Units=GPa)
#
#
# Indices 1 2 3 4 5 6 
#
# 1 81.2667 2.4836 35.5736 0.0000 16.1261 0.0000
# 2 2.4836 64.9392 6.0499 0.0000 3.3129 0.0000
# 3 35.5736 6.0499 86.4844 0.0000 5.6000 0.0000
# 4 0.0000 0.0000 0.0000 24.4756 0.0000 -0.1837
# 5 16.1261 3.3129 5.6000 0.0000 33.0423 0.0000
# 6 0.0000 0.0000 0.0000 -0.1837 0.0000 28.7133
#
#
#
# Elastic Compliance Matrix: (Units=1/GPa)
#
#
# Indices 1 2 3 4 5 6 
#
# 1 0.016457 0.000318 -0.006339 0.000000 -0.006989 0.000000
# 2 0.000318 0.015569 -0.001121 0.000000 -0.001526 0.000000
# 3 -0.006339 -0.001121 0.014197 0.000000 0.000800 0.000000
# 4 0.000000 0.000000 0.000000 0.040859 0.000000 0.000261
# 5 -0.006989 -0.001526 0.000800 0.000000 0.033693 0.000000
# 6 0.000000 0.000000 0.000000 0.000261 0.000000 0.034829
#
#
# Mechanical properties :
#
#
# Convention : Reuss Voigt Hill
#
# Bulk Modulus (GPa) = 31.31005 35.65607 33.48306
# Shear Modulus (GPa) = 27.69554 29.81844 28.75699
#
# Velocity S-wave (km/s) = 3.50514 3.63700 3.57168
# Velocity P-wave (km/s) = 5.50189 5.78397 5.64469
#
# Compressibility (1/GPa) = 0.03193863
#
# Stress axis : x y z
#
# Youngs Moduli (GPa) = 60.76372 64.22959 70.43834
#
# Poissons Ratio (x) = -0.02041 0.44651
# Poissons Ratio (y) = -0.01931 0.07896
# Poissons Ratio (z) = 0.38518 0.07200
#
# Static dielectric constant tensor:
#      x y z
#    x 4.259500 0.000000 0.379620 
#    y 0.000000 3.904040 0.000000 
#    z 0.379620 0.000000 4.089770 
# 
# 
# High freq. dielectric constant tensor:
#      x y z
#    x 1.896430 0.000000 0.026240 
#    y 0.000000 1.890410 0.000000 
#    z 0.026240 0.000000 1.870590 
# 
# From -- ./inp_files/72198.got.cif
#   From: 2010.06.25/outbox.cif.g09.slc.cpg/sg13_37_cif.got.tgz:72198.got - 2010.06.28 04:50:58.
