data_PCOD8121704
_publ_section_title
;
Structure prediction by ZEFSAII (Michael W. Deem and Ramdas Pophale) SiO2 
 PCOD8121704
Probable space group: P 2/C
;
_chemical_formula_sum "Si O2"
_cell_formula_units_Z 32
_cell_length_a 17.603507
_cell_length_b 6.788959
_cell_length_c 13.872926
_cell_angle_alpha 90.000000
_cell_angle_beta 108.920603
_cell_angle_gamma 90.000000
_cell_volume 1568.365480
_symmetry_space_group_name_H-M "P 2/C"
_symmetry_group_IT_number 13
_symmetry_cell_setting 'monoclinic'
loop_
_space_group_symop_operation_xyz
x,y,z
-x,y,1/2-z
-x,-y,-z
x,-y,1/2+z
loop_
_atom_site_type_symbol
_atom_site_label
_atom_site_fract_x
_atom_site_fract_y
_atom_site_fract_z
Si Si1 0.284559 0.440446 0.426861
Si Si2 0.453855 0.703907 0.988109
Si Si3 0.189455 0.597040 0.070318
Si Si4 0.709852 0.226363 0.716540
Si Si5 0.917764 0.760934 0.928253
Si Si6 0.545707 0.982515 0.169975
Si Si7 0.822226 0.883335 0.712893
Si Si8 0.081189 0.102034 0.429560
O O1 0.363249 0.319330 0.488685
O O2 0.241494 0.509043 0.508042
O O3 0.315851 0.626759 0.379198
O O4 0.224498 0.312923 0.336803
O O5 0.449171 0.807480 0.881502
O O6 0.500000 0.500000 0.000000
O O7 0.496355 0.834711 0.084539
O O8 0.245755 0.646624 0.183541
O O9 0.113414 0.459472 0.065330
O O10 0.156106 0.801865 0.015942
O O11 0.633166 0.110885 0.727379
O O12 0.767012 0.073666 0.686089
O O13 0.852156 0.865751 0.834276
O O14 0.003049 0.758799 0.908297
O O15 0.930775 0.883366 0.032098
O O16 0.500000 0.021207 0.250000
O O17 0.898399 0.918941 0.674563
#
# Coordination Sequence:
#
# PCOD8121704 Si02
#       8
#     4   4   4   4   4   4   4   4
#     4  11  23  42  63  90 124 164 203 255 308 365
#     4  11  23  45  64  92 130 166 206 256 312 379
#     4  11  23  39  64  95 119 161 208 255 312 365
#     4  12  22  42  65  90 129 158 210 261 302 375
#     4  11  21  41  61  90 124 158 210 251 311 367
#     4  11  25  43  65  96 125 165 213 259 316 374
#     4  11  22  40  63  89 122 163 209 247 314 363
#     4  10  23  39  63  86 126 165 199 260 303 374
#
# _framework density 20.403406
#
# number of rings (size 3 to 8) (size 9 to 14) (size 15 to 20)
#    0.000    1.000    5.000    2.250    0.000    0.500 
#    4.500    0.000    0.000    0.000    0.000    0.000 
#    0.000    0.000    0.000    0.000    0.000    0.000 
#
# Total GULP energy -396897.831339 kJ/mol
# GULP energy per Si atom -12403.057229 kJ/mol
# Density = 2.035697 g / cm^3
# Si number density = 20.403406 Si / 1000 Ang^3
#
#
#
# Elastic Constant Matrix: (Units=GPa)
#
#
# Indices 1 2 3 4 5 6 
#
# 1 127.3195 32.0643 29.4554 0.0000 -8.5483 0.0000
# 2 32.0643 83.6084 27.1998 0.0000 -9.1036 0.0000
# 3 29.4554 27.1998 65.3529 0.0000 -8.3461 0.0000
# 4 0.0000 0.0000 0.0000 23.0841 0.0000 4.0216
# 5 -8.5483 -9.1036 -8.3461 0.0000 32.9977 0.0000
# 6 0.0000 0.0000 0.0000 4.0216 0.0000 38.8526
#
#
#
# Elastic Compliance Matrix: (Units=1/GPa)
#
#
# Indices 1 2 3 4 5 6 
#
# 1 0.009235 -0.002456 -0.003019 0.000000 0.000951 0.000000
# 2 -0.002456 0.014679 -0.004719 0.000000 0.002220 0.000000
# 3 -0.003019 -0.004719 0.018973 0.000000 0.002715 0.000000
# 4 0.000000 0.000000 0.000000 0.044115 0.000000 -0.004566
# 5 0.000951 0.002220 0.002715 0.000000 0.031851 0.000000
# 6 0.000000 0.000000 0.000000 -0.004566 0.000000 0.026211
#
#
# Mechanical properties :
#
#
# Convention : Reuss Voigt Hill
#
# Bulk Modulus (GPa) = 44.44497 50.41331 47.42914
# Shear Modulus (GPa) = 28.90980 31.49097 30.20038
#
# Velocity S-wave (km/s) = 3.76827 3.93290 3.85146
# Velocity P-wave (km/s) = 6.38463 6.73688 6.56312
#
# Compressibility (1/GPa) = 0.02249973
#
# Stress axis : x y z
#
# Youngs Moduli (GPa) = 108.28334 68.12282 52.70693
#
# Poissons Ratio (x) = 0.16731 0.15910
# Poissons Ratio (y) = 0.26595 0.24873
# Poissons Ratio (z) = 0.32687 0.32147
#
# Static dielectric constant tensor:
#      x y z
#    x 3.897990 0.000000 -0.064950 
#    y 0.000000 3.637100 0.000000 
#    z -0.064950 0.000000 3.721550 
# 
# 
# High freq. dielectric constant tensor:
#      x y z
#    x 1.809920 0.000000 0.003880 
#    y 0.000000 1.794600 0.000000 
#    z 0.003880 0.000000 1.797890 
# 
# From -- ./inp_files/54692.got.cif
#   From: 2010.06.25/outbox.cif.g09.slc.cpg/sg13_28_cif.got.tgz:54692.got - 2010.06.28 04:50:58.
