data_PCOD8121030
_publ_section_title
;
Structure prediction by ZEFSAII (Michael W. Deem and Ramdas Pophale) SiO2 
 PCOD8121030
Probable space group: P 2/C
;
_chemical_formula_sum "Si O2"
_cell_formula_units_Z 20
_cell_length_a 22.069191
_cell_length_b 5.068892
_cell_length_c 13.254692
_cell_angle_alpha 90.000000
_cell_angle_beta 146.042348
_cell_angle_gamma 90.000000
_cell_volume 828.236704
_symmetry_space_group_name_H-M "P 2/C"
_symmetry_group_IT_number 13
_symmetry_cell_setting 'monoclinic'
loop_
_space_group_symop_operation_xyz
x,y,z
-x,y,1/2-z
-x,-y,-z
x,-y,1/2+z
loop_
_atom_site_type_symbol
_atom_site_label
_atom_site_fract_x
_atom_site_fract_y
_atom_site_fract_z
Si Si1 0.441368 0.865990 0.772020
Si Si2 0.389187 0.729320 0.355385
Si Si3 0.125032 0.542956 0.192210
Si Si4 0.213340 0.950128 0.704760
Si Si5 0.774271 0.336146 0.468205
O O1 0.500000 0.908181 0.750000
O O2 0.317221 0.781534 0.582966
O O3 0.438052 0.148261 0.821563
O O4 0.505225 0.643346 0.930256
O O5 0.289413 0.534310 0.195703
O O6 0.338077 0.963766 0.356702
O O7 0.202197 0.307162 0.260143
O O8 0.138381 0.550684 0.332915
O O9 0.147808 0.814996 0.166001
O O10 0.000000 0.500000 0.000000
O O11 0.168869 0.873336 0.529562
#
# Coordination Sequence:
#
# PCOD8121030 Si02
#       5
#     4   4   4   4   4
#     4  10  22  38  68 106 146 190 240 288 352 429
#     4  10  22  43  67 107 143 194 232 294 357 433
#     4  12  28  49  76 110 142 188 249 301 364 428
#     4  11  25  49  73 104 149 185 239 302 358 430
#     4  11  25  45  75 102 151 192 239 296 367 426
#
# _framework density 24.147687000000001
#
# number of rings (size 3 to 8) (size 9 to 14) (size 15 to 20)
#    0.000    1.200    2.000    2.400    8.400    1.600 
#    3.600    0.000    0.000    0.000    0.000    0.000 
#    0.000    0.000    0.000    0.000    0.000    0.000 
#
# Total GULP energy -247775.570515 kJ/mol
# GULP energy per Si atom -12388.778526 kJ/mol
# Density = 2.409273 g / cm^3
# Si number density = 24.147687 Si / 1000 Ang^3
#
#
#
# Elastic Constant Matrix: (Units=GPa)
#
#
# Indices 1 2 3 4 5 6 
#
# 1 78.7230 27.1195 18.4490 0.0000 -28.1520 0.0000
# 2 27.1195 104.7470 21.1136 0.0000 -12.6940 0.0000
# 3 18.4490 21.1136 138.7951 0.0000 -8.0391 0.0000
# 4 0.0000 0.0000 0.0000 24.7247 0.0000 -2.5332
# 5 -28.1520 -12.6940 -8.0391 0.0000 21.6898 0.0000
# 6 0.0000 0.0000 0.0000 -2.5332 0.0000 19.6045
#
#
#
# Elastic Compliance Matrix: (Units=1/GPa)
#
#
# Indices 1 2 3 4 5 6 
#
# 1 0.024553 -0.002492 -0.001148 0.000000 0.029984 0.000000
# 2 -0.002492 0.010742 -0.001151 0.000000 0.002626 0.000000
# 3 -0.001148 -0.001151 0.007570 0.000000 0.000642 0.000000
# 4 0.000000 0.000000 0.000000 0.040988 0.000000 0.005296
# 5 0.029984 0.002626 0.000642 0.000000 0.086797 0.000000
# 6 0.000000 0.000000 0.000000 0.005296 0.000000 0.051693
#
#
# Mechanical properties :
#
#
# Convention : Reuss Voigt Hill
#
# Bulk Modulus (GPa) = 30.04464 50.62547 40.33505
# Shear Modulus (GPa) = 20.57460 30.24268 25.40864
#
# Velocity S-wave (km/s) = 2.92213 3.54277 3.24731
# Velocity P-wave (km/s) = 4.88407 6.14373 5.54976
#
# Compressibility (1/GPa) = 0.03328381
#
# Stress axis : x y z
#
# Youngs Moduli (GPa) = 40.72862 93.09115 132.10560
#
# Poissons Ratio (x) = 0.23196 0.15164
# Poissons Ratio (y) = 0.10149 0.15202
# Poissons Ratio (z) = 0.04675 0.10713
#
# Static dielectric constant tensor:
#      x y z
#    x 4.424850 0.000000 -0.090850 
#    y 0.000000 4.715350 0.000000 
#    z -0.090850 0.000000 4.227950 
# 
# 
# High freq. dielectric constant tensor:
#      x y z
#    x 1.974380 0.000000 -0.009850 
#    y 0.000000 1.959750 0.000000 
#    z -0.009850 0.000000 1.942270 
# 
# From -- ./inp_files/39932.got.cif
#   From: 2010.06.25/outbox.cif.g09.slc.cpg/sg13_20_cif.got.tgz:39932.got - 2010.06.28 04:50:58.
