data_PCOD8121553
_publ_section_title
;
Structure prediction by ZEFSAII (Michael W. Deem and Ramdas Pophale) SiO2 
 PCOD8121553
Probable space group: P 2/C
;
_chemical_formula_sum "Si O2"
_cell_formula_units_Z 16
_cell_length_a 7.326357
_cell_length_b 6.991039
_cell_length_c 20.679242
_cell_angle_alpha 90.000000
_cell_angle_beta 135.426324
_cell_angle_gamma 90.000000
_cell_volume 743.350735
_symmetry_space_group_name_H-M "P 2/C"
_symmetry_group_IT_number 13
_symmetry_cell_setting 'monoclinic'
loop_
_space_group_symop_operation_xyz
x,y,z
-x,y,1/2-z
-x,-y,-z
x,-y,1/2+z
loop_
_atom_site_type_symbol
_atom_site_label
_atom_site_fract_x
_atom_site_fract_y
_atom_site_fract_z
Si Si1 0.905669 0.786108 0.870927
Si Si2 0.805604 0.033983 0.646938
Si Si3 0.428187 0.706929 0.830813
Si Si4 0.576317 0.619727 0.458090
O O1 0.671730 0.823942 0.861935
O O2 0.792735 0.674310 0.779452
O O3 0.032596 0.986417 0.877903
O O4 0.116832 0.659464 0.961842
O O5 0.579307 0.182690 0.576974
O O6 0.000000 0.118415 0.750000
O O7 0.681591 0.832751 0.638236
O O8 0.512552 0.497719 0.876905
O O9 0.500000 0.500000 0.500000
#
# Coordination Sequence:
#
# PCOD8121553 Si02
#       4
#     4   4   4   4
#     4  10  22  44  64  90 129 164 208 262 309 367
#     4  10  23  42  63  90 125 165 207 257 312 371
#     4  10  23  44  63  91 128 165 208 260 309 368
#     4  12  24  38  67  94 126 165 208 255 314 373
#
# _framework density 21.524160999999999
#
# number of rings (size 3 to 8) (size 9 to 14) (size 15 to 20)
#    0.000    1.500    2.500    1.500    3.500    1.000 
#    4.500    2.500    0.000    0.000    0.000    0.000 
#    0.000    0.000    0.000    0.000    0.000    0.000 
#
# Total GULP energy -198414.327447 kJ/mol
# GULP energy per Si atom -12400.895465 kJ/mol
# Density = 2.147517 g / cm^3
# Si number density = 21.524161 Si / 1000 Ang^3
#
#
#
# Elastic Constant Matrix: (Units=GPa)
#
#
# Indices 1 2 3 4 5 6 
#
# 1 99.2234 27.5498 24.9975 0.0000 15.8065 0.0000
# 2 27.5498 81.9860 50.2016 0.0000 9.7784 0.0000
# 3 24.9975 50.2016 129.3400 0.0000 25.7524 0.0000
# 4 0.0000 0.0000 0.0000 30.2929 0.0000 0.2542
# 5 15.8065 9.7784 25.7524 0.0000 32.5344 0.0000
# 6 0.0000 0.0000 0.0000 0.2542 0.0000 24.4176
#
#
#
# Elastic Compliance Matrix: (Units=1/GPa)
#
#
# Indices 1 2 3 4 5 6 
#
# 1 0.011769 -0.003377 -0.000033 0.000000 -0.004677 0.000000
# 2 -0.003377 0.016969 -0.006226 0.000000 0.001469 0.000000
# 3 -0.000033 -0.006226 0.011608 0.000000 -0.007301 0.000000
# 4 0.000000 0.000000 0.000000 0.033014 0.000000 -0.000344
# 5 -0.004677 0.001469 -0.007301 0.000000 0.038347 0.000000
# 6 0.000000 0.000000 0.000000 -0.000344 0.000000 0.040958
#
#
# Mechanical properties :
#
#
# Convention : Reuss Voigt Hill
#
# Bulk Modulus (GPa) = 47.44952 57.33860 52.39406
# Shear Modulus (GPa) = 27.93896 31.30233 29.62065
#
# Velocity S-wave (km/s) = 3.60672 3.81765 3.71368
# Velocity P-wave (km/s) = 6.27991 6.79188 6.54090
#
# Compressibility (1/GPa) = 0.02107503
#
# Stress axis : x y z
#
# Youngs Moduli (GPa) = 84.96757 58.93033 86.14608
#
# Poissons Ratio (x) = 0.19901 0.00281
# Poissons Ratio (y) = 0.28693 0.53636
# Poissons Ratio (z) = 0.00277 0.36691
#
# Static dielectric constant tensor:
#      x y z
#    x 4.005730 0.000000 0.253110 
#    y 0.000000 3.701840 0.000000 
#    z 0.253110 0.000000 5.915960 
# 
# 
# High freq. dielectric constant tensor:
#      x y z
#    x 1.851150 0.000000 0.011170 
#    y 0.000000 1.811520 0.000000 
#    z 0.011170 0.000000 1.868760 
# 
# From -- ./inp_files/74355.got.cif
#   From: 2010.06.25/outbox.cif.g09.slc.cpg/sg13_38_cif.got.tgz:74355.got - 2010.06.28 04:50:58.
