data_PCOD8121168
_publ_section_title
;
Structure prediction by ZEFSAII (Michael W. Deem and Ramdas Pophale) SiO2 
 PCOD8121168
Probable space group: P 2/C
;
_chemical_formula_sum "Si O2"
_cell_formula_units_Z 30
_cell_length_a 12.641603
_cell_length_b 10.219615
_cell_length_c 11.759858
_cell_angle_alpha 90.000000
_cell_angle_beta 111.091734
_cell_angle_gamma 90.000000
_cell_volume 1417.499604
_symmetry_space_group_name_H-M "P 2/C"
_symmetry_group_IT_number 13
_symmetry_cell_setting 'monoclinic'
loop_
_space_group_symop_operation_xyz
x,y,z
-x,y,1/2-z
-x,-y,-z
x,-y,1/2+z
loop_
_atom_site_type_symbol
_atom_site_label
_atom_site_fract_x
_atom_site_fract_y
_atom_site_fract_z
Si Si1 0.354814 0.642830 0.415351
Si Si2 0.404753 0.384719 0.565661
Si Si3 0.833416 0.752353 0.841910
Si Si4 0.246018 0.477458 0.678362
Si Si5 0.000000 0.813453 0.250000
Si Si6 0.064454 0.699659 0.033811
Si Si7 0.770282 0.824222 0.571276
Si Si8 0.222325 0.888133 0.454527
O O1 0.393338 0.534621 0.520028
O O2 0.467582 0.669796 0.384305
O O3 0.247531 0.580295 0.306641
O O4 0.311620 0.777510 0.452689
O O5 0.356480 0.401282 0.673409
O O6 0.330312 0.281141 0.465577
O O7 0.742318 0.634216 0.817304
O O8 0.833992 0.813871 0.717093
O O9 0.809240 0.864047 0.925610
O O10 0.954263 0.684614 0.913338
O O11 0.133669 0.436902 0.564036
O O12 0.036068 0.730683 0.153680
O O13 0.109033 0.896670 0.332499
O O14 0.143721 0.806323 0.001420
O O15 0.719211 0.970218 0.535936
#
# Coordination Sequence:
#
# PCOD8121168 Si02
#       8
#     4   4   4   4   2   4   4   4
#     4  11  21  42  65  93 125 167 213 271 321 381
#     4  10  23  40  66  92 124 165 220 267 322 377
#     4  11  23  40  61  96 132 172 213 266 317 389
#     4  11  20  40  64  95 126 166 215 275 322 377
#     4  10  22  40  62  94 124 176 206 258 316 384
#     4  10  23  39  64  93 131 171 215 260 322 382
#     4  11  25  42  63  97 132 173 214 264 317 389
#     4  11  25  40  66  92 136 167 215 259 323 386
#
# _framework density 21.164027999999998
#
# number of rings (size 3 to 8) (size 9 to 14) (size 15 to 20)
#    0.000    1.333    4.000    1.200    3.733    1.600 
#    2.400    0.667    0.000    0.000    0.000    0.000 
#    0.000    0.000    0.000    0.000    0.000    0.000 
#
# Total GULP energy -371730.344581 kJ/mol
# GULP energy per Si atom -12391.011486 kJ/mol
# Density = 2.111586 g / cm^3
# Si number density = 21.164028 Si / 1000 Ang^3
#
#
#
# Elastic Constant Matrix: (Units=GPa)
#
#
# Indices 1 2 3 4 5 6 
#
# 1 92.8105 37.7322 29.1518 0.0000 2.0857 0.0000
# 2 37.7322 129.8241 34.8722 0.0000 -7.7488 0.0000
# 3 29.1518 34.8722 105.7109 0.0000 -7.6495 0.0000
# 4 0.0000 0.0000 0.0000 22.6450 0.0000 -2.3724
# 5 2.0857 -7.7488 -7.6495 0.0000 23.5068 0.0000
# 6 0.0000 0.0000 0.0000 -2.3724 0.0000 20.8057
#
#
#
# Elastic Compliance Matrix: (Units=1/GPa)
#
#
# Indices 1 2 3 4 5 6 
#
# 1 0.013023 -0.003232 -0.002751 0.000000 -0.003116 0.000000
# 2 -0.003232 0.009340 -0.001993 0.000000 0.002717 0.000000
# 3 -0.002751 -0.001993 0.011107 0.000000 0.003202 0.000000
# 4 0.000000 0.000000 0.000000 0.044694 0.000000 0.005096
# 5 -0.003116 0.002717 0.003202 0.000000 0.044755 0.000000
# 6 0.000000 0.000000 0.000000 0.005096 0.000000 0.048645
#
#
# Mechanical properties :
#
#
# Convention : Reuss Voigt Hill
#
# Bulk Modulus (GPa) = 57.08300 59.09535 58.08918
# Shear Modulus (GPa) = 25.85931 28.49744 27.17838
#
# Velocity S-wave (km/s) = 3.49929 3.67345 3.58743
# Velocity P-wave (km/s) = 6.58460 6.78052 6.68328
#
# Compressibility (1/GPa) = 0.01751835
#
# Stress axis : x y z
#
# Youngs Moduli (GPa) = 76.78948 107.07061 90.02983
#
# Poissons Ratio (x) = 0.34606 0.24763
# Poissons Ratio (y) = 0.24819 0.17944
# Poissons Ratio (z) = 0.21121 0.21340
#
# Static dielectric constant tensor:
#      x y z
#    x 3.929620 0.000000 -0.074250 
#    y 0.000000 3.568920 0.000000 
#    z -0.074250 0.000000 3.837200 
# 
# 
# High freq. dielectric constant tensor:
#      x y z
#    x 1.821890 0.000000 -0.006750 
#    y 0.000000 1.815950 0.000000 
#    z -0.006750 0.000000 1.838320 
# 
# From -- ./inp_files/36488.got.cif
#   From: 2010.06.25/outbox.cif.g09.slc.cpg/sg13_19_cif.got.tgz:36488.got - 2010.06.28 04:50:58.
