data_PCOD8121353
_publ_section_title
;
Structure prediction by ZEFSAII (Michael W. Deem and Ramdas Pophale) SiO2 
 PCOD8121353
Probable space group: P 2/C
;
_chemical_formula_sum "Si O2"
_cell_formula_units_Z 28
_cell_length_a 16.470594
_cell_length_b 5.196868
_cell_length_c 13.275212
_cell_angle_alpha 90.000000
_cell_angle_beta 109.999361
_cell_angle_gamma 90.000000
_cell_volume 1067.775600
_symmetry_space_group_name_H-M "P 2/C"
_symmetry_group_IT_number 13
_symmetry_cell_setting 'monoclinic'
loop_
_space_group_symop_operation_xyz
x,y,z
-x,y,1/2-z
-x,-y,-z
x,-y,1/2+z
loop_
_atom_site_type_symbol
_atom_site_label
_atom_site_fract_x
_atom_site_fract_y
_atom_site_fract_z
Si Si1 0.742727 0.949563 0.675363
Si Si2 0.703788 0.911280 0.889184
Si Si3 0.888813 0.093680 0.536525
Si Si4 0.852353 0.462281 0.684815
Si Si5 0.022677 0.682359 0.600197
Si Si6 0.580168 0.877663 0.473070
Si Si7 0.547796 0.376639 0.376272
O O1 0.731909 0.886867 0.787552
O O2 0.797941 0.722264 0.646310
O O3 0.646489 0.943929 0.590294
O O4 0.790875 0.224706 0.690969
O O5 0.651049 0.652948 0.900398
O O6 0.635864 0.135372 0.889907
O O7 0.785709 0.951532 0.998428
O O8 0.903679 0.364057 0.605277
O O9 0.913355 0.112690 0.428658
O O10 0.941829 0.853335 0.609568
O O11 0.927963 0.519079 0.795759
O O12 0.000000 0.500000 0.500000
O O13 0.529844 0.609418 0.445426
O O14 0.513424 0.124127 0.428647
O O15 0.500000 0.398364 0.250000
#
# Coordination Sequence:
#
# PCOD8121353 Si02
#       7
#     4   4   4   4   4   4   4
#     4  12  24  43  72 107 133 186 239 293 355 428
#     4  10  23  42  74  98 145 179 241 288 360 425
#     4  11  24  51  70 105 139 193 241 303 362 432
#     4  12  27  45  72 100 143 183 243 298 358 427
#     4  11  27  47  71  99 148 186 243 301 367 431
#     4  10  22  41  69 100 139 179 229 287 340 429
#     4  10  22  43  70 101 142 189 224 287 359 424
#
# _framework density 26.222738
#
# number of rings (size 3 to 8) (size 9 to 14) (size 15 to 20)
#    0.857    0.286    2.857    3.000    6.000    2.857 
#    0.000    1.429    0.000    0.000    0.000    0.000 
#    0.000    0.000    0.000    0.000    0.000    0.000 
#
# Total GULP energy -346909.148184 kJ/mol
# GULP energy per Si atom -12389.612435 kJ/mol
# Density = 2.616305 g / cm^3
# Si number density = 26.222738 Si / 1000 Ang^3
#
#
#
# Elastic Constant Matrix: (Units=GPa)
#
#
# Indices 1 2 3 4 5 6 
#
# 1 96.2406 44.1075 40.0170 0.0000 12.3562 0.0000
# 2 44.1075 174.3674 80.4032 0.0000 23.8363 0.0000
# 3 40.0170 80.4032 158.4576 0.0000 22.7786 0.0000
# 4 0.0000 0.0000 0.0000 49.6821 0.0000 3.4979
# 5 12.3562 23.8363 22.7786 0.0000 45.6761 0.0000
# 6 0.0000 0.0000 0.0000 3.4979 0.0000 38.3254
#
#
#
# Elastic Compliance Matrix: (Units=1/GPa)
#
#
# Indices 1 2 3 4 5 6 
#
# 1 0.012282 -0.002068 -0.001864 0.000000 -0.001314 0.000000
# 2 -0.002068 0.008040 -0.003269 0.000000 -0.002006 0.000000
# 3 -0.001864 -0.003269 0.008750 0.000000 -0.002153 0.000000
# 4 0.000000 0.000000 0.000000 0.020258 0.000000 -0.001849
# 5 -0.001314 -0.002006 -0.002153 0.000000 0.024369 0.000000
# 6 0.000000 0.000000 0.000000 -0.001849 0.000000 0.026261
#
#
# Mechanical properties :
#
#
# Convention : Reuss Voigt Hill
#
# Bulk Modulus (GPa) = 68.16282 84.23565 76.19924
# Shear Modulus (GPa) = 41.92852 44.37259 43.15055
#
# Velocity S-wave (km/s) = 4.00301 4.11803 4.06093
# Velocity P-wave (km/s) = 6.88590 7.40295 7.14910
#
# Compressibility (1/GPa) = 0.01467075
#
# Stress axis : x y z
#
# Youngs Moduli (GPa) = 81.42058 124.38412 114.29032
#
# Poissons Ratio (x) = 0.25721 0.21298
# Poissons Ratio (y) = 0.16837 0.37359
# Poissons Ratio (z) = 0.15173 0.40659
#
# Static dielectric constant tensor:
#      x y z
#    x 6.542890 0.000000 -0.673250 
#    y 0.000000 4.975730 0.000000 
#    z -0.673250 0.000000 4.848650 
# 
# 
# High freq. dielectric constant tensor:
#      x y z
#    x 2.088370 0.000000 -0.014420 
#    y 0.000000 2.058460 0.000000 
#    z -0.014420 0.000000 2.053000 
# 
# From -- ./inp_files/56601.got.cif
#   From: 2010.06.25/outbox.cif.g09.slc.cpg/sg13_29_cif.got.tgz:56601.got - 2010.06.28 04:50:58.
