data_PCOD8121562
_publ_section_title
;
Structure prediction by ZEFSAII (Michael W. Deem and Ramdas Pophale) SiO2 
 PCOD8121562
Probable space group: P 2/C
;
_chemical_formula_sum "Si O2"
_cell_formula_units_Z 30
_cell_length_a 16.144818
_cell_length_b 8.434700
_cell_length_c 10.952886
_cell_angle_alpha 90.000000
_cell_angle_beta 117.638229
_cell_angle_gamma 90.000000
_cell_volume 1321.335946
_symmetry_space_group_name_H-M "P 2/C"
_symmetry_group_IT_number 13
_symmetry_cell_setting 'monoclinic'
loop_
_space_group_symop_operation_xyz
x,y,z
-x,y,1/2-z
-x,-y,-z
x,-y,1/2+z
loop_
_atom_site_type_symbol
_atom_site_label
_atom_site_fract_x
_atom_site_fract_y
_atom_site_fract_z
Si Si1 0.815257 0.962870 0.661509
Si Si2 0.000000 0.192352 0.250000
Si Si3 0.051413 0.508588 0.905716
Si Si4 0.676089 0.787534 0.401680
Si Si5 0.674823 0.904182 0.770282
Si Si6 0.225920 0.299277 0.978593
Si Si7 0.552054 0.288251 0.028418
Si Si8 0.355854 0.607861 0.354934
O O1 0.767673 0.824241 0.546208
O O2 0.762848 0.973183 0.754722
O O3 0.922475 0.916750 0.762174
O O4 0.816857 0.134655 0.599545
O O5 0.943439 0.301873 0.114175
O O6 0.000000 0.432410 0.750000
O O7 0.150081 0.419333 0.983092
O O8 0.000000 0.500000 0.000000
O O9 0.593206 0.705467 0.420360
O O10 0.696701 0.667386 0.303642
O O11 0.638165 0.957954 0.332392
O O12 0.704446 0.746053 0.863920
O O13 0.588990 0.866355 0.622918
O O14 0.279704 0.396242 0.910261
O O15 0.440019 0.272345 0.948744
O O16 0.592233 0.440717 0.128681
#
# Coordination Sequence:
#
# PCOD8121562 Si02
#       8
#     4   2   4   4   4   4   4   4
#     4  10  22  44  64  99 129 178 219 285 337 406
#     4  10  24  40  70  94 134 168 228 282 348 400
#     4  10  25  46  67 102 132 174 228 279 348 415
#     4  10  22  44  67  95 134 178 226 274 338 406
#     4  10  22  44  66  98 136 176 230 271 343 400
#     4  11  24  41  69  97 135 176 225 276 341 412
#     4  10  25  42  68  96 141 178 226 284 331 400
#     4  11  24  44  65 102 133 181 228 275 344 400
#
# _framework density 22.704295999999999
#
# number of rings (size 3 to 8) (size 9 to 14) (size 15 to 20)
#    0.400    1.333    1.333    1.200    6.533    2.133 
#    4.800    3.333    0.000    0.000    0.000    0.000 
#    0.000    0.000    0.000    0.000    0.000    0.000 
#
# Total GULP energy -371878.063562 kJ/mol
# GULP energy per Si atom -12395.935452 kJ/mol
# Density = 2.265262 g / cm^3
# Si number density = 22.704296 Si / 1000 Ang^3
#
#
#
# Elastic Constant Matrix: (Units=GPa)
#
#
# Indices 1 2 3 4 5 6 
#
# 1 106.8852 22.4091 19.9909 0.0000 -5.8511 0.0000
# 2 22.4091 50.9983 7.9444 0.0000 9.3232 0.0000
# 3 19.9909 7.9444 77.4536 0.0000 -19.3766 0.0000
# 4 0.0000 0.0000 0.0000 29.0114 0.0000 -3.7308
# 5 -5.8511 9.3232 -19.3766 0.0000 27.8396 0.0000
# 6 0.0000 0.0000 0.0000 -3.7308 0.0000 31.0317
#
#
#
# Elastic Compliance Matrix: (Units=1/GPa)
#
#
# Indices 1 2 3 4 5 6 
#
# 1 0.010867 -0.005060 -0.001563 0.000000 0.002891 0.000000
# 2 -0.005060 0.024768 -0.004329 0.000000 -0.012371 0.000000
# 3 -0.001563 -0.004329 0.016999 0.000000 0.012953 0.000000
# 4 0.000000 0.000000 0.000000 0.035010 0.000000 0.004209
# 5 0.002891 -0.012371 0.012953 0.000000 0.049686 0.000000
# 6 0.000000 0.000000 0.000000 0.004209 0.000000 0.032731
#
#
# Mechanical properties :
#
#
# Convention : Reuss Voigt Hill
#
# Bulk Modulus (GPa) = 32.54183 37.33621 34.93902
# Shear Modulus (GPa) = 24.72687 29.90939 27.31813
#
# Velocity S-wave (km/s) = 3.30371 3.63346 3.47250
# Velocity P-wave (km/s) = 5.37742 5.83806 5.61247
#
# Compressibility (1/GPa) = 0.03072968
#
# Stress axis : x y z
#
# Youngs Moduli (GPa) = 92.01951 40.37451 58.82802
#
# Poissons Ratio (x) = 0.20431 0.09192
# Poissons Ratio (y) = 0.46565 0.25469
# Poissons Ratio (z) = 0.14379 0.17480
#
# Static dielectric constant tensor:
#      x y z
#    x 3.895440 0.000000 -0.057320 
#    y 0.000000 3.993320 0.000000 
#    z -0.057320 0.000000 4.062890 
# 
# 
# High freq. dielectric constant tensor:
#      x y z
#    x 1.885370 0.000000 -0.006550 
#    y 0.000000 1.897660 0.000000 
#    z -0.006550 0.000000 1.892960 
# 
# From -- ./inp_files/36483.got.cif
#   From: 2010.06.25/outbox.cif.g09.slc.cpg/sg13_19_cif.got.tgz:36483.got - 2010.06.28 04:50:58.
