data_PCOD8121334
_publ_section_title
;
Structure prediction by ZEFSAII (Michael W. Deem and Ramdas Pophale) SiO2 
 PCOD8121334
Probable space group: P 2/C
;
_chemical_formula_sum "Si O2"
_cell_formula_units_Z 22
_cell_length_a 12.467148
_cell_length_b 6.646317
_cell_length_c 11.399393
_cell_angle_alpha 90.000000
_cell_angle_beta 99.653033
_cell_angle_gamma 90.000000
_cell_volume 931.186949
_symmetry_space_group_name_H-M "P 2/C"
_symmetry_group_IT_number 13
_symmetry_cell_setting 'monoclinic'
loop_
_space_group_symop_operation_xyz
x,y,z
-x,y,1/2-z
-x,-y,-z
x,-y,1/2+z
loop_
_atom_site_type_symbol
_atom_site_label
_atom_site_fract_x
_atom_site_fract_y
_atom_site_fract_z
Si Si1 0.316319 0.443193 0.366593
Si Si2 0.024590 0.116259 0.881101
Si Si3 0.153508 0.441838 0.657231
Si Si4 0.500000 0.380651 0.750000
Si Si5 0.330567 0.830418 0.071587
Si Si6 0.761877 0.761701 0.992358
O O1 0.195572 0.477656 0.291167
O O2 0.410128 0.470141 0.287812
O O3 0.325782 0.227514 0.432125
O O4 0.328382 0.613688 0.469397
O O5 0.154998 0.143414 0.897850
O O6 0.000000 0.004068 0.750000
O O7 0.963781 0.334311 0.863640
O O8 0.000000 0.000000 0.000000
O O9 0.236126 0.275053 0.626267
O O10 0.156190 0.642464 0.579008
O O11 0.552377 0.233337 0.856282
O O12 0.310241 0.067811 0.083850
#
# Coordination Sequence:
#
# PCOD8121334 Si02
#       6
#     4   4   4   2   4   4
#     4  10  22  41  67  94 136 185 235 299 362 436
#     4  12  24  44  72 109 150 188 239 291 360 438
#     4  10  22  42  65  98 136 188 228 289 355 436
#     4  10  22  42  66  96 138 178 246 300 374 430
#     4  10  22  41  66  96 133 180 236 299 362 425
#     4  11  23  42  66  97 141 184 236 289 363 429
#
# _framework density 23.625761000000001
#
# number of rings (size 3 to 8) (size 9 to 14) (size 15 to 20)
#    0.000    1.455    3.636    1.091    0.000    5.091 
#    0.000    9.091    0.000    0.000    0.000    0.000 
#    0.000    0.000    0.000    0.000    0.000    0.000 
#
# Total GULP energy -272613.714863 kJ/mol
# GULP energy per Si atom -12391.532494 kJ/mol
# Density = 2.357199 g / cm^3
# Si number density = 23.625761 Si / 1000 Ang^3
#
#
#
# Elastic Constant Matrix: (Units=GPa)
#
#
# Indices 1 2 3 4 5 6 
#
# 1 61.9523 11.4045 10.6563 0.0000 -2.0141 0.0000
# 2 11.4045 89.5909 33.0716 0.0000 0.8737 0.0000
# 3 10.6563 33.0716 127.3622 0.0000 -4.2704 0.0000
# 4 0.0000 0.0000 0.0000 20.0113 0.0000 -2.3477
# 5 -2.0141 0.8737 -4.2704 0.0000 34.8095 0.0000
# 6 0.0000 0.0000 0.0000 -2.3477 0.0000 24.1641
#
#
#
# Elastic Compliance Matrix: (Units=1/GPa)
#
#
# Indices 1 2 3 4 5 6 
#
# 1 0.016656 -0.001798 -0.000897 0.000000 0.000899 0.000000
# 2 -0.001798 0.012557 -0.003137 0.000000 -0.000804 0.000000
# 3 -0.000897 -0.003137 0.008778 0.000000 0.001104 0.000000
# 4 0.000000 0.000000 0.000000 0.050548 0.000000 0.004911
# 5 0.000899 -0.000804 0.001104 0.000000 0.028935 0.000000
# 6 0.000000 0.000000 0.000000 0.004911 0.000000 0.041861
#
#
# Mechanical properties :
#
#
# Convention : Reuss Voigt Hill
#
# Bulk Modulus (GPa) = 37.98319 43.24114 40.61216
# Shear Modulus (GPa) = 27.81270 30.71517 29.26393
#
# Velocity S-wave (km/s) = 3.43479 3.60956 3.52326
# Velocity P-wave (km/s) = 5.64289 5.97613 5.81190
#
# Compressibility (1/GPa) = 0.02632744
#
# Stress axis : x y z
#
# Youngs Moduli (GPa) = 60.03893 79.63959 113.91823
#
# Poissons Ratio (x) = 0.14319 0.10213
# Poissons Ratio (y) = 0.10795 0.35737
# Poissons Ratio (z) = 0.05383 0.24983
#
# Static dielectric constant tensor:
#      x y z
#    x 4.057610 0.000000 0.145070 
#    y 0.000000 4.121750 0.000000 
#    z 0.145070 0.000000 4.571920 
# 
# 
# High freq. dielectric constant tensor:
#      x y z
#    x 1.924990 0.000000 0.007010 
#    y 0.000000 1.915790 0.000000 
#    z 0.007010 0.000000 1.948110 
# 
# From -- ./inp_files/35511.got.cif
#   From: 2010.06.25/outbox.cif.g09.slc.cpg/sg13_18_cif.got.tgz:35511.got - 2010.06.28 04:50:58.
