data_PCOD8121855
_publ_section_title
;
Structure prediction by ZEFSAII (Michael W. Deem and Ramdas Pophale) SiO2 
 PCOD8121855
Probable space group: P 2/C
;
_chemical_formula_sum "Si O2"
_cell_formula_units_Z 22
_cell_length_a 23.431174
_cell_length_b 6.368503
_cell_length_c 22.898933
_cell_angle_alpha 90.000000
_cell_angle_beta 17.901712
_cell_angle_gamma 90.000000
_cell_volume 1050.338770
_symmetry_space_group_name_H-M "P 2/C"
_symmetry_group_IT_number 13
_symmetry_cell_setting 'monoclinic'
loop_
_space_group_symop_operation_xyz
x,y,z
-x,y,1/2-z
-x,-y,-z
x,-y,1/2+z
loop_
_atom_site_type_symbol
_atom_site_label
_atom_site_fract_x
_atom_site_fract_y
_atom_site_fract_z
Si Si1 0.578616 0.425159 0.345528
Si Si2 0.870499 0.304217 0.967253
Si Si3 0.000000 0.365925 0.250000
Si Si4 0.601117 0.188517 0.432891
Si Si5 0.238461 0.858862 0.146611
Si Si6 0.708872 0.013484 0.531032
O O1 0.685671 0.337250 0.299308
O O2 0.542060 0.673754 0.388533
O O3 0.379288 0.310167 0.536374
O O4 0.696826 0.388577 0.172719
O O5 0.960857 0.495348 0.844609
O O6 0.026390 0.216903 0.859692
O O7 0.805406 0.118670 0.988220
O O8 0.819550 0.227327 0.412377
O O9 0.500000 0.000000 0.500000
O O10 0.751239 0.084429 0.330316
O O11 0.288749 0.875894 0.029504
O O12 0.500000 0.075179 0.750000
#
# Coordination Sequence:
#
# PCOD8121855 Si02
#       6
#     4   4   2   4   4   4
#     4  10  23  43  68  93 128 174 220 272 330 380
#     4  12  25  42  65  98 135 169 219 271 327 395
#     4  12  26  40  60 100 138 168 218 264 332 398
#     4   9  22  44  66  95 128 170 225 272 320 388
#     4  11  22  41  67  94 134 168 218 273 320 392
#     4  12  25  43  65  97 134 176 214 266 327 394
#
# _framework density 20.945623000000001
#
# number of rings (size 3 to 8) (size 9 to 14) (size 15 to 20)
#    0.000    1.091    5.455    0.000    5.091    1.455 
#    0.000    8.182    0.000    0.000    0.000    0.000 
#    0.000    0.000    0.000    0.000    0.000    0.000 
#
# Total GULP energy -272801.813954 kJ/mol
# GULP energy per Si atom -12400.082452 kJ/mol
# Density = 2.089795 g / cm^3
# Si number density = 20.945623 Si / 1000 Ang^3
#
#
#
# Elastic Constant Matrix: (Units=GPa)
#
#
# Indices 1 2 3 4 5 6 
#
# 1 101.8810 48.8807 35.7556 0.0000 -2.0150 0.0000
# 2 48.8807 137.0904 50.3191 0.0000 -6.0120 0.0000
# 3 35.7556 50.3191 87.4567 0.0000 -16.1403 0.0000
# 4 0.0000 0.0000 0.0000 20.1647 0.0000 1.5798
# 5 -2.0150 -6.0120 -16.1403 0.0000 28.9056 0.0000
# 6 0.0000 0.0000 0.0000 1.5798 0.0000 28.7911
#
#
#
# Elastic Compliance Matrix: (Units=1/GPa)
#
#
# Indices 1 2 3 4 5 6 
#
# 1 0.012608 -0.003245 -0.003623 0.000000 -0.001819 0.000000
# 2 -0.003245 0.010118 -0.004625 0.000000 -0.000704 0.000000
# 3 -0.003623 -0.004625 0.017116 0.000000 0.008343 0.000000
# 4 0.000000 0.000000 0.000000 0.049806 0.000000 -0.002733
# 5 -0.001819 -0.000704 0.008343 0.000000 0.038981 0.000000
# 6 0.000000 0.000000 0.000000 -0.002733 0.000000 0.034883
#
#
# Mechanical properties :
#
#
# Convention : Reuss Voigt Hill
#
# Bulk Modulus (GPa) = 59.32658 66.25989 62.79324
# Shear Modulus (GPa) = 26.02584 28.33712 27.18148
#
# Velocity S-wave (km/s) = 3.52880 3.68216 3.60629
# Velocity P-wave (km/s) = 6.70737 7.05554 6.88365
#
# Compressibility (1/GPa) = 0.01685585
#
# Stress axis : x y z
#
# Youngs Moduli (GPa) = 79.31458 98.83105 58.42465
#
# Poissons Ratio (x) = 0.32075 0.21168
# Poissons Ratio (y) = 0.25741 0.27020
# Poissons Ratio (z) = 0.28736 0.45707
#
# Static dielectric constant tensor:
#      x y z
#    x 4.200910 0.000000 -0.076680 
#    y 0.000000 4.026100 0.000000 
#    z -0.076680 0.000000 3.681340 
# 
# 
# High freq. dielectric constant tensor:
#      x y z
#    x 1.834610 0.000000 0.000370 
#    y 0.000000 1.832560 0.000000 
#    z 0.000370 0.000000 1.800650 
# 
# From -- ./inp_files/88684.got.cif
#   From: 2010.06.25/outbox.cif.g09.slc.cpg/sg13_45_cif.got.tgz:88684.got - 2010.06.28 04:50:58.
