data_PCOD8121045
_publ_section_title
;
Structure prediction by ZEFSAII (Michael W. Deem and Ramdas Pophale) SiO2 
 PCOD8121045
Probable space group: P 2/C
;
_chemical_formula_sum "Si O2"
_cell_formula_units_Z 24
_cell_length_a 15.078773
_cell_length_b 5.196807
_cell_length_c 21.852068
_cell_angle_alpha 90.000000
_cell_angle_beta 144.497215
_cell_angle_gamma 90.000000
_cell_volume 994.440412
_symmetry_space_group_name_H-M "P 2/C"
_symmetry_group_IT_number 13
_symmetry_cell_setting 'monoclinic'
loop_
_space_group_symop_operation_xyz
x,y,z
-x,y,1/2-z
-x,-y,-z
x,-y,1/2+z
loop_
_atom_site_type_symbol
_atom_site_label
_atom_site_fract_x
_atom_site_fract_y
_atom_site_fract_z
Si Si1 0.500000 0.120368 0.250000
Si Si2 0.283747 0.451676 0.483308
Si Si3 0.470396 0.972215 0.596435
Si Si4 0.191951 0.126669 0.249610
Si Si5 0.101949 0.640180 0.129336
Si Si6 0.000000 0.316772 0.250000
Si Si7 0.774905 0.510126 0.917269
O O1 0.504717 0.962072 0.316873
O O2 0.353619 0.294752 0.174086
O O3 0.358087 0.731756 0.523810
O O4 0.118785 0.481909 0.357751
O O5 0.255214 0.359533 0.536986
O O6 0.396075 0.224909 0.521772
O O7 0.624272 0.894727 0.646793
O O8 0.137158 0.357260 0.175664
O O9 0.116366 0.151925 0.273938
O O10 0.131530 0.851289 0.195964
O O11 0.209639 0.690406 0.130408
O O12 0.929711 0.672707 0.010241
#
# Coordination Sequence:
#
# PCOD8121045 Si02
#       7
#     2   4   4   4   4   2   4
#     4  10  22  38  74 108 150 182 216 298 364 452
#     4  11  27  46  75 106 144 193 239 297 354 434
#     4  11  26  46  71 111 147 185 236 292 376 423
#     4  12  27  48  73 105 143 197 238 301 355 428
#     4  11  25  44  72 107 145 183 240 299 363 428
#     4  12  30  52  76 100 144 198 260 294 348 412
#     4  10  23  44  72 111 144 187 232 297 368 437
#
# _framework density 24.134176
#
# number of rings (size 3 to 8) (size 9 to 14) (size 15 to 20)
#    0.000    1.000    3.333    1.000    9.333    7.333 
#    0.000    0.000    0.000    0.000    0.000    0.000 
#    0.000    0.000    0.000    0.000    0.000    0.000 
#
# Total GULP energy -297438.169831 kJ/mol
# GULP energy per Si atom -12393.257076 kJ/mol
# Density = 2.407925 g / cm^3
# Si number density = 24.134176 Si / 1000 Ang^3
#
#
#
# Elastic Constant Matrix: (Units=GPa)
#
#
# Indices 1 2 3 4 5 6 
#
# 1 126.3592 9.1755 27.7353 0.0000 2.5042 0.0000
# 2 9.1755 -27.4760 26.4906 0.0000 64.3417 0.0000
# 3 27.7353 26.4906 121.8658 0.0000 27.0509 0.0000
# 4 0.0000 0.0000 0.0000 23.4983 0.0000 4.9580
# 5 2.5042 64.3417 27.0509 0.0000 10.3062 0.0000
# 6 0.0000 0.0000 0.0000 4.9580 0.0000 11.4328
#
#
#
# Elastic Compliance Matrix: (Units=1/GPa)
#
#
# Indices 1 2 3 4 5 6 
#
# 1 0.008312 0.000530 -0.001974 0.000000 -0.000146 0.000000
# 2 0.000530 -0.001174 -0.003508 0.000000 0.016409 0.000000
# 3 -0.001974 -0.003508 0.010662 0.000000 -0.005606 0.000000
# 4 0.000000 0.000000 0.000000 0.046842 0.000000 -0.020314
# 5 -0.000146 0.016409 -0.005606 0.000000 0.009336 0.000000
# 6 0.000000 0.000000 0.000000 -0.020314 0.000000 0.096277
#
#
# Mechanical properties :
#
#
# Convention : Reuss Voigt Hill
#
# Bulk Modulus (GPa) = 126.66161 38.61689 82.63925
# Shear Modulus (GPa) = 27.35361 19.53731 23.44546
#
# Velocity S-wave (km/s) = 3.37025 2.84831 3.12021
# Velocity P-wave (km/s) = 8.23049 5.18197 6.87727
#
# Compressibility (1/GPa) = 0.00789505
#
# Stress axis : x y z
#
# Youngs Moduli (GPa) = 120.31181 -851.57323 93.79095
#
# Poissons Ratio (x) = 0.45134 0.18519
# Poissons Ratio (y) = -0.06377 0.32900
# Poissons Ratio (z) = 0.23755 -2.98711
#
# Static dielectric constant tensor:
#      x y z
#    x 5.104840 0.000000 0.236550 
#    y 0.000000 3.834840 0.000000 
#    z 0.236550 0.000000 4.598450 
# 
# 
# High freq. dielectric constant tensor:
#      x y z
#    x 1.974990 0.000000 0.014420 
#    y 0.000000 1.936240 0.000000 
#    z 0.014420 0.000000 1.971750 
# 
# From -- ./inp_files/79405.got.cif
#   From: 2010.06.25/outbox.cif.g09.slc.cpg/sg13_40_cif.got.tgz:79405.got - 2010.06.28 04:50:58.
