data_PCOD8121518
_publ_section_title
;
Structure prediction by ZEFSAII (Michael W. Deem and Ramdas Pophale) SiO2 
 PCOD8121518
Probable space group: P 2/C
;
_chemical_formula_sum "Si O2"
_cell_formula_units_Z 32
_cell_length_a 14.183886
_cell_length_b 9.301021
_cell_length_c 23.353924
_cell_angle_alpha 90.000000
_cell_angle_beta 150.041524
_cell_angle_gamma 90.000000
_cell_volume 1538.544671
_symmetry_space_group_name_H-M "P 2/C"
_symmetry_group_IT_number 13
_symmetry_cell_setting 'monoclinic'
loop_
_space_group_symop_operation_xyz
x,y,z
-x,y,1/2-z
-x,-y,-z
x,-y,1/2+z
loop_
_atom_site_type_symbol
_atom_site_label
_atom_site_fract_x
_atom_site_fract_y
_atom_site_fract_z
Si Si1 0.840356 0.784948 0.347199
Si Si2 0.167628 0.281918 0.877389
Si Si3 0.305365 0.635842 0.121130
Si Si4 0.559095 0.158853 0.902852
Si Si5 0.538575 0.830871 0.520488
Si Si6 0.080581 0.247938 0.228676
Si Si7 0.890022 0.025398 0.573838
Si Si8 0.953387 0.523544 0.093586
O O1 0.794682 0.750936 0.389306
O O2 0.662699 0.863582 0.223933
O O3 0.013306 0.898091 0.430648
O O4 0.882082 0.635051 0.337086
O O5 0.097587 0.130001 0.865437
O O6 0.196554 0.398431 0.943108
O O7 0.000000 0.343085 0.750000
O O8 0.356488 0.262934 0.940573
O O9 0.500000 0.570922 0.250000
O O10 0.359404 0.713336 0.091443
O O11 0.157135 0.514279 0.023706
O O12 0.602888 0.209503 0.990432
O O13 0.669440 0.010436 0.944959
O O14 0.698301 0.789012 0.650040
O O15 0.500000 0.000000 0.500000
O O16 0.000000 0.264038 0.250000
O O17 0.054830 0.391350 0.178012
O O18 0.986905 0.122648 0.142415
#
# Coordination Sequence:
#
# PCOD8121518 Si02
#       8
#     4   4   4   4   4   4   4   4
#     4  10  24  41  68  90 125 171 220 278 333 379
#     4  11  23  39  62  96 137 171 209 263 319 390
#     4  10  22  43  68  88 125 173 219 275 334 382
#     4  11  21  39  62  94 125 166 215 262 323 391
#     4  12  21  36  64  94 132 173 211 255 326 389
#     4  12  22  38  60  94 133 172 209 262 320 393
#     4  11  21  39  63  91 132 167 215 260 323 395
#     4  11  23  43  62  96 131 168 223 266 324 395
#
# _framework density 20.798877000000001
#
# number of rings (size 3 to 8) (size 9 to 14) (size 15 to 20)
#    0.000    1.000    3.750    4.125    0.000    2.500 
#    0.000    2.500    0.000    3.000    0.000    0.000 
#    0.000    0.000    0.000    0.000    0.000    0.000 
#
# Total GULP energy -396787.669860 kJ/mol
# GULP energy per Si atom -12399.614683 kJ/mol
# Density = 2.075154 g / cm^3
# Si number density = 20.798877 Si / 1000 Ang^3
#
#
#
# Elastic Constant Matrix: (Units=GPa)
#
#
# Indices 1 2 3 4 5 6 
#
# 1 108.1025 46.0803 51.5648 0.0000 8.9946 0.0000
# 2 46.0803 106.1913 54.9853 0.0000 1.7860 0.0000
# 3 51.5648 54.9853 135.3844 0.0000 8.3096 0.0000
# 4 0.0000 0.0000 0.0000 25.3781 0.0000 -0.5022
# 5 8.9946 1.7860 8.3096 0.0000 32.4686 0.0000
# 6 0.0000 0.0000 0.0000 -0.5022 0.0000 28.4880
#
#
#
# Elastic Compliance Matrix: (Units=1/GPa)
#
#
# Indices 1 2 3 4 5 6 
#
# 1 0.012550 -0.003809 -0.003081 0.000000 -0.002479 0.000000
# 2 -0.003809 0.013092 -0.003949 0.000000 0.001346 0.000000
# 3 -0.003081 -0.003949 0.010259 0.000000 -0.001555 0.000000
# 4 0.000000 0.000000 0.000000 0.039418 0.000000 0.000695
# 5 -0.002479 0.001346 -0.001555 0.000000 0.031810 0.000000
# 6 0.000000 0.000000 0.000000 0.000695 0.000000 0.035115
#
#
# Mechanical properties :
#
#
# Convention : Reuss Voigt Hill
#
# Bulk Modulus (GPa) = 70.30725 72.77100 71.53913
# Shear Modulus (GPa) = 29.64512 30.40346 30.02429
#
# Velocity S-wave (km/s) = 3.77944 3.82748 3.80353
# Velocity P-wave (km/s) = 7.27477 7.38896 7.33209
#
# Compressibility (1/GPa) = 0.01422328
#
# Stress axis : x y z
#
# Youngs Moduli (GPa) = 79.68195 76.38275 97.47416
#
# Poissons Ratio (x) = 0.29093 0.30031
# Poissons Ratio (y) = 0.30350 0.38493
# Poissons Ratio (z) = 0.24549 0.30164
#
# Static dielectric constant tensor:
#      x y z
#    x 3.973340 0.000000 0.101790 
#    y 0.000000 3.701500 0.000000 
#    z 0.101790 0.000000 4.075770 
# 
# 
# High freq. dielectric constant tensor:
#      x y z
#    x 1.824470 0.000000 0.007040 
#    y 0.000000 1.803950 0.000000 
#    z 0.007040 0.000000 1.811650 
# 
# From -- ./inp_files/87456.got.cif
#   From: 2010.06.25/outbox.cif.g09.slc.cpg/sg13_44_cif.got.tgz:87456.got - 2010.06.28 04:50:58.
