data_PCOD8121931
_publ_section_title
;
Structure prediction by ZEFSAII (Michael W. Deem and Ramdas Pophale) SiO2 
 PCOD8121931
Probable space group: P 2/C
;
_chemical_formula_sum "Si O2"
_cell_formula_units_Z 20
_cell_length_a 16.784239
_cell_length_b 14.254242
_cell_length_c 11.400041
_cell_angle_alpha 90.000000
_cell_angle_beta 22.005166
_cell_angle_gamma 90.000000
_cell_volume 1021.937931
_symmetry_space_group_name_H-M "P 2/C"
_symmetry_group_IT_number 13
_symmetry_cell_setting 'monoclinic'
loop_
_space_group_symop_operation_xyz
x,y,z
-x,y,1/2-z
-x,-y,-z
x,-y,1/2+z
loop_
_atom_site_type_symbol
_atom_site_label
_atom_site_fract_x
_atom_site_fract_y
_atom_site_fract_z
Si Si1 0.853217 0.085324 0.241200
Si Si2 0.461334 0.089883 0.628889
Si Si3 0.799432 0.768662 0.165687
Si Si4 0.000000 0.604714 0.750000
Si Si5 0.500000 0.312748 0.250000
Si Si6 0.606798 0.510799 0.724815
O O1 0.692184 0.122144 0.361093
O O2 0.704168 0.051031 0.549735
O O3 0.991473 0.171440 0.097346
O O4 0.000000 0.000000 0.000000
O O5 0.363037 0.179183 0.698538
O O6 0.500000 0.000000 0.500000
O O7 0.680753 0.753452 0.449937
O O8 0.869925 0.668633 0.018486
O O9 0.162613 0.536165 0.593447
O O10 0.386774 0.376688 0.304306
O O11 0.500000 0.467569 0.750000
O O12 0.500000 0.500000 0.000000
#
# Coordination Sequence:
#
# PCOD8121931 Si02
#       6
#     4   4   4   2   2   4
#     4  11  24  41  65  95 129 178 220 271 342 394
#     4  11  24  41  64  94 133 174 219 277 333 395
#     4  12  24  44  65  99 134 172 231 273 331 416
#     4  12  22  44  78  92 136 182 220 286 346 420
#     4  10  26  46  66 102 136 172 226 292 336 406
#     4  10  23  45  70 102 139 173 227 287 357 406
#
# _framework density 19.57066
#
# number of rings (size 3 to 8) (size 9 to 14) (size 15 to 20)
#    0.600    0.400    6.000    0.000    2.800    4.800 
#    3.600    0.000    0.000    0.000    0.000    0.000 
#    0.000    0.000    0.000    0.000    0.000    0.000 
#
# Total GULP energy -247831.225500 kJ/mol
# GULP energy per Si atom -12391.561275 kJ/mol
# Density = 1.952612 g / cm^3
# Si number density = 19.570660 Si / 1000 Ang^3
#
#
#
# Elastic Constant Matrix: (Units=GPa)
#
#
# Indices 1 2 3 4 5 6 
#
# 1 138.6438 39.0801 66.1279 0.0000 -16.4593 0.0000
# 2 39.0801 65.5990 39.0870 0.0000 -15.6341 0.0000
# 3 66.1279 39.0870 126.9354 0.0000 -9.2888 0.0000
# 4 0.0000 0.0000 0.0000 40.1290 0.0000 12.2487
# 5 -16.4593 -15.6341 -9.2888 0.0000 47.6610 0.0000
# 6 0.0000 0.0000 0.0000 12.2487 0.0000 20.7187
#
#
#
# Elastic Compliance Matrix: (Units=1/GPa)
#
#
# Indices 1 2 3 4 5 6 
#
# 1 0.010364 -0.003219 -0.004284 0.000000 0.001688 0.000000
# 2 -0.003219 0.020964 -0.004420 0.000000 0.004904 0.000000
# 3 -0.004284 -0.004420 0.011419 0.000000 -0.000704 0.000000
# 4 0.000000 0.000000 0.000000 0.030406 0.000000 -0.017976
# 5 0.001688 0.004904 -0.000704 0.000000 0.023036 0.000000
# 6 0.000000 0.000000 0.000000 -0.017976 0.000000 0.058893
#
#
# Mechanical properties :
#
#
# Convention : Reuss Voigt Hill
#
# Bulk Modulus (GPa) = 52.90647 68.86314 60.88481
# Shear Modulus (GPa) = 26.99358 34.16062 30.57710
#
# Velocity S-wave (km/s) = 3.71791 4.18245 3.95700
# Velocity P-wave (km/s) = 6.74705 7.65423 7.21491
#
# Compressibility (1/GPa) = 0.01890128
#
# Stress axis : x y z
#
# Youngs Moduli (GPa) = 96.48763 47.70094 87.57005
#
# Poissons Ratio (x) = 0.15355 0.37519
# Poissons Ratio (y) = 0.31060 0.38702
# Poissons Ratio (z) = 0.41339 0.21082
#
# Static dielectric constant tensor:
#      x y z
#    x 3.914310 0.000000 -0.155910 
#    y 0.000000 3.475320 0.000000 
#    z -0.155910 0.000000 3.865300 
# 
# 
# High freq. dielectric constant tensor:
#      x y z
#    x 1.767360 0.000000 0.003180 
#    y 0.000000 1.755920 0.000000 
#    z 0.003180 0.000000 1.779600 
# 
# From -- ./inp_files/39317.got.cif
#   From: 2010.06.25/outbox.cif.g09.slc.cpg/sg13_20_cif.got.tgz:39317.got - 2010.06.28 04:50:58.
