data_PCOD8121313
_publ_section_title
;
Structure prediction by ZEFSAII (Michael W. Deem and Ramdas Pophale) SiO2 
 PCOD8121313
Probable space group: P 2/C
;
_chemical_formula_sum "Si O2"
_cell_formula_units_Z 12
_cell_length_a 9.468255
_cell_length_b 6.897483
_cell_length_c 16.277316
_cell_angle_alpha 90.000000
_cell_angle_beta 151.336474
_cell_angle_gamma 90.000000
_cell_volume 509.895788
_symmetry_space_group_name_H-M "P 2/C"
_symmetry_group_IT_number 13
_symmetry_cell_setting 'monoclinic'
loop_
_space_group_symop_operation_xyz
x,y,z
-x,y,1/2-z
-x,-y,-z
x,-y,1/2+z
loop_
_atom_site_type_symbol
_atom_site_label
_atom_site_fract_x
_atom_site_fract_y
_atom_site_fract_z
Si Si1 0.231402 0.854608 0.551170
Si Si2 0.899510 0.716795 0.526584
Si Si3 0.533739 0.452473 0.111510
O O1 0.500000 0.901003 0.750000
O O2 0.994291 0.715706 0.478359
O O3 0.339318 0.738920 0.527332
O O4 0.094098 0.053982 0.447608
O O5 0.127938 0.595953 0.698335
O O6 0.580990 0.623518 0.385146
O O7 0.500000 0.500000 0.000000
#
# Coordination Sequence:
#
# PCOD8121313 Si02
#       3
#     4   4   4
#     4   9  21  41  66  92 121 164 215 260 304 364
#     4  10  22  41  65  93 124 165 212 258 309 369
#     4  11  23  40  64  94 129 166 204 257 318 374
#
# _framework density 23.534220000000001
#
# number of rings (size 3 to 8) (size 9 to 14) (size 15 to 20)
#    0.000    2.000    0.000    2.000    0.000   13.333 
#    0.000    3.333    0.000    0.000    0.000    0.000 
#    0.000    0.000    0.000    0.000    0.000    0.000 
#
# Total GULP energy -148738.324751 kJ/mol
# GULP energy per Si atom -12394.860396 kJ/mol
# Density = 2.348065 g / cm^3
# Si number density = 23.534220 Si / 1000 Ang^3
#
#
#
# Elastic Constant Matrix: (Units=GPa)
#
#
# Indices 1 2 3 4 5 6 
#
# 1 125.2031 56.5132 49.7771 0.0000 -0.6546 0.0000
# 2 56.5132 89.5533 75.5206 0.0000 -2.9424 0.0000
# 3 49.7771 75.5206 82.5402 0.0000 -0.6658 0.0000
# 4 0.0000 0.0000 0.0000 37.8873 0.0000 16.2641
# 5 -0.6546 -2.9424 -0.6658 0.0000 26.1692 0.0000
# 6 0.0000 0.0000 0.0000 16.2641 0.0000 45.5845
#
#
#
# Elastic Compliance Matrix: (Units=1/GPa)
#
#
# Indices 1 2 3 4 5 6 
#
# 1 0.011203 -0.006057 -0.001218 0.000000 -0.000432 0.000000
# 2 -0.006057 0.052664 -0.044495 0.000000 0.004638 0.000000
# 3 -0.001218 -0.044495 0.053531 0.000000 -0.003672 0.000000
# 4 0.000000 0.000000 0.000000 0.031168 0.000000 -0.011120
# 5 -0.000432 0.004638 -0.003672 0.000000 0.038630 0.000000
# 6 0.000000 0.000000 0.000000 -0.011120 0.000000 0.025905
#
#
# Mechanical properties :
#
#
# Convention : Reuss Voigt Hill
#
# Bulk Modulus (GPa) = 72.15800 73.43538 72.79669
# Shear Modulus (GPa) = 15.56372 29.62725 22.59548
#
# Velocity S-wave (km/s) = 2.57441 3.55195 3.10193
# Velocity P-wave (km/s) = 6.29001 6.93493 6.62033
#
# Compressibility (1/GPa) = 0.01385848
#
# Stress axis : x y z
#
# Youngs Moduli (GPa) = 89.26332 18.98827 18.68070
#
# Poissons Ratio (x) = 0.11501 0.02275
# Poissons Ratio (y) = 0.54066 0.83120
# Poissons Ratio (z) = 0.10870 0.84489
#
# Static dielectric constant tensor:
#      x y z
#    x 4.385390 0.000000 0.501820 
#    y 0.000000 4.449900 0.000000 
#    z 0.501820 0.000000 3.852290 
# 
# 
# High freq. dielectric constant tensor:
#      x y z
#    x 1.935210 0.000000 0.033650 
#    y 0.000000 1.949320 0.000000 
#    z 0.033650 0.000000 1.902320 
# 
# From -- ./inp_files/10532.got.cif
#   From: 2010.06.25/outbox.cif.g09.slc.cpg/sg13_6_cif.got.tgz:10532.got - 2010.06.28 04:50:58.
