data_PCOD8121370
_publ_section_title
;
Structure prediction by ZEFSAII (Michael W. Deem and Ramdas Pophale) SiO2 
 PCOD8121370
Probable space group: P 2/C
;
_chemical_formula_sum "Si O2"
_cell_formula_units_Z 30
_cell_length_a 20.775871
_cell_length_b 10.678003
_cell_length_c 11.664718
_cell_angle_alpha 90.000000
_cell_angle_beta 31.305331
_cell_angle_gamma 90.000000
_cell_volume 1344.595039
_symmetry_space_group_name_H-M "P 2/C"
_symmetry_group_IT_number 13
_symmetry_cell_setting 'monoclinic'
loop_
_space_group_symop_operation_xyz
x,y,z
-x,y,1/2-z
-x,-y,-z
x,-y,1/2+z
loop_
_atom_site_type_symbol
_atom_site_label
_atom_site_fract_x
_atom_site_fract_y
_atom_site_fract_z
Si Si1 0.310036 0.375442 0.113385
Si Si2 0.113672 0.817888 0.290828
Si Si3 0.382380 0.108223 0.353754
Si Si4 0.976640 0.579322 0.416651
Si Si5 0.523203 0.710207 0.947435
Si Si6 0.677424 0.824797 0.090151
Si Si7 0.060487 0.910910 0.772206
Si Si8 0.500000 0.438124 0.250000
O O1 0.168453 0.396011 0.358586
O O2 0.389054 0.376642 0.109754
O O3 0.322698 0.241716 0.032705
O O4 0.372941 0.480383 0.936641
O O5 0.063473 0.704444 0.287625
O O6 0.034777 0.811220 0.527061
O O7 0.084785 0.957586 0.294234
O O8 0.261724 0.817063 0.086556
O O9 0.500000 0.147278 0.250000
O O10 0.404039 0.160919 0.192535
O O11 0.375627 0.960478 0.356212
O O12 0.000000 0.521398 0.250000
O O13 0.000000 0.500000 0.500000
O O14 0.492145 0.641802 0.876864
O O15 0.398542 0.744742 0.203258
O O16 0.813755 0.833703 0.935599
O O17 0.000000 0.957120 0.750000
#
# Coordination Sequence:
#
# PCOD8121370 Si02
#       8
#     4   4   4   4   4   4   4   2
#     4  12  26  49  75  97 146 191 246 292 370 428
#     4  10  23  46  65 100 144 184 238 289 370 437
#     4  11  24  42  71 109 144 178 232 298 372 435
#     4  12  29  49  75 105 146 195 250 310 365 431
#     4  12  25  45  72 104 145 188 236 298 364 438
#     4  11  24  46  70 110 142 187 232 297 369 439
#     4  10  22  41  72 101 136 189 234 297 356 443
#     4  12  28  46  72 106 138 196 246 298 348 436
#
# _framework density 22.311551000000001
#
# number of rings (size 3 to 8) (size 9 to 14) (size 15 to 20)
#    0.000    0.800    3.333    2.800    5.600    1.600 
#    0.000    0.000    0.000    0.000    0.000    0.000 
#    0.000    0.000    0.000    0.000    0.000    0.000 
#
# Total GULP energy -371686.661289 kJ/mol
# GULP energy per Si atom -12389.555376 kJ/mol
# Density = 2.226077 g / cm^3
# Si number density = 22.311551 Si / 1000 Ang^3
#
#
#
# Elastic Constant Matrix: (Units=GPa)
#
#
# Indices 1 2 3 4 5 6 
#
# 1 107.5527 41.5295 75.2604 0.0000 -11.5995 0.0000
# 2 41.5295 83.3103 46.5614 0.0000 4.0117 0.0000
# 3 75.2604 46.5614 176.5146 0.0000 -18.3904 0.0000
# 4 0.0000 0.0000 0.000015155.6074 0.0000-1553.8653
# 5 -11.5995 4.0117 -18.3904 0.0000 38.1741 0.0000
# 6 0.0000 0.0000 0.0000-1553.8653 0.0000 185.4548
#
#
#
# Elastic Compliance Matrix: (Units=1/GPa)
#
#
# Indices 1 2 3 4 5 6 
#
# 1 0.014780 -0.004850 -0.004739 0.000000 0.002717 0.000000
# 2 -0.004850 0.016113 -0.002645 0.000000 -0.004441 0.000000
# 3 -0.004739 -0.002645 0.008699 0.000000 0.003029 0.000000
# 4 0.000000 0.000000 0.000000 0.000468 0.000000 0.003922
# 5 0.002717 -0.004441 0.003029 0.000000 0.028947 0.000000
# 6 0.000000 0.000000 0.000000 0.003922 0.000000 0.038254
#
#
# Mechanical properties :
#
#
# Convention : Reuss Voigt Hill
#
# Bulk Modulus (GPa) = 66.12167 77.12003 71.62085
# Shear Modulus (GPa) = 36.55731 3089.44903 1563.00317
#
# Velocity S-wave (km/s) = 4.05222 37.25174 26.49634
# Velocity P-wave (km/s) = 7.18289 43.41539 31.11664
#
# Compressibility (1/GPa) = 0.01512363
#
# Stress axis : x y z
#
# Youngs Moduli (GPa) = 67.66003 62.06100 114.95219
#
# Poissons Ratio (x) = 0.30098 0.54479
# Poissons Ratio (y) = 0.32813 0.30409
# Poissons Ratio (z) = 0.32066 0.16417
#
# Static dielectric constant tensor:
#      x y z
#    x 4.081720 0.000000 0.007930 
#    y 0.000000 4.102230 0.000000 
#    z 0.007930 0.000000 4.575970 
# 
# 
# High freq. dielectric constant tensor:
#      x y z
#    x 1.875060 0.000000 -0.003590 
#    y 0.000000 1.882590 0.000000 
#    z -0.003590 0.000000 1.899410 
# 
# From -- ./inp_files/40784.got.cif
#   From: 2010.06.25/outbox.cif.g09.slc.cpg/sg13_21_cif.got.tgz:40784.got - 2010.06.28 04:50:58.
