data_PCOD8121449
_publ_section_title
;
Structure prediction by ZEFSAII (Michael W. Deem and Ramdas Pophale) SiO2 
 PCOD8121449
Probable space group: P 2/C
;
_chemical_formula_sum "Si O2"
_cell_formula_units_Z 20
_cell_length_a 20.718524
_cell_length_b 5.331785
_cell_length_c 15.129611
_cell_angle_alpha 90.000000
_cell_angle_beta 150.029291
_cell_angle_gamma 90.000000
_cell_volume 834.919159
_symmetry_space_group_name_H-M "P 2/C"
_symmetry_group_IT_number 13
_symmetry_cell_setting 'monoclinic'
loop_
_space_group_symop_operation_xyz
x,y,z
-x,y,1/2-z
-x,-y,-z
x,-y,1/2+z
loop_
_atom_site_type_symbol
_atom_site_label
_atom_site_fract_x
_atom_site_fract_y
_atom_site_fract_z
Si Si1 0.406806 0.841224 0.291441
Si Si2 0.656881 0.911869 0.094740
Si Si3 0.116577 0.249293 0.093339
Si Si4 0.148501 0.643745 0.276705
Si Si5 0.745709 0.361370 0.413875
O O1 0.555196 0.885459 0.434501
O O2 0.354322 0.588291 0.184736
O O3 0.413609 0.783021 0.405330
O O4 0.323962 0.089967 0.169853
O O5 0.792766 0.010951 0.292842
O O6 0.704832 0.725629 0.075211
O O7 0.116774 0.385890 0.188559
O O8 0.177521 0.419255 0.086121
O O9 0.970038 0.169416 0.892184
O O10 0.149040 0.623048 0.382875
#
# Coordination Sequence:
#
# PCOD8121449 Si02
#       5
#     4   4   4   4   4
#     4  10  24  43  70  93 138 172 224 275 336 398
#     4  10  22  42  68  94 131 180 221 276 339 395
#     4  10  23  43  66  93 137 171 227 273 337 393
#     4  11  23  41  67  98 130 179 222 278 328 409
#     4  11  24  45  66 102 130 179 218 280 335 394
#
# _framework density 23.954414
#
# number of rings (size 3 to 8) (size 9 to 14) (size 15 to 20)
#    0.000    1.600    2.000    1.200    5.600    3.200 
#    0.000    2.000    0.000    0.000    0.000    0.000 
#    0.000    0.000    0.000    0.000    0.000    0.000 
#
# Total GULP energy -247832.239889 kJ/mol
# GULP energy per Si atom -12391.611994 kJ/mol
# Density = 2.389989 g / cm^3
# Si number density = 23.954414 Si / 1000 Ang^3
#
#
#
# Elastic Constant Matrix: (Units=GPa)
#
#
# Indices 1 2 3 4 5 6 
#
# 1 62.2042 9.1255 31.0923 0.0000 1.9093 0.0000
# 2 9.1255 71.1732 5.0103 0.0000 0.7666 0.0000
# 3 31.0923 5.0103 90.7389 0.0000 2.5264 0.0000
# 4 0.0000 0.0000 0.0000 33.1366 0.0000 11.8629
# 5 1.9093 0.7666 2.5264 0.0000 50.7888 0.0000
# 6 0.0000 0.0000 0.0000 11.8629 0.0000 27.8894
#
#
#
# Elastic Compliance Matrix: (Units=1/GPa)
#
#
# Indices 1 2 3 4 5 6 
#
# 1 0.019702 -0.002055 -0.006627 0.000000 -0.000380 0.000000
# 2 -0.002055 0.014321 -0.000083 0.000000 -0.000135 0.000000
# 3 -0.006627 -0.000083 0.013307 0.000000 -0.000412 0.000000
# 4 0.000000 0.000000 0.000000 0.035599 0.000000 -0.015142
# 5 -0.000380 -0.000135 -0.000412 0.000000 0.019726 0.000000
# 6 0.000000 0.000000 0.000000 -0.015142 0.000000 0.042297
#
#
# Mechanical properties :
#
#
# Convention : Reuss Voigt Hill
#
# Bulk Modulus (GPa) = 33.55692 34.95252 34.25472
# Shear Modulus (GPa) = 28.99970 34.28882 31.64426
#
# Velocity S-wave (km/s) = 3.48317 3.78752 3.63853
# Velocity P-wave (km/s) = 5.49688 5.80947 5.65534
#
# Compressibility (1/GPa) = 0.02980011
#
# Stress axis : x y z
#
# Youngs Moduli (GPa) = 50.75714 69.82726 75.14627
#
# Poissons Ratio (x) = 0.14353 0.49798
# Poissons Ratio (y) = 0.10433 0.00621
# Poissons Ratio (z) = 0.33636 0.00577
#
# Static dielectric constant tensor:
#      x y z
#    x 4.719950 0.000000 0.289150 
#    y 0.000000 3.809800 0.000000 
#    z 0.289150 0.000000 4.470850 
# 
# 
# High freq. dielectric constant tensor:
#      x y z
#    x 1.951010 0.000000 0.012500 
#    y 0.000000 1.920390 0.000000 
#    z 0.012500 0.000000 1.957460 
# 
# From -- ./inp_files/48807.got.cif
#   From: 2010.06.25/outbox.cif.g09.slc.cpg/sg13_25_cif.got.tgz:48807.got - 2010.06.28 04:50:58.
