data_PCOD8121229
_publ_section_title
;
Structure prediction by ZEFSAII (Michael W. Deem and Ramdas Pophale) SiO2 
 PCOD8121229
Probable space group: P 2/C
;
_chemical_formula_sum "Si O2"
_cell_formula_units_Z 24
_cell_length_a 20.920078
_cell_length_b 11.635686
_cell_length_c 10.558430
_cell_angle_alpha 90.000000
_cell_angle_beta 25.046481
_cell_angle_gamma 90.000000
_cell_volume 1088.072039
_symmetry_space_group_name_H-M "P 2/C"
_symmetry_group_IT_number 13
_symmetry_cell_setting 'monoclinic'
loop_
_space_group_symop_operation_xyz
x,y,z
-x,y,1/2-z
-x,-y,-z
x,-y,1/2+z
loop_
_atom_site_type_symbol
_atom_site_label
_atom_site_fract_x
_atom_site_fract_y
_atom_site_fract_z
Si Si1 0.156846 0.832039 0.022862
Si Si2 0.276387 0.923449 0.350096
Si Si3 0.500000 0.821377 0.750000
Si Si4 0.347687 0.222609 0.953871
Si Si5 0.000000 0.778732 0.750000
Si Si6 0.783697 0.686755 0.344167
Si Si7 0.402527 0.472467 0.797210
O O1 0.143639 0.743192 0.161788
O O2 0.000000 0.879174 0.250000
O O3 0.224946 0.763411 0.783148
O O4 0.255204 0.940094 0.892007
O O5 0.319612 0.884790 0.412983
O O6 0.120230 0.860586 0.600614
O O7 0.411347 0.898878 0.010227
O O8 0.622167 0.743396 0.602404
O O9 0.500000 0.193818 0.750000
O O10 0.348685 0.341530 0.874372
O O11 0.089933 0.697628 0.491089
O O12 0.746400 0.552498 0.431979
O O13 0.500000 0.485790 0.750000
O O14 0.500000 0.500000 0.500000
#
# Coordination Sequence:
#
# PCOD8121229 Si02
#       7
#     4   4   2   4   2   4   4
#     4  12  27  46  67  98 145 187 227 286 354 415
#     4  11  24  44  68  97 140 182 228 284 350 415
#     4  10  22  40  68 106 126 172 240 282 338 412
#     4  11  26  44  71 105 134 177 234 292 348 412
#     4  10  24  42  68 100 134 188 234 272 342 426
#     4  11  23  44  72 103 134 184 234 284 348 422
#     4  11  23  46  75 106 145 183 230 299 365 415
#
# _framework density 22.057365000000001
#
# number of rings (size 3 to 8) (size 9 to 14) (size 15 to 20)
#    0.000    1.000    1.667    5.000    8.167    2.667 
#    1.500    1.667    0.000    0.000    0.000    0.000 
#    0.000    0.000    0.000    0.000    0.000    0.000 
#
# Total GULP energy -297669.824705 kJ/mol
# GULP energy per Si atom -12402.909363 kJ/mol
# Density = 2.200716 g / cm^3
# Si number density = 22.057365 Si / 1000 Ang^3
#
#
#
# Elastic Constant Matrix: (Units=GPa)
#
#
# Indices 1 2 3 4 5 6 
#
# 1 119.8719 48.8034 46.0067 0.0000 12.7444 0.0000
# 2 48.8034 97.8454 39.1874 0.0000 4.8709 0.0000
# 3 46.0067 39.1874 138.3999 0.0000 9.3209 0.0000
# 4 0.0000 0.0000 0.0000 30.2526 0.0000 -1.0252
# 5 12.7444 4.8709 9.3209 0.0000 38.3133 0.0000
# 6 0.0000 0.0000 0.0000 -1.0252 0.0000 42.2181
#
#
#
# Elastic Compliance Matrix: (Units=1/GPa)
#
#
# Indices 1 2 3 4 5 6 
#
# 1 0.011390 -0.004629 -0.002297 0.000000 -0.002641 0.000000
# 2 -0.004629 0.013427 -0.002289 0.000000 0.000390 0.000000
# 3 -0.002297 -0.002289 0.008709 0.000000 -0.001063 0.000000
# 4 0.000000 0.000000 0.000000 0.033082 0.000000 0.000803
# 5 -0.002641 0.000390 -0.001063 0.000000 0.027188 0.000000
# 6 0.000000 0.000000 0.000000 0.000803 0.000000 0.023706
#
#
# Mechanical properties :
#
#
# Convention : Reuss Voigt Hill
#
# Bulk Modulus (GPa) = 66.25406 69.34581 67.79994
# Shear Modulus (GPa) = 35.46998 36.96478 36.21738
#
# Velocity S-wave (km/s) = 4.01444 4.09815 4.05651
# Velocity P-wave (km/s) = 7.18262 7.34168 7.26258
#
# Compressibility (1/GPa) = 0.01509341
#
# Stress axis : x y z
#
# Youngs Moduli (GPa) = 87.80015 74.47920 114.82472
#
# Poissons Ratio (x) = 0.34478 0.26380
# Poissons Ratio (y) = 0.40645 0.26284
# Poissons Ratio (z) = 0.20172 0.17049
#
# Static dielectric constant tensor:
#      x y z
#    x 7.944330 0.000000 -1.653590 
#    y 0.000000 3.970930 0.000000 
#    z -1.653590 0.000000 4.761380 
# 
# 
# High freq. dielectric constant tensor:
#      x y z
#    x 1.878420 0.000000 0.005080 
#    y 0.000000 1.865890 0.000000 
#    z 0.005080 0.000000 1.878870 
# 
# From -- ./inp_files/41832.got.cif
#   From: 2010.06.25/outbox.cif.g09.slc.cpg/sg13_21_cif.got.tgz:41832.got - 2010.06.28 04:50:58.
