data_PCOD8121976
_publ_section_title
;
Structure prediction by ZEFSAII (Michael W. Deem and Ramdas Pophale) SiO2 
 PCOD8121976
Probable space group: P 2/C
;
_chemical_formula_sum "Si O2"
_cell_formula_units_Z 30
_cell_length_a 13.656382
_cell_length_b 12.152714
_cell_length_c 9.469032
_cell_angle_alpha 90.000000
_cell_angle_beta 107.983112
_cell_angle_gamma 90.000000
_cell_volume 1494.728844
_symmetry_space_group_name_H-M "P 2/C"
_symmetry_group_IT_number 13
_symmetry_cell_setting 'monoclinic'
loop_
_space_group_symop_operation_xyz
x,y,z
-x,y,1/2-z
-x,-y,-z
x,-y,1/2+z
loop_
_atom_site_type_symbol
_atom_site_label
_atom_site_fract_x
_atom_site_fract_y
_atom_site_fract_z
Si Si1 0.500000 0.990598 0.250000
Si Si2 0.628315 0.393758 0.653229
Si Si3 0.268424 0.821677 0.900528
Si Si4 0.892058 0.140466 0.405244
Si Si5 0.392928 0.385819 0.527178
Si Si6 0.119049 0.119159 0.562881
Si Si7 0.370681 0.045064 0.938424
Si Si8 0.797782 0.216451 0.636647
O O1 0.566713 0.065269 0.388100
O O2 0.568707 0.913316 0.176186
O O3 0.512928 0.350009 0.570533
O O4 0.642269 0.407757 0.827463
O O5 0.636892 0.509385 0.578915
O O6 0.718612 0.316149 0.630306
O O7 0.170422 0.816128 0.755212
O O8 0.350519 0.916074 0.900348
O O9 0.328739 0.708715 0.923748
O O10 0.222956 0.841722 0.034705
O O11 0.859557 0.223119 0.517757
O O12 0.014557 0.150555 0.433741
O O13 0.868925 0.011652 0.416367
O O14 0.117670 0.190787 0.706024
O O15 0.263917 0.103655 0.904636
#
# Coordination Sequence:
#
# PCOD8121976 Si02
#       8
#     2   4   4   4   4   4   4   4
#     4  10  24  34  48  78 132 166 194 236 300 368
#     4  10  24  44  65  90 120 164 210 254 308 367
#     4  12  22  39  62  90 125 161 207 255 305 366
#     4  11  23  37  62  96 128 163 207 250 306 374
#     4  10  24  44  65  90 120 164 210 254 308 367
#     4  11  21  41  62  90 130 167 203 254 306 370
#     4  11  22  36  53  88 124 164 203 242 299 372
#     4  12  22  39  62  90 125 161 207 255 305 366
#
# _framework density 20.070529000000001
#
# number of rings (size 3 to 8) (size 9 to 14) (size 15 to 20)
#    0.000    1.067    4.000    2.400    5.600    2.133 
#    0.000    0.000    0.000    4.800    0.000    0.000 
#    0.000    0.000    0.000    0.000    0.000    0.000 
#
# Total GULP energy -371808.158646 kJ/mol
# GULP energy per Si atom -12393.605288 kJ/mol
# Density = 2.002485 g / cm^3
# Si number density = 20.070529 Si / 1000 Ang^3
#
#
#
# Elastic Constant Matrix: (Units=GPa)
#
#
# Indices 1 2 3 4 5 6 
#
# 1 76.6258 39.6503 21.3767 0.0000 7.6480 0.0000
# 2 39.6503 93.1881 31.7398 0.0000 15.0633 0.0000
# 3 21.3767 31.7398 106.6623 0.0000 14.9054 0.0000
# 4 0.0000 0.0000 0.0000 27.0147 0.0000 -0.0023
# 5 7.6480 15.0633 14.9054 0.0000 39.3545 0.0000
# 6 0.0000 0.0000 0.0000 -0.0023 0.0000 24.9734
#
#
#
# Elastic Compliance Matrix: (Units=1/GPa)
#
#
# Indices 1 2 3 4 5 6 
#
# 1 0.016920 -0.006700 -0.001369 0.000000 -0.000205 0.000000
# 2 -0.006700 0.015043 -0.002651 0.000000 -0.003452 0.000000
# 3 -0.001369 -0.002651 0.010833 0.000000 -0.002822 0.000000
# 4 0.000000 0.000000 0.000000 0.037017 0.000000 0.000003
# 5 -0.000205 -0.003452 -0.002822 0.000000 0.027840 0.000000
# 6 0.000000 0.000000 0.000000 0.000003 0.000000 0.040043
#
#
# Mechanical properties :
#
#
# Convention : Reuss Voigt Hill
#
# Bulk Modulus (GPa) = 46.82505 51.33442 49.07973
# Shear Modulus (GPa) = 28.36844 30.51580 29.44212
#
# Velocity S-wave (km/s) = 3.76365 3.90350 3.83421
# Velocity P-wave (km/s) = 6.50136 6.77856 6.64141
#
# Compressibility (1/GPa) = 0.02135609
#
# Stress axis : x y z
#
# Youngs Moduli (GPa) = 59.10328 66.47809 92.31079
#
# Poissons Ratio (x) = 0.44538 0.12633
# Poissons Ratio (y) = 0.39598 0.24473
# Poissons Ratio (z) = 0.08089 0.17625
#
# Static dielectric constant tensor:
#      x y z
#    x 3.775110 0.000000 -0.067950 
#    y 0.000000 3.271710 0.000000 
#    z -0.067950 0.000000 3.922720 
# 
# 
# High freq. dielectric constant tensor:
#      x y z
#    x 1.795250 0.000000 0.001680 
#    y 0.000000 1.740530 0.000000 
#    z 0.001680 0.000000 1.802670 
# 
# From -- ./inp_files/19081.got.cif
#   From: 2010.06.25/outbox.cif.g09.slc.cpg/sg13_10_cif.got.tgz:19081.got - 2010.06.28 04:50:58.
