data_PCOD8121999
_publ_section_title
;
Structure prediction by ZEFSAII (Michael W. Deem and Ramdas Pophale) SiO2 
 PCOD8121999
Probable space group: P 2/C
;
_chemical_formula_sum "Si O2"
_cell_formula_units_Z 28
_cell_length_a 8.903364
_cell_length_b 14.687695
_cell_length_c 13.560531
_cell_angle_alpha 90.000000
_cell_angle_beta 132.078530
_cell_angle_gamma 90.000000
_cell_volume 1316.198000
_symmetry_space_group_name_H-M "P 2/C"
_symmetry_group_IT_number 13
_symmetry_cell_setting 'monoclinic'
loop_
_space_group_symop_operation_xyz
x,y,z
-x,y,1/2-z
-x,-y,-z
x,-y,1/2+z
loop_
_atom_site_type_symbol
_atom_site_label
_atom_site_fract_x
_atom_site_fract_y
_atom_site_fract_z
Si Si1 0.859635 0.587931 0.345046
Si Si2 0.419873 0.826747 0.486204
Si Si3 0.447354 0.374796 0.963356
Si Si4 0.688639 0.912894 0.260970
Si Si5 0.258585 0.494424 0.513729
Si Si6 0.302342 0.116623 0.227875
Si Si7 0.948829 0.217361 0.530773
O O1 0.733107 0.603631 0.191807
O O2 0.709104 0.547854 0.362906
O O3 0.020679 0.508949 0.391902
O O4 0.985646 0.677113 0.436421
O O5 0.488553 0.730832 0.473422
O O6 0.377127 0.898191 0.380970
O O7 0.621503 0.861550 0.629207
O O8 0.218464 0.810654 0.462186
O O9 0.378817 0.410314 0.042588
O O10 0.657649 0.422584 0.028601
O O11 0.500000 0.900197 0.250000
O O12 0.851669 0.839133 0.361402
O O13 0.784256 0.013798 0.313543
O O14 0.500000 0.124550 0.250000
O O15 0.136043 0.188848 0.114817
#
# Coordination Sequence:
#
# PCOD8121999 Si02
#       7
#     4   4   4   4   4   4   4
#     4  11  22  42  65  95 127 165 220 257 321 379
#     4  11  22  41  69  96 128 174 214 264 317 387
#     4  11  22  42  65  95 127 165 220 257 321 379
#     4  11  23  39  69  96 129 171 216 266 319 379
#     4  10  24  40  60  94 124 164 206 274 312 372
#     4   9  22  43  61  98 135 165 216 266 321 381
#     4  11  22  41  69  96 128 174 214 264 317 387
#
# _framework density 21.273396000000002
#
# number of rings (size 3 to 8) (size 9 to 14) (size 15 to 20)
#    0.000    1.429    2.857    2.143    2.000    0.000 
#   15.429    2.143    0.000    0.000    0.000    0.000 
#    0.000    0.000    0.000    0.000    0.000    0.000 
#
# Total GULP energy -347055.042310 kJ/mol
# GULP energy per Si atom -12394.822940 kJ/mol
# Density = 2.122498 g / cm^3
# Si number density = 21.273396 Si / 1000 Ang^3
#
#
#
# Elastic Constant Matrix: (Units=GPa)
#
#
# Indices 1 2 3 4 5 6 
#
# 1 92.2152 29.3490 28.6911 0.0000 -5.6316 0.0000
# 2 29.3490 92.9241 42.0713 0.0000 6.5362 0.0000
# 3 28.6911 42.0713 120.4430 0.0000 -3.3175 0.0000
# 4 0.0000 0.0000 0.0000 34.2238 0.0000 -0.7422
# 5 -5.6316 6.5362 -3.3175 0.0000 22.7537 0.0000
# 6 0.0000 0.0000 0.0000 -0.7422 0.0000 24.7110
#
#
#
# Elastic Compliance Matrix: (Units=1/GPa)
#
#
# Indices 1 2 3 4 5 6 
#
# 1 0.012734 -0.003532 -0.001692 0.000000 0.003920 0.000000
# 2 -0.003532 0.014204 -0.004274 0.000000 -0.005578 0.000000
# 3 -0.001692 -0.004274 0.010262 0.000000 0.002305 0.000000
# 4 0.000000 0.000000 0.000000 0.029238 0.000000 0.000878
# 5 0.003920 -0.005578 0.002305 0.000000 0.046857 0.000000
# 6 0.000000 0.000000 0.000000 0.000878 0.000000 0.040494
#
#
# Mechanical properties :
#
#
# Convention : Reuss Voigt Hill
#
# Bulk Modulus (GPa) = 54.92839 56.20056 55.56448
# Shear Modulus (GPa) = 27.95582 30.03575 28.99579
#
# Velocity S-wave (km/s) = 3.62901 3.76159 3.69590
# Velocity P-wave (km/s) = 6.59059 6.73362 6.66249
#
# Compressibility (1/GPa) = 0.01820552
#
# Stress axis : x y z
#
# Youngs Moduli (GPa) = 78.53034 70.40152 97.44580
#
# Poissons Ratio (x) = 0.24863 0.16486
# Poissons Ratio (y) = 0.27734 0.41648
# Poissons Ratio (z) = 0.13286 0.30089
#
# Static dielectric constant tensor:
#      x y z
#    x 3.945540 0.000000 -0.186320 
#    y 0.000000 4.099380 0.000000 
#    z -0.186320 0.000000 4.166250 
# 
# 
# High freq. dielectric constant tensor:
#      x y z
#    x 1.832350 0.000000 0.000300 
#    y 0.000000 1.842130 0.000000 
#    z 0.000300 0.000000 1.828670 
# 
# From -- ./inp_files/47746.got.cif
#   From: 2010.06.25/outbox.cif.g09.slc.cpg/sg13_24_cif.got.tgz:47746.got - 2010.06.28 04:50:58.
