data_PCOD8121103
_publ_section_title
;
Structure prediction by ZEFSAII (Michael W. Deem and Ramdas Pophale) SiO2 
 PCOD8121103
Probable space group: P 2/C
;
_chemical_formula_sum "Si O2"
_cell_formula_units_Z 18
_cell_length_a 11.772538
_cell_length_b 6.061498
_cell_length_c 20.390449
_cell_angle_alpha 90.000000
_cell_angle_beta 147.006670
_cell_angle_gamma 90.000000
_cell_volume 792.333027
_symmetry_space_group_name_H-M "P 2/C"
_symmetry_group_IT_number 13
_symmetry_cell_setting 'monoclinic'
loop_
_space_group_symop_operation_xyz
x,y,z
-x,y,1/2-z
-x,-y,-z
x,-y,1/2+z
loop_
_atom_site_type_symbol
_atom_site_label
_atom_site_fract_x
_atom_site_fract_y
_atom_site_fract_z
Si Si1 0.334064 0.853021 0.457060
Si Si2 0.893174 0.226805 0.080592
Si Si3 0.179512 0.649531 0.614524
Si Si4 0.000000 0.460762 0.750000
Si Si5 0.566078 0.430717 0.378097
O O1 0.207343 0.692442 0.346875
O O2 0.466275 0.706148 0.571384
O O3 0.500000 0.000000 0.500000
O O4 0.164254 0.999821 0.412648
O O5 0.064196 0.171980 0.106040
O O6 0.997954 0.392524 0.183683
O O7 0.687712 0.341146 0.950180
O O8 0.306025 0.730922 0.611362
O O9 0.341946 0.511083 0.738568
O O10 0.000000 0.500000 0.500000
#
# Coordination Sequence:
#
# PCOD8121103 Si02
#       5
#     4   4   4   2   4
#     4  11  25  39  62  98 127 165 209 257 313 376
#     4  10  22  39  64  88 125 171 201 263 318 362
#     4   9  19  40  66  89 123 163 209 254 315 372
#     4  10  24  40  60  94 124 166 214 250 312 376
#     4   9  21  40  61  94 126 160 211 259 306 379
#
# _framework density 22.717722999999999
#
# number of rings (size 3 to 8) (size 9 to 14) (size 15 to 20)
#    0.000    2.222    0.000    0.667    9.333    2.667 
#    0.000    8.889    0.000    0.000    0.000    0.000 
#    0.000    0.000    0.000    0.000    0.000    0.000 
#
# Total GULP energy -223017.081839 kJ/mol
# GULP energy per Si atom -12389.837880 kJ/mol
# Density = 2.266602 g / cm^3
# Si number density = 22.717723 Si / 1000 Ang^3
#
#
#
# Elastic Constant Matrix: (Units=GPa)
#
#
# Indices 1 2 3 4 5 6 
#
# 1 61.1174 -8.4293 20.1794 0.0000 -0.2275 0.0000
# 2 -8.4293 42.2086 21.6273 0.0000 -2.5959 0.0000
# 3 20.1794 21.6273 169.3953 0.0000 -4.2361 0.0000
# 4 0.0000 0.0000 0.0000 14.4701 0.0000 5.5621
# 5 -0.2275 -2.5959 -4.2361 0.0000 24.6372 0.0000
# 6 0.0000 0.0000 0.0000 5.5621 0.0000 29.5280
#
#
#
# Elastic Compliance Matrix: (Units=1/GPa)
#
#
# Indices 1 2 3 4 5 6 
#
# 1 0.017973 0.005026 -0.002777 0.000000 0.000218 0.000000
# 2 0.005026 0.026867 -0.003974 0.000000 0.002194 0.000000
# 3 -0.002777 -0.003974 0.006760 0.000000 0.000718 0.000000
# 4 0.000000 0.000000 0.000000 0.074502 0.000000 -0.014034
# 5 0.000218 0.002194 0.000718 0.000000 0.040946 0.000000
# 6 0.000000 0.000000 0.000000 -0.014034 0.000000 0.036510
#
#
# Mechanical properties :
#
#
# Convention : Reuss Voigt Hill
#
# Bulk Modulus (GPa) = 20.76925 37.71956 29.24440
# Shear Modulus (GPa) = 22.41578 29.68333 26.04956
#
# Velocity S-wave (km/s) = 3.14460 3.61864 3.38991
# Velocity P-wave (km/s) = 4.72724 5.83943 5.31252
#
# Compressibility (1/GPa) = 0.04814811
#
# Stress axis : x y z
#
# Youngs Moduli (GPa) = 55.63937 37.22080 147.93954
#
# Poissons Ratio (x) = -0.18706 0.41086
# Poissons Ratio (y) = -0.27963 0.58791
# Poissons Ratio (z) = 0.15452 0.14792
#
# Static dielectric constant tensor:
#      x y z
#    x 4.846720 0.000000 -0.115890 
#    y 0.000000 3.633640 0.000000 
#    z -0.115890 0.000000 4.426060 
# 
# 
# High freq. dielectric constant tensor:
#      x y z
#    x 1.911510 0.000000 -0.007050 
#    y 0.000000 1.843550 0.000000 
#    z -0.007050 0.000000 1.921960 
# 
# From -- ./inp_files/77058.got.cif
#   From: 2010.06.25/outbox.cif.g09.slc.cpg/sg13_39_cif.got.tgz:77058.got - 2010.06.28 04:50:58.
