data_PCOD8121985
_publ_section_title
;
Structure prediction by ZEFSAII (Michael W. Deem and Ramdas Pophale) SiO2 
 PCOD8121985
Probable space group: P 2/C
;
_chemical_formula_sum "Si O2"
_cell_formula_units_Z 28
_cell_length_a 18.743196
_cell_length_b 12.274817
_cell_length_c 11.057129
_cell_angle_alpha 90.000000
_cell_angle_beta 33.027595
_cell_angle_gamma 90.000000
_cell_volume 1386.537859
_symmetry_space_group_name_H-M "P 2/C"
_symmetry_group_IT_number 13
_symmetry_cell_setting 'monoclinic'
loop_
_space_group_symop_operation_xyz
x,y,z
-x,y,1/2-z
-x,-y,-z
x,-y,1/2+z
loop_
_atom_site_type_symbol
_atom_site_label
_atom_site_fract_x
_atom_site_fract_y
_atom_site_fract_z
Si Si1 0.033904 0.562094 0.574414
Si Si2 0.863901 0.225314 0.287073
Si Si3 0.876832 0.838318 0.495060
Si Si4 0.415665 0.310357 0.751201
Si Si5 0.000000 0.047212 0.250000
Si Si6 0.679276 0.479350 0.793830
Si Si7 0.363168 0.713735 0.734305
Si Si8 0.500000 0.610656 0.750000
O O1 0.188869 0.581706 0.352898
O O2 0.000000 0.498929 0.750000
O O3 0.000000 0.500000 0.500000
O O4 0.954033 0.673772 0.695903
O O5 0.869446 0.212183 0.136963
O O6 0.713581 0.240098 0.540008
O O7 0.919458 0.117753 0.269711
O O8 0.743184 0.809683 0.614437
O O9 0.896454 0.969664 0.469021
O O10 0.000000 0.783696 0.250000
O O11 0.500000 0.330832 0.750000
O O12 0.375123 0.427523 0.753114
O O13 0.506080 0.248394 0.523814
O O14 0.699266 0.607535 0.743681
O O15 0.576446 0.465467 0.047585
O O16 0.399222 0.688557 0.821531
#
# Coordination Sequence:
#
# PCOD8121985 Si02
#       8
#     4   4   4   4   2   4   4   2
#     4  12  27  42  66 103 140 181 229 277 335 408
#     4  12  22  48  70  94 134 177 222 277 344 403
#     4  10  25  42  69  99 125 164 225 291 339 389
#     4  11  22  40  67  92 131 179 226 257 323 421
#     4  10  24  46  74  98 124 166 232 280 360 384
#     4  11  25  37  62  91 136 184 223 265 327 414
#     4  11  24  40  61  94 135 173 222 267 335 389
#     4  10  24  38  58  90 136 186 218 268 332 412
#
# _framework density 20.194182999999999
#
# number of rings (size 3 to 8) (size 9 to 14) (size 15 to 20)
#    0.429    0.571    3.571    3.000    8.000    1.143 
#    0.000    0.714    1.571    0.000    0.000    0.000 
#    0.000    0.000    0.000    0.000    0.000    0.000 
#
# Total GULP energy -347145.030722 kJ/mol
# GULP energy per Si atom -12398.036812 kJ/mol
# Density = 2.014822 g / cm^3
# Si number density = 20.194183 Si / 1000 Ang^3
#
#
#
# Elastic Constant Matrix: (Units=GPa)
#
#
# Indices 1 2 3 4 5 6 
#
# 1 145.7988 52.1272 49.7517 0.0000 -6.6912 0.0000
# 2 52.1272 87.1270 57.9556 0.0000 -9.7920 0.0000
# 3 49.7517 57.9556 113.3057 0.0000 -19.3001 0.0000
# 4 0.0000 0.0000 0.0000 27.2428 0.0000 -14.0954
# 5 -6.6912 -9.7920 -19.3001 0.0000 46.5733 0.0000
# 6 0.0000 0.0000 0.0000 -14.0954 0.0000 -40.9964
#
#
#
# Elastic Compliance Matrix: (Units=1/GPa)
#
#
# Indices 1 2 3 4 5 6 
#
# 1 0.008969 -0.004162 -0.001871 0.000000 -0.000362 0.000000
# 2 -0.004162 0.019328 -0.008036 0.000000 0.000136 0.000000
# 3 -0.001871 -0.008036 0.014443 0.000000 0.004027 0.000000
# 4 0.000000 0.000000 0.000000 0.031163 0.000000 -0.010715
# 5 -0.000362 0.000136 0.004027 0.000000 0.023117 0.000000
# 6 0.000000 0.000000 0.000000 -0.010715 0.000000 -0.020708
#
#
# Mechanical properties :
#
#
# Convention : Reuss Voigt Hill
#
# Bulk Modulus (GPa) = 68.47893 73.98894 71.23393
# Shear Modulus (GPa) = 45.73891 18.99040 32.36465
#
# Velocity S-wave (km/s) = 4.76432 3.06990 4.00768
# Velocity P-wave (km/s) = 8.01553 7.02026 7.53435
#
# Compressibility (1/GPa) = 0.01460303
#
# Stress axis : x y z
#
# Youngs Moduli (GPa) = 111.50019 51.73832 69.23643
#
# Poissons Ratio (x) = 0.21534 0.12953
# Poissons Ratio (y) = 0.46407 0.55635
# Poissons Ratio (z) = 0.20859 0.41575
#
# Static dielectric constant tensor:
#      x y z
#    x 4.000420 0.000000 -0.030090 
#    y 0.000000 3.353830 0.000000 
#    z -0.030090 0.000000 3.974610 
# 
# 
# High freq. dielectric constant tensor:
#      x y z
#    x 1.813570 0.000000 -0.000740 
#    y 0.000000 1.747430 0.000000 
#    z -0.000740 0.000000 1.802770 
# 
# From -- ./inp_files/40803.got.cif
#   From: 2010.06.25/outbox.cif.g09.slc.cpg/sg13_21_cif.got.tgz:40803.got - 2010.06.28 04:50:58.
