data_PCOD8121806
_publ_section_title
;
Structure prediction by ZEFSAII (Michael W. Deem and Ramdas Pophale) SiO2 
 PCOD8121806
Probable space group: P 2/C
;
_chemical_formula_sum "Si O2"
_cell_formula_units_Z 24
_cell_length_a 8.877073
_cell_length_b 13.631135
_cell_length_c 14.453400
_cell_angle_alpha 90.000000
_cell_angle_beta 145.559969
_cell_angle_gamma 90.000000
_cell_volume 989.094375
_symmetry_space_group_name_H-M "P 2/C"
_symmetry_group_IT_number 13
_symmetry_cell_setting 'monoclinic'
loop_
_space_group_symop_operation_xyz
x,y,z
-x,y,1/2-z
-x,-y,-z
x,-y,1/2+z
loop_
_atom_site_type_symbol
_atom_site_label
_atom_site_fract_x
_atom_site_fract_y
_atom_site_fract_z
Si Si1 0.418005 0.275487 0.810296
Si Si2 0.638828 0.283573 0.223785
Si Si3 0.602209 0.935942 0.697067
Si Si4 0.109334 0.586597 0.908494
Si Si5 0.110329 0.368566 0.905690
Si Si6 0.728171 0.895504 0.144877
O O1 0.500000 0.239681 0.750000
O O2 0.106346 0.306643 0.645731
O O3 0.461070 0.185408 0.903435
O O4 0.600140 0.364774 0.937396
O O5 0.500000 0.296366 0.250000
O O6 0.735484 0.171694 0.256751
O O7 0.893305 0.353018 0.357567
O O8 0.395509 0.314504 0.032799
O O9 0.500000 0.956272 0.750000
O O10 0.375342 0.942796 0.503142
O O11 0.798472 0.021935 0.759997
O O12 0.144164 0.477252 0.967161
O O13 0.000000 0.591374 0.750000
O O14 0.000000 0.389746 0.750000
O O15 0.000000 0.842339 0.250000
#
# Coordination Sequence:
#
# PCOD8121806 Si02
#       6
#     4   4   4   4   4   4
#     4  12  25  41  65  96 131 171 216 267 322 382
#     4  11  23  40  63  91 126 166 210 262 317 379
#     4  10  23  42  65  94 126 165 213 263 318 380
#     4  11  24  40  63  93 127 169 217 268 319 378
#     4  11  23  42  64  90 128 172 216 265 322 379
#     4  11  24  43  67  94 129 168 210 264 321 383
#
# _framework density 24.264620000000001
#
# number of rings (size 3 to 8) (size 9 to 14) (size 15 to 20)
#    0.000    1.000    0.000    7.000    0.000   12.000 
#    0.000    0.000    0.000    0.000    0.000    0.000 
#    0.000    0.000    0.000    0.000    0.000    0.000 
#
# Total GULP energy -297449.626796 kJ/mol
# GULP energy per Si atom -12393.734450 kJ/mol
# Density = 2.420939 g / cm^3
# Si number density = 24.264620 Si / 1000 Ang^3
#
#
#
# Elastic Constant Matrix: (Units=GPa)
#
#
# Indices 1 2 3 4 5 6 
#
# 1 122.5536 62.1999 26.9790 0.0000 -7.4757 0.0000
# 2 62.1999 131.0538 9.6994 0.0000 -3.8858 0.0000
# 3 26.9790 9.6994 58.1961 0.0000 -7.8989 0.0000
# 4 0.0000 0.0000 0.0000 24.0386 0.0000 1.7846
# 5 -7.4757 -3.8858 -7.8989 0.0000 44.8556 0.0000
# 6 0.0000 0.0000 0.0000 1.7846 0.0000 36.0788
#
#
#
# Elastic Compliance Matrix: (Units=1/GPa)
#
#
# Indices 1 2 3 4 5 6 
#
# 1 0.011882 -0.005283 -0.004530 0.000000 0.000725 0.000000
# 2 -0.005283 0.010083 0.000786 0.000000 0.000132 0.000000
# 3 -0.004530 0.000786 0.019526 0.000000 0.002752 0.000000
# 4 0.000000 0.000000 0.000000 0.041753 0.000000 -0.002065
# 5 0.000725 0.000132 0.002752 0.000000 0.022911 0.000000
# 6 0.000000 0.000000 0.000000 -0.002065 0.000000 0.027819
#
#
# Mechanical properties :
#
#
# Convention : Reuss Voigt Hill
#
# Bulk Modulus (GPa) = 42.66369 56.61782 49.64076
# Shear Modulus (GPa) = 31.28145 35.18963 33.23554
#
# Velocity S-wave (km/s) = 3.59441 3.81234 3.70498
# Velocity P-wave (km/s) = 5.90315 6.53932 6.22936
#
# Compressibility (1/GPa) = 0.02343914
#
# Stress axis : x y z
#
# Youngs Moduli (GPa) = 84.15936 99.17277 51.21491
#
# Poissons Ratio (x) = 0.52390 0.23198
# Poissons Ratio (y) = 0.44459 -0.04027
# Poissons Ratio (z) = 0.38121 -0.07798
#
# Static dielectric constant tensor:
#      x y z
#    x 4.414970 0.000000 -0.342260 
#    y 0.000000 4.583310 0.000000 
#    z -0.342260 0.000000 3.572540 
# 
# 
# High freq. dielectric constant tensor:
#      x y z
#    x 1.970700 0.000000 -0.016970 
#    y 0.000000 1.975110 0.000000 
#    z -0.016970 0.000000 1.952540 
# 
# From -- ./inp_files/47794.got.cif
#   From: 2010.06.25/outbox.cif.g09.slc.cpg/sg13_24_cif.got.tgz:47794.got - 2010.06.28 04:50:58.
