data_PCOD8121799
_publ_section_title
;
Structure prediction by ZEFSAII (Michael W. Deem and Ramdas Pophale) SiO2 
 PCOD8121799
Probable space group: P 2/C
;
_chemical_formula_sum "Si O2"
_cell_formula_units_Z 20
_cell_length_a 9.543660
_cell_length_b 7.073040
_cell_length_c 22.859301
_cell_angle_alpha 90.000000
_cell_angle_beta 36.058600
_cell_angle_gamma 90.000000
_cell_volume 908.266737
_symmetry_space_group_name_H-M "P 2/C"
_symmetry_group_IT_number 13
_symmetry_cell_setting 'monoclinic'
loop_
_space_group_symop_operation_xyz
x,y,z
-x,y,1/2-z
-x,-y,-z
x,-y,1/2+z
loop_
_atom_site_type_symbol
_atom_site_label
_atom_site_fract_x
_atom_site_fract_y
_atom_site_fract_z
Si Si1 0.293413 0.352419 0.924211
Si Si2 0.991092 0.646831 0.089976
Si Si3 0.249501 0.136243 0.149018
Si Si4 0.810661 0.458858 0.771060
Si Si5 0.254596 0.030782 0.016839
O O1 0.573231 0.336080 0.843632
O O2 0.159272 0.176302 0.000213
O O3 0.242859 0.338712 0.872063
O O4 0.198775 0.549802 0.982168
O O5 0.929159 0.519428 0.167136
O O6 0.078246 0.853109 0.081222
O O7 0.249138 0.340837 0.179538
O O8 0.000000 0.032872 0.250000
O O9 0.480854 0.027520 0.093640
O O10 0.267366 0.147891 0.072802
O O11 0.000000 0.353518 0.750000
#
# Coordination Sequence:
#
# PCOD8121799 Si02
#       5
#     4   4   4   4   4
#     4  11  24  44  68  97 136 178 226 274 340 411
#     4  11  25  45  67  97 137 180 224 275 341 406
#     4  10  23  42  64 102 136 169 228 280 334 396
#     4  11  24  42  69  97 134 175 223 280 336 398
#     4  11  24  41  70  97 136 178 225 280 339 393
#
# _framework density 22.019963000000001
#
# number of rings (size 3 to 8) (size 9 to 14) (size 15 to 20)
#    0.000    1.200    2.000    3.600    8.400    1.600 
#    0.000    0.000    0.000    0.000    0.000    0.000 
#    0.000    0.000    0.000    0.000    0.000    0.000 
#
# Total GULP energy -247944.348099 kJ/mol
# GULP energy per Si atom -12397.217405 kJ/mol
# Density = 2.196984 g / cm^3
# Si number density = 22.019963 Si / 1000 Ang^3
#
#
#
# Elastic Constant Matrix: (Units=GPa)
#
#
# Indices 1 2 3 4 5 6 
#
# 1 166.4887 47.8684 57.0461 0.0000 7.5013 0.0000
# 2 47.8684 91.6384 29.0859 0.0000 12.9807 0.0000
# 3 57.0461 29.0859 98.0753 0.0000 -0.2296 0.0000
# 4 0.0000 0.0000 0.0000 34.4733 0.0000 10.8925
# 5 7.5013 12.9807 -0.2296 0.0000 46.3201 0.0000
# 6 0.0000 0.0000 0.0000 10.8925 0.0000 20.2882
#
#
#
# Elastic Compliance Matrix: (Units=1/GPa)
#
#
# Indices 1 2 3 4 5 6 
#
# 1 0.008224 -0.002985 -0.003899 0.000000 -0.000515 0.000000
# 2 -0.002985 0.013688 -0.002331 0.000000 -0.003364 0.000000
# 3 -0.003899 -0.002331 0.013159 0.000000 0.001350 0.000000
# 4 0.000000 0.000000 0.000000 0.034934 0.000000 -0.018756
# 5 -0.000515 -0.003364 0.001350 0.000000 0.022622 0.000000
# 6 0.000000 0.000000 0.000000 -0.018756 0.000000 0.059360
#
#
# Mechanical properties :
#
#
# Convention : Reuss Voigt Hill
#
# Bulk Modulus (GPa) = 60.09715 69.35592 64.72653
# Shear Modulus (GPa) = 28.41481 35.02977 31.72229
#
# Velocity S-wave (km/s) = 3.59613 3.99283 3.79966
# Velocity P-wave (km/s) = 6.67789 7.26789 6.97913
#
# Compressibility (1/GPa) = 0.01663973
#
# Stress axis : x y z
#
# Youngs Moduli (GPa) = 121.59455 73.05535 75.99485
#
# Poissons Ratio (x) = 0.21810 0.29634
# Poissons Ratio (y) = 0.36301 0.17714
# Poissons Ratio (z) = 0.47415 0.17028
#
# Static dielectric constant tensor:
#      x y z
#    x 4.186300 0.000000 -0.148520 
#    y 0.000000 3.694930 0.000000 
#    z -0.148520 0.000000 3.972860 
# 
# 
# High freq. dielectric constant tensor:
#      x y z
#    x 1.874080 0.000000 -0.000150 
#    y 0.000000 1.858750 0.000000 
#    z -0.000150 0.000000 1.866300 
# 
# From -- ./inp_files/75510.got.cif
#   From: 2010.06.25/outbox.cif.g09.slc.cpg/sg13_38_cif.got.tgz:75510.got - 2010.06.28 04:50:58.
