data_PCOD8121182
_publ_section_title
;
Structure prediction by ZEFSAII (Michael W. Deem and Ramdas Pophale) SiO2 
 PCOD8121182
Probable space group: P 2/C
;
_chemical_formula_sum "Si O2"
_cell_formula_units_Z 30
_cell_length_a 19.159743
_cell_length_b 12.564400
_cell_length_c 16.540729
_cell_angle_alpha 90.000000
_cell_angle_beta 20.607403
_cell_angle_gamma 90.000000
_cell_volume 1401.466063
_symmetry_space_group_name_H-M "P 2/C"
_symmetry_group_IT_number 13
_symmetry_cell_setting 'monoclinic'
loop_
_space_group_symop_operation_xyz
x,y,z
-x,y,1/2-z
-x,-y,-z
x,-y,1/2+z
loop_
_atom_site_type_symbol
_atom_site_label
_atom_site_fract_x
_atom_site_fract_y
_atom_site_fract_z
Si Si1 0.840462 0.727383 0.069986
Si Si2 0.000000 0.855661 0.750000
Si Si3 0.509525 0.345136 0.329141
Si Si4 0.779153 0.816280 0.622390
Si Si5 0.932531 0.653054 0.141207
Si Si6 0.156059 0.493082 0.006850
Si Si7 0.347712 0.001687 0.353534
Si Si8 0.509374 0.889606 0.037238
O O1 0.965285 0.683530 0.011730
O O2 0.666379 0.804574 0.291253
O O3 0.765174 0.622519 0.104617
O O4 0.975721 0.788187 0.858249
O O5 0.187228 0.928122 0.570596
O O6 0.500000 0.296749 0.250000
O O7 0.599289 0.257125 0.289398
O O8 0.293604 0.374466 0.596013
O O9 0.645548 0.449601 0.178342
O O10 0.779557 0.919015 0.564661
O O11 0.990671 0.756384 0.390038
O O12 0.721058 0.841849 0.779028
O O13 0.063312 0.552510 0.028506
O O14 0.000000 0.489718 0.250000
O O15 0.500000 0.060272 0.250000
O O16 0.495048 0.921131 0.145982
O O17 0.500000 0.000000 0.000000
#
# Coordination Sequence:
#
# PCOD8121182 Si02
#       8
#     4   2   4   4   4   4   4   4
#     4  11  22  45  69  94 137 177 218 281 339 392
#     4  10  24  42  62  98 132 172 228 280 330 410
#     4  11  22  40  65  95 132 173 219 274 336 391
#     4  10  22  40  63  96 130 168 224 275 319 403
#     4  11  24  41  68  99 128 179 222 274 340 398
#     4  11  23  43  66 100 137 169 225 278 328 412
#     4  10  22  40  63  92 130 174 219 275 334 399
#     4   9  20  42  63  93 129 168 221 268 323 392
#
# _framework density 21.406154000000001
#
# number of rings (size 3 to 8) (size 9 to 14) (size 15 to 20)
#    0.000    1.600    3.333    0.800    1.867    2.667 
#    2.400    4.667    0.000    0.000    0.000    0.000 
#    0.000    0.000    0.000    0.000    0.000    0.000 
#
# Total GULP energy -371677.519769 kJ/mol
# GULP energy per Si atom -12389.250659 kJ/mol
# Density = 2.135743 g / cm^3
# Si number density = 21.406154 Si / 1000 Ang^3
#
#
#
# Elastic Constant Matrix: (Units=GPa)
#
#
# Indices 1 2 3 4 5 6 
#
# 1 79.8748 27.8418 38.8984 0.0000 3.8139 0.0000
# 2 27.8418 122.2281 50.8011 0.0000 4.1463 0.0000
# 3 38.8984 50.8011 115.9882 0.0000 3.7471 0.0000
# 4 0.0000 0.0000 0.0000 29.3034 0.0000 11.3861
# 5 3.8139 4.1463 3.7471 0.0000 28.5003 0.0000
# 6 0.0000 0.0000 0.0000 11.3861 0.0000 21.4452
#
#
#
# Elastic Compliance Matrix: (Units=1/GPa)
#
#
# Indices 1 2 3 4 5 6 
#
# 1 0.015272 -0.001620 -0.004373 0.000000 -0.001233 0.000000
# 2 -0.001620 0.010196 -0.003898 0.000000 -0.000754 0.000000
# 3 -0.004373 -0.003898 0.011808 0.000000 -0.000400 0.000000
# 4 0.000000 0.000000 0.000000 0.042996 0.000000 -0.022828
# 5 -0.001233 -0.000754 -0.000400 0.000000 0.035415 0.000000
# 6 0.000000 0.000000 0.000000 -0.022828 0.000000 0.058751
#
#
# Mechanical properties :
#
#
# Convention : Reuss Voigt Hill
#
# Bulk Modulus (GPa) = 57.15623 61.46373 59.30998
# Shear Modulus (GPa) = 24.99361 29.21977 27.10669
#
# Velocity S-wave (km/s) = 3.42071 3.69862 3.56238
# Velocity P-wave (km/s) = 6.50849 6.85676 6.68490
#
# Compressibility (1/GPa) = 0.01749591
#
# Stress axis : x y z
#
# Youngs Moduli (GPa) = 65.47734 98.07639 84.68624
#
# Poissons Ratio (x) = 0.15885 0.37030
# Poissons Ratio (y) = 0.10605 0.33013
# Poissons Ratio (z) = 0.28631 0.38232
#
# Static dielectric constant tensor:
#      x y z
#    x 3.921190 0.000000 0.296750 
#    y 0.000000 4.024320 0.000000 
#    z 0.296750 0.000000 3.983350 
# 
# 
# High freq. dielectric constant tensor:
#      x y z
#    x 1.834440 0.000000 0.016310 
#    y 0.000000 1.848680 0.000000 
#    z 0.016310 0.000000 1.835330 
# 
# From -- ./inp_files/70689.got.cif
#   From: 2010.06.25/outbox.cif.g09.slc.cpg/sg13_36_cif.got.tgz:70689.got - 2010.06.28 04:50:58.
