data_PCOD8121669
_publ_section_title
;
Structure prediction by ZEFSAII (Michael W. Deem and Ramdas Pophale) SiO2 
 PCOD8121669
Probable space group: P 2/C
;
_chemical_formula_sum "Si O2"
_cell_formula_units_Z 28
_cell_length_a 14.557846
_cell_length_b 10.619917
_cell_length_c 9.151422
_cell_angle_alpha 90.000000
_cell_angle_beta 65.468051
_cell_angle_gamma 90.000000
_cell_volume 1287.120745
_symmetry_space_group_name_H-M "P 2/C"
_symmetry_group_IT_number 13
_symmetry_cell_setting 'monoclinic'
loop_
_space_group_symop_operation_xyz
x,y,z
-x,y,1/2-z
-x,-y,-z
x,-y,1/2+z
loop_
_atom_site_type_symbol
_atom_site_label
_atom_site_fract_x
_atom_site_fract_y
_atom_site_fract_z
Si Si1 0.500000 0.950007 0.750000
Si Si2 0.678344 0.467714 0.124844
Si Si3 0.385791 0.748034 0.642019
Si Si4 0.694136 0.941601 0.002073
Si Si5 0.874749 0.389969 0.599513
Si Si6 0.411596 0.361549 0.600744
Si Si7 0.747428 0.157010 0.761118
Si Si8 0.000000 0.544190 0.750000
O O1 0.432573 0.867712 0.688660
O O2 0.574812 0.033715 0.603672
O O3 0.676785 0.330268 0.198922
O O4 0.786248 0.528070 0.085210
O O5 0.592755 0.561332 0.245454
O O6 0.654039 0.446222 0.970519
O O7 0.305896 0.805116 0.579134
O O8 0.472228 0.656207 0.519924
O O9 0.754918 0.055660 0.885911
O O10 0.753217 0.925869 0.112413
O O11 0.837519 0.258164 0.693625
O O12 0.948056 0.369302 0.410458
O O13 0.923404 0.457336 0.707702
O O14 0.361076 0.225013 0.652398
#
# Coordination Sequence:
#
# PCOD8121669 Si02
#       8
#     2   4   4   4   4   4   4   2
#     4  12  20  40  52  84 126 184 242 258 290 340
#     4  11  23  38  61  91 130 164 210 268 320 367
#     4  12  22  36  57  84 132 185 222 259 301 351
#     4  12  24  39  61  88 125 187 227 272 295 352
#     4  10  23  43  71 103 123 156 202 262 334 413
#     4  11  23  40  55  87 135 177 221 266 301 361
#     4  11  24  42  64  93 130 167 226 266 310 374
#     4  10  22  46  76 100 126 152 190 262 348 422
#
# _framework density 21.753982000000001
#
# number of rings (size 3 to 8) (size 9 to 14) (size 15 to 20)
#    0.000    0.857    4.286    3.429    6.000    0.000 
#    0.000    0.000    0.000    2.571    0.000    0.000 
#    0.000    0.000    0.000    0.000    0.000    0.000 
#
# Total GULP energy -347112.775650 kJ/mol
# GULP energy per Si atom -12396.884845 kJ/mol
# Density = 2.170447 g / cm^3
# Si number density = 21.753982 Si / 1000 Ang^3
#
#
#
# Elastic Constant Matrix: (Units=GPa)
#
#
# Indices 1 2 3 4 5 6 
#
# 1 54.3259 38.4099 32.0242 0.0000 -0.2449 0.0000
# 2 38.4099 57.5491 18.4820 0.0000 2.2070 0.0000
# 3 32.0242 18.4820 90.3392 0.0000 7.0843 0.0000
# 4 0.0000 0.0000 0.0000 35.7666 0.0000 7.3673
# 5 -0.2449 2.2070 7.0843 0.0000 32.9902 0.0000
# 6 0.0000 0.0000 0.0000 7.3673 0.0000 16.9115
#
#
#
# Elastic Compliance Matrix: (Units=1/GPa)
#
#
# Indices 1 2 3 4 5 6 
#
# 1 0.042051 -0.024975 -0.010123 0.000000 0.004157 0.000000
# 2 -0.024975 0.033437 0.002240 0.000000 -0.002903 0.000000
# 3 -0.010123 0.002240 0.014461 0.000000 -0.003330 0.000000
# 4 0.000000 0.000000 0.000000 0.030715 0.000000 -0.013381
# 5 0.004157 -0.002903 -0.003330 0.000000 0.031252 0.000000
# 6 0.000000 0.000000 0.000000 -0.013381 0.000000 0.064961
#
#
# Mechanical properties :
#
#
# Convention : Reuss Voigt Hill
#
# Bulk Modulus (GPa) = 41.26449 42.22739 41.74594
# Shear Modulus (GPa) = 17.20158 24.68685 20.94421
#
# Velocity S-wave (km/s) = 2.81505 3.37236 3.10623
# Velocity P-wave (km/s) = 5.43837 5.88364 5.66538
#
# Compressibility (1/GPa) = 0.02423391
#
# Stress axis : x y z
#
# Youngs Moduli (GPa) = 23.78045 29.90688 69.15232
#
# Poissons Ratio (x) = 0.74691 0.70005
# Poissons Ratio (y) = 0.59391 -0.15491
# Poissons Ratio (z) = 0.24074 -0.06700
#
# Static dielectric constant tensor:
#      x y z
#    x 3.672090 0.000000 0.142560 
#    y 0.000000 3.981330 0.000000 
#    z 0.142560 0.000000 4.323820 
# 
# 
# High freq. dielectric constant tensor:
#      x y z
#    x 1.816340 0.000000 0.024100 
#    y 0.000000 1.862060 0.000000 
#    z 0.024100 0.000000 1.872390 
# 
# From -- ./inp_files/18983.got.cif
#   From: 2010.06.25/outbox.cif.g09.slc.cpg/sg13_10_cif.got.tgz:18983.got - 2010.06.28 04:50:58.
