data_PCOD8121346
_publ_section_title
;
Structure prediction by ZEFSAII (Michael W. Deem and Ramdas Pophale) SiO2 
 PCOD8121346
Probable space group: P 2/C
;
_chemical_formula_sum "Si O2"
_cell_formula_units_Z 26
_cell_length_a 8.244266
_cell_length_b 9.933734
_cell_length_c 20.286165
_cell_angle_alpha 90.000000
_cell_angle_beta 48.609949
_cell_angle_gamma 90.000000
_cell_volume 1246.397369
_symmetry_space_group_name_H-M "P 2/C"
_symmetry_group_IT_number 13
_symmetry_cell_setting 'monoclinic'
loop_
_space_group_symop_operation_xyz
x,y,z
-x,y,1/2-z
-x,-y,-z
x,-y,1/2+z
loop_
_atom_site_type_symbol
_atom_site_label
_atom_site_fract_x
_atom_site_fract_y
_atom_site_fract_z
Si Si1 0.469485 0.684471 0.567039
Si Si2 0.103887 0.886606 0.517392
Si Si3 0.152853 0.629488 0.947043
Si Si4 0.500000 0.459251 0.250000
Si Si5 0.175089 0.068762 0.147144
Si Si6 0.439507 0.809508 0.090890
Si Si7 0.248958 0.441909 0.696930
O O1 0.720030 0.679514 0.522147
O O2 0.328382 0.810237 0.633047
O O3 0.471165 0.707700 0.488745
O O4 0.367146 0.541455 0.614098
O O5 0.065447 0.906438 0.605836
O O6 0.355088 0.877435 0.428787
O O7 0.011299 0.742186 0.528143
O O8 0.000000 0.000000 0.500000
O O9 0.341720 0.621826 0.841035
O O10 0.000000 0.500000 0.000000
O O11 0.670785 0.539268 0.249571
O O12 0.000000 0.043288 0.250000
O O13 0.303836 0.931993 0.098648
O O14 0.296639 0.716097 0.175812
O O15 0.000000 0.471119 0.750000
#
# Coordination Sequence:
#
# PCOD8121346 Si02
#       7
#     4   4   4   2   4   4   4
#     4  10  22  41  68  93 128 168 230 266 328 429
#     4  11  23  43  69  95 129 181 221 277 347 403
#     4  11  24  42  69  98 136 177 219 285 346 397
#     4  10  26  42  62 108 134 166 240 282 322 434
#     4  11  24  42  65  96 133 171 226 277 338 413
#     4  11  23  43  63  96 128 172 226 273 334 421
#     4  11  24  41  68  95 134 174 219 280 351 387
#
# _framework density 20.860123999999999
#
# number of rings (size 3 to 8) (size 9 to 14) (size 15 to 20)
#    0.000    1.231    0.000    6.923   10.769    0.000 
#    8.308    0.000    0.000    0.000    0.000    0.000 
#    0.000    0.000    0.000    0.000    0.000    0.000 
#
# Total GULP energy -322161.341445 kJ/mol
# GULP energy per Si atom -12390.820825 kJ/mol
# Density = 2.081264 g / cm^3
# Si number density = 20.860124 Si / 1000 Ang^3
#
#
#
# Elastic Constant Matrix: (Units=GPa)
#
#
# Indices 1 2 3 4 5 6 
#
# 1 157.9787 56.7057 30.9175 0.0000 -4.8271 0.0000
# 2 56.7057 132.1382 30.9022 0.0000 2.9767 0.0000
# 3 30.9175 30.9022 64.1584 0.0000 -11.8588 0.0000
# 4 0.0000 0.0000 0.0000 24.6742 0.0000 -7.0776
# 5 -4.8271 2.9767 -11.8588 0.0000 22.4231 0.0000
# 6 0.0000 0.0000 0.0000 -7.0776 0.0000 37.9116
#
#
#
# Elastic Compliance Matrix: (Units=1/GPa)
#
#
# Indices 1 2 3 4 5 6 
#
# 1 0.007817 -0.002853 -0.002230 0.000000 0.000882 0.000000
# 2 -0.002853 0.009850 -0.004128 0.000000 -0.004105 0.000000
# 3 -0.002230 -0.004128 0.020684 0.000000 0.011007 0.000000
# 4 0.000000 0.000000 0.000000 0.042821 0.000000 0.007994
# 5 0.000882 -0.004105 0.011007 0.000000 0.051153 0.000000
# 6 0.000000 0.000000 0.000000 0.007994 0.000000 0.027870
#
#
# Mechanical properties :
#
#
# Convention : Reuss Voigt Hill
#
# Bulk Modulus (GPa) = 50.17821 65.70291 57.94056
# Shear Modulus (GPa) = 26.98900 32.71845 29.85373
#
# Velocity S-wave (km/s) = 3.60086 3.96469 3.78714
# Velocity P-wave (km/s) = 6.43390 7.24732 6.85269
#
# Compressibility (1/GPa) = 0.01992897
#
# Stress axis : x y z
#
# Youngs Moduli (GPa) = 127.91885 101.52121 48.34692
#
# Poissons Ratio (x) = 0.28966 0.10781
# Poissons Ratio (y) = 0.36498 0.19959
# Poissons Ratio (z) = 0.28524 0.41910
#
# Static dielectric constant tensor:
#      x y z
#    x 4.053620 0.000000 -0.184690 
#    y 0.000000 3.740870 0.000000 
#    z -0.184690 0.000000 3.676260 
# 
# 
# High freq. dielectric constant tensor:
#      x y z
#    x 1.833430 0.000000 -0.009380 
#    y 0.000000 1.828600 0.000000 
#    z -0.009380 0.000000 1.807970 
# 
# From -- ./inp_files/75646.got.cif
#   From: 2010.06.25/outbox.cif.g09.slc.cpg/sg13_38_cif.got.tgz:75646.got - 2010.06.28 04:50:58.
