data_PCOD8121598
_publ_section_title
;
Structure prediction by ZEFSAII (Michael W. Deem and Ramdas Pophale) SiO2 
 PCOD8121598
Probable space group: P 2/C
;
_chemical_formula_sum "Si O2"
_cell_formula_units_Z 24
_cell_length_a 8.682439
_cell_length_b 11.537662
_cell_length_c 12.015376
_cell_angle_alpha 90.000000
_cell_angle_beta 110.961705
_cell_angle_gamma 90.000000
_cell_volume 1123.983587
_symmetry_space_group_name_H-M "P 2/C"
_symmetry_group_IT_number 13
_symmetry_cell_setting 'monoclinic'
loop_
_space_group_symop_operation_xyz
x,y,z
-x,y,1/2-z
-x,-y,-z
x,-y,1/2+z
loop_
_atom_site_type_symbol
_atom_site_label
_atom_site_fract_x
_atom_site_fract_y
_atom_site_fract_z
Si Si1 0.187897 0.283176 0.829878
Si Si2 0.847652 0.674544 0.927444
Si Si3 0.317655 0.445552 0.685078
Si Si4 0.780714 0.243258 0.982737
Si Si5 0.687467 0.918840 0.271818
Si Si6 0.191542 0.163605 0.275054
O O1 0.240370 0.400802 0.780851
O O2 0.304574 0.177936 0.821956
O O3 0.000000 0.252717 0.750000
O O4 0.218694 0.296025 0.968042
O O5 0.808298 0.541221 0.892321
O O6 0.753941 0.754730 0.813091
O O7 0.041536 0.696448 0.970262
O O8 0.500000 0.498200 0.750000
O O9 0.339288 0.339376 0.602739
O O10 0.782310 0.127756 0.906443
O O11 0.716612 0.206710 0.088654
O O12 0.500000 0.948620 0.250000
O O13 0.773603 0.032487 0.247658
O O14 0.000000 0.175924 0.250000
#
# Coordination Sequence:
#
# PCOD8121598 Si02
#       6
#     4   4   4   4   4   4
#     4  11  22  41  72  95 124 176 223 267 320 389
#     4  11  24  42  68  99 129 171 228 268 317 389
#     4  11  25  44  65  99 135 173 211 275 335 385
#     4  10  22  44  69  95 131 173 221 271 317 389
#     4  11  24  44  65  97 134 172 214 270 337 388
#     4  10  25  41  68  97 129 170 225 273 315 386
#
# _framework density 21.352626000000001
#
# number of rings (size 3 to 8) (size 9 to 14) (size 15 to 20)
#    0.000    1.333    3.333    3.000    4.667    4.000 
#    6.000    0.000    0.000    0.000    0.000    0.000 
#    0.000    0.000    0.000    0.000    0.000    0.000 
#
# Total GULP energy -297650.781491 kJ/mol
# GULP energy per Si atom -12402.115895 kJ/mol
# Density = 2.130403 g / cm^3
# Si number density = 21.352626 Si / 1000 Ang^3
#
#
#
# Elastic Constant Matrix: (Units=GPa)
#
#
# Indices 1 2 3 4 5 6 
#
# 1 43.9271 8.6452 35.7503 0.0000 -5.8412 0.0000
# 2 8.6452 110.2888 73.7334 0.0000 -20.5678 0.0000
# 3 35.7503 73.7334 180.3162 0.0000 -41.1901 0.0000
# 4 0.0000 0.0000 0.0000 25.6700 0.0000 -2.9921
# 5 -5.8412 -20.5678 -41.1901 0.0000 39.2226 0.0000
# 6 0.0000 0.0000 0.0000 -2.9921 0.0000 22.7383
#
#
#
# Elastic Compliance Matrix: (Units=1/GPa)
#
#
# Indices 1 2 3 4 5 6 
#
# 1 0.027584 0.001968 -0.006709 0.000000 -0.001906 0.000000
# 2 0.001968 0.012692 -0.005253 0.000000 0.001432 0.000000
# 3 -0.006709 -0.005253 0.010744 0.000000 0.007529 0.000000
# 4 0.000000 0.000000 0.000000 0.039563 0.000000 0.005206
# 5 -0.001906 0.001432 0.007529 0.000000 0.033869 0.000000
# 6 0.000000 0.000000 0.000000 0.005206 0.000000 0.044664
#
#
# Mechanical properties :
#
#
# Convention : Reuss Voigt Hill
#
# Bulk Modulus (GPa) = 32.22505 63.42110 47.82307
# Shear Modulus (GPa) = 25.06923 31.95307 28.51115
#
# Velocity S-wave (km/s) = 3.43017 3.87259 3.65808
# Velocity P-wave (km/s) = 5.55092 7.05423 6.34724
#
# Compressibility (1/GPa) = 0.03103176
#
# Stress axis : x y z
#
# Youngs Moduli (GPa) = 36.25235 78.79201 93.07760
#
# Poissons Ratio (x) = -0.15503 0.62445
# Poissons Ratio (y) = -0.07133 0.48891
# Poissons Ratio (z) = 0.24321 0.41387
#
# Static dielectric constant tensor:
#      x y z
#    x 3.672740 0.000000 -0.227600 
#    y 0.000000 3.806870 0.000000 
#    z -0.227600 0.000000 4.344650 
# 
# 
# High freq. dielectric constant tensor:
#      x y z
#    x 1.826700 0.000000 -0.008740 
#    y 0.000000 1.838970 0.000000 
#    z -0.008740 0.000000 1.849150 
# 
# From -- ./inp_files/29547.got.cif
#   From: 2010.06.25/outbox.cif.g09.slc.cpg/sg13_15_cif.got.tgz:29547.got - 2010.06.28 04:50:58.
