data_PCOD8121912
_publ_section_title
;
Structure prediction by ZEFSAII (Michael W. Deem and Ramdas Pophale) SiO2 
 PCOD8121912
Probable space group: P 2/C
;
_chemical_formula_sum "Si O2"
_cell_formula_units_Z 18
_cell_length_a 10.184739
_cell_length_b 7.409093
_cell_length_c 14.671992
_cell_angle_alpha 90.000000
_cell_angle_beta 129.461214
_cell_angle_gamma 90.000000
_cell_volume 854.775900
_symmetry_space_group_name_H-M "P 2/C"
_symmetry_group_IT_number 13
_symmetry_cell_setting 'monoclinic'
loop_
_space_group_symop_operation_xyz
x,y,z
-x,y,1/2-z
-x,-y,-z
x,-y,1/2+z
loop_
_atom_site_type_symbol
_atom_site_label
_atom_site_fract_x
_atom_site_fract_y
_atom_site_fract_z
Si Si1 0.000000 0.694607 0.250000
Si Si2 0.147803 0.516266 0.491612
Si Si3 0.303940 0.139941 0.142697
Si Si4 0.340496 0.154990 0.523928
Si Si5 0.717884 0.969656 0.185940
O O1 0.930414 0.567904 0.139700
O O2 0.851473 0.817250 0.222713
O O3 0.270582 0.663650 0.589346
O O4 0.265912 0.342358 0.527707
O O5 0.000000 0.500000 0.500000
O O6 0.500000 0.125223 0.250000
O O7 0.211728 0.083237 0.196215
O O8 0.245913 0.000437 0.039288
O O9 0.543570 0.140213 0.628676
O O10 0.301362 0.120775 0.400658
#
# Coordination Sequence:
#
# PCOD8121912 Si02
#       5
#     2   4   4   4   4
#     4  12  26  42  68 108 136 180 222 280 354 400
#     4  12  28  42  67 104 138 177 226 284 347 405
#     4  10  23  46  70  97 128 181 229 274 343 401
#     4  10  23  47  68  97 136 181 227 278 337 408
#     4  10  23  44  73  95 138 183 224 282 339 408
#
# _framework density 21.058149
#
# number of rings (size 3 to 8) (size 9 to 14) (size 15 to 20)
#    0.000    1.333    2.222    1.333    6.222    7.111 
#    0.000    0.000    0.000    0.000    0.000    0.000 
#    0.000    0.000    0.000    0.000    0.000    0.000 
#
# Total GULP energy -223156.961198 kJ/mol
# GULP energy per Si atom -12397.608955 kJ/mol
# Density = 2.101022 g / cm^3
# Si number density = 21.058149 Si / 1000 Ang^3
#
#
#
# Elastic Constant Matrix: (Units=GPa)
#
#
# Indices 1 2 3 4 5 6 
#
# 1 114.6901 75.9713 41.4846 0.0000 -22.3337 0.0000
# 2 75.9713 170.4463 46.0923 0.0000 -7.0421 0.0000
# 3 41.4846 46.0923 80.5589 0.0000 -22.0217 0.0000
# 4 0.0000 0.0000 0.0000 46.3590 0.0000 -6.1851
# 5 -22.3337 -7.0421 -22.0217 0.0000 32.5279 0.0000
# 6 0.0000 0.0000 0.0000 -6.1851 0.0000 46.8679
#
#
#
# Elastic Compliance Matrix: (Units=1/GPa)
#
#
# Indices 1 2 3 4 5 6 
#
# 1 0.014716 -0.005616 -0.002375 0.000000 0.007281 0.000000
# 2 -0.005616 0.009141 -0.003498 0.000000 -0.004246 0.000000
# 3 -0.002375 -0.003498 0.018388 0.000000 0.010061 0.000000
# 4 0.000000 0.000000 0.000000 0.021957 0.000000 0.002898
# 5 0.007281 -0.004246 0.010061 0.000000 0.041634 0.000000
# 6 0.000000 0.000000 0.000000 0.002898 0.000000 0.021719
#
#
# Mechanical properties :
#
#
# Convention : Reuss Voigt Hill
#
# Bulk Modulus (GPa) = 51.90381 76.97685 64.44033
# Shear Modulus (GPa) = 31.85602 38.62743 35.24172
#
# Velocity S-wave (km/s) = 3.89365 4.28755 4.09533
# Velocity P-wave (km/s) = 6.70189 7.81950 7.28216
#
# Compressibility (1/GPa) = 0.01926641
#
# Stress axis : x y z
#
# Youngs Moduli (GPa) = 67.95286 109.39842 54.38309
#
# Poissons Ratio (x) = 0.61442 0.12913
# Poissons Ratio (y) = 0.38165 0.19026
# Poissons Ratio (z) = 0.16136 0.38273
#
# Static dielectric constant tensor:
#      x y z
#    x 4.184290 0.000000 -0.454360 
#    y 0.000000 3.782250 0.000000 
#    z -0.454360 0.000000 4.264120 
# 
# 
# High freq. dielectric constant tensor:
#      x y z
#    x 1.837980 0.000000 -0.014240 
#    y 0.000000 1.823420 0.000000 
#    z -0.014240 0.000000 1.841500 
# 
# From -- ./inp_files/48772.got.cif
#   From: 2010.06.25/outbox.cif.g09.slc.cpg/sg13_25_cif.got.tgz:48772.got - 2010.06.28 04:50:58.
