data_PCOD8121701
_publ_section_title
;
Structure prediction by ZEFSAII (Michael W. Deem and Ramdas Pophale) SiO2 
 PCOD8121701
Probable space group: P 2/C
;
_chemical_formula_sum "Si O2"
_cell_formula_units_Z 24
_cell_length_a 16.588699
_cell_length_b 8.386914
_cell_length_c 17.411444
_cell_angle_alpha 90.000000
_cell_angle_beta 154.491985
_cell_angle_gamma 90.000000
_cell_volume 1043.184211
_symmetry_space_group_name_H-M "P 2/C"
_symmetry_group_IT_number 13
_symmetry_cell_setting 'monoclinic'
loop_
_space_group_symop_operation_xyz
x,y,z
-x,y,1/2-z
-x,-y,-z
x,-y,1/2+z
loop_
_atom_site_type_symbol
_atom_site_label
_atom_site_fract_x
_atom_site_fract_y
_atom_site_fract_z
Si Si1 0.328933 0.639526 0.142087
Si Si2 0.205881 0.830704 0.447220
Si Si3 0.868635 0.342111 0.465006
Si Si4 0.720652 0.639392 0.133795
Si Si5 0.647851 0.155147 0.969141
Si Si6 0.341684 0.708936 0.869538
O O1 0.500000 0.536037 0.250000
O O2 0.228454 0.739115 0.985866
O O3 0.433088 0.775547 0.284226
O O4 0.190135 0.527135 0.070450
O O5 0.221724 0.770815 0.548230
O O6 0.245470 0.679610 0.426272
O O7 0.000000 0.897988 0.250000
O O8 0.352504 0.971701 0.557961
O O9 0.801643 0.286406 0.324221
O O10 0.092285 0.330889 0.656044
O O11 0.657222 0.457342 0.083515
O O12 0.551373 0.747393 0.020549
O O13 0.722749 0.163313 0.121482
#
# Coordination Sequence:
#
# PCOD8121701 Si02
#       6
#     4   4   4   4   4   4
#     4   8  20  38  62  92 121 163 219 254 307 364
#     4  10  23  42  63  91 128 170 211 254 313 382
#     4  11  22  40  66  93 122 161 215 266 305 367
#     4  10  23  39  61  94 126 161 211 257 310 372
#     4   9  21  40  58  90 125 164 204 251 312 377
#     4  11  22  38  64  91 126 165 205 260 319 364
#
# _framework density 23.006484
#
# number of rings (size 3 to 8) (size 9 to 14) (size 15 to 20)
#    1.000    1.000    0.000    3.500    2.333    4.667 
#    0.000    5.000    0.000    0.000    0.000    3.500 
#    0.000    0.000    0.000    0.000    0.000    0.000 
#
# Total GULP energy -297350.447069 kJ/mol
# GULP energy per Si atom -12389.601961 kJ/mol
# Density = 2.295412 g / cm^3
# Si number density = 23.006484 Si / 1000 Ang^3
#
#
#
# Elastic Constant Matrix: (Units=GPa)
#
#
# Indices 1 2 3 4 5 6 
#
# 1 108.5030 33.0870 39.9220 0.0000 -27.7663 0.0000
# 2 33.0870 78.7649 26.2391 0.0000 -7.2502 0.0000
# 3 39.9220 26.2391 100.6440 0.0000 -4.2913 0.0000
# 4 0.0000 0.0000 0.0000 18.2177 0.0000 -0.6391
# 5 -27.7663 -7.2502 -4.2913 0.0000 33.3102 0.0000
# 6 0.0000 0.0000 0.0000 -0.6391 0.0000 21.8825
#
#
#
# Elastic Compliance Matrix: (Units=1/GPa)
#
#
# Indices 1 2 3 4 5 6 
#
# 1 0.014780 -0.003728 -0.004425 0.000000 0.010939 0.000000
# 2 -0.003728 0.015067 -0.002455 0.000000 -0.000144 0.000000
# 3 -0.004425 -0.002455 0.012218 0.000000 -0.002649 0.000000
# 4 0.000000 0.000000 0.000000 0.054948 0.000000 0.001605
# 5 0.010939 -0.000144 -0.002649 0.000000 0.038767 0.000000
# 6 0.000000 0.000000 0.000000 0.001605 0.000000 0.045746
#
#
# Mechanical properties :
#
#
# Convention : Reuss Voigt Hill
#
# Bulk Modulus (GPa) = 47.96279 54.04535 51.00407
# Shear Modulus (GPa) = 23.84457 27.25966 25.55212
#
# Velocity S-wave (km/s) = 3.22285 3.44593 3.33625
# Velocity P-wave (km/s) = 5.89422 6.27494 6.08756
#
# Compressibility (1/GPa) = 0.02084949
#
# Stress axis : x y z
#
# Youngs Moduli (GPa) = 67.65704 66.37137 81.84442
#
# Poissons Ratio (x) = 0.24743 0.36212
# Poissons Ratio (y) = 0.25222 0.20097
# Poissons Ratio (z) = 0.29935 0.16297
#
# Static dielectric constant tensor:
#      x y z
#    x 4.225540 0.000000 -0.079660 
#    y 0.000000 3.696170 0.000000 
#    z -0.079660 0.000000 3.989080 
# 
# 
# High freq. dielectric constant tensor:
#      x y z
#    x 1.915650 0.000000 -0.014610 
#    y 0.000000 1.876370 0.000000 
#    z -0.014610 0.000000 1.895140 
# 
# From -- ./inp_files/68322.got.cif
#   From: 2010.06.25/outbox.cif.g09.slc.cpg/sg13_35_cif.got.tgz:68322.got - 2010.06.28 04:50:58.
