data_PCOD8121581
_publ_section_title
;
Structure prediction by ZEFSAII (Michael W. Deem and Ramdas Pophale) SiO2 
 PCOD8121581
Probable space group: P 2/C
;
_chemical_formula_sum "Si O2"
_cell_formula_units_Z 26
_cell_length_a 14.712043
_cell_length_b 11.761496
_cell_length_c 21.268750
_cell_angle_alpha 90.000000
_cell_angle_beta 159.576004
_cell_angle_gamma 90.000000
_cell_volume 1284.277398
_symmetry_space_group_name_H-M "P 2/C"
_symmetry_group_IT_number 13
_symmetry_cell_setting 'monoclinic'
loop_
_space_group_symop_operation_xyz
x,y,z
-x,y,1/2-z
-x,-y,-z
x,-y,1/2+z
loop_
_atom_site_type_symbol
_atom_site_label
_atom_site_fract_x
_atom_site_fract_y
_atom_site_fract_z
Si Si1 0.245647 0.365307 0.675513
Si Si2 0.000000 0.295947 0.250000
Si Si3 0.000000 0.063130 0.750000
Si Si4 0.493727 0.783105 0.575180
Si Si5 0.997613 0.117579 0.141025
Si Si6 0.500000 0.813800 0.250000
Si Si7 0.357115 0.381671 0.220790
Si Si8 0.513754 0.380842 0.542399
O O1 0.397973 0.262553 0.741522
O O2 0.374764 0.482212 0.735199
O O3 0.256259 0.367057 0.758209
O O4 0.943158 0.347980 0.465294
O O5 0.965130 0.226139 0.163925
O O6 0.246984 0.376855 0.408024
O O7 0.750814 0.137160 0.570965
O O8 0.052256 0.990300 0.720875
O O9 0.496504 0.682755 0.628143
O O10 0.455251 0.725458 0.483002
O O11 0.754255 0.861418 0.743794
O O12 0.734299 0.106333 0.928309
O O13 0.500000 0.340345 0.250000
O O14 0.500000 0.500000 0.500000
#
# Coordination Sequence:
#
# PCOD8121581 Si02
#       8
#     4   2   2   4   4   2   4   4
#     4  11  23  39  63  99 137 179 209 263 331 407
#     4   9  20  35  60  84 124 163 212 261 312 376
#     4  11  26  47  66  92 132 173 226 293 330 372
#     4  11  24  44  66  95 128 177 218 276 340 389
#     4  10  22  44  67  91 121 171 230 276 325 391
#     4  12  20  42  72  98 132 178 222 272 336 398
#     4  11  24  40  62  96 143 175 210 263 339 411
#     4  11  22  36  61  96 130 167 215 255 318 405
#
# _framework density 20.244848000000001
#
# number of rings (size 3 to 8) (size 9 to 14) (size 15 to 20)
#    0.000    1.231    5.385    0.462    2.154    1.846 
#    1.385    0.769    0.000    0.000    0.000    0.000 
#    0.000    0.000    0.000    0.000    0.000    0.000 
#
# Total GULP energy -322378.367154 kJ/mol
# GULP energy per Si atom -12399.167967 kJ/mol
# Density = 2.019877 g / cm^3
# Si number density = 20.244848 Si / 1000 Ang^3
#
#
#
# Elastic Constant Matrix: (Units=GPa)
#
#
# Indices 1 2 3 4 5 6 
#
# 1 84.3073 17.2671 23.6418 0.0000 1.1933 0.0000
# 2 17.2671 64.4930 33.6635 0.0000 9.5449 0.0000
# 3 23.6418 33.6635 107.8165 0.0000 -4.8405 0.0000
# 4 0.0000 0.0000 0.0000 32.5372 0.0000 -3.0580
# 5 1.1933 9.5449 -4.8405 0.0000 38.5877 0.0000
# 6 0.0000 0.0000 0.0000 -3.0580 0.0000 17.6354
#
#
#
# Elastic Compliance Matrix: (Units=1/GPa)
#
#
# Indices 1 2 3 4 5 6 
#
# 1 0.012935 -0.002352 -0.002106 0.000000 -0.000082 0.000000
# 2 -0.002352 0.020114 -0.006019 0.000000 -0.005658 0.000000
# 3 -0.002106 -0.006019 0.011752 0.000000 0.003028 0.000000
# 4 0.000000 0.000000 0.000000 0.031243 0.000000 0.005418
# 5 -0.000082 -0.005658 0.003028 0.000000 0.027697 0.000000
# 6 0.000000 0.000000 0.000000 0.005418 0.000000 0.057643
#
#
# Mechanical properties :
#
#
# Convention : Reuss Voigt Hill
#
# Bulk Modulus (GPa) = 41.93118 45.08464 43.50791
# Shear Modulus (GPa) = 26.27631 29.88836 28.08234
#
# Velocity S-wave (km/s) = 3.60658 3.84649 3.72847
# Velocity P-wave (km/s) = 6.17254 6.48424 6.33031
#
# Compressibility (1/GPa) = 0.02384860
#
# Stress axis : x y z
#
# Youngs Moduli (GPa) = 77.31147 49.71655 85.09291
#
# Poissons Ratio (x) = 0.11692 0.17918
# Poissons Ratio (y) = 0.18182 0.51213
# Poissons Ratio (z) = 0.16280 0.29922
#
# Static dielectric constant tensor:
#      x y z
#    x 0.742590 0.000000 0.893020 
#    y 0.000000 3.446710 0.000000 
#    z 0.893020 0.000000 3.587020 
# 
# 
# High freq. dielectric constant tensor:
#      x y z
#    x 1.795390 0.000000 -0.000690 
#    y 0.000000 1.773970 0.000000 
#    z -0.000690 0.000000 1.802530 
# 
# From -- ./inp_files/29519.got.cif
#   From: 2010.06.25/outbox.cif.g09.slc.cpg/sg13_15_cif.got.tgz:29519.got - 2010.06.28 04:50:58.
