data_PCOD8121698
_publ_section_title
;
Structure prediction by ZEFSAII (Michael W. Deem and Ramdas Pophale) SiO2 
 PCOD8121698
Probable space group: P 2/C
;
_chemical_formula_sum "Si O2"
_cell_formula_units_Z 26
_cell_length_a 12.963976
_cell_length_b 9.164458
_cell_length_c 10.333925
_cell_angle_alpha 90.000000
_cell_angle_beta 90.522400
_cell_angle_gamma 90.000000
_cell_volume 1227.700003
_symmetry_space_group_name_H-M "P 2/C"
_symmetry_group_IT_number 13
_symmetry_cell_setting 'monoclinic'
loop_
_space_group_symop_operation_xyz
x,y,z
-x,y,1/2-z
-x,-y,-z
x,-y,1/2+z
loop_
_atom_site_type_symbol
_atom_site_label
_atom_site_fract_x
_atom_site_fract_y
_atom_site_fract_z
Si Si1 0.187477 0.294447 0.922480
Si Si2 0.328633 0.529904 0.997882
Si Si3 0.029035 0.333423 0.514262
Si Si4 0.612919 0.664171 0.764258
Si Si5 0.221815 0.105980 0.159867
Si Si6 0.000000 0.819976 0.750000
Si Si7 0.237150 0.772680 0.145173
O O1 0.248794 0.281062 0.790940
O O2 0.214628 0.455701 0.980168
O O3 0.227260 0.168415 0.016657
O O4 0.066137 0.267025 0.905476
O O5 0.388468 0.422356 0.097805
O O6 0.321937 0.690201 0.060391
O O7 0.376384 0.549329 0.855143
O O8 0.034599 0.278639 0.368462
O O9 0.126767 0.278836 0.592680
O O10 0.000000 0.500000 0.500000
O O11 0.500000 0.738298 0.750000
O O12 0.702135 0.789507 0.754394
O O13 0.104544 0.091281 0.214988
O O14 0.262788 0.942924 0.143924
#
# Coordination Sequence:
#
# PCOD8121698 Si02
#       7
#     4   4   4   4   4   2   4
#     4  10  23  39  59  94 134 172 225 265 325 400
#     4  11  22  43  71  99 129 172 220 286 336 388
#     4  11  23  34  61  90 128 176 218 267 322 387
#     4  11  24  47  72 100 133 172 225 280 338 397
#     4  10  26  42  65  95 136 183 215 273 334 400
#     4  10  24  42  58  92 138 172 218 260 332 402
#     4  12  24  39  66  95 137 174 224 268 333 402
#
# _framework density 21.177811999999999
#
# number of rings (size 3 to 8) (size 9 to 14) (size 15 to 20)
#    0.000    1.231    3.077    1.846    8.615    1.231 
#    0.000    1.538    0.000    0.000    0.000    0.000 
#    0.000    0.000    0.000    0.000    0.000    0.000 
#
# Total GULP energy -322102.661063 kJ/mol
# GULP energy per Si atom -12388.563887 kJ/mol
# Density = 2.112961 g / cm^3
# Si number density = 21.177812 Si / 1000 Ang^3
#
#
#
# Elastic Constant Matrix: (Units=GPa)
#
#
# Indices 1 2 3 4 5 6 
#
# 1 97.5374 20.4684 13.5112 0.0000 16.0198 0.0000
# 2 20.4684 125.1281 26.0632 0.0000 9.8715 0.0000
# 3 13.5112 26.0632 91.1535 0.0000 2.2946 0.0000
# 4 0.0000 0.0000 0.0000 22.2194 0.0000 -5.0266
# 5 16.0198 9.8715 2.2946 0.0000 16.6198 0.0000
# 6 0.0000 0.0000 0.0000 -5.0266 0.0000 17.8602
#
#
#
# Elastic Compliance Matrix: (Units=1/GPa)
#
#
# Indices 1 2 3 4 5 6 
#
# 1 0.012478 -0.000874 -0.001315 0.000000 -0.011327 0.000000
# 2 -0.000874 0.008946 -0.002324 0.000000 -0.004151 0.000000
# 3 -0.001315 -0.002324 0.011804 0.000000 0.001018 0.000000
# 4 0.000000 0.000000 0.000000 0.048066 0.000000 0.013528
# 5 -0.011327 -0.004151 0.001018 0.000000 0.073413 0.000000
# 6 0.000000 0.000000 0.000000 0.013528 0.000000 0.059798
#
#
# Mechanical properties :
#
#
# Convention : Reuss Voigt Hill
#
# Bulk Modulus (GPa) = 41.31519 48.21160 44.76340
# Shear Modulus (GPa) = 21.58914 28.25829 24.92372
#
# Velocity S-wave (km/s) = 3.19630 3.65682 3.43429
# Velocity P-wave (km/s) = 5.75959 6.37529 6.07524
#
# Compressibility (1/GPa) = 0.02420417
#
# Stress axis : x y z
#
# Youngs Moduli (GPa) = 80.13854 111.77864 84.71535
#
# Poissons Ratio (x) = 0.09767 0.11137
# Poissons Ratio (y) = 0.07002 0.19688
# Poissons Ratio (z) = 0.10535 0.25977
#
# Static dielectric constant tensor:
#      x y z
#    x 4.167730 0.000000 0.038280 
#    y 0.000000 3.688610 0.000000 
#    z 0.038280 0.000000 3.980000 
# 
# 
# High freq. dielectric constant tensor:
#      x y z
#    x 1.811120 0.000000 0.004390 
#    y 0.000000 1.820550 0.000000 
#    z 0.004390 0.000000 1.847490 
# 
# From -- ./inp_files/32616.got.cif
#   From: 2010.06.25/outbox.cif.g09.slc.cpg/sg13_17_cif.got.tgz:32616.got - 2010.06.28 04:50:58.
