data_PCOD8121273
_publ_section_title
;
Structure prediction by ZEFSAII (Michael W. Deem and Ramdas Pophale) SiO2 
 PCOD8121273
Probable space group: P 2/C
;
_chemical_formula_sum "Si O2"
_cell_formula_units_Z 22
_cell_length_a 7.731748
_cell_length_b 9.118740
_cell_length_c 16.315828
_cell_angle_alpha 90.000000
_cell_angle_beta 72.983775
_cell_angle_gamma 90.000000
_cell_volume 1099.968729
_symmetry_space_group_name_H-M "P 2/C"
_symmetry_group_IT_number 13
_symmetry_cell_setting 'monoclinic'
loop_
_space_group_symop_operation_xyz
x,y,z
-x,y,1/2-z
-x,-y,-z
x,-y,1/2+z
loop_
_atom_site_type_symbol
_atom_site_label
_atom_site_fract_x
_atom_site_fract_y
_atom_site_fract_z
Si Si1 0.500000 0.655793 0.250000
Si Si2 0.937543 0.795074 0.349381
Si Si3 0.718798 0.810744 0.092888
Si Si4 0.669072 0.085290 0.009484
Si Si5 0.800187 0.504409 0.303098
Si Si6 0.425585 0.346309 0.041052
O O1 0.539720 0.763743 0.167989
O O2 0.673376 0.552841 0.244462
O O3 0.817247 0.911411 0.416021
O O4 0.822220 0.646728 0.357741
O O5 0.000000 0.852214 0.250000
O O6 0.110352 0.755624 0.380071
O O7 0.738705 0.987775 0.076886
O O8 0.703729 0.730135 0.007798
O O9 0.598184 0.246833 0.044655
O O10 0.500000 0.000000 0.000000
O O11 0.702126 0.371954 0.363060
O O12 0.000000 0.449866 0.250000
O O13 0.500000 0.500000 0.000000
#
# Coordination Sequence:
#
# PCOD8121273 Si02
#       6
#     2   4   4   4   4   4
#     4  12  20  40  68  96 120 180 214 264 330 388
#     4  11  21  39  66  95 126 166 223 266 314 395
#     4  11  23  38  68  92 129 171 217 263 329 388
#     4  10  22  41  62  92 126 167 214 262 324 389
#     4  11  22  40  64  98 130 166 223 270 320 390
#     4  11  21  40  66  92 127 166 215 269 317 388
#
# _framework density 20.00057
#
# number of rings (size 3 to 8) (size 9 to 14) (size 15 to 20)
#    0.000    1.091    7.273    1.636    0.000    0.727 
#    3.273    4.545    0.000    0.000    0.000    0.000 
#    0.000    0.000    0.000    0.000    0.000    0.000 
#
# Total GULP energy -272648.224781 kJ/mol
# GULP energy per Si atom -12393.101126 kJ/mol
# Density = 1.995505 g / cm^3
# Si number density = 20.000570 Si / 1000 Ang^3
#
#
#
# Elastic Constant Matrix: (Units=GPa)
#
#
# Indices 1 2 3 4 5 6 
#
# 1 109.6390 34.5202 40.9199 0.0000 0.7194 0.0000
# 2 34.5202 99.0625 51.3047 0.0000 -6.1479 0.0000
# 3 40.9199 51.3047 132.0764 0.0000 -22.1521 0.0000
# 4 0.0000 0.0000 0.0000 40.0773 0.0000 -6.2152
# 5 0.7194 -6.1479 -22.1521 0.0000 43.4567 0.0000
# 6 0.0000 0.0000 0.0000 -6.2152 0.0000 14.6134
#
#
#
# Elastic Compliance Matrix: (Units=1/GPa)
#
#
# Indices 1 2 3 4 5 6 
#
# 1 0.010948 -0.002517 -0.002739 0.000000 -0.001933 0.000000
# 2 -0.002517 0.013240 -0.004420 0.000000 -0.000338 0.000000
# 3 -0.002739 -0.004420 0.010978 0.000000 0.005016 0.000000
# 4 0.000000 0.000000 0.000000 0.026714 0.000000 0.011362
# 5 -0.001933 -0.000338 0.005016 0.000000 0.025553 0.000000
# 6 0.000000 0.000000 0.000000 0.011362 0.000000 0.073263
#
#
# Mechanical properties :
#
#
# Convention : Reuss Voigt Hill
#
# Bulk Modulus (GPa) = 63.22967 66.02973 64.62970
# Shear Modulus (GPa) = 26.98078 33.89833 30.43956
#
# Velocity S-wave (km/s) = 3.67686 4.12134 3.90543
# Velocity P-wave (km/s) = 7.05041 7.46545 7.26089
#
# Compressibility (1/GPa) = 0.01581536
#
# Stress axis : x y z
#
# Youngs Moduli (GPa) = 91.34069 75.53017 91.09072
#
# Poissons Ratio (x) = 0.19009 0.24946
# Poissons Ratio (y) = 0.22988 0.40262
# Poissons Ratio (z) = 0.25014 0.33384
#
# Static dielectric constant tensor:
#      x y z
#    x 4.159450 0.000000 0.122710 
#    y 0.000000 5.386690 0.000000 
#    z 0.122710 0.000000 4.632510 
# 
# 
# High freq. dielectric constant tensor:
#      x y z
#    x 1.793150 0.000000 -0.010640 
#    y 0.000000 1.761240 0.000000 
#    z -0.010640 0.000000 1.774930 
# 
# From -- ./inp_files/63272.got.cif
#   From: 2010.06.25/outbox.cif.g09.slc.cpg/sg13_32_cif.got.tgz:63272.got - 2010.06.28 04:50:58.
