data_PCOD8121485
_publ_section_title
;
Structure prediction by ZEFSAII (Michael W. Deem and Ramdas Pophale) SiO2 
 PCOD8121485
Probable space group: P 2/C
;
_chemical_formula_sum "Si O2"
_cell_formula_units_Z 24
_cell_length_a 5.143181
_cell_length_b 7.610111
_cell_length_c 22.877859
_cell_angle_alpha 90.000000
_cell_angle_beta 83.233282
_cell_angle_gamma 90.000000
_cell_volume 889.205928
_symmetry_space_group_name_H-M "P 2/C"
_symmetry_group_IT_number 13
_symmetry_cell_setting 'monoclinic'
loop_
_space_group_symop_operation_xyz
x,y,z
-x,y,1/2-z
-x,-y,-z
x,-y,1/2+z
loop_
_atom_site_type_symbol
_atom_site_label
_atom_site_fract_x
_atom_site_fract_y
_atom_site_fract_z
Si Si1 0.600030 0.478110 0.898766
Si Si2 0.361306 0.717517 0.497699
Si Si3 0.348305 0.719896 0.813858
Si Si4 0.206083 0.938531 0.053149
Si Si5 0.678457 0.917477 0.128876
Si Si6 0.938572 0.371652 0.686623
O O1 0.704475 0.558236 0.957193
O O2 0.530662 0.639113 0.859390
O O3 0.811386 0.348368 0.863156
O O4 0.356058 0.352891 0.928648
O O5 0.661394 0.795524 0.494506
O O6 0.169626 0.877208 0.519280
O O7 0.500000 0.741843 0.750000
O O8 0.116304 0.580262 0.810928
O O9 0.243489 0.910195 0.835218
O O10 0.402424 0.955221 0.104364
O O11 0.914483 0.884678 0.077424
O O12 0.687487 0.744465 0.171878
O O13 0.000000 0.304872 0.750000
#
# Coordination Sequence:
#
# PCOD8121485 Si02
#       6
#     4   4   4   4   4   4
#     4  11  22  50  68 116 146 201 258 316 390 463
#     4  10  22  42  80 103 155 198 255 315 392 458
#     4  12  27  48  78 108 157 205 262 324 390 465
#     4  11  24  49  71 116 153 199 252 323 384 465
#     4  12  28  50  79 112 157 200 264 316 390 466
#     4  12  27  48  78 108 157 205 262 324 390 465
#
# _framework density 26.990373000000002
#
# number of rings (size 3 to 8) (size 9 to 14) (size 15 to 20)
#    0.000    0.667    5.000    2.000    0.000    5.333 
#    6.000    3.333    0.000    0.000    0.000    0.000 
#    0.000    0.000    0.000    0.000    0.000    0.000 
#
# Total GULP energy -297373.967732 kJ/mol
# GULP energy per Si atom -12390.581989 kJ/mol
# Density = 2.692894 g / cm^3
# Si number density = 26.990373 Si / 1000 Ang^3
#
#
#
# Elastic Constant Matrix: (Units=GPa)
#
#
# Indices 1 2 3 4 5 6 
#
# 1 68.2854 15.8982 29.3096 0.0000 6.2076 0.0000
# 2 15.8982 162.1892 51.4664 0.0000 -4.2308 0.0000
# 3 29.3096 51.4664 162.7327 0.0000 11.5200 0.0000
# 4 0.0000 0.0000 0.0000 25.5277 0.0000 -1.0445
# 5 6.2076 -4.2308 11.5200 0.0000 48.2965 0.0000
# 6 0.0000 0.0000 0.0000 -1.0445 0.0000 39.9887
#
#
#
# Elastic Compliance Matrix: (Units=1/GPa)
#
#
# Indices 1 2 3 4 5 6 
#
# 1 0.016057 -0.000812 -0.002527 0.000000 -0.001532 0.000000
# 2 -0.000812 0.006956 -0.002140 0.000000 0.001224 0.000000
# 3 -0.002527 -0.002140 0.007392 0.000000 -0.001626 0.000000
# 4 0.000000 0.000000 0.000000 0.039215 0.000000 0.001024
# 5 -0.001532 0.001224 -0.001626 0.000000 0.021397 0.000000
# 6 0.000000 0.000000 0.000000 0.001024 0.000000 0.025034
#
#
# Mechanical properties :
#
#
# Convention : Reuss Voigt Hill
#
# Bulk Modulus (GPa) = 51.42122 65.17286 58.29704
# Shear Modulus (GPa) = 37.45505 42.53145 39.99325
#
# Velocity S-wave (km/s) = 3.72925 3.97394 3.85354
# Velocity P-wave (km/s) = 6.13483 6.72721 6.43784
#
# Compressibility (1/GPa) = 0.01944722
#
# Stress axis : x y z
#
# Youngs Moduli (GPa) = 62.27682 143.75257 135.27803
#
# Poissons Ratio (x) = 0.11675 0.34181
# Poissons Ratio (y) = 0.05058 0.28956
# Poissons Ratio (z) = 0.15736 0.30769
#
# Static dielectric constant tensor:
#      x y z
#    x 4.441860 0.000000 0.090900 
#    y 0.000000 5.618830 0.000000 
#    z 0.090900 0.000000 5.186430 
# 
# 
# High freq. dielectric constant tensor:
#      x y z
#    x 2.062100 0.000000 0.008160 
#    y 0.000000 2.115740 0.000000 
#    z 0.008160 0.000000 2.104620 
# 
# From -- ./inp_files/83310.got.cif
#   From: 2010.06.25/outbox.cif.g09.slc.cpg/sg13_42_cif.got.tgz:83310.got - 2010.06.28 04:50:58.
