data_PCOD8121410
_publ_section_title
;
Structure prediction by ZEFSAII (Michael W. Deem and Ramdas Pophale) SiO2 
 PCOD8121410
Probable space group: P 2/C
;
_chemical_formula_sum "Si O2"
_cell_formula_units_Z 24
_cell_length_a 21.291742
_cell_length_b 11.220246
_cell_length_c 23.702085
_cell_angle_alpha 90.000000
_cell_angle_beta 168.833097
_cell_angle_gamma 90.000000
_cell_volume 1096.622745
_symmetry_space_group_name_H-M "P 2/C"
_symmetry_group_IT_number 13
_symmetry_cell_setting 'monoclinic'
loop_
_space_group_symop_operation_xyz
x,y,z
-x,y,1/2-z
-x,-y,-z
x,-y,1/2+z
loop_
_atom_site_type_symbol
_atom_site_label
_atom_site_fract_x
_atom_site_fract_y
_atom_site_fract_z
Si Si1 0.788909 0.072224 0.114462
Si Si2 0.454247 0.520675 0.039927
Si Si3 0.357293 0.055385 0.318972
Si Si4 0.228444 0.774782 0.078637
Si Si5 0.727279 0.524892 0.403701
Si Si6 0.289950 0.310611 0.301155
O O1 0.000000 0.012789 0.250000
O O2 0.015295 0.120148 0.364045
O O3 0.587154 0.178693 0.907734
O O4 0.548524 0.976057 0.930159
O O5 0.537166 0.536831 0.177694
O O6 0.705206 0.423787 0.236078
O O7 0.477304 0.644675 0.023802
O O8 0.083896 0.467298 0.710568
O O9 0.419686 0.196662 0.381568
O O10 0.500000 0.000000 0.500000
O O11 0.000000 0.000000 0.000000
O O12 0.229853 0.662173 0.037338
O O13 0.072472 0.727335 0.000097
O O14 0.500000 0.457977 0.250000
#
# Coordination Sequence:
#
# PCOD8121410 Si02
#       6
#     4   4   4   4   4   4
#     4  12  23  39  59  94 129 164 207 264 331 385
#     4  10  24  38  65  93 128 171 215 282 313 390
#     4  12  24  41  66  95 126 173 215 269 318 397
#     4  11  22  37  64  89 124 161 209 270 320 379
#     4  11  22  39  60  92 128 172 216 263 334 396
#     4  10  22  42  64  96 128 166 226 266 333 377
#
# _framework density 21.885375
#
# number of rings (size 3 to 8) (size 9 to 14) (size 15 to 20)
#    0.000    1.000    3.333    4.000    0.000    8.667 
#    0.000    1.667    0.000    0.000    0.000    0.000 
#    0.000    0.000    0.000    0.000    0.000    0.000 
#
# Total GULP energy -297334.460419 kJ/mol
# GULP energy per Si atom -12388.935851 kJ/mol
# Density = 2.183556 g / cm^3
# Si number density = 21.885375 Si / 1000 Ang^3
#
#
#
# Elastic Constant Matrix: (Units=GPa)
#
#
# Indices 1 2 3 4 5 6 
#
# 1 128.9812 43.1277 61.8920 0.0000 25.5548 0.0000
# 2 43.1277 88.5215 27.8673 0.0000 8.5688 0.0000
# 3 61.8920 27.8673 107.2081 0.0000 1.4679 0.0000
# 4 0.0000 0.0000 0.0000 23.2235 0.0000 10.4206
# 5 25.5548 8.5688 1.4679 0.0000 51.9262 0.0000
# 6 0.0000 0.0000 0.0000 10.4206 0.0000 17.9342
#
#
#
# Elastic Compliance Matrix: (Units=1/GPa)
#
#
# Indices 1 2 3 4 5 6 
#
# 1 0.013370 -0.003868 -0.006634 0.000000 -0.005754 0.000000
# 2 -0.003868 0.013621 -0.001303 0.000000 -0.000307 0.000000
# 3 -0.006634 -0.001303 0.013454 0.000000 0.003100 0.000000
# 4 0.000000 0.000000 0.000000 0.058246 0.000000 -0.033844
# 5 -0.005754 -0.000307 0.003100 0.000000 0.022053 0.000000
# 6 0.000000 0.000000 0.000000 -0.033844 0.000000 0.075424
#
#
# Mechanical properties :
#
#
# Convention : Reuss Voigt Hill
#
# Bulk Modulus (GPa) = 59.40510 65.60941 62.50725
# Shear Modulus (GPa) = 22.18362 31.40501 26.79431
#
# Velocity S-wave (km/s) = 3.18721 3.79222 3.50280
# Velocity P-wave (km/s) = 6.38334 7.01558 6.70691
#
# Compressibility (1/GPa) = 0.01683357
#
# Stress axis : x y z
#
# Youngs Moduli (GPa) = 74.79389 73.41404 74.32722
#
# Poissons Ratio (x) = 0.28399 0.49311
# Poissons Ratio (y) = 0.28933 0.09687
# Poissons Ratio (z) = 0.49621 0.09568
#
# Static dielectric constant tensor:
#      x y z
#    x 3.940040 0.000000 0.269960 
#    y 0.000000 1.794490 0.000000 
#    z 0.269960 0.000000 4.126420 
# 
# 
# High freq. dielectric constant tensor:
#      x y z
#    x 1.871930 0.000000 0.007240 
#    y 0.000000 1.819980 0.000000 
#    z 0.007240 0.000000 1.872130 
# 
# From -- ./inp_files/93872.got.cif
#   From: 2010.06.25/outbox.cif.g09.slc.cpg/sg13_47_cif.got.tgz:93872.got - 2010.06.28 04:50:58.
