data_PCOD8121476
_publ_section_title
;
Structure prediction by ZEFSAII (Michael W. Deem and Ramdas Pophale) SiO2 
 PCOD8121476
Probable space group: P 2/C
;
_chemical_formula_sum "Si O2"
_cell_formula_units_Z 16
_cell_length_a 11.256442
_cell_length_b 11.114656
_cell_length_c 14.002330
_cell_angle_alpha 90.000000
_cell_angle_beta 21.120580
_cell_angle_gamma 90.000000
_cell_volume 631.248230
_symmetry_space_group_name_H-M "P 2/C"
_symmetry_group_IT_number 13
_symmetry_cell_setting 'monoclinic'
loop_
_space_group_symop_operation_xyz
x,y,z
-x,y,1/2-z
-x,-y,-z
x,-y,1/2+z
loop_
_atom_site_type_symbol
_atom_site_label
_atom_site_fract_x
_atom_site_fract_y
_atom_site_fract_z
Si Si1 0.645449 0.645358 0.989402
Si Si2 0.026953 0.195037 0.956396
Si Si3 0.680311 0.420144 0.247058
Si Si4 0.107916 0.975658 0.561231
O O1 0.597789 0.623116 0.914475
O O2 0.000000 0.699448 0.750000
O O3 0.375330 0.743223 0.222430
O O4 0.605847 0.513397 0.073225
O O5 0.933459 0.122749 0.123429
O O6 0.043875 0.105613 0.853970
O O7 0.748384 0.296157 0.138621
O O8 0.000000 0.500000 0.000000
O O9 0.000000 0.948597 0.750000
O O10 0.500000 0.977578 0.250000
#
# Coordination Sequence:
#
# PCOD8121476 Si02
#       4
#     4   4   4   4
#     4  10  22  42  72 101 140 187 234 288 368 433
#     4  10  25  45  71 101 151 180 246 299 353 442
#     4   9  21  42  63 104 138 180 229 297 351 434
#     4  11  28  48  73 109 140 196 246 300 365 418
#
# _framework density 25.346605
#
# number of rings (size 3 to 8) (size 9 to 14) (size 15 to 20)
#    0.000    2.000    0.000    0.000   10.500    5.000 
#   13.500    0.000    0.000    1.500    0.000    0.000 
#    0.000    0.000    0.000    0.000    0.000    0.000 
#
# Total GULP energy -198222.531590 kJ/mol
# GULP energy per Si atom -12388.908224 kJ/mol
# Density = 2.528891 g / cm^3
# Si number density = 25.346605 Si / 1000 Ang^3
#
#
#
# Elastic Constant Matrix: (Units=GPa)
#
#
# Indices 1 2 3 4 5 6 
#
# 1 62.8547 16.3842 16.1602 0.0000 15.1541 0.0000
# 2 16.3842 167.6291 40.0659 0.0000 3.6605 0.0000
# 3 16.1602 40.0659 103.3762 0.0000 5.5429 0.0000
# 4 0.0000 0.0000 0.0000 21.3344 0.0000 0.5782
# 5 15.1541 3.6605 5.5429 0.0000 44.1523 0.0000
# 6 0.0000 0.0000 0.0000 0.5782 0.0000 20.4862
#
#
#
# Elastic Compliance Matrix: (Units=1/GPa)
#
#
# Indices 1 2 3 4 5 6 
#
# 1 0.018161 -0.001150 -0.002078 0.000000 -0.005877 0.000000
# 2 -0.001150 0.006650 -0.002405 0.000000 0.000145 0.000000
# 3 -0.002078 -0.002405 0.010955 0.000000 -0.000463 0.000000
# 4 0.000000 0.000000 0.000000 0.046909 0.000000 -0.001324
# 5 -0.005877 0.000145 -0.000463 0.000000 0.024712 0.000000
# 6 0.000000 0.000000 0.000000 -0.001324 0.000000 0.048851
#
#
# Mechanical properties :
#
#
# Convention : Reuss Voigt Hill
#
# Bulk Modulus (GPa) = 40.81822 53.23116 47.02469
# Shear Modulus (GPa) = 28.46245 34.61122 31.53683
#
# Velocity S-wave (km/s) = 3.35465 3.69930 3.53118
# Velocity P-wave (km/s) = 5.58067 6.26844 5.93453
#
# Compressibility (1/GPa) = 0.02449886
#
# Stress axis : x y z
#
# Youngs Moduli (GPa) = 55.06406 150.38334 91.28011
#
# Poissons Ratio (x) = 0.17294 0.18969
# Poissons Ratio (y) = 0.06332 0.21955
# Poissons Ratio (z) = 0.11443 0.36171
#
# Static dielectric constant tensor:
#      x y z
#    x 4.168420 0.000000 0.076200 
#    y 0.000000 5.324450 0.000000 
#    z 0.076200 0.000000 4.810750 
# 
# 
# High freq. dielectric constant tensor:
#      x y z
#    x 1.978200 0.000000 0.015770 
#    y 0.000000 2.049350 0.000000 
#    z 0.015770 0.000000 2.008890 
# 
# From -- ./inp_files/25433.got.cif
#   From: 2010.06.25/outbox.cif.g09.slc.cpg/sg13_13_cif.got.tgz:25433.got - 2010.06.28 04:50:58.
