data_PCOD8121783
_publ_section_title
;
Structure prediction by ZEFSAII (Michael W. Deem and Ramdas Pophale) SiO2 
 PCOD8121783
Probable space group: P 2/C
;
_chemical_formula_sum "Si O2"
_cell_formula_units_Z 22
_cell_length_a 11.314874
_cell_length_b 10.463903
_cell_length_c 8.348972
_cell_angle_alpha 90.000000
_cell_angle_beta 77.493757
_cell_angle_gamma 90.000000
_cell_volume 965.044748
_symmetry_space_group_name_H-M "P 2/C"
_symmetry_group_IT_number 13
_symmetry_cell_setting 'monoclinic'
loop_
_space_group_symop_operation_xyz
x,y,z
-x,y,1/2-z
-x,-y,-z
x,-y,1/2+z
loop_
_atom_site_type_symbol
_atom_site_label
_atom_site_fract_x
_atom_site_fract_y
_atom_site_fract_z
Si Si1 0.500000 0.441264 0.250000
Si Si2 0.664924 0.382549 0.922093
Si Si3 0.361919 0.148410 0.773865
Si Si4 0.908129 0.112297 0.074494
Si Si5 0.244620 0.040589 0.098674
Si Si6 0.066760 0.385545 0.567201
O O1 0.424694 0.356573 0.400043
O O2 0.400267 0.522934 0.183106
O O3 0.699774 0.254726 0.817262
O O4 0.794460 0.432140 0.948131
O O5 0.500000 0.184851 0.750000
O O6 0.344921 0.010384 0.694793
O O7 0.300953 0.149377 0.967762
O O8 0.869971 0.101018 0.272988
O O9 0.949249 0.257024 0.033724
O O10 0.793492 0.082505 0.994961
O O11 0.000000 0.000000 0.000000
O O12 0.000000 0.353557 0.750000
O O13 0.000000 0.500000 0.500000
#
# Coordination Sequence:
#
# PCOD8121783 Si02
#       6
#     2   4   4   4   4   4
#     4  10  24  46  74  96 134 184 232 294 350 432
#     4  11  23  47  69 101 134 183 238 289 357 415
#     4  11  22  42  67 101 138 177 222 290 349 422
#     4  11  23  44  69 100 135 182 233 283 347 414
#     4  10  23  41  67  99 140 178 223 286 348 422
#     4  12  27  47  69 101 145 185 235 296 350 426
#
# _framework density 22.796868
#
# number of rings (size 3 to 8) (size 9 to 14) (size 15 to 20)
#    0.000    1.091    2.727    3.273    2.545    2.909 
#    4.909    0.000    0.000    0.000    0.000    0.000 
#    0.000    0.000    0.000    0.000    0.000    0.000 
#
# Total GULP energy -272734.135852 kJ/mol
# GULP energy per Si atom -12397.006175 kJ/mol
# Density = 2.274498 g / cm^3
# Si number density = 22.796868 Si / 1000 Ang^3
#
#
#
# Elastic Constant Matrix: (Units=GPa)
#
#
# Indices 1 2 3 4 5 6 
#
# 1 123.9149 44.3020 37.1603 0.0000 -7.8750 0.0000
# 2 44.3020 124.6954 63.4479 0.0000 -2.3075 0.0000
# 3 37.1603 63.4479 196.0870 0.0000 -24.1675 0.0000
# 4 0.0000 0.0000 0.0000 35.5364 0.0000 -1.0015
# 5 -7.8750 -2.3075 -24.1675 0.0000 36.0260 0.0000
# 6 0.0000 0.0000 0.0000 -1.0015 0.0000 20.8577
#
#
#
# Elastic Compliance Matrix: (Units=1/GPa)
#
#
# Indices 1 2 3 4 5 6 
#
# 1 0.009424 -0.002997 -0.000639 0.000000 0.001440 0.000000
# 2 -0.002997 0.010638 -0.003130 0.000000 -0.002073 0.000000
# 3 -0.000639 -0.003130 0.006750 0.000000 0.004188 0.000000
# 4 0.000000 0.000000 0.000000 0.028178 0.000000 0.001353
# 5 0.001440 -0.002073 0.004188 0.000000 0.030749 0.000000
# 6 0.000000 0.000000 0.000000 0.001353 0.000000 0.048009
#
#
# Mechanical properties :
#
#
# Convention : Reuss Voigt Hill
#
# Bulk Modulus (GPa) = 75.29182 81.61308 78.45245
# Shear Modulus (GPa) = 32.95824 38.46980 35.71402
#
# Velocity S-wave (km/s) = 3.80641 4.11238 3.96235
# Velocity P-wave (km/s) = 7.23998 7.64374 7.44460
#
# Compressibility (1/GPa) = 0.01328166
#
# Stress axis : x y z
#
# Youngs Moduli (GPa) = 106.10647 93.99937 148.15329
#
# Poissons Ratio (x) = 0.28168 0.09467
# Poissons Ratio (y) = 0.31796 0.46371
# Poissons Ratio (z) = 0.06780 0.29421
#
# Static dielectric constant tensor:
#      x y z
#    x 4.324620 0.000000 0.201480 
#    y 0.000000 3.748660 0.000000 
#    z 0.201480 0.000000 4.598610 
# 
# 
# High freq. dielectric constant tensor:
#      x y z
#    x 1.911880 0.000000 0.007130 
#    y 0.000000 1.875290 0.000000 
#    z 0.007130 0.000000 1.921520 
# 
# From -- ./inp_files/15808.got.cif
#   From: 2010.06.25/outbox.cif.g09.slc.cpg/sg13_8_cif.got.tgz:15808.got - 2010.06.28 04:50:58.
