data_PCOD8121618
_publ_section_title
;
Structure prediction by ZEFSAII (Michael W. Deem and Ramdas Pophale) SiO2 
 PCOD8121618
Probable space group: P 2/C
;
_chemical_formula_sum "Si O2"
_cell_formula_units_Z 16
_cell_length_a 13.771995
_cell_length_b 12.231304
_cell_length_c 12.813361
_cell_angle_alpha 90.000000
_cell_angle_beta 21.236639
_cell_angle_gamma 90.000000
_cell_volume 781.818482
_symmetry_space_group_name_H-M "P 2/C"
_symmetry_group_IT_number 13
_symmetry_cell_setting 'monoclinic'
loop_
_space_group_symop_operation_xyz
x,y,z
-x,y,1/2-z
-x,-y,-z
x,-y,1/2+z
loop_
_atom_site_type_symbol
_atom_site_label
_atom_site_fract_x
_atom_site_fract_y
_atom_site_fract_z
Si Si1 0.174523 0.777645 0.678517
Si Si2 0.600747 0.622703 0.896960
Si Si3 0.086272 0.743382 0.354438
Si Si4 0.000000 0.099786 0.750000
Si Si5 0.500000 0.045630 0.750000
O O1 0.341733 0.667237 0.542227
O O2 0.386166 0.876317 0.455592
O O3 0.000000 0.756483 0.750000
O O4 0.979122 0.806988 0.971427
O O5 0.871662 0.642613 0.556992
O O6 0.500000 0.500000 0.000000
O O7 0.381609 0.695995 0.059578
O O8 0.084009 0.827199 0.262685
O O9 0.250698 0.026753 0.460239
#
# Coordination Sequence:
#
# PCOD8121618 Si02
#       5
#     4   4   4   2   2
#     4  10  23  44  65 100 132 169 227 277 317 401
#     4  10  22  44  72  96 132 170 216 275 342 383
#     4  10  24  43  67  95 141 161 229 270 321 402
#     4  12  26  44  64  98 136 186 214 272 336 380
#     4  12  24  42  68  94 134 180 228 260 340 382
#
# _framework density 20.465108000000001
#
# number of rings (size 3 to 8) (size 9 to 14) (size 15 to 20)
#    1.500    0.000    1.250    3.750    0.000    2.000 
#    2.250    2.500    0.000    0.000    0.000    0.000 
#    0.000    0.000    0.000    0.000    0.000    0.000 
#
# Total GULP energy -198237.650827 kJ/mol
# GULP energy per Si atom -12389.853177 kJ/mol
# Density = 2.041853 g / cm^3
# Si number density = 20.465108 Si / 1000 Ang^3
#
#
#
# Elastic Constant Matrix: (Units=GPa)
#
#
# Indices 1 2 3 4 5 6 
#
# 1 144.8229 75.4284 46.0307 0.0000 -10.4938 0.0000
# 2 75.4284 124.7544 25.2186 0.0000 -12.2269 0.0000
# 3 46.0307 25.2186 80.1227 0.0000 -23.7285 0.0000
# 4 0.0000 0.0000 0.0000 3.0132 0.0000 1.4190
# 5 -10.4938 -12.2269 -23.7285 0.0000 38.2147 0.0000
# 6 0.0000 0.0000 0.0000 1.4190 0.0000 18.7845
#
#
#
# Elastic Compliance Matrix: (Units=1/GPa)
#
#
# Indices 1 2 3 4 5 6 
#
# 1 0.011687 -0.006183 -0.005396 0.000000 -0.002119 0.000000
# 2 -0.006183 0.011885 0.000533 0.000000 0.002436 0.000000
# 3 -0.005396 0.000533 0.018410 0.000000 0.010120 0.000000
# 4 0.000000 0.000000 0.000000 0.344119 0.000000 -0.025995
# 5 -0.002119 0.002436 0.010120 0.000000 0.032649 0.000000
# 6 0.000000 0.000000 0.000000 -0.025995 0.000000 0.055199
#
#
# Mechanical properties :
#
#
# Convention : Reuss Voigt Hill
#
# Bulk Modulus (GPa) = 50.27675 71.45061 60.86368
# Shear Modulus (GPa) = 9.94687 25.53730 17.74208
#
# Velocity S-wave (km/s) = 2.20702 3.53632 2.94758
# Velocity P-wave (km/s) = 5.57808 7.18771 6.43344
#
# Compressibility (1/GPa) = 0.01988991
#
# Stress axis : x y z
#
# Youngs Moduli (GPa) = 85.56796 84.13908 54.31814
#
# Poissons Ratio (x) = 0.52023 0.29308
# Poissons Ratio (y) = 0.52906 -0.02893
# Poissons Ratio (z) = 0.46169 -0.04481
#
# Static dielectric constant tensor:
#      x y z
#    x 3.190340 0.000000 -0.787770 
#    y 0.000000 3.612090 0.000000 
#    z -0.787770 0.000000 2.958530 
# 
# 
# High freq. dielectric constant tensor:
#      x y z
#    x 1.788420 0.000000 -0.021900 
#    y 0.000000 1.788340 0.000000 
#    z -0.021900 0.000000 1.817220 
# 
# From -- ./inp_files/33546.got.cif
#   From: 2010.06.25/outbox.cif.g09.slc.cpg/sg13_17_cif.got.tgz:33546.got - 2010.06.28 04:50:58.
