data_PCOD8121928
_publ_section_title
;
Structure prediction by ZEFSAII (Michael W. Deem and Ramdas Pophale) SiO2 
 PCOD8121928
Probable space group: P 2/C
;
_chemical_formula_sum "Si O2"
_cell_formula_units_Z 20
_cell_length_a 12.995747
_cell_length_b 4.829852
_cell_length_c 12.460884
_cell_angle_alpha 90.000000
_cell_angle_beta 113.044900
_cell_angle_gamma 90.000000
_cell_volume 719.723006
_symmetry_space_group_name_H-M "P 2/C"
_symmetry_group_IT_number 13
_symmetry_cell_setting 'monoclinic'
loop_
_space_group_symop_operation_xyz
x,y,z
-x,y,1/2-z
-x,-y,-z
x,-y,1/2+z
loop_
_atom_site_type_symbol
_atom_site_label
_atom_site_fract_x
_atom_site_fract_y
_atom_site_fract_z
Si Si1 0.003412 0.743516 0.916005
Si Si2 0.771839 0.126025 0.218987
Si Si3 0.383961 0.106487 0.151576
Si Si4 0.383806 0.410151 0.502682
Si Si5 0.900040 0.749657 0.133084
O O1 0.885759 0.741237 0.808549
O O2 0.064382 0.051737 0.960599
O O3 0.098457 0.583331 0.879335
O O4 0.000000 0.500000 0.000000
O O5 0.702914 0.013312 0.292809
O O6 0.702038 0.360929 0.129204
O O7 0.788439 0.865251 0.143818
O O8 0.500000 0.210903 0.250000
O O9 0.409917 0.858551 0.082694
O O10 0.331054 0.358206 0.060502
O O11 0.500000 0.500000 0.500000
O O12 0.000000 0.854119 0.250000
#
# Coordination Sequence:
#
# PCOD8121928 Si02
#       5
#     4   4   4   4   4
#     4  11  25  45  72 108 149 195 263 315 378 461
#     4  11  28  48  84 112 163 213 259 330 407 466
#     4  12  28  50  79 118 159 208 270 325 397 488
#     4  12  28  50  78 116 163 209 264 332 398 475
#     4  10  23  45  68 101 148 191 247 318 372 454
#
# _framework density 27.788468000000002
#
# number of rings (size 3 to 8) (size 9 to 14) (size 15 to 20)
#    0.000    0.800    2.000    3.600    5.600    8.000 
#    0.000    0.000    0.000    0.000    0.000    0.000 
#    0.000    0.000    0.000    0.000    0.000    0.000 
#
# Total GULP energy -247905.938535 kJ/mol
# GULP energy per Si atom -12395.296927 kJ/mol
# Density = 2.772522 g / cm^3
# Si number density = 27.788468 Si / 1000 Ang^3
#
#
#
# Elastic Constant Matrix: (Units=GPa)
#
#
# Indices 1 2 3 4 5 6 
#
# 1 96.3022 39.6132 11.5272 0.0000 0.4767 0.0000
# 2 39.6132 188.6100 45.5711 0.0000 17.2488 0.0000
# 3 11.5272 45.5711 105.4367 0.0000 17.3287 0.0000
# 4 0.0000 0.0000 0.0000 22.9576 0.0000 4.9698
# 5 0.4767 17.2488 17.3287 0.0000 34.7033 0.0000
# 6 0.0000 0.0000 0.0000 4.9698 0.0000 31.7450
#
#
#
# Elastic Compliance Matrix: (Units=1/GPa)
#
#
# Indices 1 2 3 4 5 6 
#
# 1 0.011420 -0.002413 -0.000410 0.000000 0.001248 0.000000
# 2 -0.002413 0.006537 -0.002215 0.000000 -0.002110 0.000000
# 3 -0.000410 -0.002215 0.011226 0.000000 -0.004499 0.000000
# 4 0.000000 0.000000 0.000000 0.045086 0.000000 -0.007058
# 5 0.001248 -0.002110 -0.004499 0.000000 0.032094 0.000000
# 6 0.000000 0.000000 0.000000 -0.007058 0.000000 0.032606
#
#
# Mechanical properties :
#
#
# Convention : Reuss Voigt Hill
#
# Bulk Modulus (GPa) = 52.34117 64.86353 58.60235
# Shear Modulus (GPa) = 32.17205 37.45700 34.81453
#
# Velocity S-wave (km/s) = 3.40626 3.67540 3.54339
# Velocity P-wave (km/s) = 5.86060 6.43460 6.15429
#
# Compressibility (1/GPa) = 0.01910542
#
# Stress axis : x y z
#
# Youngs Moduli (GPa) = 87.56836 152.97799 89.07979
#
# Poissons Ratio (x) = 0.36919 0.03656
# Poissons Ratio (y) = 0.21133 0.19728
# Poissons Ratio (z) = 0.03594 0.33880
#
# Static dielectric constant tensor:
#      x y z
#    x 6.019910 0.000000 -1.309400 
#    y 0.000000 3.004010 0.000000 
#    z -1.309400 0.000000 6.458320 
# 
# 
# High freq. dielectric constant tensor:
#      x y z
#    x 2.135260 0.000000 -0.025560 
#    y 0.000000 2.140420 0.000000 
#    z -0.025560 0.000000 2.145990 
# 
# From -- ./inp_files/48984.got.cif
#   From: 2010.06.25/outbox.cif.g09.slc.cpg/sg13_25_cif.got.tgz:48984.got - 2010.06.28 04:50:58.
