data_PCOD8121785
_publ_section_title
;
Structure prediction by ZEFSAII (Michael W. Deem and Ramdas Pophale) SiO2 
 PCOD8121785
Probable space group: P 2/C
;
_chemical_formula_sum "Si O2"
_cell_formula_units_Z 22
_cell_length_a 15.043541
_cell_length_b 8.447204
_cell_length_c 25.205290
_cell_angle_alpha 90.000000
_cell_angle_beta 18.401758
_cell_angle_gamma 90.000000
_cell_volume 1011.112034
_symmetry_space_group_name_H-M "P 2/C"
_symmetry_group_IT_number 13
_symmetry_cell_setting 'monoclinic'
loop_
_space_group_symop_operation_xyz
x,y,z
-x,y,1/2-z
-x,-y,-z
x,-y,1/2+z
loop_
_atom_site_type_symbol
_atom_site_label
_atom_site_fract_x
_atom_site_fract_y
_atom_site_fract_z
Si Si1 0.201423 0.591787 0.424099
Si Si2 0.500000 0.895007 0.250000
Si Si3 0.775161 0.439384 0.983683
Si Si4 0.604503 0.057450 0.883818
Si Si5 0.392807 0.580622 0.112900
Si Si6 0.256654 0.083178 0.487264
O O1 0.500000 0.502469 0.250000
O O2 0.234700 0.776547 0.386901
O O3 0.133122 0.571489 0.524770
O O4 0.000000 0.500000 0.500000
O O5 0.400118 0.995939 0.356327
O O6 0.712020 0.268052 0.044739
O O7 0.060897 0.424564 0.788965
O O8 0.508493 0.490485 0.099435
O O9 0.510090 0.239492 0.933912
O O10 0.935372 0.033829 0.682792
O O11 0.500000 0.000000 0.000000
O O12 0.436867 0.953510 0.936830
O O13 0.500000 0.500000 0.000000
#
# Coordination Sequence:
#
# PCOD8121785 Si02
#       6
#     4   2   4   4   4   4
#     4  10  23  41  68  93 130 176 223 272 330 402
#     4  10  26  44  68 100 142 178 230 274 354 408
#     4  11  24  43  67  97 132 176 227 276 337 403
#     4  11  25  45  69 100 137 179 230 284 347 409
#     4  11  24  42  68  99 132 173 225 278 337 405
#     4  11  26  44  69 101 139 181 227 284 345 412
#
# _framework density 21.758222
#
# number of rings (size 3 to 8) (size 9 to 14) (size 15 to 20)
#    0.545    0.727    0.000    4.364    6.364   12.364 
#    0.000    0.000    0.000    0.000    0.000    0.000 
#    0.000    0.000    0.000    0.000    0.000    0.000 
#
# Total GULP energy -272559.717028 kJ/mol
# GULP energy per Si atom -12389.078047 kJ/mol
# Density = 2.170870 g / cm^3
# Si number density = 21.758222 Si / 1000 Ang^3
#
#
#
# Elastic Constant Matrix: (Units=GPa)
#
#
# Indices 1 2 3 4 5 6 
#
# 1 141.2025 45.1154 58.8091 0.0000 4.8108 0.0000
# 2 45.1154 129.8145 68.8035 0.0000 10.1517 0.0000
# 3 58.8091 68.8035 100.9407 0.0000 9.9664 0.0000
# 4 0.0000 0.0000 0.0000 43.5509 0.0000 3.6908
# 5 4.8108 10.1517 9.9664 0.0000 48.2702 0.0000
# 6 0.0000 0.0000 0.0000 3.6908 0.0000 34.1640
#
#
#
# Elastic Compliance Matrix: (Units=1/GPa)
#
#
# Indices 1 2 3 4 5 6 
#
# 1 0.009381 -0.000579 -0.005094 0.000000 0.000239 0.000000
# 2 -0.000579 0.012131 -0.007845 0.000000 -0.000874 0.000000
# 3 -0.005094 -0.007845 0.018384 0.000000 -0.001638 0.000000
# 4 0.000000 0.000000 0.000000 0.023174 0.000000 -0.002504
# 5 0.000239 -0.000874 -0.001638 0.000000 0.021215 0.000000
# 6 0.000000 0.000000 0.000000 -0.002504 0.000000 0.029541
#
#
# Mechanical properties :
#
#
# Convention : Reuss Voigt Hill
#
# Bulk Modulus (GPa) = 77.76694 79.71261 78.73978
# Shear Modulus (GPa) = 34.44765 38.47901 36.46333
#
# Velocity S-wave (km/s) = 3.98326 4.20989 4.09815
# Velocity P-wave (km/s) = 7.54812 7.76828 7.65899
#
# Compressibility (1/GPa) = 0.01285893
#
# Stress axis : x y z
#
# Youngs Moduli (GPa) = 106.60409 82.43471 54.39512
#
# Poissons Ratio (x) = 0.04770 0.27710
# Poissons Ratio (y) = 0.06169 0.42674
# Poissons Ratio (z) = 0.54307 0.64672
#
# Static dielectric constant tensor:
#      x y z
#    x 4.066390 0.000000 0.006880 
#    y 0.000000 3.991920 0.000000 
#    z 0.006880 0.000000 4.163260 
# 
# 
# High freq. dielectric constant tensor:
#      x y z
#    x 1.855730 0.000000 0.003410 
#    y 0.000000 1.863850 0.000000 
#    z 0.003410 0.000000 1.870560 
# 
# From -- ./inp_files/87255.got.cif
#   From: 2010.06.25/outbox.cif.g09.slc.cpg/sg13_44_cif.got.tgz:87255.got - 2010.06.28 04:50:58.
