data_PCOD8121594
_publ_section_title
;
Structure prediction by ZEFSAII (Michael W. Deem and Ramdas Pophale) SiO2 
 PCOD8121594
Probable space group: P 2/C
;
_chemical_formula_sum "Si O2"
_cell_formula_units_Z 28
_cell_length_a 9.825397
_cell_length_b 6.718773
_cell_length_c 19.914199
_cell_angle_alpha 90.000000
_cell_angle_beta 73.628021
_cell_angle_gamma 90.000000
_cell_volume 1261.322504
_symmetry_space_group_name_H-M "P 2/C"
_symmetry_group_IT_number 13
_symmetry_cell_setting 'monoclinic'
loop_
_space_group_symop_operation_xyz
x,y,z
-x,y,1/2-z
-x,-y,-z
x,-y,1/2+z
loop_
_atom_site_type_symbol
_atom_site_label
_atom_site_fract_x
_atom_site_fract_y
_atom_site_fract_z
Si Si1 0.335933 0.606740 0.695334
Si Si2 0.786204 0.889362 0.507187
Si Si3 0.500000 0.709619 0.250000
Si Si4 0.580450 0.064662 0.149490
Si Si5 0.825037 0.593823 0.390690
Si Si6 0.971000 0.757085 0.936097
Si Si7 0.846399 0.878103 0.705641
Si Si8 0.000000 0.217934 0.750000
O O1 0.372523 0.434082 0.743995
O O2 0.454931 0.777292 0.675072
O O3 0.309167 0.515168 0.625177
O O4 0.183864 0.700959 0.737483
O O5 0.636234 0.929550 0.565138
O O6 0.761625 0.784128 0.438934
O O7 0.888661 0.748150 0.537507
O O8 0.855575 0.104157 0.487528
O O9 0.534742 0.843957 0.179672
O O10 0.707295 0.124080 0.180078
O O11 0.903028 0.458892 0.435665
O O12 0.941094 0.651132 0.318917
O O13 0.012124 0.842658 0.857138
O O14 0.868744 0.084087 0.741841
#
# Coordination Sequence:
#
# PCOD8121594 Si02
#       8
#     4   4   2   4   4   4   4   2
#     4  12  25  42  69 104 136 177 233 288 336 407
#     4  10  24  45  66  98 135 185 224 277 346 408
#     4  12  22  46  68 100 126 180 236 272 344 396
#     4  11  24  44  70  96 137 182 227 283 331 410
#     4  12  25  41  67 103 137 176 228 279 347 414
#     4  10  22  44  68  96 139 174 225 284 342 411
#     4  11  20  44  68  97 139 169 228 286 346 401
#     4  12  24  40  74 106 138 182 218 298 362 388
#
# _framework density 22.198923000000001
#
# number of rings (size 3 to 8) (size 9 to 14) (size 15 to 20)
#    0.000    0.857    4.286    3.000    0.000    1.714 
#    0.000    1.429    0.000    0.000    0.000    0.000 
#    0.000    0.000    0.000    0.000    0.000    0.000 
#
# Total GULP energy -347166.046321 kJ/mol
# GULP energy per Si atom -12398.787369 kJ/mol
# Density = 2.214840 g / cm^3
# Si number density = 22.198923 Si / 1000 Ang^3
#
#
#
# Elastic Constant Matrix: (Units=GPa)
#
#
# Indices 1 2 3 4 5 6 
#
# 1 59.3632 35.9836 34.7774 0.0000 -3.9965 0.0000
# 2 35.9836 113.7979 52.7080 0.0000 -6.6491 0.0000
# 3 34.7774 52.7080 132.9128 0.0000 -18.7156 0.0000
# 4 0.0000 0.0000 0.0000 42.2357 0.0000 11.6214
# 5 -3.9965 -6.6491 -18.7156 0.0000 33.2489 0.0000
# 6 0.0000 0.0000 0.0000 11.6214 0.0000 34.4721
#
#
#
# Elastic Compliance Matrix: (Units=1/GPa)
#
#
# Indices 1 2 3 4 5 6 
#
# 1 0.022249 -0.005311 -0.003789 0.000000 -0.000520 0.000000
# 2 -0.005311 0.012035 -0.003404 0.000000 -0.000148 0.000000
# 3 -0.003789 -0.003404 0.010540 0.000000 0.004797 0.000000
# 4 0.000000 0.000000 0.000000 0.026098 0.000000 -0.008798
# 5 -0.000520 -0.000148 0.004797 0.000000 0.032684 0.000000
# 6 0.000000 0.000000 0.000000 -0.008798 0.000000 0.031975
#
#
# Mechanical properties :
#
#
# Convention : Reuss Voigt Hill
#
# Bulk Modulus (GPa) = 50.46025 61.44575 55.95300
# Shear Modulus (GPa) = 29.90544 34.16502 32.03523
#
# Velocity S-wave (km/s) = 3.67435 3.92732 3.80293
# Velocity P-wave (km/s) = 6.38603 6.95016 6.67406
#
# Compressibility (1/GPa) = 0.01981758
#
# Stress axis : x y z
#
# Youngs Moduli (GPa) = 44.94523 83.09313 94.87380
#
# Poissons Ratio (x) = 0.44130 0.35946
# Poissons Ratio (y) = 0.23870 0.32292
# Poissons Ratio (z) = 0.17029 0.28282
#
# Static dielectric constant tensor:
#      x y z
#    x 3.867670 0.000000 -0.020760 
#    y 0.000000 4.023560 0.000000 
#    z -0.020760 0.000000 4.324060 
# 
# 
# High freq. dielectric constant tensor:
#      x y z
#    x 1.862350 0.000000 0.005880 
#    y 0.000000 1.880560 0.000000 
#    z 0.005880 0.000000 1.877480 
# 
# From -- ./inp_files/77218.got.cif
#   From: 2010.06.25/outbox.cif.g09.slc.cpg/sg13_39_cif.got.tgz:77218.got - 2010.06.28 04:50:58.
