data_PCOD8121720
_publ_section_title
;
Structure prediction by ZEFSAII (Michael W. Deem and Ramdas Pophale) SiO2 
 PCOD8121720
Probable space group: P 2/C
;
_chemical_formula_sum "Si O2"
_cell_formula_units_Z 24
_cell_length_a 12.880739
_cell_length_b 12.790963
_cell_length_c 17.373196
_cell_angle_alpha 90.000000
_cell_angle_beta 156.788587
_cell_angle_gamma 90.000000
_cell_volume 1128.126272
_symmetry_space_group_name_H-M "P 2/C"
_symmetry_group_IT_number 13
_symmetry_cell_setting 'monoclinic'
loop_
_space_group_symop_operation_xyz
x,y,z
-x,y,1/2-z
-x,-y,-z
x,-y,1/2+z
loop_
_atom_site_type_symbol
_atom_site_label
_atom_site_fract_x
_atom_site_fract_y
_atom_site_fract_z
Si Si1 0.696544 0.366216 0.064512
Si Si2 0.739790 0.485150 0.242443
Si Si3 0.462907 0.145319 0.925084
Si Si4 0.214622 0.388070 0.072867
Si Si5 0.861898 0.851668 0.989841
Si Si6 0.539428 0.927382 0.907175
O O1 0.632170 0.403115 0.107201
O O2 0.000000 0.384151 0.250000
O O3 0.493256 0.441490 0.879680
O O4 0.621749 0.245333 0.002603
O O5 0.858661 0.409734 0.388444
O O6 0.974267 0.555755 0.363467
O O7 0.171795 0.145694 0.691650
O O8 0.591709 0.043943 0.974005
O O9 0.470108 0.145563 0.023237
O O10 0.500000 0.437850 0.250000
O O11 0.233432 0.266499 0.068382
O O12 0.785437 0.904170 0.019186
O O13 0.726965 0.909923 0.824822
#
# Coordination Sequence:
#
# PCOD8121720 Si02
#       6
#     4   4   4   4   4   4
#     4  11  23  41  60  89 127 169 212 258 330 384
#     4  10  23  40  61  92 127 164 208 271 314 387
#     4  11  23  41  64  92 129 169 210 271 321 389
#     4  11  20  38  67  92 125 162 211 262 325 381
#     4  11  21  41  65  97 123 168 216 267 325 390
#     4  10  23  40  65  94 128 165 216 268 324 383
#
# _framework density 21.274214000000001
#
# number of rings (size 3 to 8) (size 9 to 14) (size 15 to 20)
#    0.000    1.333    3.333    3.000    0.000    2.667 
#    0.000    3.333    3.667    0.000    0.000    0.000 
#    0.000    0.000    0.000    0.000    0.000    0.000 
#
# Total GULP energy -297453.804563 kJ/mol
# GULP energy per Si atom -12393.908523 kJ/mol
# Density = 2.122579 g / cm^3
# Si number density = 21.274214 Si / 1000 Ang^3
#
#
#
# Elastic Constant Matrix: (Units=GPa)
#
#
# Indices 1 2 3 4 5 6 
#
# 1 61.8195 26.9371 21.7716 0.0000 -3.9968 0.0000
# 2 26.9371 100.0332 31.6203 0.0000 4.5501 0.0000
# 3 21.7716 31.6203 109.6923 0.0000 22.3541 0.0000
# 4 0.0000 0.0000 0.0000 22.9861 0.0000 -8.4249
# 5 -3.9968 4.5501 22.3541 0.0000 42.9217 0.0000
# 6 0.0000 0.0000 0.0000 -8.4249 0.0000 14.6666
#
#
#
# Elastic Compliance Matrix: (Units=1/GPa)
#
#
# Indices 1 2 3 4 5 6 
#
# 1 0.019557 -0.004359 -0.003457 0.000000 0.004084 0.000000
# 2 -0.004359 0.011982 -0.002514 0.000000 -0.000367 0.000000
# 3 -0.003457 -0.002514 0.011790 0.000000 -0.006196 0.000000
# 4 0.000000 0.000000 0.000000 0.055107 0.000000 0.031655
# 5 0.004084 -0.000367 -0.006196 0.000000 0.026944 0.000000
# 6 0.000000 0.000000 0.000000 0.031655 0.000000 0.086366
#
#
# Mechanical properties :
#
#
# Convention : Reuss Voigt Hill
#
# Bulk Modulus (GPa) = 44.11523 48.02255 46.06889
# Shear Modulus (GPa) = 20.83655 28.86261 24.84958
#
# Velocity S-wave (km/s) = 3.13298 3.68733 3.42140
# Velocity P-wave (km/s) = 5.81970 6.38362 6.10817
#
# Compressibility (1/GPa) = 0.02266791
#
# Stress axis : x y z
#
# Youngs Moduli (GPa) = 51.13189 83.45915 84.81817
#
# Poissons Ratio (x) = 0.36382 0.29324
# Poissons Ratio (y) = 0.22290 0.21323
# Poissons Ratio (z) = 0.17678 0.20981
#
# Static dielectric constant tensor:
#      x y z
#    x 3.577370 0.000000 -0.094120 
#    y 0.000000 3.812820 0.000000 
#    z -0.094120 0.000000 4.202700 
# 
# 
# High freq. dielectric constant tensor:
#      x y z
#    x 1.814300 0.000000 -0.002840 
#    y 0.000000 1.837580 0.000000 
#    z -0.002840 0.000000 1.851810 
# 
# From -- ./inp_files/80198.got.cif
#   From: 2010.06.25/outbox.cif.g09.slc.cpg/sg13_41_cif.got.tgz:80198.got - 2010.06.28 04:50:58.
