data_PCOD8121359
_publ_section_title
;
Structure prediction by ZEFSAII (Michael W. Deem and Ramdas Pophale) SiO2 
 PCOD8121359
Probable space group: P 2/C
;
_chemical_formula_sum "Si O2"
_cell_formula_units_Z 20
_cell_length_a 9.247423
_cell_length_b 11.067164
_cell_length_c 8.365863
_cell_angle_alpha 90.000000
_cell_angle_beta 97.411450
_cell_angle_gamma 90.000000
_cell_volume 849.032317
_symmetry_space_group_name_H-M "P 2/C"
_symmetry_group_IT_number 13
_symmetry_cell_setting 'monoclinic'
loop_
_space_group_symop_operation_xyz
x,y,z
-x,y,1/2-z
-x,-y,-z
x,-y,1/2+z
loop_
_atom_site_type_symbol
_atom_site_label
_atom_site_fract_x
_atom_site_fract_y
_atom_site_fract_z
Si Si1 0.146523 0.274776 0.374670
Si Si2 0.896323 0.075674 0.879554
Si Si3 0.376462 0.660201 0.452684
Si Si4 0.683966 0.573974 0.392878
Si Si5 0.661474 0.869420 0.826807
O O1 0.146336 0.193556 0.532342
O O2 0.184390 0.402607 0.461928
O O3 0.276713 0.229311 0.284312
O O4 0.000000 0.279818 0.250000
O O5 0.000000 0.114701 0.750000
O O6 0.754693 0.992278 0.826271
O O7 0.000000 0.000000 0.000000
O O8 0.545796 0.651275 0.433406
O O9 0.282485 0.616851 0.284192
O O10 0.344445 0.569987 0.598596
O O11 0.338379 0.798879 0.500321
O O12 0.500000 0.906177 0.750000
#
# Coordination Sequence:
#
# PCOD8121359 Si02
#       5
#     4   4   4   4   4
#     4  12  25  45  71  98 139 186 230 281 346 414
#     4  12  25  48  69  94 137 187 226 283 355 405
#     4  10  22  41  70 101 142 174 226 286 339 400
#     4  10  22  42  68 103 136 185 223 276 347 406
#     4  12  24  43  70 103 136 180 233 286 337 412
#
# _framework density 23.556228000000001
#
# number of rings (size 3 to 8) (size 9 to 14) (size 15 to 20)
#    0.000    0.800    6.000    1.200    5.600    0.800 
#    3.600    4.000    0.000    1.200    0.000    0.000 
#    0.000    0.000    0.000    0.000    0.000    0.000 
#
# Total GULP energy -247765.553042 kJ/mol
# GULP energy per Si atom -12388.277652 kJ/mol
# Density = 2.350261 g / cm^3
# Si number density = 23.556228 Si / 1000 Ang^3
#
#
#
# Elastic Constant Matrix: (Units=GPa)
#
#
# Indices 1 2 3 4 5 6 
#
# 1 117.5848 36.2491 38.4005 0.0000 13.6247 0.0000
# 2 36.2491 78.6593 37.6666 0.0000 0.2084 0.0000
# 3 38.4005 37.6666 128.8481 0.0000 3.9777 0.0000
# 4 0.0000 0.0000 0.0000 43.5235 0.0000 1.6211
# 5 13.6247 0.2084 3.9777 0.0000 42.5711 0.0000
# 6 0.0000 0.0000 0.0000 1.6211 0.0000 19.7359
#
#
#
# Elastic Compliance Matrix: (Units=1/GPa)
#
#
# Indices 1 2 3 4 5 6 
#
# 1 0.010749 -0.004022 -0.001928 0.000000 -0.003241 0.000000
# 2 -0.004022 0.016292 -0.003612 0.000000 0.001545 0.000000
# 3 -0.001928 -0.003612 0.009399 0.000000 -0.000244 0.000000
# 4 0.000000 0.000000 0.000000 0.023047 0.000000 -0.001893
# 5 -0.003241 0.001545 -0.000244 0.000000 0.024542 0.000000
# 6 0.000000 0.000000 0.000000 -0.001893 0.000000 0.050824
#
#
# Mechanical properties :
#
#
# Convention : Reuss Voigt Hill
#
# Bulk Modulus (GPa) = 57.74579 61.08051 59.41315
# Shear Modulus (GPa) = 31.29901 35.35116 33.32509
#
# Velocity S-wave (km/s) = 3.64908 3.87811 3.76534
# Velocity P-wave (km/s) = 6.50551 6.78520 6.64682
#
# Compressibility (1/GPa) = 0.01731728
#
# Stress axis : x y z
#
# Youngs Moduli (GPa) = 93.02775 61.38006 106.39467
#
# Poissons Ratio (x) = 0.24687 0.20511
# Poissons Ratio (y) = 0.37416 0.38426
# Poissons Ratio (z) = 0.17934 0.22169
#
# Static dielectric constant tensor:
#      x y z
#    x 4.149660 0.000000 -0.004630 
#    y 0.000000 3.401520 0.000000 
#    z -0.004630 0.000000 4.490550 
# 
# 
# High freq. dielectric constant tensor:
#      x y z
#    x 1.923200 0.000000 -0.001130 
#    y 0.000000 1.923770 0.000000 
#    z -0.001130 0.000000 1.950010 
# 
# From -- ./inp_files/11799.got.cif
#   From: 2010.06.25/outbox.cif.g09.slc.cpg/sg13_6_cif.got.tgz:11799.got - 2010.06.28 04:50:58.
