data_PCOD8121845
_publ_section_title
;
Structure prediction by ZEFSAII (Michael W. Deem and Ramdas Pophale) SiO2 
 PCOD8121845
Probable space group: P 2/C
;
_chemical_formula_sum "Si O2"
_cell_formula_units_Z 26
_cell_length_a 26.680532
_cell_length_b 7.513430
_cell_length_c 9.707162
_cell_angle_alpha 90.000000
_cell_angle_beta 42.146460
_cell_angle_gamma 90.000000
_cell_volume 1305.766983
_symmetry_space_group_name_H-M "P 2/C"
_symmetry_group_IT_number 13
_symmetry_cell_setting 'monoclinic'
loop_
_space_group_symop_operation_xyz
x,y,z
-x,y,1/2-z
-x,-y,-z
x,-y,1/2+z
loop_
_atom_site_type_symbol
_atom_site_label
_atom_site_fract_x
_atom_site_fract_y
_atom_site_fract_z
Si Si1 0.854783 0.182700 0.948918
Si Si2 0.000000 0.041201 0.750000
Si Si3 0.591368 0.158478 0.412275
Si Si4 0.320995 0.504975 0.362559
Si Si5 0.581994 0.828835 0.249286
Si Si6 0.217145 0.448217 0.831457
Si Si7 0.858357 0.879332 0.132106
O O1 0.826964 0.138960 0.850875
O O2 0.945385 0.166365 0.769536
O O3 0.830144 0.376448 0.043053
O O4 0.818257 0.043889 0.133026
O O5 0.052076 0.915063 0.547798
O O6 0.642967 0.323407 0.266268
O O7 0.505895 0.199577 0.549965
O O8 0.602037 0.119405 0.552064
O O9 0.615490 0.983490 0.278079
O O10 0.384958 0.639845 0.276424
O O11 0.269445 0.461859 0.594644
O O12 0.269862 0.598066 0.352036
O O13 0.156895 0.294817 0.927883
#
# Coordination Sequence:
#
# PCOD8121845 Si02
#       7
#     4   2   4   4   4   4   4
#     4  10  23  43  66  96 124 165 215 263 319 379
#     4   8  22  42  74  92 122 170 208 276 316 364
#     4  10  23  43  68  96 125 170 223 264 317 372
#     4  12  25  44  60  96 133 177 207 262 324 381
#     4  10  23  43  68  95 127 169 220 271 309 376
#     4  12  26  41  63  95 135 168 216 257 325 389
#     4  10  23  43  66  95 125 166 215 261 320 379
#
# _framework density 19.911667999999999
#
# number of rings (size 3 to 8) (size 9 to 14) (size 15 to 20)
#    0.923    0.615    3.077    0.923    4.308    3.077 
#    0.000    1.538    0.000    0.000    0.000    0.000 
#    0.000    0.000    0.000    0.000    0.000    0.000 
#
# Total GULP energy -322307.400784 kJ/mol
# GULP energy per Si atom -12396.438492 kJ/mol
# Density = 1.986635 g / cm^3
# Si number density = 19.911668 Si / 1000 Ang^3
#
#
#
# Elastic Constant Matrix: (Units=GPa)
#
#
# Indices 1 2 3 4 5 6 
#
# 1 91.9996 31.8933 32.2923 0.0000 13.9311 0.0000
# 2 31.8933 96.6058 19.9994 0.0000 -3.4695 0.0000
# 3 32.2923 19.9994 72.0971 0.0000 8.1884 0.0000
# 4 0.0000 0.0000 0.0000 22.0891 0.0000 14.8395
# 5 13.9311 -3.4695 8.1884 0.0000 32.9781 0.0000
# 6 0.0000 0.0000 0.0000 14.8395 0.0000 20.4972
#
#
#
# Elastic Compliance Matrix: (Units=1/GPa)
#
#
# Indices 1 2 3 4 5 6 
#
# 1 0.014830 -0.004081 -0.004888 0.000000 -0.005480 0.000000
# 2 -0.004081 0.012230 -0.001962 0.000000 0.003498 0.000000
# 3 -0.004888 -0.001962 0.016868 0.000000 -0.002330 0.000000
# 4 0.000000 0.000000 0.000000 0.088139 0.000000 -0.063811
# 5 -0.005480 0.003498 -0.002330 0.000000 0.033585 0.000000
# 6 0.000000 0.000000 0.000000 -0.063811 0.000000 0.094985
#
#
# Mechanical properties :
#
#
# Convention : Reuss Voigt Hill
#
# Bulk Modulus (GPa) = 45.31655 47.67472 46.49564
# Shear Modulus (GPa) = 17.25003 26.88071 22.06537
#
# Velocity S-wave (km/s) = 2.94654 3.67822 3.33252
# Velocity P-wave (km/s) = 5.86381 6.48337 6.18136
#
# Compressibility (1/GPa) = 0.02206699
#
# Stress axis : x y z
#
# Youngs Moduli (GPa) = 67.43163 81.76341 59.28260
#
# Poissons Ratio (x) = 0.33366 0.28977
# Poissons Ratio (y) = 0.27518 0.11632
# Poissons Ratio (z) = 0.32960 0.16043
#
# Static dielectric constant tensor:
#      x y z
#    x 3.758400 0.000000 0.150140 
#    y 0.000000 3.604160 0.000000 
#    z 0.150140 0.000000 3.621940 
# 
# 
# High freq. dielectric constant tensor:
#      x y z
#    x 1.786400 0.000000 0.007940 
#    y 0.000000 1.775720 0.000000 
#    z 0.007940 0.000000 1.777620 
# 
# From -- ./inp_files/23862.got.cif
#   From: 2010.06.25/outbox.cif.g09.slc.cpg/sg13_12_cif.got.tgz:23862.got - 2010.06.28 04:50:58.
