data_PCOD8121371
_publ_section_title
;
Structure prediction by ZEFSAII (Michael W. Deem and Ramdas Pophale) SiO2 
 PCOD8121371
Probable space group: P 2/C
;
_chemical_formula_sum "Si O2"
_cell_formula_units_Z 28
_cell_length_a 8.135878
_cell_length_b 23.437521
_cell_length_c 12.503580
_cell_angle_alpha 90.000000
_cell_angle_beta 35.464117
_cell_angle_gamma 90.000000
_cell_volume 1383.320933
_symmetry_space_group_name_H-M "P 2/C"
_symmetry_group_IT_number 13
_symmetry_cell_setting 'monoclinic'
loop_
_space_group_symop_operation_xyz
x,y,z
-x,y,1/2-z
-x,-y,-z
x,-y,1/2+z
loop_
_atom_site_type_symbol
_atom_site_label
_atom_site_fract_x
_atom_site_fract_y
_atom_site_fract_z
Si Si1 0.327943 0.054927 0.058934
Si Si2 0.000000 0.428725 0.250000
Si Si3 0.730183 0.501991 0.214519
Si Si4 0.493261 0.376375 0.873097
Si Si5 0.529128 0.172198 0.404011
Si Si6 0.500000 0.104110 0.750000
Si Si7 0.976149 0.814221 0.490824
Si Si8 0.740025 0.737346 0.310677
O O1 0.415335 0.109570 0.081827
O O2 0.000000 0.041901 0.250000
O O3 0.402111 0.063804 0.896776
O O4 0.500000 0.000000 0.000000
O O5 0.774332 0.465044 0.298939
O O6 0.827183 0.389315 0.422517
O O7 0.500000 0.479433 0.250000
O O8 0.674435 0.565797 0.285647
O O9 0.000000 0.500000 0.000000
O O10 0.500000 0.352852 0.750000
O O11 0.610634 0.325658 0.883128
O O12 0.248532 0.167740 0.480786
O O13 0.486799 0.216245 0.524883
O O14 0.806700 0.193759 0.191540
O O15 0.777396 0.139612 0.634329
O O16 0.137954 0.755743 0.370629
O O17 0.000000 0.734704 0.250000
#
# Coordination Sequence:
#
# PCOD8121371 Si02
#       8
#     4   2   4   4   4   2   4   4
#     4  12  28  44  67 101 133 171 221 272 327 400
#     4  12  24  46  70  96 138 194 218 290 354 394
#     4  11  23  44  70  98 135 181 231 280 344 416
#     4  11  25  42  63 103 134 171 234 278 334 409
#     4  10  22  46  67  96 132 174 223 264 336 400
#     4  12  24  42  68 100 128 178 218 266 342 380
#     4  10  22  41  72  93 131 175 216 271 328 400
#     4  10  23  41  68  97 135 178 217 281 339 391
#
# _framework density 20.241146000000001
#
# number of rings (size 3 to 8) (size 9 to 14) (size 15 to 20)
#    0.000    1.143    5.714    0.429    4.000    2.857 
#    1.286    0.000    0.000    0.000    0.000    0.000 
#    0.000    0.000    0.000    0.000    0.000    0.000 
#
# Total GULP energy -347073.941360 kJ/mol
# GULP energy per Si atom -12395.497906 kJ/mol
# Density = 2.019508 g / cm^3
# Si number density = 20.241146 Si / 1000 Ang^3
#
#
#
# Elastic Constant Matrix: (Units=GPa)
#
#
# Indices 1 2 3 4 5 6 
#
# 1 74.9954 40.8864 51.7913 0.0000 8.8546 0.0000
# 2 40.8864 125.3308 70.0387 0.0000 3.6160 0.0000
# 3 51.7913 70.0387 173.4153 0.0000 3.0741 0.0000
# 4 0.0000 0.0000 0.0000 -73.1269 0.0000 -60.9374
# 5 8.8546 3.6160 3.0741 0.0000 34.5338 0.0000
# 6 0.0000 0.0000 0.0000 -60.9374 0.0000 -4.4848
#
#
#
# Elastic Compliance Matrix: (Units=1/GPa)
#
#
# Indices 1 2 3 4 5 6 
#
# 1 0.018585 -0.003726 -0.003974 0.000000 -0.004021 0.000000
# 2 -0.003726 0.011069 -0.003359 0.000000 0.000095 0.000000
# 3 -0.003974 -0.003359 0.008299 0.000000 0.000632 0.000000
# 4 0.000000 0.000000 0.000000 0.001325 0.000000 -0.018000
# 5 -0.004021 0.000095 0.000632 0.000000 0.029922 0.000000
# 6 0.000000 0.000000 0.000000 -0.018000 0.000000 0.021601
#
#
# Mechanical properties :
#
#
# Convention : Reuss Voigt Hill
#
# Bulk Modulus (GPa) = 63.15714 77.68602 70.42158
# Shear Modulus (GPa) = 42.30204 5.45276 23.87740
#
# Velocity S-wave (km/s) = 4.57651 1.64309 3.43832
# Velocity P-wave (km/s) = 7.69389 6.48562 7.11545
#
# Compressibility (1/GPa) = 0.01583352
#
# Stress axis : x y z
#
# Youngs Moduli (GPa) = 53.80709 90.34242 120.49534
#
# Poissons Ratio (x) = 0.33661 0.47889
# Poissons Ratio (y) = 0.20048 0.40480
# Poissons Ratio (z) = 0.21385 0.30350
#
# Static dielectric constant tensor:
#      x y z
#    x 3.627560 0.000000 0.195840 
#    y 0.000000 3.733650 0.000000 
#    z 0.195840 0.000000 3.531800 
# 
# 
# High freq. dielectric constant tensor:
#      x y z
#    x 1.795430 0.000000 0.004610 
#    y 0.000000 1.779110 0.000000 
#    z 0.004610 0.000000 1.817210 
# 
# From -- ./inp_files/48228.got.cif
#   From: 2010.06.25/outbox.cif.g09.slc.cpg/sg13_25_cif.got.tgz:48228.got - 2010.06.28 04:50:58.
