data_PCOD8121687
_publ_section_title
;
Structure prediction by ZEFSAII (Michael W. Deem and Ramdas Pophale) SiO2 
 PCOD8121687
Probable space group: P 2/C
;
_chemical_formula_sum "Si O2"
_cell_formula_units_Z 32
_cell_length_a 11.540515
_cell_length_b 9.156356
_cell_length_c 19.219087
_cell_angle_alpha 90.000000
_cell_angle_beta 126.903697
_cell_angle_gamma 90.000000
_cell_volume 1623.971245
_symmetry_space_group_name_H-M "P 2/C"
_symmetry_group_IT_number 13
_symmetry_cell_setting 'monoclinic'
loop_
_space_group_symop_operation_xyz
x,y,z
-x,y,1/2-z
-x,-y,-z
x,-y,1/2+z
loop_
_atom_site_type_symbol
_atom_site_label
_atom_site_fract_x
_atom_site_fract_y
_atom_site_fract_z
Si Si1 0.965270 0.149376 0.846882
Si Si2 0.501340 0.346074 0.964177
Si Si3 0.424102 0.104843 0.418565
Si Si4 0.913028 0.104843 0.418565
Si Si5 0.603336 0.560785 0.353336
Si Si6 0.397443 0.217991 0.147443
Si Si7 0.072986 0.346074 0.535823
Si Si8 0.228493 0.149376 0.846881
O O1 0.980392 0.266832 0.913564
O O2 0.859091 0.215089 0.750000
O O3 0.126075 0.125846 0.876075
O O4 0.901554 0.988694 0.843894
O O5 0.537738 0.359300 0.896471
O O6 0.346737 0.266832 0.913564
O O7 0.500000 0.500000 0.000000
O O8 0.615924 0.250579 0.051396
O O9 0.528489 0.142611 0.391899
O O10 0.500000 0.000000 0.500000
O O11 0.286234 0.011307 0.343894
O O12 0.755309 0.142611 0.391899
O O13 0.013133 0.250579 0.448604
O O14 0.000000 0.000000 0.500000
O O15 0.500000 0.589842 0.250000
O O16 0.625376 0.389604 0.375376
O O17 0.755205 0.640700 0.396471
O O18 0.500000 0.194465 0.250000
O O19 0.000000 0.500000 0.500000
#
# Coordination Sequence:
#
# PCOD8121687 Si02
#       8
#     4   4   4   4   4   4   4   4
#     4  10  23  42  62  87 126 164 205 254 309 375
#     4  11  23  39  65  92 128 160 208 257 312 370
#     4  10  23  37  64  90 122 162 207 256 312 371
#     4  10  23  37  64  90 122 162 207 256 312 371
#     4  11  24  41  65  95 128 168 209 258 317 377
#     4  11  22  41  63  91 128 164 209 262 315 375
#     4  11  23  39  65  92 128 160 208 257 312 370
#     4  10  23  42  62  87 126 164 205 254 309 375
#
# _framework density 19.704782000000002
#
# number of rings (size 3 to 8) (size 9 to 14) (size 15 to 20)
#    0.000    1.500    2.500    1.500   10.500    3.000 
#    0.000    6.250    0.000    3.000    0.000    0.000 
#    0.000    0.000    0.000    0.000    0.000    0.000 
#
# Total GULP energy -396570.922784 kJ/mol
# GULP energy per Si atom -12392.841337 kJ/mol
# Density = 1.965993 g / cm^3
# Si number density = 19.704782 Si / 1000 Ang^3
#
#
#
# Elastic Constant Matrix: (Units=GPa)
#
#
# Indices 1 2 3 4 5 6 
#
# 1 152.6067 64.2525 54.9900 0.0000 1.2905 0.0000
# 2 64.2525 142.3760 49.4545 0.0000 0.6930 0.0000
# 3 54.9900 49.4545 89.4298 0.0000 1.6681 0.0000
# 4 0.0000 0.0000 0.0000 36.4971 0.0000 0.1032
# 5 1.2905 0.6930 1.6681 0.0000 35.0118 0.0000
# 6 0.0000 0.0000 0.0000 0.1032 0.0000 38.7010
#
#
#
# Elastic Compliance Matrix: (Units=1/GPa)
#
#
# Indices 1 2 3 4 5 6 
#
# 1 0.009188 -0.002704 -0.004153 0.000000 -0.000087 0.000000
# 2 -0.002704 0.009489 -0.003587 0.000000 0.000083 0.000000
# 3 -0.004153 -0.003587 0.015729 0.000000 -0.000525 0.000000
# 4 0.000000 0.000000 0.000000 0.027400 0.000000 -0.000073
# 5 -0.000087 0.000083 -0.000525 0.000000 0.028588 0.000000
# 6 0.000000 0.000000 0.000000 -0.000073 0.000000 0.025839
#
#
# Mechanical properties :
#
#
# Convention : Reuss Voigt Hill
#
# Bulk Modulus (GPa) = 73.96612 80.20073 77.08342
# Shear Modulus (GPa) = 35.30396 36.42302 35.86349
#
# Velocity S-wave (km/s) = 4.23737 4.30401 4.27082
# Velocity P-wave (km/s) = 7.84596 8.09252 7.97019
#
# Compressibility (1/GPa) = 0.01351970
#
# Stress axis : x y z
#
# Youngs Moduli (GPa) = 108.83309 105.38348 63.57704
#
# Poissons Ratio (x) = 0.28491 0.26405
# Poissons Ratio (y) = 0.29424 0.22803
# Poissons Ratio (z) = 0.45201 0.37797
#
# Static dielectric constant tensor:
#      x y z
#    x 3.691940 0.000000 -0.034000 
#    y 0.000000 3.728670 0.000000 
#    z -0.034000 0.000000 4.417690 
# 
# 
# High freq. dielectric constant tensor:
#      x y z
#    x 1.764710 0.000000 -0.000730 
#    y 0.000000 1.777650 0.000000 
#    z -0.000730 0.000000 1.780320 
# 
# From -- ./inp_files/78318.got.cif
#   From: 2010.06.25/outbox.cif.g09.slc.cpg/sg13_40_cif.got.tgz:78318.got - 2010.06.28 04:50:58.
