data_PCOD8121896
_publ_section_title
;
Structure prediction by ZEFSAII (Michael W. Deem and Ramdas Pophale) SiO2 
 PCOD8121896
Probable space group: P 2/C
;
_chemical_formula_sum "Si O2"
_cell_formula_units_Z 28
_cell_length_a 8.267297
_cell_length_b 6.040996
_cell_length_c 25.402164
_cell_angle_alpha 90.000000
_cell_angle_beta 104.489325
_cell_angle_gamma 90.000000
_cell_volume 1228.302435
_symmetry_space_group_name_H-M "P 2/C"
_symmetry_group_IT_number 13
_symmetry_cell_setting 'monoclinic'
loop_
_space_group_symop_operation_xyz
x,y,z
-x,y,1/2-z
-x,-y,-z
x,-y,1/2+z
loop_
_atom_site_type_symbol
_atom_site_label
_atom_site_fract_x
_atom_site_fract_y
_atom_site_fract_z
Si Si1 0.679590 0.936330 0.993225
Si Si2 0.867536 0.172113 0.693950
Si Si3 0.336488 0.455006 0.367080
Si Si4 0.463051 0.073999 0.306994
Si Si5 0.111086 0.881898 0.903038
Si Si6 0.866963 0.404637 0.447558
Si Si7 0.638630 0.756638 0.397417
O O1 0.814706 0.940315 0.050572
O O2 0.718232 0.120666 0.953365
O O3 0.500000 0.000000 0.000000
O O4 0.708737 0.699136 0.967213
O O5 0.821650 0.419360 0.671361
O O6 0.000000 0.199628 0.750000
O O7 0.706229 0.061429 0.705745
O O8 0.939751 0.014788 0.653584
O O9 0.442226 0.308714 0.334339
O O10 0.259219 0.297545 0.405584
O O11 0.462795 0.640683 0.399838
O O12 0.500000 0.128565 0.250000
O O13 0.608146 0.924248 0.346172
O O14 0.948852 0.774662 0.915656
O O15 0.786366 0.579330 0.399558
O O16 0.000000 0.500000 0.500000
#
# Coordination Sequence:
#
# PCOD8121896 Si02
#       7
#     4   4   4   4   4   4   4
#     4  12  25  43  69  97 139 187 228 283 346 413
#     4  10  24  44  69  98 137 183 231 288 357 410
#     4  10  23  44  69 101 133 186 237 283 351 428
#     4  10  23  45  68  99 138 180 237 290 340 418
#     4  11  25  43  68  99 145 176 231 290 346 418
#     4  12  27  43  68 107 140 181 233 285 355 419
#     4  11  24  43  68  99 140 181 230 280 349 412
#
# _framework density 22.795688999999999
#
# number of rings (size 3 to 8) (size 9 to 14) (size 15 to 20)
#    0.000    1.143    1.429    4.714    4.000    9.143 
#    0.000    1.429    0.000    0.000    0.000    0.000 
#    0.000    0.000    0.000    0.000    0.000    0.000 
#
# Total GULP energy -347109.383399 kJ/mol
# GULP energy per Si atom -12396.763693 kJ/mol
# Density = 2.274380 g / cm^3
# Si number density = 22.795689 Si / 1000 Ang^3
#
#
#
# Elastic Constant Matrix: (Units=GPa)
#
#
# Indices 1 2 3 4 5 6 
#
# 1 88.6160 30.7991 39.4090 0.0000 -2.0986 0.0000
# 2 30.7991 100.2064 34.4292 0.0000 2.9954 0.0000
# 3 39.4090 34.4292 110.7634 0.0000 9.8079 0.0000
# 4 0.0000 0.0000 0.0000 16.3610 0.0000 11.6724
# 5 -2.0986 2.9954 9.8079 0.0000 46.2804 0.0000
# 6 0.0000 0.0000 0.0000 11.6724 0.0000 43.8080
#
#
#
# Elastic Compliance Matrix: (Units=1/GPa)
#
#
# Indices 1 2 3 4 5 6 
#
# 1 0.014272 -0.002957 -0.004314 0.000000 0.001753 0.000000
# 2 -0.002957 0.011785 -0.002580 0.000000 -0.000350 0.000000
# 3 -0.004314 -0.002580 0.011585 0.000000 -0.002484 0.000000
# 4 0.000000 0.000000 0.000000 0.075466 0.000000 -0.020108
# 5 0.001753 -0.000350 -0.002484 0.000000 0.022236 0.000000
# 6 0.000000 0.000000 0.000000 -0.020108 0.000000 0.028184
#
#
# Mechanical properties :
#
#
# Convention : Reuss Voigt Hill
#
# Bulk Modulus (GPa) = 55.74044 56.54005 56.14025
# Shear Modulus (GPa) = 26.42536 34.28642 30.35589
#
# Velocity S-wave (km/s) = 3.40843 3.88245 3.65314
# Velocity P-wave (km/s) = 6.32417 6.70482 6.51728
#
# Compressibility (1/GPa) = 0.01794029
#
# Stress axis : x y z
#
# Youngs Moduli (GPa) = 70.06529 84.85226 86.31724
#
# Poissons Ratio (x) = 0.25089 0.37239
# Poissons Ratio (y) = 0.20717 0.22272
# Poissons Ratio (z) = 0.30227 0.21894
#
# Static dielectric constant tensor:
#      x y z
#    x 4.039740 0.000000 0.055910 
#    y 0.000000 4.362460 0.000000 
#    z 0.055910 0.000000 4.173430 
# 
# 
# High freq. dielectric constant tensor:
#      x y z
#    x 1.897770 0.000000 0.007590 
#    y 0.000000 1.913840 0.000000 
#    z 0.007590 0.000000 1.892070 
# 
# From -- ./inp_files/90872.got.cif
#   From: 2010.06.25/outbox.cif.g09.slc.cpg/sg13_46_cif.got.tgz:90872.got - 2010.06.28 04:50:58.
