data_PCOD8121936
_publ_section_title
;
Structure prediction by ZEFSAII (Michael W. Deem and Ramdas Pophale) SiO2 
 PCOD8121936
Probable space group: P 2/C
;
_chemical_formula_sum "Si O2"
_cell_formula_units_Z 20
_cell_length_a 8.236850
_cell_length_b 11.833075
_cell_length_c 8.941704
_cell_angle_alpha 90.000000
_cell_angle_beta 92.717545
_cell_angle_gamma 90.000000
_cell_volume 870.543310
_symmetry_space_group_name_H-M "P 2/C"
_symmetry_group_IT_number 13
_symmetry_cell_setting 'monoclinic'
loop_
_space_group_symop_operation_xyz
x,y,z
-x,y,1/2-z
-x,-y,-z
x,-y,1/2+z
loop_
_atom_site_type_symbol
_atom_site_label
_atom_site_fract_x
_atom_site_fract_y
_atom_site_fract_z
Si Si1 0.826023 0.866339 0.543413
Si Si2 0.323681 0.628805 0.919619
Si Si3 0.118389 0.211368 0.892412
Si Si4 0.689089 0.973839 0.258542
Si Si5 0.701168 0.599858 0.920719
O O1 0.752247 0.742115 0.518475
O O2 0.735691 0.953915 0.431095
O O3 0.016616 0.861020 0.510479
O O4 0.791843 0.916555 0.706725
O O5 0.517121 0.640770 0.931967
O O6 0.252236 0.606645 0.751307
O O7 0.270648 0.528205 0.026543
O O8 0.267698 0.135976 0.839474
O O9 0.000000 0.244091 0.750000
O O10 0.184006 0.323237 0.973124
O O11 0.500000 0.002667 0.250000
#
# Coordination Sequence:
#
# PCOD8121936 Si02
#       5
#     4   4   4   4   4
#     4  11  25  43  65 103 137 179 226 279 343 404
#     4  10  24  43  72 101 131 178 234 277 340 398
#     4  10  24  44  67 101 141 182 221 279 347 407
#     4  11  24  42  70  94 136 182 234 278 328 401
#     4  10  23  45  70  99 138 175 227 287 333 405
#
# _framework density 22.974157999999999
#
# number of rings (size 3 to 8) (size 9 to 14) (size 15 to 20)
#    0.000    1.600    0.000    2.400   11.200    1.600 
#    0.000    0.000    0.000    0.000    0.000    0.000 
#    0.000    0.000    0.000    0.000    0.000    0.000 
#
# Total GULP energy -248074.632920 kJ/mol
# GULP energy per Si atom -12403.731646 kJ/mol
# Density = 2.292187 g / cm^3
# Si number density = 22.974158 Si / 1000 Ang^3
#
#
#
# Elastic Constant Matrix: (Units=GPa)
#
#
# Indices 1 2 3 4 5 6 
#
# 1 68.5297 22.1343 45.5351 0.0000 -3.2731 0.0000
# 2 22.1343 81.2405 53.7563 0.0000 11.9414 0.0000
# 3 45.5351 53.7563 105.7886 0.0000 -0.8275 0.0000
# 4 0.0000 0.0000 0.0000 44.6995 0.0000 0.0468
# 5 -3.2731 11.9414 -0.8275 0.0000 31.0198 0.0000
# 6 0.0000 0.0000 0.0000 0.0468 0.0000 20.1340
#
#
#
# Elastic Compliance Matrix: (Units=1/GPa)
#
#
# Indices 1 2 3 4 5 6 
#
# 1 0.020553 -0.000066 -0.008798 0.000000 0.001960 0.000000
# 2 -0.000066 0.020410 -0.010406 0.000000 -0.008142 0.000000
# 3 -0.008798 -0.010406 0.018555 0.000000 0.003573 0.000000
# 4 0.000000 0.000000 0.000000 0.022372 0.000000 -0.000052
# 5 0.001960 -0.008142 0.003573 0.000000 0.035674 0.000000
# 6 0.000000 0.000000 0.000000 -0.000052 0.000000 0.049667
#
#
# Mechanical properties :
#
#
# Convention : Reuss Voigt Hill
#
# Bulk Modulus (GPa) = 47.67015 55.37891 51.52453
# Shear Modulus (GPa) = 23.50027 28.11289 25.80658
#
# Velocity S-wave (km/s) = 3.20175 3.50190 3.35518
# Velocity P-wave (km/s) = 5.87050 6.36461 6.12254
#
# Compressibility (1/GPa) = 0.02097749
#
# Stress axis : x y z
#
# Youngs Moduli (GPa) = 48.65498 48.99643 53.89257
#
# Poissons Ratio (x) = 0.00326 0.47412
# Poissons Ratio (y) = 0.00323 0.56082
# Poissons Ratio (z) = 0.42805 0.50987
#
# Static dielectric constant tensor:
#      x y z
#    x 4.037100 0.000000 -0.118790 
#    y 0.000000 3.987240 0.000000 
#    z -0.118790 0.000000 4.314780 
# 
# 
# High freq. dielectric constant tensor:
#      x y z
#    x 1.903720 0.000000 -0.005350 
#    y 0.000000 1.910190 0.000000 
#    z -0.005350 0.000000 1.920600 
# 
# From -- ./inp_files/11747.got.cif
#   From: 2010.06.25/outbox.cif.g09.slc.cpg/sg13_6_cif.got.tgz:11747.got - 2010.06.28 04:50:58.
