data_PCOD8121303
_publ_section_title
;
Structure prediction by ZEFSAII (Michael W. Deem and Ramdas Pophale) SiO2 
 PCOD8121303
Probable space group: P 2/C
;
_chemical_formula_sum "Si O2"
_cell_formula_units_Z 28
_cell_length_a 8.607329
_cell_length_b 11.514281
_cell_length_c 14.774945
_cell_angle_alpha 90.000000
_cell_angle_beta 123.184761
_cell_angle_gamma 90.000000
_cell_volume 1225.490124
_symmetry_space_group_name_H-M "P 2/C"
_symmetry_group_IT_number 13
_symmetry_cell_setting 'monoclinic'
loop_
_space_group_symop_operation_xyz
x,y,z
-x,y,1/2-z
-x,-y,-z
x,-y,1/2+z
loop_
_atom_site_type_symbol
_atom_site_label
_atom_site_fract_x
_atom_site_fract_y
_atom_site_fract_z
Si Si1 0.451534 0.776292 0.863495
Si Si2 0.298079 0.827256 0.999338
Si Si3 0.361164 0.558574 0.525329
Si Si4 0.312416 0.361563 0.642250
Si Si5 0.070883 0.131188 0.179644
Si Si6 0.038488 0.722772 0.365149
Si Si7 0.208628 0.076971 0.040018
O O1 0.516255 0.643647 0.871807
O O2 0.252950 0.792977 0.753779
O O3 0.604058 0.859182 0.866813
O O4 0.449647 0.807324 0.969940
O O5 0.360863 0.759989 0.108224
O O6 0.272427 0.964121 0.006645
O O7 0.095512 0.780223 0.900805
O O8 0.500000 0.500000 0.500000
O O9 0.259724 0.461245 0.553383
O O10 0.206705 0.631580 0.422339
O O11 0.500000 0.402164 0.750000
O O12 0.144005 0.342148 0.656604
O O13 0.100003 0.045874 0.100797
O O14 0.000000 0.065723 0.250000
O O15 0.085147 0.837327 0.438646
O O16 0.000000 0.761168 0.250000
#
# Coordination Sequence:
#
# PCOD8121303 Si02
#       7
#     4   4   4   4   4   4   4
#     4  10  23  42  72  98 134 178 237 288 357 425
#     4  11  23  45  65 103 142 184 227 297 352 427
#     4  11  23  47  72  97 138 178 237 298 357 420
#     4  12  26  45  69 101 146 185 240 292 359 421
#     4  10  22  41  65 100 137 178 234 284 350 419
#     4  11  26  46  71 105 143 188 238 293 363 425
#     4  11  23  43  70 100 146 183 234 293 353 429
#
# _framework density 22.848001
#
# number of rings (size 3 to 8) (size 9 to 14) (size 15 to 20)
#    0.000    1.143    2.857    2.571    2.000    5.143 
#    5.143    0.000    0.000    0.000    0.000    0.000 
#    0.000    0.000    0.000    0.000    0.000    0.000 
#
# Total GULP energy -347105.996392 kJ/mol
# GULP energy per Si atom -12396.642728 kJ/mol
# Density = 2.279600 g / cm^3
# Si number density = 22.848001 Si / 1000 Ang^3
#
#
#
# Elastic Constant Matrix: (Units=GPa)
#
#
# Indices 1 2 3 4 5 6 
#
# 1 121.1175 39.2856 37.6791 0.0000 -23.9087 0.0000
# 2 39.2856 115.1997 32.7218 0.0000 -3.4841 0.0000
# 3 37.6791 32.7218 108.8786 0.0000 -10.0164 0.0000
# 4 0.0000 0.0000 0.0000 14.0254 0.0000 -6.1979
# 5 -23.9087 -3.4841 -10.0164 0.0000 49.4339 0.0000
# 6 0.0000 0.0000 0.0000 -6.1979 0.0000 31.5068
#
#
#
# Elastic Compliance Matrix: (Units=1/GPa)
#
#
# Indices 1 2 3 4 5 6 
#
# 1 0.010852 -0.002859 -0.002478 0.000000 0.004545 0.000000
# 2 -0.002859 0.010245 -0.002191 0.000000 -0.001105 0.000000
# 3 -0.002478 -0.002191 0.010777 0.000000 0.000831 0.000000
# 4 0.000000 0.000000 0.000000 0.078087 0.000000 0.015361
# 5 0.004545 -0.001105 0.000831 0.000000 0.022518 0.000000
# 6 0.000000 0.000000 0.000000 0.015361 0.000000 0.034761
#
#
# Mechanical properties :
#
#
# Convention : Reuss Voigt Hill
#
# Bulk Modulus (GPa) = 59.46447 62.72987 61.09717
# Shear Modulus (GPa) = 26.60962 34.69386 30.65174
#
# Velocity S-wave (km/s) = 3.41638 3.90097 3.66669
# Velocity P-wave (km/s) = 6.45328 6.91412 6.68767
#
# Compressibility (1/GPa) = 0.01681677
#
# Stress axis : x y z
#
# Youngs Moduli (GPa) = 92.14887 97.61224 92.79039
#
# Poissons Ratio (x) = 0.27912 0.22994
# Poissons Ratio (y) = 0.26349 0.20330
# Poissons Ratio (z) = 0.22835 0.21386
#
# Static dielectric constant tensor:
#      x y z
#    x 4.495260 0.000000 0.010870 
#    y 0.000000 3.903970 0.000000 
#    z 0.010870 0.000000 4.306160 
# 
# 
# High freq. dielectric constant tensor:
#      x y z
#    x 1.929500 0.000000 -0.001390 
#    y 0.000000 1.880830 0.000000 
#    z -0.001390 0.000000 1.906680 
# 
# From -- ./inp_files/47328.got.cif
#   From: 2010.06.25/outbox.cif.g09.slc.cpg/sg13_24_cif.got.tgz:47328.got - 2010.06.28 04:50:58.
