data_PCOD8121714
_publ_section_title
;
Structure prediction by ZEFSAII (Michael W. Deem and Ramdas Pophale) SiO2 
 PCOD8121714
Probable space group: P 2/C
;
_chemical_formula_sum "Si O2"
_cell_formula_units_Z 28
_cell_length_a 11.289007
_cell_length_b 14.636120
_cell_length_c 9.266423
_cell_angle_alpha 90.000000
_cell_angle_beta 120.456074
_cell_angle_gamma 90.000000
_cell_volume 1319.806207
_symmetry_space_group_name_H-M "P 2/C"
_symmetry_group_IT_number 13
_symmetry_cell_setting 'monoclinic'
loop_
_space_group_symop_operation_xyz
x,y,z
-x,y,1/2-z
-x,-y,-z
x,-y,1/2+z
loop_
_atom_site_type_symbol
_atom_site_label
_atom_site_fract_x
_atom_site_fract_y
_atom_site_fract_z
Si Si1 0.765611 0.117180 0.586390
Si Si2 0.742168 0.804213 0.537317
Si Si3 0.370131 0.344545 0.754828
Si Si4 0.000000 0.705968 0.750000
Si Si5 0.158712 0.977488 0.083244
Si Si6 0.000000 0.266888 0.750000
Si Si7 0.489409 0.769129 0.575468
Si Si8 0.078902 0.405440 0.562393
O O1 0.609810 0.145643 0.500978
O O2 0.865368 0.204279 0.665858
O O3 0.779292 0.071509 0.438287
O O4 0.791009 0.042268 0.725027
O O5 0.687485 0.742387 0.370256
O O6 0.795237 0.897283 0.497332
O O7 0.626851 0.809950 0.588943
O O8 0.870720 0.768411 0.712115
O O9 0.500000 0.389778 0.750000
O O10 0.242813 0.415664 0.700527
O O11 0.427283 0.315884 0.947073
O O12 0.931082 0.639139 0.596457
O O13 0.000000 0.000000 0.000000
O O14 0.999935 0.334931 0.615743
O O15 0.500000 0.738442 0.750000
O O16 0.000000 0.500000 0.500000
#
# Coordination Sequence:
#
# PCOD8121714 Si02
#       8
#     4   4   4   2   4   2   4   4
#     4  12  26  43  65  96 138 186 229 294 333 408
#     4  10  23  41  67  89 133 182 226 287 334 407
#     4   9  19  43  70  94 135 181 226 277 350 416
#     4  10  23  39  68  98 126 172 226 265 341 412
#     4  12  25  41  63  98 133 174 237 282 343 389
#     4  12  23  43  72  96 140 178 224 279 361 408
#     4  11  24  42  65  97 131 185 243 275 345 398
#     4  11  23  41  72 104 134 168 217 285 350 420
#
# _framework density 21.215235
#
# number of rings (size 3 to 8) (size 9 to 14) (size 15 to 20)
#    0.000    1.143    4.286    1.286    6.000    0.571 
#    0.000    0.000    3.143    3.429    0.000    0.000 
#    0.000    0.000    0.000    0.000    0.000    0.000 
#
# Total GULP energy -346902.325559 kJ/mol
# GULP energy per Si atom -12389.368770 kJ/mol
# Density = 2.116695 g / cm^3
# Si number density = 21.215235 Si / 1000 Ang^3
#
#
#
# Elastic Constant Matrix: (Units=GPa)
#
#
# Indices 1 2 3 4 5 6 
#
# 1 180.3062 56.2383 59.0787 0.0000 14.5740 0.0000
# 2 56.2383 91.4329 30.0127 0.0000 3.8916 0.0000
# 3 59.0787 30.0127 116.4879 0.0000 2.6488 0.0000
# 4 0.0000 0.0000 0.0000 32.5982 0.0000 6.7083
# 5 14.5740 3.8916 2.6488 0.0000 38.9856 0.0000
# 6 0.0000 0.0000 0.0000 6.7083 0.0000 39.3623
#
#
#
# Elastic Compliance Matrix: (Units=1/GPa)
#
#
# Indices 1 2 3 4 5 6 
#
# 1 0.007890 -0.003776 -0.002975 0.000000 -0.002371 0.000000
# 2 -0.003776 0.013792 -0.001642 0.000000 0.000146 0.000000
# 3 -0.002975 -0.001642 0.010504 0.000000 0.000562 0.000000
# 4 0.000000 0.000000 0.000000 0.031792 0.000000 -0.005418
# 5 -0.002371 0.000146 0.000562 0.000000 0.026484 0.000000
# 6 0.000000 0.000000 0.000000 -0.005418 0.000000 0.026328
#
#
# Mechanical properties :
#
#
# Convention : Reuss Voigt Hill
#
# Bulk Modulus (GPa) = 64.93166 75.43183 70.18175
# Shear Modulus (GPa) = 36.04694 38.38237 37.21465
#
# Velocity S-wave (km/s) = 4.12649 4.25807 4.19280
# Velocity P-wave (km/s) = 7.30592 7.73354 7.52277
#
# Compressibility (1/GPa) = 0.01540081
#
# Stress axis : x y z
#
# Youngs Moduli (GPa) = 126.74080 72.50575 95.20534
#
# Poissons Ratio (x) = 0.27375 0.28323
# Poissons Ratio (y) = 0.47853 0.15632
# Poissons Ratio (z) = 0.37704 0.11905
#
# Static dielectric constant tensor:
#      x y z
#    x 4.324330 0.000000 0.095420 
#    y 0.000000 3.316680 0.000000 
#    z 0.095420 0.000000 4.018190 
# 
# 
# High freq. dielectric constant tensor:
#      x y z
#    x 1.854700 0.000000 0.000600 
#    y 0.000000 1.804360 0.000000 
#    z 0.000600 0.000000 1.840520 
# 
# From -- ./inp_files/16921.got.cif
#   From: 2010.06.25/outbox.cif.g09.slc.cpg/sg13_9_cif.got.tgz:16921.got - 2010.06.28 04:50:58.
