data_PCOD8121850
_publ_section_title
;
Structure prediction by ZEFSAII (Michael W. Deem and Ramdas Pophale) SiO2 
 PCOD8121850
Probable space group: P 2/C
;
_chemical_formula_sum "Si O2"
_cell_formula_units_Z 28
_cell_length_a 8.525422
_cell_length_b 13.604787
_cell_length_c 11.910970
_cell_angle_alpha 90.000000
_cell_angle_beta 65.418074
_cell_angle_gamma 90.000000
_cell_volume 1256.302241
_symmetry_space_group_name_H-M "P 2/C"
_symmetry_group_IT_number 13
_symmetry_cell_setting 'monoclinic'
loop_
_space_group_symop_operation_xyz
x,y,z
-x,y,1/2-z
-x,-y,-z
x,-y,1/2+z
loop_
_atom_site_type_symbol
_atom_site_label
_atom_site_fract_x
_atom_site_fract_y
_atom_site_fract_z
Si Si1 0.750419 0.303700 0.391350
Si Si2 0.359190 0.230200 0.526129
Si Si3 0.692417 0.281858 0.718893
Si Si4 0.868329 0.856245 0.007545
Si Si5 0.308223 0.655060 0.833611
Si Si6 0.812413 0.455246 0.552931
Si Si7 0.126711 0.058743 0.602609
O O1 0.564445 0.249089 0.458741
O O2 0.890630 0.233209 0.410865
O O3 0.803427 0.323334 0.245799
O O4 0.751277 0.410921 0.450974
O O5 0.276269 0.281564 0.658794
O O6 0.252095 0.275026 0.453057
O O7 0.308833 0.115955 0.561890
O O8 0.500000 0.315563 0.750000
O O9 0.728472 0.178477 0.643060
O O10 0.819726 0.365848 0.637723
O O11 0.813175 0.949925 0.949593
O O12 0.039603 0.885454 0.023375
O O13 0.500000 0.687714 0.750000
O O14 0.314277 0.541892 0.870495
O O15 0.000000 0.500000 0.500000
O O16 0.000000 0.058632 0.750000
#
# Coordination Sequence:
#
# PCOD8121850 Si02
#       7
#     4   4   4   4   4   4   4
#     4  10  24  47  67  96 136 179 226 280 342 400
#     4  11  23  42  71  99 131 179 228 279 331 408
#     4  11  21  45  73  94 132 183 226 277 335 408
#     4  10  23  43  67 100 135 179 223 277 345 408
#     4  10  25  42  65  98 134 175 220 278 338 396
#     4  11  25  41  65 100 128 177 227 273 336 408
#     4  11  24  41  66 104 138 175 225 280 348 407
#
# _framework density 22.287631000000001
#
# number of rings (size 3 to 8) (size 9 to 14) (size 15 to 20)
#    0.000    1.429    4.286    0.429    6.000    4.571 
#    0.000    0.714    0.000    0.000    0.000    0.000 
#    0.000    0.000    0.000    0.000    0.000    0.000 
#
# Total GULP energy -346893.056534 kJ/mol
# GULP energy per Si atom -12389.037733 kJ/mol
# Density = 2.223690 g / cm^3
# Si number density = 22.287631 Si / 1000 Ang^3
#
#
#
# Elastic Constant Matrix: (Units=GPa)
#
#
# Indices 1 2 3 4 5 6 
#
# 1 53.5218 33.1495 42.2915 0.0000 10.1872 0.0000
# 2 33.1495 138.0195 76.4394 0.0000 5.9774 0.0000
# 3 42.2915 76.4394 150.3231 0.0000 37.6842 0.0000
# 4 0.0000 0.0000 0.0000 36.9033 0.0000 -1.1217
# 5 10.1872 5.9774 37.6842 0.0000 46.6381 0.0000
# 6 0.0000 0.0000 0.0000 -1.1217 0.0000 33.9554
#
#
#
# Elastic Compliance Matrix: (Units=1/GPa)
#
#
# Indices 1 2 3 4 5 6 
#
# 1 0.024863 -0.003026 -0.005257 0.000000 -0.000795 0.000000
# 2 -0.003026 0.010953 -0.005683 0.000000 0.003849 0.000000
# 3 -0.005257 -0.005683 0.013231 0.000000 -0.008814 0.000000
# 4 0.000000 0.000000 0.000000 0.027125 0.000000 0.000896
# 5 -0.000795 0.003849 -0.008814 0.000000 0.028244 0.000000
# 6 0.000000 0.000000 0.000000 0.000896 0.000000 0.029480
#
#
# Mechanical properties :
#
#
# Convention : Reuss Voigt Hill
#
# Bulk Modulus (GPa) = 47.35949 71.73613 59.54781
# Shear Modulus (GPa) = 29.60914 36.16494 32.88704
#
# Velocity S-wave (km/s) = 3.64882 4.03258 3.84549
# Velocity P-wave (km/s) = 6.24877 7.34429 6.81857
#
# Compressibility (1/GPa) = 0.02111509
#
# Stress axis : x y z
#
# Youngs Moduli (GPa) = 40.21981 91.29953 75.58084
#
# Poissons Ratio (x) = 0.27625 0.39733
# Poissons Ratio (y) = 0.12170 0.42955
# Poissons Ratio (z) = 0.21144 0.51888
#
# Static dielectric constant tensor:
#      x y z
#    x 3.902480 0.000000 0.396720 
#    y 0.000000 4.400730 0.000000 
#    z 0.396720 0.000000 4.488190 
# 
# 
# High freq. dielectric constant tensor:
#      x y z
#    x 1.865730 0.000000 0.016490 
#    y 0.000000 1.876600 0.000000 
#    z 0.016490 0.000000 1.890930 
# 
# From -- ./inp_files/30322.got.cif
#   From: 2010.06.25/outbox.cif.g09.slc.cpg/sg13_16_cif.got.tgz:30322.got - 2010.06.28 04:50:58.
