data_PCOD8121887
_publ_section_title
;
Structure prediction by ZEFSAII (Michael W. Deem and Ramdas Pophale) SiO2 
 PCOD8121887
Probable space group: P 2/C
;
_chemical_formula_sum "Si O2"
_cell_formula_units_Z 26
_cell_length_a 16.580606
_cell_length_b 12.053307
_cell_length_c 11.901716
_cell_angle_alpha 90.000000
_cell_angle_beta 31.413868
_cell_angle_gamma 90.000000
_cell_volume 1239.749998
_symmetry_space_group_name_H-M "P 2/C"
_symmetry_group_IT_number 13
_symmetry_cell_setting 'monoclinic'
loop_
_space_group_symop_operation_xyz
x,y,z
-x,y,1/2-z
-x,-y,-z
x,-y,1/2+z
loop_
_atom_site_type_symbol
_atom_site_label
_atom_site_fract_x
_atom_site_fract_y
_atom_site_fract_z
Si Si1 0.000000 0.730659 0.250000
Si Si2 0.168752 0.332817 0.055177
Si Si3 0.618075 0.404976 0.898147
Si Si4 0.568645 0.833388 0.495970
Si Si5 0.348356 0.879260 0.356507
Si Si6 0.267710 0.889739 0.979585
Si Si7 0.885554 0.457931 0.729664
O O1 0.034582 0.652445 0.315278
O O2 0.855255 0.813258 0.439541
O O3 0.141563 0.446275 0.150466
O O4 0.000000 0.275108 0.250000
O O5 0.244091 0.372520 0.849931
O O6 0.278207 0.239066 0.979953
O O7 0.709431 0.439705 0.900455
O O8 0.500000 0.500000 0.000000
O O9 0.519123 0.295569 0.042355
O O10 0.618434 0.881535 0.316635
O O11 0.421333 0.894843 0.720681
O O12 0.707519 0.845628 0.422381
O O13 0.500000 0.899310 0.250000
O O14 0.226229 0.978537 0.530582
O O15 0.000000 0.500000 0.500000
#
# Coordination Sequence:
#
# PCOD8121887 Si02
#       7
#     2   4   4   4   4   4   4
#     4  12  26  44  68 104 126 180 234 272 356 404
#     4  11  25  43  64  96 137 177 219 277 342 418
#     4  11  25  41  67  99 133 177 233 280 342 414
#     4  10  23  44  65  98 134 179 223 286 344 403
#     4  11  25  44  68 100 135 181 233 282 345 411
#     4  11  24  44  71  94 136 177 228 290 337 410
#     4  12  24  44  66  95 140 178 218 284 347 411
#
# _framework density 20.971969999999999
#
# number of rings (size 3 to 8) (size 9 to 14) (size 15 to 20)
#    0.000    0.923    5.385    0.462    9.692    0.000 
#    0.000    0.769    0.000    0.000    0.000    0.000 
#    0.000    0.000    0.000    0.000    0.000    0.000 
#
# Total GULP energy -322191.414463 kJ/mol
# GULP energy per Si atom -12391.977479 kJ/mol
# Density = 2.092424 g / cm^3
# Si number density = 20.971970 Si / 1000 Ang^3
#
#
#
# Elastic Constant Matrix: (Units=GPa)
#
#
# Indices 1 2 3 4 5 6 
#
# 1 125.6083 55.5388 28.7421 0.0000 -12.2822 0.0000
# 2 55.5388 154.0562 22.2629 0.0000 -9.4064 0.0000
# 3 28.7421 22.2629 63.2153 0.0000 -5.6421 0.0000
# 4 0.0000 0.0000 0.0000 28.8753 0.0000 -9.8645
# 5 -12.2822 -9.4064 -5.6421 0.0000 27.3546 0.0000
# 6 0.0000 0.0000 0.0000 -9.8645 0.0000 38.2083
#
#
#
# Elastic Compliance Matrix: (Units=1/GPa)
#
#
# Indices 1 2 3 4 5 6 
#
# 1 0.010378 -0.003076 -0.003376 0.000000 0.002906 0.000000
# 2 -0.003076 0.007848 -0.001271 0.000000 0.001055 0.000000
# 3 -0.003376 -0.001271 0.017958 0.000000 0.001751 0.000000
# 4 0.000000 0.000000 0.000000 0.037982 0.000000 0.009806
# 5 0.002906 0.001055 0.001751 0.000000 0.038586 0.000000
# 6 0.000000 0.000000 0.000000 0.009806 0.000000 0.028704
#
#
# Mechanical properties :
#
#
# Convention : Reuss Voigt Hill
#
# Bulk Modulus (GPa) = 48.22121 61.77416 54.99768
# Shear Modulus (GPa) = 30.52238 34.64337 32.58287
#
# Velocity S-wave (km/s) = 3.81910 4.06875 3.94590
# Velocity P-wave (km/s) = 6.51847 7.18279 6.85868
#
# Compressibility (1/GPa) = 0.02073776
#
# Stress axis : x y z
#
# Youngs Moduli (GPa) = 96.35783 127.41712 55.68596
#
# Poissons Ratio (x) = 0.39195 0.18799
# Poissons Ratio (y) = 0.29641 0.07079
# Poissons Ratio (z) = 0.32529 0.16197
#
# Static dielectric constant tensor:
#      x y z
#    x 4.322510 0.000000 -0.129090 
#    y 0.000000 4.043350 0.000000 
#    z -0.129090 0.000000 3.479430 
# 
# 
# High freq. dielectric constant tensor:
#      x y z
#    x 1.823300 0.000000 0.001060 
#    y 0.000000 1.849950 0.000000 
#    z 0.001060 0.000000 1.803450 
# 
# From -- ./inp_files/39143.got.cif
#   From: 2010.06.25/outbox.cif.g09.slc.cpg/sg13_20_cif.got.tgz:39143.got - 2010.06.28 04:50:58.
