data_PCOD8121823
_publ_section_title
;
Structure prediction by ZEFSAII (Michael W. Deem and Ramdas Pophale) SiO2 
 PCOD8121823
Probable space group: P 2/C
;
_chemical_formula_sum "Si O2"
_cell_formula_units_Z 26
_cell_length_a 8.503887
_cell_length_b 15.515609
_cell_length_c 14.774431
_cell_angle_alpha 90.000000
_cell_angle_beta 36.485813
_cell_angle_gamma 90.000000
_cell_volume 1159.149107
_symmetry_space_group_name_H-M "P 2/C"
_symmetry_group_IT_number 13
_symmetry_cell_setting 'monoclinic'
loop_
_space_group_symop_operation_xyz
x,y,z
-x,y,1/2-z
-x,-y,-z
x,-y,1/2+z
loop_
_atom_site_type_symbol
_atom_site_label
_atom_site_fract_x
_atom_site_fract_y
_atom_site_fract_z
Si Si1 0.000000 0.732863 0.750000
Si Si2 0.041495 0.410892 0.080512
Si Si3 0.381591 0.889933 0.582371
Si Si4 0.933913 0.834537 0.379878
Si Si5 0.274721 0.320702 0.418752
Si Si6 0.522910 0.521334 0.886938
Si Si7 0.610886 0.959839 0.299692
O O1 0.067214 0.671924 0.634302
O O2 0.752018 0.796342 0.845940
O O3 0.934651 0.381283 0.034050
O O4 0.831700 0.482636 0.215325
O O5 0.326488 0.454374 0.927686
O O6 0.670546 0.890301 0.493581
O O7 0.392805 0.920054 0.471537
O O8 0.246566 0.959806 0.712855
O O9 0.899094 0.752208 0.457465
O O10 0.000000 0.799735 0.250000
O O11 0.161013 0.890069 0.322044
O O12 0.500000 0.279635 0.250000
O O13 0.432398 0.379837 0.416820
O O14 0.500000 0.500000 0.000000
O O15 0.500000 0.982472 0.250000
#
# Coordination Sequence:
#
# PCOD8121823 Si02
#       7
#     2   4   4   4   4   4   4
#     4  12  24  42  72  96 132 182 228 280 342 408
#     4  11  24  42  67 100 134 177 232 276 345 403
#     4  10  24  42  68  96 136 176 225 285 340 405
#     4  10  23  45  68  98 138 176 228 280 340 401
#     4  10  23  42  68  99 138 174 226 279 335 406
#     4  11  21  42  65  95 132 177 221 277 336 409
#     4  10  24  44  67 100 134 176 227 279 342 409
#
# _framework density 22.430247999999999
#
# number of rings (size 3 to 8) (size 9 to 14) (size 15 to 20)
#    0.000    1.538    1.538    2.308    7.538    3.692 
#    2.769    0.000    0.000    0.000    0.000    0.000 
#    0.000    0.000    0.000    0.000    0.000    0.000 
#
# Total GULP energy -322218.262867 kJ/mol
# GULP energy per Si atom -12393.010110 kJ/mol
# Density = 2.237920 g / cm^3
# Si number density = 22.430248 Si / 1000 Ang^3
#
#
#
# Elastic Constant Matrix: (Units=GPa)
#
#
# Indices 1 2 3 4 5 6 
#
# 1 93.9505 20.5058 37.9558 0.0000 8.4055 0.0000
# 2 20.5058 110.5115 51.9902 0.0000 -0.3774 0.0000
# 3 37.9558 51.9902 78.6744 0.0000 -4.8036 0.0000
# 4 0.0000 0.0000 0.0000 45.3631 0.0000 0.9619
# 5 8.4055 -0.3774 -4.8036 0.0000 39.1007 0.0000
# 6 0.0000 0.0000 0.0000 0.9619 0.0000 35.0824
#
#
#
# Elastic Compliance Matrix: (Units=1/GPa)
#
#
# Indices 1 2 3 4 5 6 
#
# 1 0.013831 0.000974 -0.007554 0.000000 -0.003892 0.000000
# 2 0.000974 0.013235 -0.009290 0.000000 -0.001223 0.000000
# 3 -0.007554 -0.009290 0.022759 0.000000 0.004330 0.000000
# 4 0.000000 0.000000 0.000000 0.022057 0.000000 -0.000605
# 5 -0.003892 -0.001223 0.004330 0.000000 0.026932 0.000000
# 6 0.000000 0.000000 0.000000 -0.000605 0.000000 0.028521
#
#
# Mechanical properties :
#
#
# Convention : Reuss Voigt Hill
#
# Bulk Modulus (GPa) = 55.29800 56.00441 55.65121
# Shear Modulus (GPa) = 30.28402 35.42154 32.85278
#
# Velocity S-wave (km/s) = 3.67841 3.97821 3.83124
# Velocity P-wave (km/s) = 6.53818 6.79146 6.66603
#
# Compressibility (1/GPa) = 0.01808384
#
# Stress axis : x y z
#
# Youngs Moduli (GPa) = 72.29937 75.55969 43.93902
#
# Poissons Ratio (x) = -0.07360 0.33192
# Poissons Ratio (y) = -0.07043 0.40821
# Poissons Ratio (z) = 0.54616 0.70198
#
# Static dielectric constant tensor:
#      x y z
#    x 5.154150 0.000000 -1.156650 
#    y 0.000000 3.779390 0.000000 
#    z -1.156650 0.000000 5.346440 
# 
# 
# High freq. dielectric constant tensor:
#      x y z
#    x 1.893720 0.000000 -0.001860 
#    y 0.000000 1.884600 0.000000 
#    z -0.001860 0.000000 1.876780 
# 
# From -- ./inp_files/47867.got.cif
#   From: 2010.06.25/outbox.cif.g09.slc.cpg/sg13_24_cif.got.tgz:47867.got - 2010.06.28 04:50:58.
