data_PCOD8121868
_publ_section_title
;
Structure prediction by ZEFSAII (Michael W. Deem and Ramdas Pophale) SiO2 
 PCOD8121868
Probable space group: P 2/C
;
_chemical_formula_sum "Si O2"
_cell_formula_units_Z 20
_cell_length_a 7.662710
_cell_length_b 12.005223
_cell_length_c 9.577550
_cell_angle_alpha 90.000000
_cell_angle_beta 97.609287
_cell_angle_gamma 90.000000
_cell_volume 873.304611
_symmetry_space_group_name_H-M "P 2/C"
_symmetry_group_IT_number 13
_symmetry_cell_setting 'monoclinic'
loop_
_space_group_symop_operation_xyz
x,y,z
-x,y,1/2-z
-x,-y,-z
x,-y,1/2+z
loop_
_atom_site_type_symbol
_atom_site_label
_atom_site_fract_x
_atom_site_fract_y
_atom_site_fract_z
Si Si1 0.272417 0.917317 0.078636
Si Si2 0.871010 0.660047 0.117055
Si Si3 0.899792 0.719232 0.597649
Si Si4 0.374443 0.459315 0.367129
Si Si5 0.679578 0.117903 0.600067
O O1 0.247793 0.923153 0.242363
O O2 0.470509 0.882206 0.065243
O O3 0.137999 0.829923 0.995675
O O4 0.233917 0.038367 0.007967
O O5 0.779495 0.549901 0.168876
O O6 0.728342 0.755326 0.072791
O O7 0.000000 0.704601 0.250000
O O8 0.976017 0.638423 0.983474
O O9 0.716056 0.658315 0.610020
O O10 0.000000 0.750854 0.750000
O O11 0.500000 0.444312 0.250000
O O12 0.500000 0.500000 0.500000
#
# Coordination Sequence:
#
# PCOD8121868 Si02
#       5
#     4   4   4   4   4
#     4  10  23  44  68  98 136 179 227 276 325 402
#     4  12  24  43  70  99 137 176 221 279 342 398
#     4  12  26  44  65 105 141 174 218 284 343 394
#     4  12  26  46  72  97 130 181 231 276 330 405
#     4  10  23  43  70  99 132 180 229 272 331 397
#
# _framework density 22.901516000000001
#
# number of rings (size 3 to 8) (size 9 to 14) (size 15 to 20)
#    0.000    0.800    2.000    4.800    5.600    1.600 
#    3.600    0.000    0.000    0.000    0.000    0.000 
#    0.000    0.000    0.000    0.000    0.000    0.000 
#
# Total GULP energy -248098.026518 kJ/mol
# GULP energy per Si atom -12404.901326 kJ/mol
# Density = 2.284939 g / cm^3
# Si number density = 22.901516 Si / 1000 Ang^3
#
#
#
# Elastic Constant Matrix: (Units=GPa)
#
#
# Indices 1 2 3 4 5 6 
#
# 1 66.9205 2.9993 24.5064 0.0000 -9.7646 0.0000
# 2 2.9993 55.8984 -3.0217 0.0000 2.3432 0.0000
# 3 24.5064 -3.0217 123.6798 0.0000 -2.0418 0.0000
# 4 0.0000 0.0000 0.0000 32.9485 0.0000 -4.0091
# 5 -9.7646 2.3432 -2.0418 0.0000 53.0496 0.0000
# 6 0.0000 0.0000 0.0000 -4.0091 0.0000 29.2390
#
#
#
# Elastic Compliance Matrix: (Units=1/GPa)
#
#
# Indices 1 2 3 4 5 6 
#
# 1 0.016632 -0.001195 -0.003275 0.000000 0.002988 0.000000
# 2 -0.001195 0.018031 0.000661 0.000000 -0.000991 0.000000
# 3 -0.003275 0.000661 0.008746 0.000000 -0.000295 0.000000
# 4 0.000000 0.000000 0.000000 0.030865 0.000000 0.004232
# 5 0.002988 -0.000991 -0.000295 0.000000 0.019433 0.000000
# 6 0.000000 0.000000 0.000000 0.004232 0.000000 0.034781
#
#
# Mechanical properties :
#
#
# Convention : Reuss Voigt Hill
#
# Bulk Modulus (GPa) = 27.94057 32.82964 30.38511
# Shear Modulus (GPa) = 33.77542 37.84838 35.81190
#
# Velocity S-wave (km/s) = 3.84449 4.06970 3.95870
# Velocity P-wave (km/s) = 5.65099 6.03735 5.84736
#
# Compressibility (1/GPa) = 0.03579025
#
# Stress axis : x y z
#
# Youngs Moduli (GPa) = 60.12468 55.46015 114.34231
#
# Poissons Ratio (x) = 0.06626 0.37452
# Poissons Ratio (y) = 0.07183 -0.07557
# Poissons Ratio (z) = 0.19693 -0.03665
#
# Static dielectric constant tensor:
#      x y z
#    x 4.209060 0.000000 -0.070400 
#    y 0.000000 4.084930 0.000000 
#    z -0.070400 0.000000 4.154620 
# 
# 
# High freq. dielectric constant tensor:
#      x y z
#    x 1.917640 0.000000 0.001760 
#    y 0.000000 1.900280 0.000000 
#    z 0.001760 0.000000 1.914120 
# 
# From -- ./inp_files/11851.got.cif
#   From: 2010.06.25/outbox.cif.g09.slc.cpg/sg13_6_cif.got.tgz:11851.got - 2010.06.28 04:50:58.
