data_PCOD8121874
_publ_section_title
;
Structure prediction by ZEFSAII (Michael W. Deem and Ramdas Pophale) SiO2 
 PCOD8121874
Probable space group: P 2/C
;
_chemical_formula_sum "Si O2"
_cell_formula_units_Z 22
_cell_length_a 8.985005
_cell_length_b 15.267458
_cell_length_c 8.316079
_cell_angle_alpha 90.000000
_cell_angle_beta 68.566478
_cell_angle_gamma 90.000000
_cell_volume 1061.890455
_symmetry_space_group_name_H-M "P 2/C"
_symmetry_group_IT_number 13
_symmetry_cell_setting 'monoclinic'
loop_
_space_group_symop_operation_xyz
x,y,z
-x,y,1/2-z
-x,-y,-z
x,-y,1/2+z
loop_
_atom_site_type_symbol
_atom_site_label
_atom_site_fract_x
_atom_site_fract_y
_atom_site_fract_z
Si Si1 0.233898 0.100367 0.083141
Si Si2 0.460507 0.196661 0.589924
Si Si3 0.154319 0.611941 0.896916
Si Si4 0.000000 0.466782 0.750000
Si Si5 0.835044 0.921052 0.237002
Si Si6 0.000000 0.751369 0.750000
Si Si7 0.500000 0.689885 0.750000
O O1 0.159042 0.190088 0.179195
O O2 0.221723 0.019593 0.207411
O O3 0.419028 0.115004 0.971706
O O4 0.134565 0.077728 0.964094
O O5 0.500000 0.243002 0.750000
O O6 0.285582 0.154514 0.657920
O O7 0.481235 0.256137 0.423818
O O8 0.034321 0.689601 0.889549
O O9 0.341365 0.631584 0.796539
O O10 0.118916 0.524297 0.810842
O O11 0.114869 0.595102 0.098692
O O12 0.000000 0.894675 0.250000
#
# Coordination Sequence:
#
# PCOD8121874 Si02
#       7
#     4   4   4   2   4   2   2
#     4  11  23  40  58  87 127 170 228 282 325 378
#     4  10  25  43  58  93 134 176 229 279 329 384
#     4  10  23  43  72 101 130 170 203 266 328 411
#     4   9  22  48  70 101 132 160 210 249 336 418
#     4  11  24  37  60  86 124 179 230 281 329 379
#     4  11  22  40  62  91 132 160 218 271 320 382
#     4  12  24  42  72 100 134 176 218 270 340 376
#
# _framework density 20.717768
#
# number of rings (size 3 to 8) (size 9 to 14) (size 15 to 20)
#    0.000    1.455    2.727    1.091    5.091    3.636 
#    3.273    0.000    0.000    0.000    0.000    0.000 
#    0.000    0.000    0.000    0.000    0.000    0.000 
#
# Total GULP energy -272727.724936 kJ/mol
# GULP energy per Si atom -12396.714770 kJ/mol
# Density = 2.067061 g / cm^3
# Si number density = 20.717768 Si / 1000 Ang^3
#
#
#
# Elastic Constant Matrix: (Units=GPa)
#
#
# Indices 1 2 3 4 5 6 
#
# 1 96.7848 27.0898 19.6120 0.0000 -5.0489 0.0000
# 2 27.0898 85.6927 59.3835 0.0000 -1.0955 0.0000
# 3 19.6120 59.3835 128.3933 0.0000 7.0350 0.0000
# 4 0.0000 0.0000 0.0000 27.3230 0.0000 -8.1743
# 5 -5.0489 -1.0955 7.0350 0.0000 30.4946 0.0000
# 6 0.0000 0.0000 0.0000 -8.1743 0.0000 27.6092
#
#
#
# Elastic Compliance Matrix: (Units=1/GPa)
#
#
# Indices 1 2 3 4 5 6 
#
# 1 0.011436 -0.003402 -0.000274 0.000000 0.001834 0.000000
# 2 -0.003402 0.018373 -0.008086 0.000000 0.001962 0.000000
# 3 -0.000274 -0.008086 0.011737 0.000000 -0.003043 0.000000
# 4 0.000000 0.000000 0.000000 0.040156 0.000000 0.011889
# 5 0.001834 0.001962 -0.003043 0.000000 0.033869 0.000000
# 6 0.000000 0.000000 0.000000 0.011889 0.000000 0.039740
#
#
# Mechanical properties :
#
#
# Convention : Reuss Voigt Hill
#
# Bulk Modulus (GPa) = 55.48515 58.11571 56.80043
# Shear Modulus (GPa) = 27.05020 30.73773 28.89397
#
# Velocity S-wave (km/s) = 3.61730 3.85598 3.73855
# Velocity P-wave (km/s) = 6.65478 6.92365 6.79054
#
# Compressibility (1/GPa) = 0.01802284
#
# Stress axis : x y z
#
# Youngs Moduli (GPa) = 87.44657 54.42646 85.20099
#
# Poissons Ratio (x) = 0.18515 0.02334
# Poissons Ratio (y) = 0.29748 0.68892
# Poissons Ratio (z) = 0.02395 0.44008
#
# Static dielectric constant tensor:
#      x y z
#    x 3.853070 0.000000 0.046740 
#    y 0.000000 3.608490 0.000000 
#    z 0.046740 0.000000 4.015900 
# 
# 
# High freq. dielectric constant tensor:
#      x y z
#    x 1.822100 0.000000 0.001280 
#    y 0.000000 1.797610 0.000000 
#    z 0.001280 0.000000 1.824560 
# 
# From -- ./inp_files/12382.got.cif
#   From: 2010.06.25/outbox.cif.g09.slc.cpg/sg13_7_cif.got.tgz:12382.got - 2010.06.28 04:50:58.
