data_PCOD8121854
_publ_section_title
;
Structure prediction by ZEFSAII (Michael W. Deem and Ramdas Pophale) SiO2 
 PCOD8121854
Probable space group: P 2/C
;
_chemical_formula_sum "Si O2"
_cell_formula_units_Z 28
_cell_length_a 5.280552
_cell_length_b 8.523456
_cell_length_c 27.571271
_cell_angle_alpha 90.000000
_cell_angle_beta 69.261308
_cell_angle_gamma 90.000000
_cell_volume 1160.536243
_symmetry_space_group_name_H-M "P 2/C"
_symmetry_group_IT_number 13
_symmetry_cell_setting 'monoclinic'
loop_
_space_group_symop_operation_xyz
x,y,z
-x,y,1/2-z
-x,-y,-z
x,-y,1/2+z
loop_
_atom_site_type_symbol
_atom_site_label
_atom_site_fract_x
_atom_site_fract_y
_atom_site_fract_z
Si Si1 0.298630 0.450900 0.356644
Si Si2 0.309597 0.125771 0.406391
Si Si3 0.197565 0.504635 0.552430
Si Si4 0.500000 0.702464 0.750000
Si Si5 0.888243 0.976433 0.361471
Si Si6 0.470470 0.703258 0.098279
Si Si7 0.933027 0.756176 0.006085
Si Si8 0.000000 0.097140 0.250000
O O1 0.363589 0.306015 0.387977
O O2 0.342722 0.407824 0.298043
O O3 0.467315 0.610401 0.356538
O O4 0.986969 0.492837 0.386640
O O5 0.137879 0.114806 0.468964
O O6 0.611005 0.063680 0.393292
O O7 0.143546 0.035289 0.375191
O O8 0.473960 0.432183 0.555654
O O9 0.224884 0.680197 0.529708
O O10 0.101308 0.381824 0.518935
O O11 0.274342 0.802187 0.736791
O O12 0.814397 0.794486 0.377644
O O13 0.964772 0.990317 0.299810
O O14 0.715768 0.819849 0.061664
#
# Coordination Sequence:
#
# PCOD8121854 Si02
#       8
#     4   4   4   2   4   4   4   2
#     4  10  23  43  68 102 129 179 240 294 331 408
#     4  11  25  44  72 103 133 188 232 281 334 426
#     4   9  20  40  63 100 139 182 222 287 351 406
#     4  12  24  44  78 100 124 176 250 294 330 414
#     4  12  27  46  69 100 143 179 229 287 359 415
#     4  11  25  41  69 100 147 180 225 290 351 421
#     4   9  21  39  67  97 139 183 232 275 345 408
#     4  12  24  50  70  98 134 186 220 288 362 412
#
# _framework density 24.126777000000001
#
# number of rings (size 3 to 8) (size 9 to 14) (size 15 to 20)
#    0.000    1.429    2.857    1.286   12.000    1.143 
#    2.571    0.000    0.000    0.000    0.000    0.000 
#    0.000    0.000    0.000    0.000    0.000    0.000 
#
# Total GULP energy -346882.188318 kJ/mol
# GULP energy per Si atom -12388.649583 kJ/mol
# Density = 2.407186 g / cm^3
# Si number density = 24.126777 Si / 1000 Ang^3
#
#
#
# Elastic Constant Matrix: (Units=GPa)
#
#
# Indices 1 2 3 4 5 6 
#
# 1 66.6813 9.2387 5.6470 0.0000 -8.3568 0.0000
# 2 9.2387 43.9769 10.5932 0.0000 -7.1534 0.0000
# 3 5.6470 10.5932 110.3723 0.0000 0.8429 0.0000
# 4 0.0000 0.0000 0.0000 32.4189 0.0000 -3.0453
# 5 -8.3568 -7.1534 0.8429 0.0000 26.4971 0.0000
# 6 0.0000 0.0000 0.0000 -3.0453 0.0000 30.2730
#
#
#
# Elastic Compliance Matrix: (Units=1/GPa)
#
#
# Indices 1 2 3 4 5 6 
#
# 1 0.015942 -0.002490 -0.000610 0.000000 0.004375 0.000000
# 2 -0.002490 0.024788 -0.002297 0.000000 0.005980 0.000000
# 3 -0.000610 -0.002297 0.009320 0.000000 -0.001109 0.000000
# 4 0.000000 0.000000 0.000000 0.031141 0.000000 0.003133
# 5 0.004375 0.005980 -0.001109 0.000000 0.040769 0.000000
# 6 0.000000 0.000000 0.000000 0.003133 0.000000 0.033348
#
#
# Mechanical properties :
#
#
# Convention : Reuss Voigt Hill
#
# Bulk Modulus (GPa) = 25.47453 30.22093 27.84773
# Shear Modulus (GPa) = 27.90350 30.87456 29.38903
#
# Velocity S-wave (km/s) = 3.40448 3.58114 3.49393
# Velocity P-wave (km/s) = 5.10250 5.44541 5.27674
#
# Compressibility (1/GPa) = 0.03925489
#
# Stress axis : x y z
#
# Youngs Moduli (GPa) = 62.72862 40.34132 107.29128
#
# Poissons Ratio (x) = 0.10047 0.06545
# Poissons Ratio (y) = 0.15622 0.24649
# Poissons Ratio (z) = 0.03827 0.09268
#
# Static dielectric constant tensor:
#      x y z
#    x 4.276610 0.000000 -0.171200 
#    y 0.000000 4.463810 0.000000 
#    z -0.171200 0.000000 4.454980 
# 
# 
# High freq. dielectric constant tensor:
#      x y z
#    x 1.955940 0.000000 -0.011860 
#    y 0.000000 1.955200 0.000000 
#    z -0.011860 0.000000 1.960890 
# 
# From -- ./inp_files/94995.got.cif
#   From: 2010.06.25/outbox.cif.g09.slc.cpg/sg13_48_cif.got.tgz:94995.got - 2010.06.28 04:50:58.
