data_PCOD8121185
_publ_section_title
;
Structure prediction by ZEFSAII (Michael W. Deem and Ramdas Pophale) SiO2 
 PCOD8121185
Probable space group: P 2/C
;
_chemical_formula_sum "Si O2"
_cell_formula_units_Z 24
_cell_length_a 13.988459
_cell_length_b 8.917527
_cell_length_c 17.007435
_cell_angle_alpha 90.000000
_cell_angle_beta 28.133284
_cell_angle_gamma 90.000000
_cell_volume 1000.361924
_symmetry_space_group_name_H-M "P 2/C"
_symmetry_group_IT_number 13
_symmetry_cell_setting 'monoclinic'
loop_
_space_group_symop_operation_xyz
x,y,z
-x,y,1/2-z
-x,-y,-z
x,-y,1/2+z
loop_
_atom_site_type_symbol
_atom_site_label
_atom_site_fract_x
_atom_site_fract_y
_atom_site_fract_z
Si Si1 0.799822 0.745722 0.348027
Si Si2 0.077346 0.418470 0.272409
Si Si3 0.702854 0.512128 0.650703
Si Si4 0.289379 0.221461 0.764992
Si Si5 0.862862 0.776562 0.635792
Si Si6 0.484178 0.053604 0.169008
O O1 0.789021 0.563967 0.351026
O O2 0.783855 0.806117 0.271093
O O3 0.623524 0.824179 0.525715
O O4 0.000000 0.796609 0.250000
O O5 0.201570 0.296276 0.232996
O O6 0.000000 0.336302 0.250000
O O7 0.881928 0.460889 0.464555
O O8 0.500000 0.546222 0.750000
O O9 0.655924 0.394956 0.755574
O O10 0.790363 0.664348 0.620826
O O11 0.493025 0.124278 0.640525
O O12 0.100153 0.184398 0.959818
O O13 0.739553 0.925966 0.706873
O O14 0.500000 0.078345 0.250000
#
# Coordination Sequence:
#
# PCOD8121185 Si02
#       6
#     4   4   4   4   4   4
#     4  11  23  42  68  95 137 176 227 280 334 403
#     4  10  22  40  64 100 137 172 222 284 341 391
#     4  11  22  39  69  96 133 173 226 278 337 401
#     4  11  22  47  65  95 134 181 222 279 339 400
#     4  11  22  42  66  98 132 174 225 278 341 397
#     4  12  27  41  66 101 135 180 227 273 340 406
#
# _framework density 23.991316000000001
#
# number of rings (size 3 to 8) (size 9 to 14) (size 15 to 20)
#    0.000    1.000    3.333    4.000    7.000    2.000 
#    0.000    4.167    0.000    0.000    0.000    0.000 
#    0.000    0.000    0.000    0.000    0.000    0.000 
#
# Total GULP energy -297343.904973 kJ/mol
# GULP energy per Si atom -12389.329374 kJ/mol
# Density = 2.393671 g / cm^3
# Si number density = 23.991316 Si / 1000 Ang^3
#
#
#
# Elastic Constant Matrix: (Units=GPa)
#
#
# Indices 1 2 3 4 5 6 
#
# 1 148.5108 34.9096 32.6300 0.0000 18.1471 0.0000
# 2 34.9096 72.5696 29.9265 0.0000 6.6728 0.0000
# 3 32.6300 29.9265 45.4286 0.0000 6.0250 0.0000
# 4 0.0000 0.0000 0.0000 31.8042 0.0000 1.0605
# 5 18.1471 6.6728 6.0250 0.0000 37.9307 0.0000
# 6 0.0000 0.0000 0.0000 1.0605 0.0000 30.1960
#
#
#
# Elastic Compliance Matrix: (Units=1/GPa)
#
#
# Indices 1 2 3 4 5 6 
#
# 1 0.008547 -0.002014 -0.004410 0.000000 -0.003034 0.000000
# 2 -0.002014 0.019465 -0.011288 0.000000 -0.000668 0.000000
# 3 -0.004410 -0.011288 0.032763 0.000000 -0.001109 0.000000
# 4 0.000000 0.000000 0.000000 0.031479 0.000000 -0.001106
# 5 -0.003034 -0.000668 -0.001109 0.000000 0.028109 0.000000
# 6 0.000000 0.000000 0.000000 -0.001106 0.000000 0.033156
#
#
# Mechanical properties :
#
#
# Convention : Reuss Voigt Hill
#
# Bulk Modulus (GPa) = 39.44472 51.27124 45.35798
# Shear Modulus (GPa) = 25.33043 31.25572 28.29307
#
# Velocity S-wave (km/s) = 3.25286 3.61334 3.43783
# Velocity P-wave (km/s) = 5.53038 6.23101 5.89112
#
# Compressibility (1/GPa) = 0.02535193
#
# Stress axis : x y z
#
# Youngs Moduli (GPa) = 117.00667 51.37463 30.52248
#
# Poissons Ratio (x) = 0.10346 0.13459
# Poissons Ratio (y) = 0.23563 0.34453
# Poissons Ratio (z) = 0.51596 0.57990
#
# Static dielectric constant tensor:
#      x y z
#    x 4.761500 0.000000 0.125120 
#    y 0.000000 4.481860 0.000000 
#    z 0.125120 0.000000 3.769420 
# 
# 
# High freq. dielectric constant tensor:
#      x y z
#    x 1.973200 0.000000 0.004750 
#    y 0.000000 1.953070 0.000000 
#    z 0.004750 0.000000 1.928720 
# 
# From -- ./inp_files/68083.got.cif
#   From: 2010.06.25/outbox.cif.g09.slc.cpg/sg13_35_cif.got.tgz:68083.got - 2010.06.28 04:50:58.
