data_PCOD8121688
_publ_section_title
;
Structure prediction by ZEFSAII (Michael W. Deem and Ramdas Pophale) SiO2 
 PCOD8121688
Probable space group: P 2/C
;
_chemical_formula_sum "Si O2"
_cell_formula_units_Z 24
_cell_length_a 7.414201
_cell_length_b 9.001585
_cell_length_c 17.565980
_cell_angle_alpha 90.000000
_cell_angle_beta 94.628012
_cell_angle_gamma 90.000000
_cell_volume 1168.523410
_symmetry_space_group_name_H-M "P 2/C"
_symmetry_group_IT_number 13
_symmetry_cell_setting 'monoclinic'
loop_
_space_group_symop_operation_xyz
x,y,z
-x,y,1/2-z
-x,-y,-z
x,-y,1/2+z
loop_
_atom_site_type_symbol
_atom_site_label
_atom_site_fract_x
_atom_site_fract_y
_atom_site_fract_z
Si Si1 0.135670 0.667310 0.942321
Si Si2 0.253455 0.338904 0.104142
Si Si3 0.605717 0.371739 0.830016
Si Si4 0.022516 0.896647 0.661897
Si Si5 0.312851 0.634831 0.440398
Si Si6 0.941043 0.219960 0.898460
O O1 0.293939 0.545878 0.940591
O O2 0.938220 0.584645 0.929479
O O3 0.142189 0.791597 0.874752
O O4 0.145906 0.756215 0.021635
O O5 0.360336 0.451799 0.161561
O O6 0.212791 0.188567 0.150114
O O7 0.353877 0.305391 0.027273
O O8 0.500000 0.336980 0.750000
O O9 0.484763 0.317748 0.896763
O O10 0.795804 0.284245 0.833153
O O11 0.000000 0.926701 0.750000
O O12 0.026927 0.047391 0.615306
O O13 0.134797 0.702641 0.395595
#
# Coordination Sequence:
#
# PCOD8121688 Si02
#       6
#     4   4   4   4   4   4
#     4   9  19  39  70  91 114 167 211 254 311 364
#     4   9  20  42  60  94 120 160 218 251 306 380
#     4  12  26  37  63  98 128 164 209 267 318 363
#     4  10  23  37  67  92 127 172 202 256 324 367
#     4  11  21  40  72  90 122 163 214 265 311 363
#     4  11  21  44  61  93 129 162 213 257 305 391
#
# _framework density 20.538741000000002
#
# number of rings (size 3 to 8) (size 9 to 14) (size 15 to 20)
#    1.000    0.667    3.333    2.000    4.667    0.000 
#    0.000    3.333    0.000    0.000    0.000    0.000 
#    0.000    0.000    0.000    0.000    0.000    0.000 
#
# Total GULP energy -297457.597586 kJ/mol
# GULP energy per Si atom -12394.066566 kJ/mol
# Density = 2.049199 g / cm^3
# Si number density = 20.538741 Si / 1000 Ang^3
#
#
#
# Elastic Constant Matrix: (Units=GPa)
#
#
# Indices 1 2 3 4 5 6 
#
# 1 51.5162 24.8068 8.6653 0.0000 -1.2275 0.0000
# 2 24.8068 95.6991 22.2624 0.0000 -6.3272 0.0000
# 3 8.6653 22.2624 74.6072 0.0000 2.1437 0.0000
# 4 0.0000 0.0000 0.0000 18.7472 0.0000 1.2924
# 5 -1.2275 -6.3272 2.1437 0.0000 31.5580 0.0000
# 6 0.0000 0.0000 0.0000 1.2924 0.0000 15.5648
#
#
#
# Elastic Compliance Matrix: (Units=1/GPa)
#
#
# Indices 1 2 3 4 5 6 
#
# 1 0.022241 -0.005564 -0.000917 0.000000 -0.000188 0.000000
# 2 -0.005564 0.012819 -0.003253 0.000000 0.002575 0.000000
# 3 -0.000917 -0.003253 0.014529 0.000000 -0.001675 0.000000
# 4 0.000000 0.000000 0.000000 0.053648 0.000000 -0.004455
# 5 -0.000188 0.002575 -0.001675 0.000000 0.032310 0.000000
# 6 0.000000 0.000000 0.000000 -0.004455 0.000000 0.064617
#
#
# Mechanical properties :
#
#
# Convention : Reuss Voigt Hill
#
# Bulk Modulus (GPa) = 33.20124 37.03239 35.11681
# Shear Modulus (GPa) = 21.77013 24.24653 23.00833
#
# Velocity S-wave (km/s) = 3.25923 3.43961 3.35063
# Velocity P-wave (km/s) = 5.51032 5.81757 5.66603
#
# Compressibility (1/GPa) = 0.03011936
#
# Stress axis : x y z
#
# Youngs Moduli (GPa) = 44.96296 78.01138 68.82877
#
# Poissons Ratio (x) = 0.43407 0.06315
# Poissons Ratio (y) = 0.25018 0.22388
# Poissons Ratio (z) = 0.04125 0.25375
#
# Static dielectric constant tensor:
#      x y z
#    x 3.572880 0.000000 0.057560 
#    y 0.000000 3.506610 0.000000 
#    z 0.057560 0.000000 3.546420 
# 
# 
# High freq. dielectric constant tensor:
#      x y z
#    x 1.787010 0.000000 0.005180 
#    y 0.000000 1.786460 0.000000 
#    z 0.005180 0.000000 1.799810 
# 
# From -- ./inp_files/63385.got.cif
#   From: 2010.06.25/outbox.cif.g09.slc.cpg/sg13_32_cif.got.tgz:63385.got - 2010.06.28 04:50:58.
