data_PCOD8121849
_publ_section_title
;
Structure prediction by ZEFSAII (Michael W. Deem and Ramdas Pophale) SiO2 
 PCOD8121849
Probable space group: P 2/C
;
_chemical_formula_sum "Si O2"
_cell_formula_units_Z 26
_cell_length_a 6.800254
_cell_length_b 13.257328
_cell_length_c 18.644081
_cell_angle_alpha 90.000000
_cell_angle_beta 49.322504
_cell_angle_gamma 90.000000
_cell_volume 1274.720426
_symmetry_space_group_name_H-M "P 2/C"
_symmetry_group_IT_number 13
_symmetry_cell_setting 'monoclinic'
loop_
_space_group_symop_operation_xyz
x,y,z
-x,y,1/2-z
-x,-y,-z
x,-y,1/2+z
loop_
_atom_site_type_symbol
_atom_site_label
_atom_site_fract_x
_atom_site_fract_y
_atom_site_fract_z
Si Si1 0.712402 0.037374 0.551923
Si Si2 0.632368 0.240769 0.642957
Si Si3 0.267937 0.384766 0.651163
Si Si4 0.215335 0.311771 0.512781
Si Si5 0.000000 0.262822 0.250000
Si Si6 0.433811 0.410360 0.185005
Si Si7 0.601887 0.135381 0.428291
O O1 0.626106 0.121262 0.629784
O O2 0.705843 0.081665 0.474015
O O3 0.506517 0.945414 0.604095
O O4 0.000000 0.000000 0.500000
O O5 0.500000 0.263821 0.750000
O O6 0.479681 0.300046 0.617856
O O7 0.920634 0.282741 0.570849
O O8 0.237580 0.392198 0.572316
O O9 0.348729 0.493159 0.660626
O O10 0.000000 0.349041 0.750000
O O11 0.323450 0.359699 0.413494
O O12 0.369669 0.212203 0.499903
O O13 0.800954 0.331754 0.253116
O O14 0.851679 0.192821 0.340538
O O15 0.500000 0.443504 0.250000
#
# Coordination Sequence:
#
# PCOD8121849 Si02
#       7
#     4   4   4   4   2   4   4
#     4  11  23  41  66  94 136 171 226 277 332 399
#     4  12  25  41  68 100 135 180 226 280 334 403
#     4  12  24  45  66  97 140 175 228 280 333 407
#     4  11  24  44  70  98 136 181 221 277 344 399
#     4  10  24  44  68  94 134 170 220 274 334 398
#     4  11  26  43  70 102 134 176 228 280 339 405
#     4  10  23  43  66  97 128 176 217 275 334 401
#
# _framework density 20.396628
#
# number of rings (size 3 to 8) (size 9 to 14) (size 15 to 20)
#    0.000    0.923    5.385    0.923    2.154    1.846 
#    1.385    0.769    0.000    0.000    0.000    0.000 
#    0.000    0.000    0.000    0.000    0.000    0.000 
#
# Total GULP energy -322501.052630 kJ/mol
# GULP energy per Si atom -12403.886640 kJ/mol
# Density = 2.035020 g / cm^3
# Si number density = 20.396628 Si / 1000 Ang^3
#
#
#
# Elastic Constant Matrix: (Units=GPa)
#
#
# Indices 1 2 3 4 5 6 
#
# 1 113.3668 48.9332 59.7534 0.0000 -12.6605 0.0000
# 2 48.9332 118.4221 41.8802 0.0000 -8.6182 0.0000
# 3 59.7534 41.8802 103.3001 0.0000 -13.2210 0.0000
# 4 0.0000 0.0000 0.0000 4.8996 0.0000 21.1752
# 5 -12.6605 -8.6182 -13.2210 0.0000 42.0558 0.0000
# 6 0.0000 0.0000 0.0000 21.1752 0.0000 21.3955
#
#
#
# Elastic Compliance Matrix: (Units=1/GPa)
#
#
# Indices 1 2 3 4 5 6 
#
# 1 0.013823 -0.003320 -0.006464 0.000000 0.001449 0.000000
# 2 -0.003320 0.010681 -0.002352 0.000000 0.000450 0.000000
# 3 -0.006464 -0.002352 0.014652 0.000000 0.002178 0.000000
# 4 0.000000 0.000000 0.000000 -0.062276 0.000000 0.061635
# 5 0.001449 0.000450 0.002178 0.000000 0.024991 0.000000
# 6 0.000000 0.000000 0.000000 0.061635 0.000000 -0.014261
#
#
# Mechanical properties :
#
#
# Convention : Reuss Voigt Hill
#
# Bulk Modulus (GPa) = 67.19222 70.69139 68.94181
# Shear Modulus (GPa) = 296.82917 25.97164 161.40041
#
# Velocity S-wave (km/s) = 12.07661 3.57225 8.90521
# Velocity P-wave (km/s) = 15.08223 7.19362 11.81571
#
# Compressibility (1/GPa) = 0.01488268
#
# Stress axis : x y z
#
# Youngs Moduli (GPa) = 72.34256 93.62508 68.24912
#
# Poissons Ratio (x) = 0.31086 0.44119
# Poissons Ratio (y) = 0.24020 0.16053
# Poissons Ratio (z) = 0.46765 0.22022
#
# Static dielectric constant tensor:
#      x y z
#    x 3.742830 0.000000 0.062990 
#    y 0.000000 3.931690 0.000000 
#    z 0.062990 0.000000 3.382070 
# 
# 
# High freq. dielectric constant tensor:
#      x y z
#    x 1.811880 0.000000 -0.005830 
#    y 0.000000 1.810780 0.000000 
#    z -0.005830 0.000000 1.792830 
# 
# From -- ./inp_files/61306.got.cif
#   From: 2010.06.25/outbox.cif.g09.slc.cpg/sg13_31_cif.got.tgz:61306.got - 2010.06.28 04:50:58.
