data_PCOD8121867
_publ_section_title
;
Structure prediction by ZEFSAII (Michael W. Deem and Ramdas Pophale) SiO2 
 PCOD8121867
Probable space group: P 2/C
;
_chemical_formula_sum "Si O2"
_cell_formula_units_Z 20
_cell_length_a 8.657672
_cell_length_b 12.366483
_cell_length_c 15.681777
_cell_angle_alpha 90.000000
_cell_angle_beta 146.537952
_cell_angle_gamma 90.000000
_cell_volume 925.757347
_symmetry_space_group_name_H-M "P 2/C"
_symmetry_group_IT_number 13
_symmetry_cell_setting 'monoclinic'
loop_
_space_group_symop_operation_xyz
x,y,z
-x,y,1/2-z
-x,-y,-z
x,-y,1/2+z
loop_
_atom_site_type_symbol
_atom_site_label
_atom_site_fract_x
_atom_site_fract_y
_atom_site_fract_z
Si Si1 0.274876 0.495894 0.073380
Si Si2 0.763118 0.313708 0.076971
Si Si3 0.228192 0.897199 0.014454
Si Si4 0.875159 0.897881 0.335404
Si Si5 0.200978 0.307019 0.912015
O O1 0.500000 0.501983 0.250000
O O2 0.317242 0.593366 0.026881
O O3 0.282956 0.383670 0.027307
O O4 0.000000 0.500000 0.000000
O O5 0.882857 0.209590 0.083598
O O6 0.000000 0.358671 0.250000
O O7 0.490564 0.273828 0.001805
O O8 0.561298 0.913448 0.154968
O O9 0.141412 0.880157 0.071799
O O10 0.061642 0.997997 0.897979
O O11 0.028547 0.796626 0.363925
O O12 0.000000 0.366792 0.750000
#
# Coordination Sequence:
#
# PCOD8121867 Si02
#       5
#     4   4   4   4   4
#     4  12  26  46  72  97 130 180 229 274 331 405
#     4  12  26  43  67 102 139 175 219 281 340 397
#     4  10  23  44  68  98 136 178 227 270 332 394
#     4  10  23  43  70  98 134 180 224 277 322 405
#     4  12  24  44  68 101 137 174 219 281 342 393
#
# _framework density 21.603933000000001
#
# number of rings (size 3 to 8) (size 9 to 14) (size 15 to 20)
#    0.000    0.800    2.000    4.800    5.600    1.600 
#    3.600    0.000    0.000    0.000    0.000    0.000 
#    0.000    0.000    0.000    0.000    0.000    0.000 
#
# Total GULP energy -248030.215258 kJ/mol
# GULP energy per Si atom -12401.510763 kJ/mol
# Density = 2.155476 g / cm^3
# Si number density = 21.603933 Si / 1000 Ang^3
#
#
#
# Elastic Constant Matrix: (Units=GPa)
#
#
# Indices 1 2 3 4 5 6 
#
# 1 92.8311 43.5700 45.1093 0.0000 16.9914 0.0000
# 2 43.5700 105.5867 35.9671 0.0000 1.2583 0.0000
# 3 45.1093 35.9671 150.7855 0.0000 -5.4433 0.0000
# 4 0.0000 0.0000 0.0000 41.5558 0.0000 -5.3479
# 5 16.9914 1.2583 -5.4433 0.0000 46.5595 0.0000
# 6 0.0000 0.0000 0.0000 -5.3479 0.0000 26.2801
#
#
#
# Elastic Compliance Matrix: (Units=1/GPa)
#
#
# Indices 1 2 3 4 5 6 
#
# 1 0.016279 -0.005341 -0.003821 0.000000 -0.006243 0.000000
# 2 -0.005341 0.012076 -0.001229 0.000000 0.001479 0.000000
# 3 -0.003821 -0.001229 0.008154 0.000000 0.002381 0.000000
# 4 0.000000 0.000000 0.000000 0.024711 0.000000 0.005029
# 5 -0.006243 0.001479 0.002381 0.000000 0.023995 0.000000
# 6 0.000000 0.000000 0.000000 0.005029 0.000000 0.039075
#
#
# Mechanical properties :
#
#
# Convention : Reuss Voigt Hill
#
# Bulk Modulus (GPa) = 63.59096 66.49956 65.04526
# Shear Modulus (GPa) = 33.26343 37.84956 35.55649
#
# Velocity S-wave (km/s) = 3.92815 4.19020 4.06129
# Velocity P-wave (km/s) = 7.07620 7.36603 7.22257
#
# Compressibility (1/GPa) = 0.01572551
#
# Stress axis : x y z
#
# Youngs Moduli (GPa) = 61.42972 82.80857 122.63490
#
# Poissons Ratio (x) = 0.44230 0.46862
# Poissons Ratio (y) = 0.32811 0.15074
# Poissons Ratio (z) = 0.23474 0.10179
#
# Static dielectric constant tensor:
#      x y z
#    x 4.163320 0.000000 -0.047270 
#    y 0.000000 4.047940 0.000000 
#    z -0.047270 0.000000 4.086500 
# 
# 
# High freq. dielectric constant tensor:
#      x y z
#    x 1.869420 0.000000 0.001740 
#    y 0.000000 1.849680 0.000000 
#    z 0.001740 0.000000 1.861450 
# 
# From -- ./inp_files/64478.got.cif
#   From: 2010.06.25/outbox.cif.g09.slc.cpg/sg13_33_cif.got.tgz:64478.got - 2010.06.28 04:50:58.
