data_PCOD8121361
_publ_section_title
;
Structure prediction by ZEFSAII (Michael W. Deem and Ramdas Pophale) SiO2 
 PCOD8121361
Probable space group: P 2/C
;
_chemical_formula_sum "Si O2"
_cell_formula_units_Z 20
_cell_length_a 19.033604
_cell_length_b 8.171602
_cell_length_c 13.367179
_cell_angle_alpha 90.000000
_cell_angle_beta 24.429006
_cell_angle_gamma 90.000000
_cell_volume 859.829236
_symmetry_space_group_name_H-M "P 2/C"
_symmetry_group_IT_number 13
_symmetry_cell_setting 'monoclinic'
loop_
_space_group_symop_operation_xyz
x,y,z
-x,y,1/2-z
-x,-y,-z
x,-y,1/2+z
loop_
_atom_site_type_symbol
_atom_site_label
_atom_site_fract_x
_atom_site_fract_y
_atom_site_fract_z
Si Si1 0.500000 0.466594 0.250000
Si Si2 0.738654 0.301717 0.313210
Si Si3 0.301257 0.757704 0.854458
Si Si4 0.938953 0.161853 0.527825
Si Si5 0.000000 0.991199 0.250000
Si Si6 0.405822 0.058987 0.477088
O O1 0.384688 0.573870 0.472796
O O2 0.630084 0.365439 0.150308
O O3 0.754833 0.340062 0.173431
O O4 0.928456 0.307204 0.116421
O O5 0.661504 0.121802 0.423968
O O6 0.451348 0.885354 0.627846
O O7 0.148448 0.869663 0.096200
O O8 0.934067 0.118773 0.417404
O O9 0.746556 0.194557 0.815012
O O10 0.000000 0.000000 0.500000
O O11 0.500000 0.084577 0.250000
#
# Coordination Sequence:
#
# PCOD8121361 Si02
#       6
#     2   4   4   4   2   4
#     4  12  28  44  66  98 152 194 224 272 348 440
#     4  11  24  45  69 101 139 178 235 291 343 410
#     4  12  25  43  70 101 138 189 230 283 352 413
#     4  10  22  41  70 108 132 171 229 302 345 396
#     4  12  24  42  74 106 140 176 232 292 356 400
#     4  11  21  42  76 103 133 172 237 301 343 396
#
# _framework density 23.260434
#
# number of rings (size 3 to 8) (size 9 to 14) (size 15 to 20)
#    0.000    0.800    6.000    3.600    0.000    0.000 
#    0.000    7.000    0.000    0.000    0.000    0.000 
#    0.000    0.000    0.000    0.000    0.000    0.000 
#
# Total GULP energy -247790.507474 kJ/mol
# GULP energy per Si atom -12389.525374 kJ/mol
# Density = 2.320749 g / cm^3
# Si number density = 23.260434 Si / 1000 Ang^3
#
#
#
# Elastic Constant Matrix: (Units=GPa)
#
#
# Indices 1 2 3 4 5 6 
#
# 1 126.6124 34.7057 52.7879 0.0000 1.5404 0.0000
# 2 34.7057 62.2177 19.1282 0.0000 -11.1272 0.0000
# 3 52.7879 19.1282 146.2797 0.0000 -20.5931 0.0000
# 4 0.0000 0.0000 0.0000 22.1484 0.0000 -12.6835
# 5 1.5404 -11.1272 -20.5931 0.0000 49.8654 0.0000
# 6 0.0000 0.0000 0.0000 -12.6835 0.0000 19.1803
#
#
#
# Elastic Compliance Matrix: (Units=1/GPa)
#
#
# Indices 1 2 3 4 5 6 
#
# 1 0.010991 -0.005555 -0.003676 0.000000 -0.003097 0.000000
# 2 -0.005555 0.019989 0.000045 0.000000 0.004651 0.000000
# 3 -0.003676 0.000045 0.008679 0.000000 0.003708 0.000000
# 4 0.000000 0.000000 0.000000 0.072669 0.000000 0.048054
# 5 -0.003097 0.004651 0.003708 0.000000 0.022719 0.000000
# 6 0.000000 0.000000 0.000000 0.048054 0.000000 0.083914
#
#
# Mechanical properties :
#
#
# Convention : Reuss Voigt Hill
#
# Bulk Modulus (GPa) = 46.97441 60.92816 53.95129
# Shear Modulus (GPa) = 20.45609 33.47136 26.96372
#
# Velocity S-wave (km/s) = 2.96875 3.79751 3.40841
# Velocity P-wave (km/s) = 5.65598 6.74380 6.22370
#
# Compressibility (1/GPa) = 0.02128819
#
# Stress axis : x y z
#
# Youngs Moduli (GPa) = 90.98362 50.02797 115.22322
#
# Poissons Ratio (x) = 0.27789 0.42356
# Poissons Ratio (y) = 0.50538 -0.00523
# Poissons Ratio (z) = 0.33445 -0.00227
#
# Static dielectric constant tensor:
#      x y z
#    x 4.420540 0.000000 -0.502010 
#    y 0.000000 4.550490 0.000000 
#    z -0.502010 0.000000 5.430250 
# 
# 
# High freq. dielectric constant tensor:
#      x y z
#    x 1.937240 0.000000 -0.003720 
#    y 0.000000 1.884210 0.000000 
#    z -0.003720 0.000000 1.943690 
# 
# From -- ./inp_files/57158.got.cif
#   From: 2010.06.25/outbox.cif.g09.slc.cpg/sg13_29_cif.got.tgz:57158.got - 2010.06.28 04:50:58.
