data_PCOD8121474
_publ_section_title
;
Structure prediction by ZEFSAII (Michael W. Deem and Ramdas Pophale) SiO2 
 PCOD8121474
Probable space group: P 2/C
;
_chemical_formula_sum "Si O2"
_cell_formula_units_Z 24
_cell_length_a 12.164527
_cell_length_b 8.531897
_cell_length_c 10.981837
_cell_angle_alpha 90.000000
_cell_angle_beta 106.088171
_cell_angle_gamma 90.000000
_cell_volume 1095.128964
_symmetry_space_group_name_H-M "P 2/C"
_symmetry_group_IT_number 13
_symmetry_cell_setting 'monoclinic'
loop_
_space_group_symop_operation_xyz
x,y,z
-x,y,1/2-z
-x,-y,-z
x,-y,1/2+z
loop_
_atom_site_type_symbol
_atom_site_label
_atom_site_fract_x
_atom_site_fract_y
_atom_site_fract_z
Si Si1 0.079276 0.654868 0.525346
Si Si2 0.753223 0.388442 0.624016
Si Si3 0.877005 0.109990 0.263238
Si Si4 0.870278 0.213192 0.862244
Si Si5 0.510209 0.631804 0.108386
Si Si6 0.277479 0.726652 0.958846
O O1 0.202869 0.637807 0.499982
O O2 0.106849 0.721806 0.667039
O O3 0.000000 0.500000 0.500000
O O4 0.004905 0.787975 0.434355
O O5 0.853042 0.325822 0.741109
O O6 0.636137 0.294758 0.623193
O O7 0.730115 0.573786 0.630429
O O8 0.777528 0.128129 0.131179
O O9 0.000000 0.057541 0.250000
O O10 0.832050 0.967156 0.332711
O O11 0.799156 0.297965 0.945865
O O12 0.500000 0.578808 0.250000
O O13 0.500000 0.500000 0.000000
O O14 0.408444 0.755042 0.044970
#
# Coordination Sequence:
#
# PCOD8121474 Si02
#       6
#     4   4   4   4   4   4
#     4  12  23  41  67 100 135 172 224 286 341 407
#     4  11  23  41  69  97 128 174 227 285 340 397
#     4  12  25  41  65  96 140 182 223 277 348 420
#     4  12  24  41  66  94 137 175 219 277 350 408
#     4  10  22  42  70  99 133 176 232 290 344 403
#     4  11  24  43  67  96 131 172 231 282 334 409
#
# _framework density 21.915227000000002
#
# number of rings (size 3 to 8) (size 9 to 14) (size 15 to 20)
#    0.000    0.667    5.000    3.000    2.333    1.333 
#    0.000    0.833    3.667    0.000    0.000    0.000 
#    0.000    0.000    0.000    0.000    0.000    0.000 
#
# Total GULP energy -297322.925809 kJ/mol
# GULP energy per Si atom -12388.455242 kJ/mol
# Density = 2.186535 g / cm^3
# Si number density = 21.915227 Si / 1000 Ang^3
#
#
#
# Elastic Constant Matrix: (Units=GPa)
#
#
# Indices 1 2 3 4 5 6 
#
# 1 150.5640 14.9132 42.7803 0.0000 3.4199 0.0000
# 2 14.9132 73.9999 29.8150 0.0000 -2.2391 0.0000
# 3 42.7803 29.8150 112.8906 0.0000 3.6605 0.0000
# 4 0.0000 0.0000 0.0000 32.0789 0.0000 -2.9098
# 5 3.4199 -2.2391 3.6605 0.0000 34.1462 0.0000
# 6 0.0000 0.0000 0.0000 -2.9098 0.0000 14.6873
#
#
#
# Elastic Compliance Matrix: (Units=1/GPa)
#
#
# Indices 1 2 3 4 5 6 
#
# 1 0.007462 -0.000431 -0.002698 0.000000 -0.000486 0.000000
# 2 -0.000431 0.015217 -0.003903 0.000000 0.001459 0.000000
# 3 -0.002698 -0.003903 0.010949 0.000000 -0.001159 0.000000
# 4 0.000000 0.000000 0.000000 0.031744 0.000000 0.006289
# 5 -0.000486 0.001459 -0.001159 0.000000 0.029555 0.000000
# 6 0.000000 0.000000 0.000000 0.006289 0.000000 0.069332
#
#
# Mechanical properties :
#
#
# Convention : Reuss Voigt Hill
#
# Bulk Modulus (GPa) = 51.11550 56.94128 54.02839
# Shear Modulus (GPa) = 27.04986 32.84555 29.94770
#
# Velocity S-wave (km/s) = 3.51707 3.87558 3.70066
# Velocity P-wave (km/s) = 6.31410 6.78717 6.55490
#
# Compressibility (1/GPa) = 0.01956354
#
# Stress axis : x y z
#
# Youngs Moduli (GPa) = 134.01075 65.71560 91.33345
#
# Poissons Ratio (x) = 0.02836 0.24642
# Poissons Ratio (y) = 0.05782 0.35645
# Poissons Ratio (z) = 0.36157 0.25647
#
# Static dielectric constant tensor:
#      x y z
#    x 4.386640 0.000000 0.253300 
#    y 0.000000 3.585830 0.000000 
#    z 0.253300 0.000000 4.208220 
# 
# 
# High freq. dielectric constant tensor:
#      x y z
#    x 1.865150 0.000000 0.003160 
#    y 0.000000 1.827470 0.000000 
#    z 0.003160 0.000000 1.875520 
# 
# From -- ./inp_files/32678.got.cif
#   From: 2010.06.25/outbox.cif.g09.slc.cpg/sg13_17_cif.got.tgz:32678.got - 2010.06.28 04:50:58.
