data_PCOD8121440
_publ_section_title
;
Structure prediction by ZEFSAII (Michael W. Deem and Ramdas Pophale) SiO2 
 PCOD8121440
Probable space group: P 2/C
;
_chemical_formula_sum "Si O2"
_cell_formula_units_Z 20
_cell_length_a 9.560603
_cell_length_b 8.519511
_cell_length_c 24.012073
_cell_angle_alpha 90.000000
_cell_angle_beta 28.996538
_cell_angle_gamma 90.000000
_cell_volume 948.098572
_symmetry_space_group_name_H-M "P 2/C"
_symmetry_group_IT_number 13
_symmetry_cell_setting 'monoclinic'
loop_
_space_group_symop_operation_xyz
x,y,z
-x,y,1/2-z
-x,-y,-z
x,-y,1/2+z
loop_
_atom_site_type_symbol
_atom_site_label
_atom_site_fract_x
_atom_site_fract_y
_atom_site_fract_z
Si Si1 0.063594 0.678500 0.495571
Si Si2 0.124050 0.799363 0.049342
Si Si3 0.366194 0.582217 0.237488
Si Si4 0.799283 0.112767 0.175909
Si Si5 0.719575 0.286377 0.311232
O O1 0.408871 0.703167 0.370184
O O2 0.000000 0.500000 0.500000
O O3 0.906471 0.790680 0.506644
O O4 0.941097 0.730419 0.598344
O O5 0.932965 0.671921 0.148888
O O6 0.458337 0.756424 0.944871
O O7 0.034463 0.974970 0.095135
O O8 0.500000 0.523286 0.250000
O O9 0.336808 0.440442 0.205334
O O10 0.500000 0.063291 0.250000
O O11 0.750451 0.143328 0.257764
O O12 0.000000 0.313096 0.250000
#
# Coordination Sequence:
#
# PCOD8121440 Si02
#       5
#     4   4   4   4   4
#     4  11  19  38  69 100 127 160 209 272 320 373
#     4  11  24  40  68 100 126 163 219 265 325 384
#     4  10  22  42  67  97 125 165 215 272 319 376
#     4  12  23  41  70  96 130 167 211 273 327 375
#     4  12  27  44  63  92 132 176 217 260 319 388
#
# _framework density 21.094854000000002
#
# number of rings (size 3 to 8) (size 9 to 14) (size 15 to 20)
#    0.000    0.800    4.000    5.400    2.800    1.600 
#    0.000    1.000    0.000    0.000    0.000    0.000 
#    0.000    0.000    0.000    0.000    0.000    0.000 
#
# Total GULP energy -247941.654103 kJ/mol
# GULP energy per Si atom -12397.082705 kJ/mol
# Density = 2.104684 g / cm^3
# Si number density = 21.094854 Si / 1000 Ang^3
#
#
#
# Elastic Constant Matrix: (Units=GPa)
#
#
# Indices 1 2 3 4 5 6 
#
# 1 67.3809 20.1885 37.6874 0.0000 -20.0623 0.0000
# 2 20.1885 111.8145 46.8250 0.0000 -6.7150 0.0000
# 3 37.6874 46.8250 172.9469 0.0000 -19.4481 0.0000
# 4 0.0000 0.0000 0.0000 41.5314 0.0000 1.8190
# 5 -20.0623 -6.7150 -19.4481 0.0000 30.5931 0.0000
# 6 0.0000 0.0000 0.0000 1.8190 0.0000 3.2799
#
#
#
# Elastic Compliance Matrix: (Units=1/GPa)
#
#
# Indices 1 2 3 4 5 6 
#
# 1 0.020201 -0.001871 -0.002641 0.000000 0.011158 0.000000
# 2 -0.001871 0.010268 -0.002431 0.000000 -0.000519 0.000000
# 3 -0.002641 -0.002431 0.007281 0.000000 0.002364 0.000000
# 4 0.000000 0.000000 0.000000 0.024678 0.000000 -0.013686
# 5 0.011158 -0.000519 0.002364 0.000000 0.041393 0.000000
# 6 0.000000 0.000000 0.000000 -0.013686 0.000000 0.312478
#
#
# Mechanical properties :
#
#
# Convention : Reuss Voigt Hill
#
# Bulk Modulus (GPa) = 41.90228 62.39380 52.14804
# Shear Modulus (GPa) = 11.41191 31.57697 21.49444
#
# Velocity S-wave (km/s) = 2.32842 3.87318 3.19555
# Velocity P-wave (km/s) = 5.20918 7.04585 6.19595
#
# Compressibility (1/GPa) = 0.02386505
#
# Stress axis : x y z
#
# Youngs Moduli (GPa) = 49.50288 97.39016 137.33605
#
# Poissons Ratio (x) = 0.18226 0.36265
# Poissons Ratio (y) = 0.09264 0.33380
# Poissons Ratio (z) = 0.13072 0.23671
#
# Static dielectric constant tensor:
#      x y z
#    x 3.452380 0.000000 0.140790 
#    y 0.000000 3.663200 0.000000 
#    z 0.140790 0.000000 4.778480 
# 
# 
# High freq. dielectric constant tensor:
#      x y z
#    x 1.772760 0.000000 0.006170 
#    y 0.000000 1.823960 0.000000 
#    z 0.006170 0.000000 1.864280 
# 
# From -- ./inp_files/28125.got.cif
#   From: 2010.06.25/outbox.cif.g09.slc.cpg/sg13_15_cif.got.tgz:28125.got - 2010.06.28 04:50:58.
