data_PCOD8121724
_publ_section_title
;
Structure prediction by ZEFSAII (Michael W. Deem and Ramdas Pophale) SiO2 
 PCOD8121724
Probable space group: P 2/C
;
_chemical_formula_sum "Si O2"
_cell_formula_units_Z 28
_cell_length_a 14.514863
_cell_length_b 12.218648
_cell_length_c 9.301088
_cell_angle_alpha 90.000000
_cell_angle_beta 119.166336
_cell_angle_gamma 90.000000
_cell_volume 1440.415666
_symmetry_space_group_name_H-M "P 2/C"
_symmetry_group_IT_number 13
_symmetry_cell_setting 'monoclinic'
loop_
_space_group_symop_operation_xyz
x,y,z
-x,y,1/2-z
-x,-y,-z
x,-y,1/2+z
loop_
_atom_site_type_symbol
_atom_site_label
_atom_site_fract_x
_atom_site_fract_y
_atom_site_fract_z
Si Si1 0.876528 0.723835 0.682163
Si Si2 0.458272 0.600052 0.374857
Si Si3 0.258324 0.888403 0.733142
Si Si4 0.712516 0.896798 0.077156
Si Si5 0.075820 0.513681 0.187554
Si Si6 0.508763 0.806141 0.596403
Si Si7 0.767042 0.687335 0.300757
O O1 0.823863 0.801234 0.762698
O O2 0.865957 0.599362 0.728128
O O3 0.810225 0.733611 0.484615
O O4 0.000000 0.754868 0.750000
O O5 0.500000 0.580835 0.250000
O O6 0.500000 0.500000 0.500000
O O7 0.499138 0.712647 0.471602
O O8 0.333354 0.608666 0.260032
O O9 0.240417 0.900207 0.548594
O O10 0.379287 0.858438 0.853398
O O11 0.238401 0.002743 0.797945
O O12 0.748612 0.786711 0.180177
O O13 0.584110 0.897681 0.983772
O O14 0.154150 0.610354 0.220848
O O15 0.000000 0.559108 0.250000
O O16 0.000000 0.500000 0.000000
O O17 0.500000 0.754353 0.750000
#
# Coordination Sequence:
#
# PCOD8121724 Si02
#       7
#     4   4   4   4   4   4   4
#     4  11  24  43  63  93 122 160 213 258 307 368
#     4  11  24  37  55  89 128 165 202 246 306 370
#     4  11  22  40  67  88 127 163 206 255 312 356
#     4  10  23  40  63  97 121 162 204 252 308 377
#     4  11  23  42  66  92 120 161 210 259 309 365
#     4   9  20  40  61  89 121 161 206 248 297 374
#     4  11  24  41  64  88 128 162 207 254 312 365
#
# _framework density 19.438832000000001
#
# number of rings (size 3 to 8) (size 9 to 14) (size 15 to 20)
#    0.000    1.429    2.857    2.571    6.000    1.143 
#    0.000    4.286    0.000    0.000    0.000    0.000 
#    0.000    0.000    0.000    0.000    0.000    0.000 
#
# Total GULP energy -347103.340640 kJ/mol
# GULP energy per Si atom -12396.547880 kJ/mol
# Density = 1.939459 g / cm^3
# Si number density = 19.438832 Si / 1000 Ang^3
#
#
#
# Elastic Constant Matrix: (Units=GPa)
#
#
# Indices 1 2 3 4 5 6 
#
# 1 135.2006 62.5105 56.8955 0.0000 -12.8392 0.0000
# 2 62.5105 76.0356 28.6251 0.0000 -13.3733 0.0000
# 3 56.8955 28.6251 129.6835 0.0000 -15.7462 0.0000
# 4 0.0000 0.0000 0.0000 41.0069 0.0000 -4.4025
# 5 -12.8392 -13.3733 -15.7462 0.0000 39.1786 0.0000
# 6 0.0000 0.0000 0.0000 -4.4025 0.0000 33.0784
#
#
#
# Elastic Compliance Matrix: (Units=1/GPa)
#
#
# Indices 1 2 3 4 5 6 
#
# 1 0.013439 -0.009691 -0.003810 0.000000 -0.000435 0.000000
# 2 -0.009691 0.021893 -0.000062 0.000000 0.004272 0.000000
# 3 -0.003810 -0.000062 0.009716 0.000000 0.002635 0.000000
# 4 0.000000 0.000000 0.000000 0.024740 0.000000 0.003293
# 5 -0.000435 0.004272 0.002635 0.000000 0.027899 0.000000
# 6 0.000000 0.000000 0.000000 0.003293 0.000000 0.030669
#
#
# Mechanical properties :
#
#
# Convention : Reuss Voigt Hill
#
# Bulk Modulus (GPa) = 55.79337 70.77575 63.28456
# Shear Modulus (GPa) = 30.96812 35.51203 33.24008
#
# Velocity S-wave (km/s) = 3.99570 4.27882 4.13968
# Velocity P-wave (km/s) = 7.07473 7.80381 7.44820
#
# Compressibility (1/GPa) = 0.01792328
#
# Stress axis : x y z
#
# Youngs Moduli (GPa) = 74.41132 45.67572 102.92042
#
# Poissons Ratio (x) = 0.44262 0.39210
# Poissons Ratio (y) = 0.72109 0.00641
# Poissons Ratio (z) = 0.28349 0.00284
#
# Static dielectric constant tensor:
#      x y z
#    x 3.683720 0.000000 -0.061240 
#    y 0.000000 3.436830 0.000000 
#    z -0.061240 0.000000 3.780720 
# 
# 
# High freq. dielectric constant tensor:
#      x y z
#    x 1.764250 0.000000 -0.006780 
#    y 0.000000 1.755400 0.000000 
#    z -0.006780 0.000000 1.774210 
# 
# From -- ./inp_files/19108.got.cif
#   From: 2010.06.25/outbox.cif.g09.slc.cpg/sg13_10_cif.got.tgz:19108.got - 2010.06.28 04:50:58.
