data_PCOD8121965
_publ_section_title
;
Structure prediction by ZEFSAII (Michael W. Deem and Ramdas Pophale) SiO2 
 PCOD8121965
Probable space group: P 2/C
;
_chemical_formula_sum "Si O2"
_cell_formula_units_Z 16
_cell_length_a 5.485876
_cell_length_b 13.646919
_cell_length_c 8.914523
_cell_angle_alpha 90.000000
_cell_angle_beta 78.643300
_cell_angle_gamma 90.000000
_cell_volume 654.321201
_symmetry_space_group_name_H-M "P 2/C"
_symmetry_group_IT_number 13
_symmetry_cell_setting 'monoclinic'
loop_
_space_group_symop_operation_xyz
x,y,z
-x,y,1/2-z
-x,-y,-z
x,-y,1/2+z
loop_
_atom_site_type_symbol
_atom_site_label
_atom_site_fract_x
_atom_site_fract_y
_atom_site_fract_z
Si Si1 0.500000 0.250987 0.250000
Si Si2 0.837167 0.135702 0.024604
Si Si3 0.000000 0.013279 0.750000
Si Si4 0.000000 0.470705 0.250000
Si Si5 0.186804 0.316234 0.038103
Si Si6 0.500000 0.592377 0.250000
O O1 0.580278 0.188032 0.094570
O O2 0.277826 0.311356 0.203093
O O3 0.057409 0.215865 0.001343
O O4 0.856722 0.053199 0.149981
O O5 0.815140 0.084715 0.865418
O O6 0.992875 0.409574 0.411007
O O7 0.744215 0.533462 0.274261
O O8 0.412164 0.338591 0.897654
#
# Coordination Sequence:
#
# PCOD8121965 Si02
#       6
#     2   4   2   2   4   2
#     4  12  23  44  71  98 140 204 232 299 370 439
#     4  11  24  46  70 104 144 194 234 312 360 449
#     4  10  23  47  68 104 148 178 258 293 371 434
#     4  12  25  51  74 112 148 194 246 315 363 442
#     4  12  26  47  71 105 147 194 240 301 382 431
#     4  12  31  44  79 112 146 194 256 307 362 447
#
# _framework density 24.452822999999999
#
# number of rings (size 3 to 8) (size 9 to 14) (size 15 to 20)
#    0.000    0.500    5.000    2.250    7.000    1.000 
#    0.000    0.000    0.000    0.000    0.000    0.000 
#    0.000    0.000    0.000    0.000    0.000    0.000 
#
# Total GULP energy -198224.942491 kJ/mol
# GULP energy per Si atom -12389.058906 kJ/mol
# Density = 2.439717 g / cm^3
# Si number density = 24.452823 Si / 1000 Ang^3
#
#
#
# Elastic Constant Matrix: (Units=GPa)
#
#
# Indices 1 2 3 4 5 6 
#
# 1 100.9879 46.9688 28.6776 0.0000 -19.2377 0.0000
# 2 46.9688 134.0654 73.1633 0.0000 -10.7733 0.0000
# 3 28.6776 73.1633 151.2011 0.0000 -30.8547 0.0000
# 4 0.0000 0.0000 0.0000 57.7253 0.0000 -10.8615
# 5 -19.2377 -10.7733 -30.8547 0.0000 41.3054 0.0000
# 6 0.0000 0.0000 0.0000 -10.8615 0.0000 2.6571
#
#
#
# Elastic Compliance Matrix: (Units=1/GPa)
#
#
# Indices 1 2 3 4 5 6 
#
# 1 0.012791 -0.004519 0.000868 0.000000 0.005427 0.000000
# 2 -0.004519 0.011783 -0.005483 0.000000 -0.003127 0.000000
# 3 0.000868 -0.005483 0.010492 0.000000 0.006812 0.000000
# 4 0.000000 0.000000 0.000000 0.075035 0.000000 0.306718
# 5 0.005427 -0.003127 0.006812 0.000000 0.031010 0.000000
# 6 0.000000 0.000000 0.000000 0.306718 0.000000 1.630102
#
#
# Mechanical properties :
#
#
# Convention : Reuss Voigt Hill
#
# Bulk Modulus (GPa) = 59.52586 75.98596 67.75591
# Shear Modulus (GPa) = 2.78539 36.16719 19.47629
#
# Velocity S-wave (km/s) = 1.06844 3.85003 2.82527
# Velocity P-wave (km/s) = 5.09098 7.13482 6.19773
#
# Compressibility (1/GPa) = 0.01679942
#
# Stress axis : x y z
#
# Youngs Moduli (GPa) = 78.17838 84.86857 95.31084
#
# Poissons Ratio (x) = 0.38352 -0.08274
# Poissons Ratio (y) = 0.35328 0.52254
# Poissons Ratio (z) = -0.06786 0.46529
#
# Static dielectric constant tensor:
#      x y z
#    x 3.965840 0.000000 -0.311880 
#    y 0.000000 4.736670 0.000000 
#    z -0.311880 0.000000 4.815020 
# 
# 
# High freq. dielectric constant tensor:
#      x y z
#    x 1.948570 0.000000 -0.023830 
#    y 0.000000 1.990910 0.000000 
#    z -0.023830 0.000000 1.993140 
# 
# From -- ./inp_files/8566.got.cif
#   From: 2010.06.25/outbox.cif.g09.slc.cpg/sg13_5_cif.got.tgz:8566.got - 2010.06.28 04:50:58.
