data_PCOD8121174
_publ_section_title
;
Structure prediction by ZEFSAII (Michael W. Deem and Ramdas Pophale) SiO2 
 PCOD8121174
Probable space group: P 2/C
;
_chemical_formula_sum "Si O2"
_cell_formula_units_Z 20
_cell_length_a 7.499746
_cell_length_b 5.023515
_cell_length_c 25.622826
_cell_angle_alpha 90.000000
_cell_angle_beta 105.120146
_cell_angle_gamma 90.000000
_cell_volume 931.922981
_symmetry_space_group_name_H-M "P 2/C"
_symmetry_group_IT_number 13
_symmetry_cell_setting 'monoclinic'
loop_
_space_group_symop_operation_xyz
x,y,z
-x,y,1/2-z
-x,-y,-z
x,-y,1/2+z
loop_
_atom_site_type_symbol
_atom_site_label
_atom_site_fract_x
_atom_site_fract_y
_atom_site_fract_z
Si Si1 0.347211 0.010531 0.847897
Si Si2 0.144530 0.507206 0.305566
Si Si3 0.266585 0.998756 0.077456
Si Si4 0.699817 0.498673 0.989423
Si Si5 0.085994 0.244836 0.904030
O O1 0.263420 0.228122 0.801021
O O2 0.565569 0.049822 0.869808
O O3 0.258159 0.059327 0.898897
O O4 0.295337 0.723280 0.822468
O O5 0.000000 0.434180 0.250000
O O6 0.034855 0.557067 0.351874
O O7 0.264389 0.798295 0.028261
O O8 0.081042 0.953744 0.096013
O O9 0.285779 0.298962 0.058046
O O10 0.500000 0.500000 0.000000
O O11 0.858641 0.574433 0.042571
#
# Coordination Sequence:
#
# PCOD8121174 Si02
#       5
#     4   4   4   4   4
#     4  10  22  40  63  88 124 157 205 253 311 364
#     4  10  22  43  68  85 121 163 208 262 320 359
#     4  12  24  39  63  92 131 162 205 249 310 370
#     4  12  23  39  62  92 131 170 199 248 306 378
#     4  10  25  38  65  90 126 160 214 247 311 366
#
# _framework density 21.460999999999999
#
# number of rings (size 3 to 8) (size 9 to 14) (size 15 to 20)
#    1.200    0.000    2.000    4.800    5.600    0.000 
#    0.000    1.000    0.000    0.000    0.000    0.000 
#    0.000    0.000    0.000    0.000    0.000    0.000 
#
# Total GULP energy -247957.863537 kJ/mol
# GULP energy per Si atom -12397.893177 kJ/mol
# Density = 2.141215 g / cm^3
# Si number density = 21.461000 Si / 1000 Ang^3
#
#
#
# Elastic Constant Matrix: (Units=GPa)
#
#
# Indices 1 2 3 4 5 6 
#
# 1 93.1545 11.6566 18.3044 0.0000 21.0717 0.0000
# 2 11.6566 90.4779 10.3684 0.0000 -0.4330 0.0000
# 3 18.3044 10.3684 97.2709 0.0000 25.1518 0.0000
# 4 0.0000 0.0000 0.0000 30.6941 0.0000 5.5671
# 5 21.0717 -0.4330 25.1518 0.0000 22.9443 0.0000
# 6 0.0000 0.0000 0.0000 5.5671 0.0000 29.5946
#
#
#
# Elastic Compliance Matrix: (Units=1/GPa)
#
#
# Indices 1 2 3 4 5 6 
#
# 1 0.013961 -0.002013 0.001274 0.000000 -0.014256 0.000000
# 2 -0.002013 0.011554 -0.001936 0.000000 0.004189 0.000000
# 3 0.001274 -0.001936 0.014736 0.000000 -0.017360 0.000000
# 4 0.000000 0.000000 0.000000 0.033730 0.000000 -0.006345
# 5 -0.014256 0.004189 -0.017360 0.000000 0.075785 0.000000
# 6 0.000000 0.000000 0.000000 -0.006345 0.000000 0.034984
#
#
# Mechanical properties :
#
#
# Convention : Reuss Voigt Hill
#
# Bulk Modulus (GPa) = 28.65282 40.17356 34.41319
# Shear Modulus (GPa) = 24.78510 32.68485 28.73498
#
# Velocity S-wave (km/s) = 3.40205 3.90678 3.66312
# Velocity P-wave (km/s) = 5.36769 6.25384 5.82763
#
# Compressibility (1/GPa) = 0.03490058
#
# Stress axis : x y z
#
# Youngs Moduli (GPa) = 71.62730 86.55291 67.86046
#
# Poissons Ratio (x) = 0.17422 -0.08642
# Poissons Ratio (y) = 0.14417 0.13137
# Poissons Ratio (z) = -0.09122 0.16755
#
# Static dielectric constant tensor:
#      x y z
#    x 3.716820 0.000000 0.085020 
#    y 0.000000 3.870250 0.000000 
#    z 0.085020 0.000000 3.678900 
# 
# 
# High freq. dielectric constant tensor:
#      x y z
#    x 1.831220 0.000000 0.018340 
#    y 0.000000 1.854130 0.000000 
#    z 0.018340 0.000000 1.821770 
# 
# From -- ./inp_files/90695.got.cif
#   From: 2010.06.25/outbox.cif.g09.slc.cpg/sg13_46_cif.got.tgz:90695.got - 2010.06.28 04:50:58.
