data_PCOD8121055
_publ_section_title
;
Structure prediction by ZEFSAII (Michael W. Deem and Ramdas Pophale) SiO2 
 PCOD8121055
Probable space group: P 2/C
;
_chemical_formula_sum "Si O2"
_cell_formula_units_Z 26
_cell_length_a 18.949177
_cell_length_b 9.397433
_cell_length_c 9.250137
_cell_angle_alpha 90.000000
_cell_angle_beta 131.909031
_cell_angle_gamma 90.000000
_cell_volume 1225.860586
_symmetry_space_group_name_H-M "P 2/C"
_symmetry_group_IT_number 13
_symmetry_cell_setting 'monoclinic'
loop_
_space_group_symop_operation_xyz
x,y,z
-x,y,1/2-z
-x,-y,-z
x,-y,1/2+z
loop_
_atom_site_type_symbol
_atom_site_label
_atom_site_fract_x
_atom_site_fract_y
_atom_site_fract_z
Si Si1 0.390320 0.627146 0.576164
Si Si2 0.000000 0.161840 0.250000
Si Si3 0.727487 0.889221 0.027063
Si Si4 0.792528 0.868959 0.444667
Si Si5 0.015821 0.661258 0.049490
Si Si6 0.281136 0.438692 0.650670
Si Si7 0.153037 0.693044 0.486239
O O1 0.500000 0.599012 0.750000
O O2 0.366459 0.790949 0.588778
O O3 0.329216 0.510250 0.577616
O O4 0.364911 0.604330 0.374464
O O5 0.099525 0.077904 0.359434
O O6 0.965751 0.257844 0.071608
O O7 0.777438 0.893778 0.252407
O O8 0.782655 0.827538 0.961600
O O9 0.716624 0.048537 0.946329
O O10 0.778667 0.703190 0.469219
O O11 0.927106 0.734982 0.008610
O O12 0.000000 0.500000 0.000000
O O13 0.110619 0.660346 0.271234
O O14 0.209539 0.554648 0.621323
#
# Coordination Sequence:
#
# PCOD8121055 Si02
#       7
#     4   2   4   4   4   4   4
#     4  10  22  43  68  96 123 154 198 261 319 376
#     4  12  24  34  60  86 130 162 222 252 284 360
#     4  10  24  43  60  85 125 164 208 253 308 371
#     4  11  24  41  57  90 124 170 208 252 301 354
#     4  11  21  34  56  88 123 163 210 257 298 356
#     4  10  22  39  66  94 124 156 202 255 310 377
#     4  10  22  39  58  86 123 165 206 254 312 349
#
# _framework density 21.209588
#
# number of rings (size 3 to 8) (size 9 to 14) (size 15 to 20)
#    0.000    1.538    1.538    3.231    8.615    3.077 
#    0.000    3.846    0.000    0.000    0.000    0.000 
#    0.000    0.000    0.000    0.000    0.000    0.000 
#
# Total GULP energy -322137.822773 kJ/mol
# GULP energy per Si atom -12389.916261 kJ/mol
# Density = 2.116131 g / cm^3
# Si number density = 21.209588 Si / 1000 Ang^3
#
#
#
# Elastic Constant Matrix: (Units=GPa)
#
#
# Indices 1 2 3 4 5 6 
#
# 1 62.9704 19.2785 21.1304 0.0000 4.1753 0.0000
# 2 19.2785 78.2238 15.7910 0.0000 -7.4027 0.0000
# 3 21.1304 15.7910 73.4934 0.0000 6.5706 0.0000
# 4 0.0000 0.0000 0.0000 23.3973 0.0000 -4.7194
# 5 4.1753 -7.4027 6.5706 0.0000 32.8959 0.0000
# 6 0.0000 0.0000 0.0000 -4.7194 0.0000 19.6473
#
#
#
# Elastic Compliance Matrix: (Units=1/GPa)
#
#
# Indices 1 2 3 4 5 6 
#
# 1 0.018700 -0.003966 -0.004309 0.000000 -0.002405 0.000000
# 2 -0.003966 0.014648 -0.002389 0.000000 0.004277 0.000000
# 3 -0.004309 -0.002389 0.015637 0.000000 -0.003114 0.000000
# 4 0.000000 0.000000 0.000000 0.044916 0.000000 0.010789
# 5 -0.002405 0.004277 -0.003114 0.000000 0.032289 0.000000
# 6 0.000000 0.000000 0.000000 0.010789 0.000000 0.053489
#
#
# Mechanical properties :
#
#
# Convention : Reuss Voigt Hill
#
# Bulk Modulus (GPa) = 36.15860 36.34305 36.25083
# Shear Modulus (GPa) = 23.78352 25.75393 24.76873
#
# Velocity S-wave (km/s) = 3.35230 3.48840 3.42103
# Velocity P-wave (km/s) = 5.66296 5.77907 5.72131
#
# Compressibility (1/GPa) = 0.02765594
#
# Stress axis : x y z
#
# Youngs Moduli (GPa) = 53.47499 68.26643 63.94902
#
# Poissons Ratio (x) = 0.27078 0.27558
# Poissons Ratio (y) = 0.21211 0.15280
# Poissons Ratio (z) = 0.23044 0.16312
#
# Static dielectric constant tensor:
#      x y z
#    x 3.365870 0.000000 -0.114870 
#    y 0.000000 3.869330 0.000000 
#    z -0.114870 0.000000 3.763340 
# 
# 
# High freq. dielectric constant tensor:
#      x y z
#    x 1.820640 0.000000 -0.016280 
#    y 0.000000 1.832200 0.000000 
#    z -0.016280 0.000000 1.826760 
# 
# From -- ./inp_files/23011.got.cif
#   From: 2010.06.25/outbox.cif.g09.slc.cpg/sg13_12_cif.got.tgz:23011.got - 2010.06.28 04:50:58.
