data_PCOD8121034
_publ_section_title
;
Structure prediction by ZEFSAII (Michael W. Deem and Ramdas Pophale) SiO2 
 PCOD8121034
Probable space group: P 2/C
;
_chemical_formula_sum "Si O2"
_cell_formula_units_Z 28
_cell_length_a 7.817497
_cell_length_b 10.046872
_cell_length_c 24.198740
_cell_angle_alpha 90.000000
_cell_angle_beta 133.606224
_cell_angle_gamma 90.000000
_cell_volume 1376.220620
_symmetry_space_group_name_H-M "P 2/C"
_symmetry_group_IT_number 13
_symmetry_cell_setting 'monoclinic'
loop_
_space_group_symop_operation_xyz
x,y,z
-x,y,1/2-z
-x,-y,-z
x,-y,1/2+z
loop_
_atom_site_type_symbol
_atom_site_label
_atom_site_fract_x
_atom_site_fract_y
_atom_site_fract_z
Si Si1 0.012042 0.710002 0.150201
Si Si2 0.889360 0.010887 0.334243
Si Si3 0.000000 0.454163 0.750000
Si Si4 0.512630 0.905241 0.835179
Si Si5 0.520915 0.401985 0.161551
Si Si6 0.607094 0.896303 0.566242
Si Si7 0.500000 0.411005 0.750000
Si Si8 0.615820 0.615725 0.990630
O O1 0.898193 0.642677 0.179322
O O2 0.289320 0.685582 0.218820
O O3 0.983145 0.867644 0.138987
O O4 0.885754 0.642130 0.069376
O O5 0.705301 0.023279 0.243363
O O6 0.758682 0.039850 0.363833
O O7 0.108105 0.110092 0.372845
O O8 0.793986 0.554156 0.722017
O O9 0.495945 0.748154 0.820651
O O10 0.495570 0.936274 0.896351
O O11 0.396100 0.497461 0.177873
O O12 0.385927 0.422955 0.073962
O O13 0.534054 0.748688 0.532662
O O14 0.500000 0.000000 0.500000
O O15 0.500000 0.500000 0.000000
#
# Coordination Sequence:
#
# PCOD8121034 Si02
#       8
#     4   4   2   4   4   4   2   4
#     4  11  23  41  64  94 132 169 219 270 330 400
#     4  11  23  43  65  97 130 170 219 276 324 390
#     4  10  22  38  68  90 128 174 218 270 322 406
#     4  10  24  40  67  97 126 166 224 269 326 392
#     4  10  22  41  64  95 128 169 216 270 329 391
#     4  11  24  42  65  93 129 177 211 266 332 389
#     4  10  22  40  64  94 128 166 214 266 332 384
#     4  11  23  42  63  97 131 169 222 266 330 398
#
# _framework density 20.345576000000001
#
# number of rings (size 3 to 8) (size 9 to 14) (size 15 to 20)
#    0.000    1.429    2.857    2.143    6.000    2.286 
#    2.571    0.000    0.000    0.000    0.000    0.000 
#    0.000    0.000    0.000    0.000    0.000    0.000 
#
# Total GULP energy -347181.336886 kJ/mol
# GULP energy per Si atom -12399.333460 kJ/mol
# Density = 2.029927 g / cm^3
# Si number density = 20.345576 Si / 1000 Ang^3
#
#
#
# Elastic Constant Matrix: (Units=GPa)
#
#
# Indices 1 2 3 4 5 6 
#
# 1 80.7459 28.4444 34.7228 0.0000 -9.0265 0.0000
# 2 28.4444 98.7603 36.0718 0.0000 -11.4314 0.0000
# 3 34.7228 36.0718 103.3590 0.0000 -14.0658 0.0000
# 4 0.0000 0.0000 0.0000 36.6543 0.0000 -6.7793
# 5 -9.0265 -11.4314 -14.0658 0.0000 35.9170 0.0000
# 6 0.0000 0.0000 0.0000 -6.7793 0.0000 19.2433
#
#
#
# Elastic Compliance Matrix: (Units=1/GPa)
#
#
# Indices 1 2 3 4 5 6 
#
# 1 0.015219 -0.002778 -0.003954 0.000000 0.001392 0.000000
# 2 -0.002778 0.012283 -0.003081 0.000000 0.002005 0.000000
# 3 -0.003954 -0.003081 0.012475 0.000000 0.002911 0.000000
# 4 0.000000 0.000000 0.000000 0.029183 0.000000 0.010281
# 5 0.001392 0.002005 0.002911 0.000000 0.029970 0.000000
# 6 0.000000 0.000000 0.000000 0.010281 0.000000 0.055588
#
#
# Mechanical properties :
#
#
# Convention : Reuss Voigt Hill
#
# Bulk Modulus (GPa) = 49.13606 53.48258 51.30932
# Shear Modulus (GPa) = 27.60502 30.60467 29.10485
#
# Velocity S-wave (km/s) = 3.68748 3.88266 3.78633
# Velocity P-wave (km/s) = 6.50640 6.81500 6.66249
#
# Compressibility (1/GPa) = 0.02035165
#
# Stress axis : x y z
#
# Youngs Moduli (GPa) = 65.70733 81.41425 80.16333
#
# Poissons Ratio (x) = 0.22617 0.31694
# Poissons Ratio (y) = 0.18254 0.24695
# Poissons Ratio (z) = 0.25979 0.25080
#
# Static dielectric constant tensor:
#      x y z
#    x 3.765030 0.000000 -0.162820 
#    y 0.000000 3.786630 0.000000 
#    z -0.162820 0.000000 3.776160 
# 
# 
# High freq. dielectric constant tensor:
#      x y z
#    x 1.789840 0.000000 -0.005510 
#    y 0.000000 1.804380 0.000000 
#    z -0.005510 0.000000 1.801860 
# 
# From -- ./inp_files/91350.got.cif
#   From: 2010.06.25/outbox.cif.g09.slc.cpg/sg13_46_cif.got.tgz:91350.got - 2010.06.28 04:50:58.
