data_PCOD8121152
_publ_section_title
;
Structure prediction by ZEFSAII (Michael W. Deem and Ramdas Pophale) SiO2 
 PCOD8121152
Probable space group: P 2/C
;
_chemical_formula_sum "Si O2"
_cell_formula_units_Z 12
_cell_length_a 7.903371
_cell_length_b 6.873127
_cell_length_c 17.801506
_cell_angle_alpha 90.000000
_cell_angle_beta 30.691695
_cell_angle_gamma 90.000000
_cell_volume 493.571075
_symmetry_space_group_name_H-M "P 2/C"
_symmetry_group_IT_number 13
_symmetry_cell_setting 'monoclinic'
loop_
_space_group_symop_operation_xyz
x,y,z
-x,y,1/2-z
-x,-y,-z
x,-y,1/2+z
loop_
_atom_site_type_symbol
_atom_site_label
_atom_site_fract_x
_atom_site_fract_y
_atom_site_fract_z
Si Si1 0.755388 0.281581 0.947692
Si Si2 0.128990 0.852885 0.616833
Si Si3 0.650189 0.463136 0.270102
O O1 0.102053 0.375839 0.787342
O O2 0.809309 0.055013 0.949761
O O3 0.465182 0.279299 0.994984
O O4 0.645958 0.409176 0.060987
O O5 0.000000 0.897308 0.750000
O O6 0.861029 0.732191 0.672291
O O7 0.500000 0.544724 0.250000
#
# Coordination Sequence:
#
# PCOD8121152 Si02
#       3
#     4   4   4
#     4  10  22  40  61  87 119 157 199 241 289 350
#     4   9  21  40  62  87 116 156 201 242 288 347
#     4  11  23  38  61  91 121 155 193 243 300 348
#
# _framework density 24.312607
#
# number of rings (size 3 to 8) (size 9 to 14) (size 15 to 20)
#    0.000    2.000    0.000    2.000    0.000   14.667 
#    0.000    0.000    0.000    0.000    0.000    0.000 
#    0.000    0.000    0.000    0.000    0.000    0.000 
#
# Total GULP energy -148763.216234 kJ/mol
# GULP energy per Si atom -12396.934686 kJ/mol
# Density = 2.425727 g / cm^3
# Si number density = 24.312607 Si / 1000 Ang^3
#
#
#
# Elastic Constant Matrix: (Units=GPa)
#
#
# Indices 1 2 3 4 5 6 
#
# 1 61.5392 33.5088 26.8387 0.0000 -13.5118 0.0000
# 2 33.5088 68.2395 45.4221 0.0000 4.0098 0.0000
# 3 26.8387 45.4221 98.0681 0.0000 -10.8140 0.0000
# 4 0.0000 0.0000 0.0000 47.2794 0.0000 -6.6378
# 5 -13.5118 4.0098 -10.8140 0.0000 25.1464 0.0000
# 6 0.0000 0.0000 0.0000 -6.6378 0.0000 20.5110
#
#
#
# Elastic Compliance Matrix: (Units=1/GPa)
#
#
# Indices 1 2 3 4 5 6 
#
# 1 0.028393 -0.016237 0.001803 0.000000 0.018621 0.000000
# 2 -0.016237 0.032113 -0.012552 0.000000 -0.019243 0.000000
# 3 0.001803 -0.012552 0.016634 0.000000 0.010124 0.000000
# 4 0.000000 0.000000 0.000000 0.022158 0.000000 0.007171
# 5 0.018621 -0.019243 0.010124 0.000000 0.057195 0.000000
# 6 0.000000 0.000000 0.000000 0.007171 0.000000 0.051075
#
#
# Mechanical properties :
#
#
# Convention : Reuss Voigt Hill
#
# Bulk Modulus (GPa) = 43.16233 48.82067 45.99150
# Shear Modulus (GPa) = 18.56936 26.72583 22.64759
#
# Velocity S-wave (km/s) = 2.76665 3.31910 3.05539
# Velocity P-wave (km/s) = 5.29125 5.90022 5.60401
#
# Compressibility (1/GPa) = 0.02316835
#
# Stress axis : x y z
#
# Youngs Moduli (GPa) = 35.22012 31.14000 60.11931
#
# Poissons Ratio (x) = 0.50561 -0.10841
# Poissons Ratio (y) = 0.57186 0.75463
# Poissons Ratio (z) = -0.06351 0.39087
#
# Static dielectric constant tensor:
#      x y z
#    x 3.719230 0.000000 -0.373610 
#    y 0.000000 4.405670 0.000000 
#    z -0.373610 0.000000 4.577550 
# 
# 
# High freq. dielectric constant tensor:
#      x y z
#    x 1.914920 0.000000 -0.025010 
#    y 0.000000 1.975640 0.000000 
#    z -0.025010 0.000000 1.982730 
# 
# From -- ./inp_files/14656.got.cif
#   From: 2010.06.25/outbox.cif.g09.slc.cpg/sg13_8_cif.got.tgz:14656.got - 2010.06.28 04:50:58.
