data_PCOD8121450
_publ_section_title
;
Structure prediction by ZEFSAII (Michael W. Deem and Ramdas Pophale) SiO2 
 PCOD8121450
Probable space group: P 2/C
;
_chemical_formula_sum "Si O2"
_cell_formula_units_Z 20
_cell_length_a 7.381172
_cell_length_b 5.267820
_cell_length_c 21.559589
_cell_angle_alpha 90.000000
_cell_angle_beta 108.126171
_cell_angle_gamma 90.000000
_cell_volume 796.693274
_symmetry_space_group_name_H-M "P 2/C"
_symmetry_group_IT_number 13
_symmetry_cell_setting 'monoclinic'
loop_
_space_group_symop_operation_xyz
x,y,z
-x,y,1/2-z
-x,-y,-z
x,-y,1/2+z
loop_
_atom_site_type_symbol
_atom_site_label
_atom_site_fract_x
_atom_site_fract_y
_atom_site_fract_z
Si Si1 0.831782 0.097472 0.566687
Si Si2 0.707328 0.430047 0.193508
Si Si3 0.527992 0.058730 0.630190
Si Si4 0.839656 0.212798 0.437856
Si Si5 0.930515 0.467408 0.837756
O O1 0.632783 0.013239 0.575307
O O2 0.798850 0.296938 0.505264
O O3 0.974976 0.196245 0.636061
O O4 0.938018 0.864642 0.544649
O O5 0.566639 0.652382 0.154791
O O6 0.775605 0.539360 0.266821
O O7 0.886012 0.370805 0.166536
O O8 0.599425 0.159623 0.186428
O O9 0.303647 0.017536 0.595951
O O10 0.817184 0.438575 0.386334
#
# Coordination Sequence:
#
# PCOD8121450 Si02
#       5
#     4   4   4   4   4
#     4  10  23  44  65  97 134 174 224 271 334 399
#     4  10  24  43  70  93 139 174 224 274 335 398
#     4  11  24  45  66 102 130 179 218 278 334 394
#     4  11  23  41  69  96 132 175 222 278 330 395
#     4  10  22  42  68  94 133 181 220 275 336 395
#
# _framework density 25.103763000000001
#
# number of rings (size 3 to 8) (size 9 to 14) (size 15 to 20)
#    0.000    1.600    2.000    1.200    5.600    2.400 
#    0.000    3.000    0.000    0.000    0.000    0.000 
#    0.000    0.000    0.000    0.000    0.000    0.000 
#
# Total GULP energy -247774.997069 kJ/mol
# GULP energy per Si atom -12388.749853 kJ/mol
# Density = 2.504663 g / cm^3
# Si number density = 25.103763 Si / 1000 Ang^3
#
#
#
# Elastic Constant Matrix: (Units=GPa)
#
#
# Indices 1 2 3 4 5 6 
#
# 1 78.6093 14.2847 8.5715 0.0000 7.8136 0.0000
# 2 14.2847 71.9709 3.5539 0.0000 -1.2905 0.0000
# 3 8.5715 3.5539 109.4434 0.0000 1.0873 0.0000
# 4 0.0000 0.0000 0.0000 26.6743 0.0000 7.4067
# 5 7.8136 -1.2905 1.0873 0.0000 19.9999 0.0000
# 6 0.0000 0.0000 0.0000 7.4067 0.0000 30.8525
#
#
#
# Elastic Compliance Matrix: (Units=1/GPa)
#
#
# Indices 1 2 3 4 5 6 
#
# 1 0.013886 -0.002809 -0.000941 0.000000 -0.005555 0.000000
# 2 -0.002809 0.014502 -0.000271 0.000000 0.002048 0.000000
# 3 -0.000941 -0.000271 0.009221 0.000000 -0.000151 0.000000
# 4 0.000000 0.000000 0.000000 0.040167 0.000000 -0.009643
# 5 -0.005555 0.002048 -0.000151 0.000000 0.052311 0.000000
# 6 0.000000 0.000000 0.000000 -0.009643 0.000000 0.034727
#
#
# Mechanical properties :
#
#
# Convention : Reuss Voigt Hill
#
# Bulk Modulus (GPa) = 33.82218 34.76043 34.29131
# Shear Modulus (GPa) = 27.36523 31.07958 29.22240
#
# Velocity S-wave (km/s) = 3.30522 3.52240 3.41554
# Velocity P-wave (km/s) = 5.29794 5.51542 5.40778
#
# Compressibility (1/GPa) = 0.02956640
#
# Stress axis : x y z
#
# Youngs Moduli (GPa) = 72.01263 68.95498 108.44623
#
# Poissons Ratio (x) = 0.19372 0.10207
# Poissons Ratio (y) = 0.20231 0.02942
# Poissons Ratio (z) = 0.06778 0.01870
#
# Static dielectric constant tensor:
#      x y z
#    x 4.637790 0.000000 -0.235180 
#    y 0.000000 3.934760 0.000000 
#    z -0.235180 0.000000 4.831240 
# 
# 
# High freq. dielectric constant tensor:
#      x y z
#    x 2.009790 0.000000 -0.006630 
#    y 0.000000 1.966820 0.000000 
#    z -0.006630 0.000000 2.004460 
# 
# From -- ./inp_files/74168.got.cif
#   From: 2010.06.25/outbox.cif.g09.slc.cpg/sg13_38_cif.got.tgz:74168.got - 2010.06.28 04:50:58.
