data_PCOD8121443
_publ_section_title
;
Structure prediction by ZEFSAII (Michael W. Deem and Ramdas Pophale) SiO2 
 PCOD8121443
Probable space group: P 2/C
;
_chemical_formula_sum "Si O2"
_cell_formula_units_Z 32
_cell_length_a 11.805593
_cell_length_b 12.954893
_cell_length_c 9.907322
_cell_angle_alpha 90.000000
_cell_angle_beta 75.511481
_cell_angle_gamma 90.000000
_cell_volume 1467.040162
_symmetry_space_group_name_H-M "P 2/C"
_symmetry_group_IT_number 13
_symmetry_cell_setting 'monoclinic'
loop_
_space_group_symop_operation_xyz
x,y,z
-x,y,1/2-z
-x,-y,-z
x,-y,1/2+z
loop_
_atom_site_type_symbol
_atom_site_label
_atom_site_fract_x
_atom_site_fract_y
_atom_site_fract_z
Si Si1 0.381651 0.931344 0.362225
Si Si2 0.667354 0.171942 0.133516
Si Si3 0.905815 0.776010 0.442625
Si Si4 0.791546 0.570390 0.146787
Si Si5 0.161229 0.194456 0.834139
Si Si6 0.561694 0.427264 0.589690
Si Si7 0.446601 0.781591 0.558754
Si Si8 0.101473 0.461934 0.619484
O O1 0.500000 0.896560 0.250000
O O2 0.259476 0.886874 0.344270
O O3 0.402366 0.888972 0.506553
O O4 0.365231 0.052530 0.360592
O O5 0.625233 0.226619 0.281987
O O6 0.587673 0.221169 0.038167
O O7 0.805479 0.194893 0.080151
O O8 0.862762 0.824346 0.315776
O O9 0.921925 0.654136 0.421063
O O10 0.034097 0.820985 0.446736
O O11 0.787827 0.693403 0.148494
O O12 0.683438 0.520699 0.097505
O O13 0.790492 0.531734 0.303768
O O14 0.896155 0.532147 0.016299
O O15 0.500000 0.411888 0.750000
O O16 0.500000 0.500000 0.500000
O O17 0.586323 0.314968 0.522713
O O18 0.000000 0.499406 0.750000
#
# Coordination Sequence:
#
# PCOD8121443 Si02
#       8
#     4   4   4   4   4   4   4   4
#     4  12  23  44  73  98 132 179 234 286 345 418
#     4  11  26  41  72 100 136 180 228 296 347 409
#     4  10  22  42  68  97 135 178 219 286 345 411
#     4  11  23  42  62  99 128 178 224 285 334 414
#     4  10  22  42  67  98 133 175 232 274 348 419
#     4  12  28  45  69 102 142 188 230 287 359 418
#     4  11  25  45  65 106 135 177 236 287 353 423
#     4  11  22  41  69  95 129 173 236 271 343 415
#
# _framework density 21.812628
#
# number of rings (size 3 to 8) (size 9 to 14) (size 15 to 20)
#    0.000    1.000    5.000    2.625    8.750    1.500 
#    0.000    0.625    0.000    0.000    0.000    0.000 
#    0.000    0.000    0.000    0.000    0.000    0.000 
#
# Total GULP energy -396508.423600 kJ/mol
# GULP energy per Si atom -12390.888237 kJ/mol
# Density = 2.176298 g / cm^3
# Si number density = 21.812628 Si / 1000 Ang^3
#
#
#
# Elastic Constant Matrix: (Units=GPa)
#
#
# Indices 1 2 3 4 5 6 
#
# 1 126.1632 7.4363 24.8786 0.0000 -13.8991 0.0000
# 2 7.4363 47.4657 30.1109 0.0000 2.5893 0.0000
# 3 24.8786 30.1109 89.3846 0.0000 -5.1406 0.0000
# 4 0.0000 0.0000 0.0000 25.5816 0.0000 -1.7729
# 5 -13.8991 2.5893 -5.1406 0.0000 38.1669 0.0000
# 6 0.0000 0.0000 0.0000 -1.7729 0.0000 26.6484
#
#
#
# Elastic Compliance Matrix: (Units=1/GPa)
#
#
# Indices 1 2 3 4 5 6 
#
# 1 0.008686 -0.000113 -0.002214 0.000000 0.002873 0.000000
# 2 -0.000113 0.027154 -0.009296 0.000000 -0.003135 0.000000
# 3 -0.002214 -0.009296 0.015042 0.000000 0.001850 0.000000
# 4 0.000000 0.000000 0.000000 0.039272 0.000000 0.002613
# 5 0.002873 -0.003135 0.001850 0.000000 0.027709 0.000000
# 6 0.000000 0.000000 0.000000 0.002613 0.000000 0.037699
#
#
# Mechanical properties :
#
#
# Convention : Reuss Voigt Hill
#
# Bulk Modulus (GPa) = 36.18594 43.09612 39.64103
# Shear Modulus (GPa) = 26.59293 31.45191 29.02242
#
# Velocity S-wave (km/s) = 3.49542 3.80137 3.65160
# Velocity P-wave (km/s) = 5.73726 6.25040 5.99932
#
# Compressibility (1/GPa) = 0.02763504
#
# Stress axis : x y z
#
# Youngs Moduli (GPa) = 115.12751 36.82726 66.48078
#
# Poissons Ratio (x) = 0.00415 0.14722
# Poissons Ratio (y) = 0.01298 0.61802
# Poissons Ratio (z) = 0.25494 0.34235
#
# Static dielectric constant tensor:
#      x y z
#    x 4.148360 0.000000 0.088290 
#    y 0.000000 3.640940 0.000000 
#    z 0.088290 0.000000 4.165400 
# 
# 
# High freq. dielectric constant tensor:
#      x y z
#    x 1.882280 0.000000 0.001050 
#    y 0.000000 1.836980 0.000000 
#    z 0.001050 0.000000 1.858010 
# 
# From -- ./inp_files/34154.got.cif
#   From: 2010.06.25/outbox.cif.g09.slc.cpg/sg13_18_cif.got.tgz:34154.got - 2010.06.28 04:50:58.
