data_PCOD8121915
_publ_section_title
;
Structure prediction by ZEFSAII (Michael W. Deem and Ramdas Pophale) SiO2 
 PCOD8121915
Probable space group: P 2/C
;
_chemical_formula_sum "Si O2"
_cell_formula_units_Z 16
_cell_length_a 24.550192
_cell_length_b 5.348188
_cell_length_c 14.620847
_cell_angle_alpha 90.000000
_cell_angle_beta 159.713986
_cell_angle_gamma 90.000000
_cell_volume 665.573966
_symmetry_space_group_name_H-M "P 2/C"
_symmetry_group_IT_number 13
_symmetry_cell_setting 'monoclinic'
loop_
_space_group_symop_operation_xyz
x,y,z
-x,y,1/2-z
-x,-y,-z
x,-y,1/2+z
loop_
_atom_site_type_symbol
_atom_site_label
_atom_site_fract_x
_atom_site_fract_y
_atom_site_fract_z
Si Si1 0.623593 0.746957 0.599194
Si Si2 0.446925 0.752993 0.802343
Si Si3 0.132982 0.793385 0.212891
Si Si4 0.938832 0.531669 0.054634
O O1 0.620727 0.719355 0.703320
O O2 0.524105 0.516281 0.396704
O O3 0.569401 0.021621 0.485784
O O4 0.806020 0.744399 0.856112
O O5 0.310897 0.855608 0.520623
O O6 0.081307 0.601529 0.211656
O O7 0.146229 0.695784 0.130297
O O8 0.000000 0.000000 0.000000
O O9 0.000000 0.443831 0.250000
#
# Coordination Sequence:
#
# PCOD8121915 Si02
#       4
#     4   4   4   4
#     4  10  23  44  74 103 142 191 231 298 361 433
#     4  10  23  45  72 106 143 182 242 293 362 434
#     4  11  27  45  71 106 144 190 248 307 356 448
#     4  11  25  47  72 102 144 194 245 298 373 432
#
# _framework density 24.039401000000002
#
# number of rings (size 3 to 8) (size 9 to 14) (size 15 to 20)
#    0.000    1.500    2.500    0.000   10.500    4.000 
#    0.000    0.000    0.000    0.000    0.000    0.000 
#    0.000    0.000    0.000    0.000    0.000    0.000 
#
# Total GULP energy -198235.252235 kJ/mol
# GULP energy per Si atom -12389.703265 kJ/mol
# Density = 2.398469 g / cm^3
# Si number density = 24.039401 Si / 1000 Ang^3
#
#
#
# Elastic Constant Matrix: (Units=GPa)
#
#
# Indices 1 2 3 4 5 6 
#
# 1 113.3281 23.7331 44.9789 0.0000 -22.3652 0.0000
# 2 23.7331 105.8546 20.9371 0.0000 -12.5473 0.0000
# 3 44.9789 20.9371 127.8357 0.0000 -29.8526 0.0000
# 4 0.0000 0.0000 0.0000 37.4489 0.0000 12.9435
# 5 -22.3652 -12.5473 -29.8526 0.0000 46.4969 0.0000
# 6 0.0000 0.0000 0.0000 12.9435 0.0000 21.5750
#
#
#
# Elastic Compliance Matrix: (Units=1/GPa)
#
#
# Indices 1 2 3 4 5 6 
#
# 1 0.010872 -0.001515 -0.002884 0.000000 0.002969 0.000000
# 2 -0.001515 0.010118 -0.000772 0.000000 0.001506 0.000000
# 3 -0.002884 -0.000772 0.010106 0.000000 0.004893 0.000000
# 4 0.000000 0.000000 0.000000 0.033689 0.000000 -0.020211
# 5 0.002969 0.001506 0.004893 0.000000 0.026483 0.000000
# 6 0.000000 0.000000 0.000000 -0.020211 0.000000 0.058475
#
#
# Mechanical properties :
#
#
# Convention : Reuss Voigt Hill
#
# Bulk Modulus (GPa) = 48.18515 58.47963 53.33239
# Shear Modulus (GPa) = 29.93970 38.26214 34.10092
#
# Velocity S-wave (km/s) = 3.53291 3.99387 3.77044
# Velocity P-wave (km/s) = 6.06050 6.75628 6.41783
#
# Compressibility (1/GPa) = 0.02075328
#
# Stress axis : x y z
#
# Youngs Moduli (GPa) = 91.98205 98.83505 98.94797
#
# Poissons Ratio (x) = 0.14975 0.28534
# Poissons Ratio (y) = 0.13937 0.07643
# Poissons Ratio (z) = 0.26525 0.07634
#
# Static dielectric constant tensor:
#      x y z
#    x 4.568570 0.000000 0.014340 
#    y 0.000000 4.192370 0.000000 
#    z 0.014340 0.000000 4.335790 
# 
# 
# High freq. dielectric constant tensor:
#      x y z
#    x 1.970200 0.000000 0.005950 
#    y 0.000000 1.936870 0.000000 
#    z 0.005950 0.000000 1.963540 
# 
# From -- ./inp_files/58122.got.cif
#   From: 2010.06.25/outbox.cif.g09.slc.cpg/sg13_30_cif.got.tgz:58122.got - 2010.06.28 04:50:58.
