data_PCOD8121269
_publ_section_title
;
Structure prediction by ZEFSAII (Michael W. Deem and Ramdas Pophale) SiO2 
 PCOD8121269
Probable space group: P 2/C
;
_chemical_formula_sum "Si O2"
_cell_formula_units_Z 26
_cell_length_a 15.248340
_cell_length_b 6.283277
_cell_length_c 14.296529
_cell_angle_alpha 90.000000
_cell_angle_beta 61.091964
_cell_angle_gamma 90.000000
_cell_volume 1199.069360
_symmetry_space_group_name_H-M "P 2/C"
_symmetry_group_IT_number 13
_symmetry_cell_setting 'monoclinic'
loop_
_space_group_symop_operation_xyz
x,y,z
-x,y,1/2-z
-x,-y,-z
x,-y,1/2+z
loop_
_atom_site_type_symbol
_atom_site_label
_atom_site_fract_x
_atom_site_fract_y
_atom_site_fract_z
Si Si1 0.032236 0.979577 0.878933
Si Si2 0.392082 0.248907 0.847963
Si Si3 0.295129 0.979110 0.555990
Si Si4 0.000000 0.673117 0.250000
Si Si5 0.123899 0.651915 0.602724
Si Si6 0.272223 0.637627 0.931862
Si Si7 0.264797 0.025085 0.278386
O O1 0.990258 0.182958 0.846439
O O2 0.150434 0.996197 0.807268
O O3 0.982656 0.759428 0.869388
O O4 0.000000 0.000000 0.000000
O O5 0.500000 0.204082 0.750000
O O6 0.374100 0.498142 0.876728
O O7 0.305281 0.163935 0.822917
O O8 0.385176 0.126066 0.950505
O O9 0.195124 0.836749 0.603161
O O10 0.327295 0.984720 0.648648
O O11 0.273180 0.209868 0.522321
O O12 0.901370 0.521399 0.303806
O O13 0.178187 0.525623 0.489319
O O14 0.271815 0.756712 0.832947
#
# Coordination Sequence:
#
# PCOD8121269 Si02
#       7
#     4   4   4   2   4   4   4
#     4  12  24  38  59  93 130 167 212 252 294 353
#     4  10  24  44  65  91 120 154 200 256 319 377
#     4  10  22  42  65  93 126 160 203 253 304 363
#     4  12  24  38  60  88 128 172 206 248 296 348
#     4  11  22  38  60  89 130 171 205 245 295 355
#     4  10  22  41  62  87 124 164 201 251 307 360
#     4  11  23  40  64  92 122 162 209 254 302 362
#
# _framework density 21.683484
#
# number of rings (size 3 to 8) (size 9 to 14) (size 15 to 20)
#    0.000    1.231    0.000    7.846    0.000   11.692 
#    0.000    1.538    0.000    0.000    0.000    0.000 
#    0.000    0.000    0.000    0.000    0.000    0.000 
#
# Total GULP energy -322215.715277 kJ/mol
# GULP energy per Si atom -12392.912126 kJ/mol
# Density = 2.163413 g / cm^3
# Si number density = 21.683484 Si / 1000 Ang^3
#
#
#
# Elastic Constant Matrix: (Units=GPa)
#
#
# Indices 1 2 3 4 5 6 
#
# 1 41.2862 34.3224 31.5161 0.0000 -7.7612 0.0000
# 2 34.3224 136.7524 61.0974 0.0000 2.3406 0.0000
# 3 31.5161 61.0974 162.6112 0.0000 14.8249 0.0000
# 4 0.0000 0.0000 0.0000 30.6079 0.0000 -5.8167
# 5 -7.7612 2.3406 14.8249 0.0000 42.0995 0.0000
# 6 0.0000 0.0000 0.0000 -5.8167 0.0000 14.5300
#
#
#
# Elastic Compliance Matrix: (Units=1/GPa)
#
#
# Indices 1 2 3 4 5 6 
#
# 1 0.035362 -0.006739 -0.005114 0.000000 0.008695 0.000000
# 2 -0.006739 0.010092 -0.002398 0.000000 -0.000959 0.000000
# 3 -0.005114 -0.002398 0.008385 0.000000 -0.003762 0.000000
# 4 0.000000 0.000000 0.000000 0.035362 0.000000 0.014156
# 5 0.008695 -0.000959 -0.003762 0.000000 0.026734 0.000000
# 6 0.000000 0.000000 0.000000 0.014156 0.000000 0.074490
#
#
# Mechanical properties :
#
#
# Convention : Reuss Voigt Hill
#
# Bulk Modulus (GPa) = 39.47018 66.05795 52.76406
# Shear Modulus (GPa) = 21.99031 31.69508 26.84270
#
# Velocity S-wave (km/s) = 3.18803 3.82739 3.52224
# Velocity P-wave (km/s) = 5.63859 7.07549 6.39751
#
# Compressibility (1/GPa) = 0.02533558
#
# Stress axis : x y z
#
# Youngs Moduli (GPa) = 28.27893 99.09087 119.26235
#
# Poissons Ratio (x) = 0.66779 0.60993
# Poissons Ratio (y) = 0.19058 0.28601
# Poissons Ratio (z) = 0.14462 0.23764
#
# Static dielectric constant tensor:
#      x y z
#    x 3.504960 0.000000 0.005750 
#    y 0.000000 4.264190 0.000000 
#    z 0.005750 0.000000 4.081980 
# 
# 
# High freq. dielectric constant tensor:
#      x y z
#    x 1.806220 0.000000 -0.007720 
#    y 0.000000 1.869320 0.000000 
#    z -0.007720 0.000000 1.876850 
# 
# From -- ./inp_files/54383.got.cif
#   From: 2010.06.25/outbox.cif.g09.slc.cpg/sg13_28_cif.got.tgz:54383.got - 2010.06.28 04:50:58.
