data_PCOD8121808
_publ_section_title
;
Structure prediction by ZEFSAII (Michael W. Deem and Ramdas Pophale) SiO2 
 PCOD8121808
Probable space group: P 2/C
;
_chemical_formula_sum "Si O2"
_cell_formula_units_Z 22
_cell_length_a 28.873310
_cell_length_b 6.799700
_cell_length_c 16.358746
_cell_angle_alpha 90.000000
_cell_angle_beta 19.768703
_cell_angle_gamma 90.000000
_cell_volume 1086.277197
_symmetry_space_group_name_H-M "P 2/C"
_symmetry_group_IT_number 13
_symmetry_cell_setting 'monoclinic'
loop_
_space_group_symop_operation_xyz
x,y,z
-x,y,1/2-z
-x,-y,-z
x,-y,1/2+z
loop_
_atom_site_type_symbol
_atom_site_label
_atom_site_fract_x
_atom_site_fract_y
_atom_site_fract_z
Si Si1 0.140274 0.806155 0.472651
Si Si2 0.500000 0.605369 0.750000
Si Si3 0.394945 0.914424 0.793829
Si Si4 0.232327 0.400318 0.260308
Si Si5 0.861617 0.058376 0.184595
Si Si6 0.659334 0.904891 0.798014
O O1 0.146038 0.576984 0.442004
O O2 0.000000 0.858167 0.750000
O O3 0.156876 0.914733 0.359864
O O4 0.263049 0.882696 0.327308
O O5 0.445722 0.737594 0.765999
O O6 0.623075 0.468749 0.515848
O O7 0.358045 0.830456 0.765686
O O8 0.514257 0.075509 0.584924
O O9 0.265197 0.027107 0.044804
O O10 0.143770 0.285724 0.337575
O O11 0.251494 0.255853 0.304390
O O12 0.000000 0.000000 0.000000
#
# Coordination Sequence:
#
# PCOD8121808 Si02
#       6
#     4   2   4   4   4   4
#     4  11  23  42  62  92 129 170 217 266 316 387
#     4  12  20  42  68  98 128 162 226 274 322 382
#     4  11  21  42  68  94 130 171 213 267 324 384
#     4  11  23  41  67  92 127 169 211 269 323 380
#     4  11  24  43  65  94 130 173 211 265 328 387
#     4  10  23  42  65  94 130 171 215 263 325 384
#
# _framework density 20.252656999999999
#
# number of rings (size 3 to 8) (size 9 to 14) (size 15 to 20)
#    0.000    1.091    3.636    3.273    0.000    5.818 
#    6.545    0.000    0.000    0.000    0.000    0.000 
#    0.000    0.000    0.000    0.000    0.000    0.000 
#
# Total GULP energy -272813.176935 kJ/mol
# GULP energy per Si atom -12400.598952 kJ/mol
# Density = 2.020656 g / cm^3
# Si number density = 20.252657 Si / 1000 Ang^3
#
#
#
# Elastic Constant Matrix: (Units=GPa)
#
#
# Indices 1 2 3 4 5 6 
#
# 1 102.3409 50.7404 43.8378 0.0000 -16.5122 0.0000
# 2 50.7404 107.3235 26.4673 0.0000 -6.7155 0.0000
# 3 43.8378 26.4673 126.3854 0.0000 4.5117 0.0000
# 4 0.0000 0.0000 0.0000 28.8993 0.0000 -2.6078
# 5 -16.5122 -6.7155 4.5117 0.0000 35.6091 0.0000
# 6 0.0000 0.0000 0.0000 -2.6078 0.0000 14.9983
#
#
#
# Elastic Compliance Matrix: (Units=1/GPa)
#
#
# Indices 1 2 3 4 5 6 
#
# 1 0.015685 -0.005898 -0.004445 0.000000 0.006724 0.000000
# 2 -0.005898 0.012206 -0.000497 0.000000 -0.000370 0.000000
# 3 -0.004445 -0.000497 0.009679 0.000000 -0.003381 0.000000
# 4 0.000000 0.000000 0.000000 0.035155 0.000000 0.006112
# 5 0.006724 -0.000370 -0.003381 0.000000 0.031559 0.000000
# 6 0.000000 0.000000 0.000000 0.006112 0.000000 0.067737
#
#
# Mechanical properties :
#
#
# Convention : Reuss Voigt Hill
#
# Bulk Modulus (GPa) = 62.93979 64.23786 63.58883
# Shear Modulus (GPa) = 25.12598 30.23494 27.68046
#
# Velocity S-wave (km/s) = 3.52607 3.86798 3.70098
# Velocity P-wave (km/s) = 6.90814 7.19274 7.05187
#
# Compressibility (1/GPa) = 0.01588820
#
# Stress axis : x y z
#
# Youngs Moduli (GPa) = 63.75663 81.92917 103.31738
#
# Poissons Ratio (x) = 0.48325 0.45926
# Poissons Ratio (y) = 0.37606 0.05134
# Poissons Ratio (z) = 0.28341 0.04071
#
# Static dielectric constant tensor:
#      x y z
#    x 3.848070 0.000000 0.035560 
#    y 0.000000 3.779850 0.000000 
#    z 0.035560 0.000000 3.699230 
# 
# 
# High freq. dielectric constant tensor:
#      x y z
#    x 1.801020 0.000000 0.005530 
#    y 0.000000 1.785320 0.000000 
#    z 0.005530 0.000000 1.803590 
# 
# From -- ./inp_files/72082.got.cif
#   From: 2010.06.25/outbox.cif.g09.slc.cpg/sg13_37_cif.got.tgz:72082.got - 2010.06.28 04:50:58.
