data_PCOD8121393
_publ_section_title
;
Structure prediction by ZEFSAII (Michael W. Deem and Ramdas Pophale) SiO2 
 PCOD8121393
Probable space group: P 2/C
;
_chemical_formula_sum "Si O2"
_cell_formula_units_Z 20
_cell_length_a 11.828017
_cell_length_b 8.519738
_cell_length_c 18.010459
_cell_angle_alpha 90.000000
_cell_angle_beta 28.809542
_cell_angle_gamma 90.000000
_cell_volume 874.620259
_symmetry_space_group_name_H-M "P 2/C"
_symmetry_group_IT_number 13
_symmetry_cell_setting 'monoclinic'
loop_
_space_group_symop_operation_xyz
x,y,z
-x,y,1/2-z
-x,-y,-z
x,-y,1/2+z
loop_
_atom_site_type_symbol
_atom_site_label
_atom_site_fract_x
_atom_site_fract_y
_atom_site_fract_z
Si Si1 0.252117 0.657706 0.877819
Si Si2 0.288179 0.723189 0.134979
Si Si3 0.061508 0.446496 0.346304
Si Si4 0.777038 0.797371 0.927298
Si Si5 0.166022 0.131750 0.553428
O O1 0.500000 0.570723 0.750000
O O2 0.216599 0.671440 0.808879
O O3 0.257756 0.823755 0.918312
O O4 0.034315 0.572725 0.041265
O O5 0.214582 0.541491 0.196584
O O6 0.273424 0.750488 0.054764
O O7 0.116854 0.848962 0.274873
O O8 0.552732 0.754875 0.007540
O O9 0.842847 0.352402 0.438844
O O10 0.000000 0.838247 0.750000
O O11 0.736144 0.955612 0.996884
#
# Coordination Sequence:
#
# PCOD8121393 Si02
#       5
#     4   4   4   4   4
#     4  10  22  42  63  89 131 175 215 261 324 386
#     4  10  22  45  64  96 136 163 217 277 315 383
#     4  10  24  41  64  96 128 173 219 267 322 384
#     4  12  25  38  68 102 128 169 220 268 329 384
#     4  10  23  42  66  95 132 175 212 270 326 378
#
# _framework density 22.867066000000001
#
# number of rings (size 3 to 8) (size 9 to 14) (size 15 to 20)
#    0.000    1.600    2.000    1.800    8.400    1.600 
#    0.000    5.000    0.000    0.000    0.000    0.000 
#    0.000    0.000    0.000    0.000    0.000    0.000 
#
# Total GULP energy -247810.298611 kJ/mol
# GULP energy per Si atom -12390.514931 kJ/mol
# Density = 2.281502 g / cm^3
# Si number density = 22.867066 Si / 1000 Ang^3
#
#
#
# Elastic Constant Matrix: (Units=GPa)
#
#
# Indices 1 2 3 4 5 6 
#
# 1 102.8077 59.7512 39.3984 0.0000 -39.7653 0.0000
# 2 59.7512 112.4735 26.2643 0.0000 5.4332 0.0000
# 3 39.3984 26.2643 69.5222 0.0000 -21.2686 0.0000
# 4 0.0000 0.0000 0.0000 15.3553 0.0000 -5.3191
# 5 -39.7653 5.4332 -21.2686 0.0000 35.3632 0.0000
# 6 0.0000 0.0000 0.0000 -5.3191 0.0000 39.4464
#
#
#
# Elastic Compliance Matrix: (Units=1/GPa)
#
#
# Indices 1 2 3 4 5 6 
#
# 1 0.052189 -0.031336 0.002070 0.000000 0.064745 0.000000
# 2 -0.031336 0.029203 -0.006650 0.000000 -0.043723 0.000000
# 3 0.002070 -0.006650 0.020524 0.000000 0.015693 0.000000
# 4 0.000000 0.000000 0.000000 0.068315 0.000000 0.009212
# 5 0.064745 -0.043723 0.015693 0.000000 0.117238 0.000000
# 6 0.000000 0.000000 0.000000 0.009212 0.000000 0.026593
#
#
# Mechanical properties :
#
#
# Convention : Reuss Voigt Hill
#
# Bulk Modulus (GPa) = 33.24141 59.51458 46.37800
# Shear Modulus (GPa) = 12.62871 28.65895 20.64383
#
# Velocity S-wave (km/s) = 2.35258 3.54402 3.00788
# Velocity P-wave (km/s) = 4.68486 6.54443 5.69111
#
# Compressibility (1/GPa) = 0.03008296
#
# Stress axis : x y z
#
# Youngs Moduli (GPa) = 19.16121 34.24287 48.72289
#
# Poissons Ratio (x) = 1.07303 -0.10084
# Poissons Ratio (y) = 0.60044 0.32402
# Poissons Ratio (z) = -0.03966 0.22772
#
# Static dielectric constant tensor:
#      x y z
#    x 4.556930 0.000000 0.079840 
#    y 0.000000 4.115730 0.000000 
#    z 0.079840 0.000000 4.040500 
# 
# 
# High freq. dielectric constant tensor:
#      x y z
#    x 1.910520 0.000000 -0.007290 
#    y 0.000000 1.886580 0.000000 
#    z -0.007290 0.000000 1.897760 
# 
# From -- ./inp_files/66236.got.cif
#   From: 2010.06.25/outbox.cif.g09.slc.cpg/sg13_34_cif.got.tgz:66236.got - 2010.06.28 04:50:58.
