data_PCOD8121430
_publ_section_title
;
Structure prediction by ZEFSAII (Michael W. Deem and Ramdas Pophale) SiO2 
 PCOD8121430
Probable space group: P 2/C
;
_chemical_formula_sum "Si O2"
_cell_formula_units_Z 32
_cell_length_a 17.066834
_cell_length_b 11.587542
_cell_length_c 14.631108
_cell_angle_alpha 90.000000
_cell_angle_beta 28.290521
_cell_angle_gamma 90.000000
_cell_volume 1371.346462
_symmetry_space_group_name_H-M "P 2/C"
_symmetry_group_IT_number 13
_symmetry_cell_setting 'monoclinic'
loop_
_space_group_symop_operation_xyz
x,y,z
-x,y,1/2-z
-x,-y,-z
x,-y,1/2+z
loop_
_atom_site_type_symbol
_atom_site_label
_atom_site_fract_x
_atom_site_fract_y
_atom_site_fract_z
Si Si1 0.652112 0.665245 0.144317
Si Si2 0.395327 0.218618 0.512802
Si Si3 0.754182 0.973192 0.433870
Si Si4 0.541978 0.526679 0.559633
Si Si5 0.142021 0.754125 0.415519
Si Si6 0.885240 0.003805 0.993439
Si Si7 0.820670 0.640760 0.793843
Si Si8 0.673386 0.139792 0.357182
O O1 0.500000 0.729841 0.250000
O O2 0.584166 0.538153 0.242738
O O3 0.696612 0.735437 0.187975
O O4 0.808576 0.666395 0.915011
O O5 0.360565 0.140320 0.459518
O O6 0.479686 0.337903 0.395651
O O7 0.213486 0.247713 0.740506
O O8 0.498983 0.145282 0.482162
O O9 0.761031 0.008477 0.533768
O O10 0.669200 0.070212 0.456989
O O11 0.940290 0.940984 0.212401
O O12 0.500000 0.500000 0.500000
O O13 0.733214 0.483889 0.373493
O O14 0.064302 0.877446 0.520402
O O15 0.012170 0.649373 0.566593
O O16 0.805907 0.081673 0.153224
O O17 0.721872 0.729565 0.830831
#
# Coordination Sequence:
#
# PCOD8121430 Si02
#       8
#     4   4   4   4   4   4   4   4
#     4  10  22  42  66  99 132 171 232 291 342 402
#     4  12  25  43  70  97 143 188 232 287 353 428
#     4  11  24  44  65 103 142 184 236 285 357 422
#     4  11  22  47  65  96 134 180 231 295 351 410
#     4  12  22  40  71 104 138 177 232 290 350 413
#     4  11  25  42  67 103 147 187 223 294 353 423
#     4  11  23  40  73 102 130 180 233 286 351 403
#     4  12  22  44  69 103 142 184 233 288 349 423
#
# _framework density 23.33473
#
# number of rings (size 3 to 8) (size 9 to 14) (size 15 to 20)
#    0.000    0.750    5.000    3.375    1.750    1.000 
#    6.750    0.000    5.500    0.000    0.000    0.000 
#    0.000    0.000    0.000    0.000    0.000    0.000 
#
# Total GULP energy -396616.159584 kJ/mol
# GULP energy per Si atom -12394.254987 kJ/mol
# Density = 2.328162 g / cm^3
# Si number density = 23.334730 Si / 1000 Ang^3
#
#
#
# Elastic Constant Matrix: (Units=GPa)
#
#
# Indices 1 2 3 4 5 6 
#
# 1 81.3296 17.6545 1.7443 0.0000 -0.4073 0.0000
# 2 17.6545 91.7690 9.4828 0.0000 -5.2908 0.0000
# 3 1.7443 9.4828 80.6988 0.0000 0.8077 0.0000
# 4 0.0000 0.0000 0.0000 34.4320 0.0000 -3.6945
# 5 -0.4073 -5.2908 0.8077 0.0000 32.5160 0.0000
# 6 0.0000 0.0000 0.0000 -3.6945 0.0000 35.8787
#
#
#
# Elastic Compliance Matrix: (Units=1/GPa)
#
#
# Indices 1 2 3 4 5 6 
#
# 1 0.012833 -0.002485 0.000017 0.000000 -0.000244 0.000000
# 2 -0.002485 0.011622 -0.001331 0.000000 0.001893 0.000000
# 3 0.000017 -0.001331 0.012553 0.000000 -0.000528 0.000000
# 4 0.000000 0.000000 0.000000 0.029367 0.000000 0.003024
# 5 -0.000244 0.001893 -0.000528 0.000000 0.031072 0.000000
# 6 0.000000 0.000000 0.000000 0.003024 0.000000 0.028183
#
#
# Mechanical properties :
#
#
# Convention : Reuss Voigt Hill
#
# Bulk Modulus (GPa) = 34.00096 34.61786 34.30941
# Shear Modulus (GPa) = 34.95738 35.55973 35.25855
#
# Velocity S-wave (km/s) = 3.87471 3.90795 3.89136
# Velocity P-wave (km/s) = 5.88391 5.93551 5.90977
#
# Compressibility (1/GPa) = 0.02941093
#
# Stress axis : x y z
#
# Youngs Moduli (GPa) = 77.92152 86.04672 79.66182
#
# Poissons Ratio (x) = 0.21380 -0.00136
# Poissons Ratio (y) = 0.19361 0.10602
# Poissons Ratio (z) = -0.00133 0.11452
#
# Static dielectric constant tensor:
#      x y z
#    x 4.586960 0.000000 0.054650 
#    y 0.000000 4.145900 0.000000 
#    z 0.054650 0.000000 4.105150 
# 
# 
# High freq. dielectric constant tensor:
#      x y z
#    x 1.936150 0.000000 0.000770 
#    y 0.000000 1.902650 0.000000 
#    z 0.000770 0.000000 1.915940 
# 
# From -- ./inp_files/55809.got.cif
#   From: 2010.06.25/outbox.cif.g09.slc.cpg/sg13_28_cif.got.tgz:55809.got - 2010.06.28 04:50:58.
