data_PCOD8121044
_publ_section_title
;
Structure prediction by ZEFSAII (Michael W. Deem and Ramdas Pophale) SiO2 
 PCOD8121044
Probable space group: P 2/C
;
_chemical_formula_sum "Si O2"
_cell_formula_units_Z 22
_cell_length_a 26.952077
_cell_length_b 8.156124
_cell_length_c 16.429110
_cell_angle_alpha 90.000000
_cell_angle_beta 16.771768
_cell_angle_gamma 90.000000
_cell_volume 1042.140567
_symmetry_space_group_name_H-M "P 2/C"
_symmetry_group_IT_number 13
_symmetry_cell_setting 'monoclinic'
loop_
_space_group_symop_operation_xyz
x,y,z
-x,y,1/2-z
-x,-y,-z
x,-y,1/2+z
loop_
_atom_site_type_symbol
_atom_site_label
_atom_site_fract_x
_atom_site_fract_y
_atom_site_fract_z
Si Si1 0.000000 0.866479 0.250000
Si Si2 0.064009 0.656622 0.846157
Si Si3 0.311744 0.172304 0.075201
Si Si4 0.171515 0.882876 0.379365
Si Si5 0.319288 0.669067 0.725867
Si Si6 0.691760 0.679687 0.188744
O O1 0.835092 0.756526 0.482038
O O2 0.970283 0.978466 0.376784
O O3 0.165617 0.793656 0.737859
O O4 0.188682 0.618196 0.573672
O O5 0.000000 0.500000 0.000000
O O6 0.894248 0.738744 0.075235
O O7 0.270305 0.304076 0.209580
O O8 0.314544 0.984025 0.103792
O O9 0.500000 0.215183 0.750000
O O10 0.230239 0.819792 0.376073
O O11 0.506141 0.747646 0.451840
O O12 0.331547 0.476447 0.717696
#
# Coordination Sequence:
#
# PCOD8121044 Si02
#       6
#     2   4   4   4   4   4
#     4  10  22  38  72  94 126 162 220 264 316 390
#     4  12  25  43  67  96 135 172 214 273 325 383
#     4  11  24  45  62  96 136 171 214 275 334 378
#     4  11  24  43  67  96 129 176 217 267 322 391
#     4  10  24  42  69  97 126 175 218 265 323 389
#     4  11  23  45  67  95 130 173 224 263 319 390
#
# _framework density 21.110395
#
# number of rings (size 3 to 8) (size 9 to 14) (size 15 to 20)
#    0.000    1.091    3.636    1.636    7.636    4.364 
#    6.545    0.000    0.000    0.000    0.000    0.000 
#    0.000    0.000    0.000    0.000    0.000    0.000 
#
# Total GULP energy -272639.648229 kJ/mol
# GULP energy per Si atom -12392.711283 kJ/mol
# Density = 2.106235 g / cm^3
# Si number density = 21.110395 Si / 1000 Ang^3
#
#
#
# Elastic Constant Matrix: (Units=GPa)
#
#
# Indices 1 2 3 4 5 6 
#
# 1 103.1254 31.0915 33.7850 0.0000 -4.9650 0.0000
# 2 31.0915 79.0493 32.8111 0.0000 0.5299 0.0000
# 3 33.7850 32.8111 100.1854 0.0000 -3.1850 0.0000
# 4 0.0000 0.0000 0.0000 23.3985 0.0000 3.2672
# 5 -4.9650 0.5299 -3.1850 0.0000 28.4338 0.0000
# 6 0.0000 0.0000 0.0000 3.2672 0.0000 32.7449
#
#
#
# Elastic Compliance Matrix: (Units=1/GPa)
#
#
# Indices 1 2 3 4 5 6 
#
# 1 0.011738 -0.003483 -0.002760 0.000000 0.001805 0.000000
# 2 -0.003483 0.015693 -0.004008 0.000000 -0.001350 0.000000
# 3 -0.002760 -0.004008 0.012256 0.000000 0.000966 0.000000
# 4 0.000000 0.000000 0.000000 0.043342 0.000000 -0.004325
# 5 0.001805 -0.001350 0.000966 0.000000 0.035618 0.000000
# 6 0.000000 0.000000 0.000000 -0.004325 0.000000 0.030971
#
#
# Mechanical properties :
#
#
# Convention : Reuss Voigt Hill
#
# Bulk Modulus (GPa) = 52.12621 53.08172 52.60396
# Shear Modulus (GPa) = 28.32631 29.22694 28.77662
#
# Velocity S-wave (km/s) = 3.66706 3.72490 3.69609
# Velocity P-wave (km/s) = 6.53265 6.61054 6.57171
#
# Compressibility (1/GPa) = 0.01918421
#
# Stress axis : x y z
#
# Youngs Moduli (GPa) = 85.19096 63.72300 81.59553
#
# Poissons Ratio (x) = 0.22197 0.22523
# Poissons Ratio (y) = 0.29675 0.32701
# Poissons Ratio (z) = 0.23515 0.25539
#
# Static dielectric constant tensor:
#      x y z
#    x 3.907900 0.000000 0.057340 
#    y 0.000000 3.714040 0.000000 
#    z 0.057340 0.000000 4.081430 
# 
# 
# High freq. dielectric constant tensor:
#      x y z
#    x 1.829700 0.000000 0.002930 
#    y 0.000000 1.825520 0.000000 
#    z 0.002930 0.000000 1.832670 
# 
# From -- ./inp_files/58648.got.cif
#   From: 2010.06.25/outbox.cif.g09.slc.cpg/sg13_30_cif.got.tgz:58648.got - 2010.06.28 04:50:58.
