data_PCOD8121145
_publ_section_title
;
Structure prediction by ZEFSAII (Michael W. Deem and Ramdas Pophale) SiO2 
 PCOD8121145
Probable space group: P 2/C
;
_chemical_formula_sum "Si O2"
_cell_formula_units_Z 18
_cell_length_a 12.910105
_cell_length_b 5.113053
_cell_length_c 12.552289
_cell_angle_alpha 90.000000
_cell_angle_beta 81.595165
_cell_angle_gamma 90.000000
_cell_volume 819.678320
_symmetry_space_group_name_H-M "P 2/C"
_symmetry_group_IT_number 13
_symmetry_cell_setting 'monoclinic'
loop_
_space_group_symop_operation_xyz
x,y,z
-x,y,1/2-z
-x,-y,-z
x,-y,1/2+z
loop_
_atom_site_type_symbol
_atom_site_label
_atom_site_fract_x
_atom_site_fract_y
_atom_site_fract_z
Si Si1 0.170319 0.195013 0.224468
Si Si2 0.697048 0.692338 0.331768
Si Si3 0.500000 0.489293 0.250000
Si Si4 0.993998 0.752638 0.574564
Si Si5 0.559398 0.251512 0.032538
O O1 0.259949 0.403189 0.190665
O O2 0.114934 0.249916 0.345227
O O3 0.089303 0.225850 0.141269
O O4 0.221785 0.907225 0.223421
O O5 0.585324 0.688244 0.287666
O O6 0.675353 0.749543 0.461152
O O7 0.559885 0.289591 0.159837
O O8 0.000000 0.500000 0.500000
O O9 0.000000 0.000000 0.500000
O O10 0.500000 0.500000 0.000000
O O11 0.500000 0.000000 0.000000
#
# Coordination Sequence:
#
# PCOD8121145 Si02
#       5
#     4   4   2   4   4
#     4  11  25  43  66 100 132 162 218 274 318 388
#     4  11  23  41  65  96 133 173 216 267 318 381
#     4  10  24  42  66  94 134 182 218 262 326 382
#     4  11  24  45  70  96 129 169 210 267 336 393
#     4  10  22  40  60  88 127 171 220 268 311 371
#
# _framework density 21.959835999999999
#
# number of rings (size 3 to 8) (size 9 to 14) (size 15 to 20)
#    0.000    1.333    0.000    5.333    0.000   16.889 
#    0.000    2.222    0.000    0.000    0.000    0.000 
#    0.000    0.000    0.000    0.000    0.000    0.000 
#
# Total GULP energy -223136.249370 kJ/mol
# GULP energy per Si atom -12396.458298 kJ/mol
# Density = 2.190985 g / cm^3
# Si number density = 21.959836 Si / 1000 Ang^3
#
#
#
# Elastic Constant Matrix: (Units=GPa)
#
#
# Indices 1 2 3 4 5 6 
#
# 1 85.8917 19.9431 46.3580 0.0000 -12.6276 0.0000
# 2 19.9431 139.0237 52.4556 0.0000 -5.3278 0.0000
# 3 46.3580 52.4556 180.2865 0.0000 -25.5454 0.0000
# 4 0.0000 0.0000 0.0000 39.8218 0.0000 -6.9496
# 5 -12.6276 -5.3278 -25.5454 0.0000 34.4517 0.0000
# 6 0.0000 0.0000 0.0000 -6.9496 0.0000 46.4281
#
#
#
# Elastic Compliance Matrix: (Units=1/GPa)
#
#
# Indices 1 2 3 4 5 6 
#
# 1 0.013812 -0.000767 -0.002936 0.000000 0.002767 0.000000
# 2 -0.000767 0.008132 -0.002269 0.000000 -0.000706 0.000000
# 3 -0.002936 -0.002269 0.007553 0.000000 0.004173 0.000000
# 4 0.000000 0.000000 0.000000 0.025785 0.000000 0.003860
# 5 0.002767 -0.000706 0.004173 0.000000 0.033026 0.000000
# 6 0.000000 0.000000 0.000000 0.003860 0.000000 0.022116
#
#
# Mechanical properties :
#
#
# Convention : Reuss Voigt Hill
#
# Bulk Modulus (GPa) = 56.97172 71.41280 64.19226
# Shear Modulus (GPa) = 38.99514 43.23668 41.11591
#
# Velocity S-wave (km/s) = 4.21853 4.44204 4.33173
# Velocity P-wave (km/s) = 7.05181 7.67459 7.36978
#
# Compressibility (1/GPa) = 0.01755257
#
# Stress axis : x y z
#
# Youngs Moduli (GPa) = 72.39914 122.96955 132.39371
#
# Poissons Ratio (x) = 0.09437 0.38875
# Poissons Ratio (y) = 0.05556 0.30037
# Poissons Ratio (z) = 0.21259 0.27899
#
# Static dielectric constant tensor:
#      x y z
#    x 4.192480 0.000000 -0.699640 
#    y 0.000000 3.914460 0.000000 
#    z -0.699640 0.000000 5.400300 
# 
# 
# High freq. dielectric constant tensor:
#      x y z
#    x 1.858710 0.000000 -0.016350 
#    y 0.000000 1.877180 0.000000 
#    z -0.016350 0.000000 1.884710 
# 
# From -- ./inp_files/31284.got.cif
#   From: 2010.06.25/outbox.cif.g09.slc.cpg/sg13_16_cif.got.tgz:31284.got - 2010.06.28 04:50:58.
