data_PCOD8121272
_publ_section_title
;
Structure prediction by ZEFSAII (Michael W. Deem and Ramdas Pophale) SiO2 
 PCOD8121272
Probable space group: P 2/C
;
_chemical_formula_sum "Si O2"
_cell_formula_units_Z 28
_cell_length_a 8.363301
_cell_length_b 7.085738
_cell_length_c 25.956877
_cell_angle_alpha 90.000000
_cell_angle_beta 112.312569
_cell_angle_gamma 90.000000
_cell_volume 1423.037539
_symmetry_space_group_name_H-M "P 2/C"
_symmetry_group_IT_number 13
_symmetry_cell_setting 'monoclinic'
loop_
_space_group_symop_operation_xyz
x,y,z
-x,y,1/2-z
-x,-y,-z
x,-y,1/2+z
loop_
_atom_site_type_symbol
_atom_site_label
_atom_site_fract_x
_atom_site_fract_y
_atom_site_fract_z
Si Si1 0.160380 0.547658 0.055803
Si Si2 0.184993 0.079468 0.506802
Si Si3 0.969335 0.113944 0.804982
Si Si4 0.406917 0.794811 0.588791
Si Si5 0.327754 0.154619 0.196176
Si Si6 0.200043 0.835419 0.889241
Si Si7 0.927316 0.478996 0.340296
O O1 0.235661 0.749282 0.050063
O O2 0.321206 0.407840 0.069849
O O3 0.088312 0.556676 0.104261
O O4 0.000000 0.500000 0.000000
O O5 0.184075 0.149173 0.448390
O O6 0.331312 0.925124 0.534284
O O7 0.000000 0.000000 0.500000
O O8 0.000000 0.058547 0.750000
O O9 0.954942 0.340366 0.807410
O O10 0.131835 0.032463 0.857130
O O11 0.793324 0.018716 0.802809
O O12 0.363208 0.872717 0.639986
O O13 0.610106 0.785907 0.606324
O O14 0.500000 0.142254 0.250000
O O15 0.241761 0.358948 0.196798
O O16 0.088522 0.661105 0.854879
#
# Coordination Sequence:
#
# PCOD8121272 Si02
#       7
#     4   4   4   4   4   4   4
#     4  11  20  38  62  87 120 164 204 243 302 367
#     4  12  21  38  63  87 123 164 200 249 303 365
#     4  11  24  41  65  89 119 160 207 256 308 364
#     4  11  24  38  60  93 123 161 204 252 305 362
#     4  10  22  43  65  88 123 160 203 253 304 363
#     4  11  24  40  60  90 127 160 202 253 307 363
#     4  10  22  41  62  92 121 163 204 248 308 367
#
# _framework density 19.676221000000002
#
# number of rings (size 3 to 8) (size 9 to 14) (size 15 to 20)
#    0.000    1.143    2.857    4.714    0.000    5.714 
#    0.000    2.857    0.000    0.000    0.000    0.000 
#    0.000    0.000    0.000    0.000    0.000    0.000 
#
# Total GULP energy -347294.404992 kJ/mol
# GULP energy per Si atom -12403.371607 kJ/mol
# Density = 1.963144 g / cm^3
# Si number density = 19.676221 Si / 1000 Ang^3
#
#
#
# Elastic Constant Matrix: (Units=GPa)
#
#
# Indices 1 2 3 4 5 6 
#
# 1 134.7125 40.3941 40.5255 0.0000 10.5882 0.0000
# 2 40.3941 107.1778 27.9518 0.0000 1.7893 0.0000
# 3 40.5255 27.9518 79.5298 0.0000 11.3289 0.0000
# 4 0.0000 0.0000 0.0000 30.0691 0.0000 -4.9621
# 5 10.5882 1.7893 11.3289 0.0000 36.9317 0.0000
# 6 0.0000 0.0000 0.0000 -4.9621 0.0000 22.8311
#
#
#
# Elastic Compliance Matrix: (Units=1/GPa)
#
#
# Indices 1 2 3 4 5 6 
#
# 1 0.009415 -0.002562 -0.003692 0.000000 -0.001443 0.000000
# 2 -0.002562 0.010983 -0.002702 0.000000 0.001031 0.000000
# 3 -0.003692 -0.002702 0.015931 0.000000 -0.003698 0.000000
# 4 0.000000 0.000000 0.000000 0.034494 0.000000 0.007497
# 5 -0.001443 0.001031 -0.003698 0.000000 0.028575 0.000000
# 6 0.000000 0.000000 0.000000 0.007497 0.000000 0.045429
#
#
# Mechanical properties :
#
#
# Convention : Reuss Voigt Hill
#
# Bulk Modulus (GPa) = 54.29044 59.90699 57.09872
# Shear Modulus (GPa) = 29.60710 32.13629 30.87170
#
# Velocity S-wave (km/s) = 3.88327 4.04574 3.96534
# Velocity P-wave (km/s) = 6.91073 7.23440 7.07442
#
# Compressibility (1/GPa) = 0.01841945
#
# Stress axis : x y z
#
# Youngs Moduli (GPa) = 106.20941 91.04872 62.76890
#
# Poissons Ratio (x) = 0.23323 0.23174
# Poissons Ratio (y) = 0.27207 0.16959
# Poissons Ratio (z) = 0.39211 0.24599
#
# Static dielectric constant tensor:
#      x y z
#    x -2.000510 0.000000 -1.867330 
#    y 0.000000 3.763970 0.000000 
#    z -1.867330 0.000000 2.957980 
# 
# 
# High freq. dielectric constant tensor:
#      x y z
#    x 1.768310 0.000000 -0.003280 
#    y 0.000000 1.775430 0.000000 
#    z -0.003280 0.000000 1.775430 
# 
# From -- ./inp_files/95698.got.cif
#   From: 2010.06.25/outbox.cif.g09.slc.cpg/sg13_48_cif.got.tgz:95698.got - 2010.06.28 04:50:58.
