data_PCOD8121527
_publ_section_title
;
Structure prediction by ZEFSAII (Michael W. Deem and Ramdas Pophale) SiO2 
 PCOD8121527
Probable space group: P 2/C
;
_chemical_formula_sum "Si O2"
_cell_formula_units_Z 22
_cell_length_a 15.133775
_cell_length_b 10.802748
_cell_length_c 11.570516
_cell_angle_alpha 90.000000
_cell_angle_beta 29.015440
_cell_angle_gamma 90.000000
_cell_volume 917.522115
_symmetry_space_group_name_H-M "P 2/C"
_symmetry_group_IT_number 13
_symmetry_cell_setting 'monoclinic'
loop_
_space_group_symop_operation_xyz
x,y,z
-x,y,1/2-z
-x,-y,-z
x,-y,1/2+z
loop_
_atom_site_type_symbol
_atom_site_label
_atom_site_fract_x
_atom_site_fract_y
_atom_site_fract_z
Si Si1 0.000000 0.929026 0.250000
Si Si2 0.882110 0.710078 0.237987
Si Si3 0.300942 0.879783 0.444986
Si Si4 0.800171 0.517868 0.966402
Si Si5 0.231807 0.316219 0.203173
Si Si6 0.615652 0.318853 0.842227
O O1 0.957390 0.844497 0.187411
O O2 0.821317 0.012574 0.470589
O O3 0.824355 0.629916 0.416925
O O4 0.703311 0.718602 0.363351
O O5 0.046872 0.644631 0.979723
O O6 0.500000 0.933843 0.250000
O O7 0.209601 0.816252 0.662786
O O8 0.315045 0.774803 0.333596
O O9 0.710317 0.577135 0.954342
O O10 0.000000 0.580040 0.750000
O O11 0.681865 0.545635 0.217739
O O12 0.398070 0.310399 0.104431
#
# Coordination Sequence:
#
# PCOD8121527 Si02
#       6
#     2   4   4   4   4   4
#     4  12  26  40  62  94 126 174 206 262 330 356
#     4  12  25  41  61  94 135 164 209 261 311 382
#     4   9  21  43  67  92 125 161 214 263 305 376
#     4  11  21  41  65  90 131 163 204 261 310 375
#     4  10  22  43  69  94 121 167 215 258 314 374
#     4  10  23  44  68  94 122 170 213 257 316 375
#
# _framework density 23.977623000000001
#
# number of rings (size 3 to 8) (size 9 to 14) (size 15 to 20)
#    0.000    1.455    2.727    3.273    2.545    5.091 
#    3.273    5.455    0.000    0.000    0.000    0.000 
#    0.000    0.000    0.000    0.000    0.000    0.000 
#
# Total GULP energy -272798.951472 kJ/mol
# GULP energy per Si atom -12399.952340 kJ/mol
# Density = 2.392305 g / cm^3
# Si number density = 23.977623 Si / 1000 Ang^3
#
#
#
# Elastic Constant Matrix: (Units=GPa)
#
#
# Indices 1 2 3 4 5 6 
#
# 1 129.8517 29.8549 29.7964 0.0000 -33.5426 0.0000
# 2 29.8549 107.0204 22.2295 0.0000 -13.5271 0.0000
# 3 29.7964 22.2295 35.5393 0.0000 -12.5335 0.0000
# 4 0.0000 0.0000 0.0000 10.6574 0.0000 -0.7036
# 5 -33.5426 -13.5271 -12.5335 0.0000 41.2552 0.0000
# 6 0.0000 0.0000 0.0000 -0.7036 0.0000 19.1522
#
#
#
# Elastic Compliance Matrix: (Units=1/GPa)
#
#
# Indices 1 2 3 4 5 6 
#
# 1 0.011132 -0.000925 -0.006350 0.000000 0.006819 0.000000
# 2 -0.000925 0.010918 -0.005663 0.000000 0.001108 0.000000
# 3 -0.006350 -0.005663 0.038672 0.000000 0.004729 0.000000
# 4 0.000000 0.000000 0.000000 0.094060 0.000000 0.003455
# 5 0.006819 0.001108 0.004729 0.000000 0.031583 0.000000
# 6 0.000000 0.000000 0.000000 0.003455 0.000000 0.052340
#
#
# Mechanical properties :
#
#
# Convention : Reuss Voigt Hill
#
# Bulk Modulus (GPa) = 28.69781 48.46367 38.58074
# Shear Modulus (GPa) = 18.10296 26.91497 22.50897
#
# Velocity S-wave (km/s) = 2.75070 3.35401 3.06722
# Velocity P-wave (km/s) = 4.69926 5.93760 5.35435
#
# Compressibility (1/GPa) = 0.03484587
#
# Stress axis : x y z
#
# Youngs Moduli (GPa) = 89.82955 91.58913 25.85844
#
# Poissons Ratio (x) = 0.08468 0.16421
# Poissons Ratio (y) = 0.08306 0.14645
# Poissons Ratio (z) = 0.57044 0.51871
#
# Static dielectric constant tensor:
#      x y z
#    x 4.564320 0.000000 -0.316550 
#    y 0.000000 4.155120 0.000000 
#    z -0.316550 0.000000 4.079900 
# 
# 
# High freq. dielectric constant tensor:
#      x y z
#    x 1.967870 0.000000 -0.019700 
#    y 0.000000 1.931610 0.000000 
#    z -0.019700 0.000000 1.935240 
# 
# From -- ./inp_files/37132.got.cif
#   From: 2010.06.25/outbox.cif.g09.slc.cpg/sg13_19_cif.got.tgz:37132.got - 2010.06.28 04:50:58.
