data_PCOD8121631
_publ_section_title
;
Structure prediction by ZEFSAII (Michael W. Deem and Ramdas Pophale) SiO2 
 PCOD8121631
Probable space group: P 2/C
;
_chemical_formula_sum "Si O2"
_cell_formula_units_Z 24
_cell_length_a 13.134703
_cell_length_b 6.706199
_cell_length_c 23.685247
_cell_angle_alpha 90.000000
_cell_angle_beta 27.913341
_cell_angle_gamma 90.000000
_cell_volume 976.666437
_symmetry_space_group_name_H-M "P 2/C"
_symmetry_group_IT_number 13
_symmetry_cell_setting 'monoclinic'
loop_
_space_group_symop_operation_xyz
x,y,z
-x,y,1/2-z
-x,-y,-z
x,-y,1/2+z
loop_
_atom_site_type_symbol
_atom_site_label
_atom_site_fract_x
_atom_site_fract_y
_atom_site_fract_z
Si Si1 0.620552 0.038116 0.032311
Si Si2 0.262254 0.171473 0.409099
Si Si3 0.099367 0.912053 0.270500
Si Si4 0.000000 0.452181 0.750000
Si Si5 0.350053 0.779446 0.578436
Si Si6 0.241005 0.123376 0.819806
Si Si7 0.500000 0.461651 0.750000
O O1 0.587478 0.059467 0.116625
O O2 0.528076 0.232661 0.042628
O O3 0.877227 0.999401 0.902966
O O4 0.530326 0.845523 0.039357
O O5 0.334478 0.400635 0.366672
O O6 0.012026 0.176065 0.548654
O O7 0.305248 0.058938 0.329061
O O8 0.053455 0.682407 0.277872
O O9 0.276046 0.933016 0.235792
O O10 0.181174 0.042767 0.177804
O O11 0.779865 0.576898 0.867498
O O12 0.373614 0.323107 0.767687
#
# Coordination Sequence:
#
# PCOD8121631 Si02
#       7
#     4   4   4   2   4   4   2
#     4  10  22  45  65  93 132 172 216 261 324 399
#     4  10  24  46  68  93 137 177 213 276 332 386
#     4  11  23  45  64  97 135 167 220 269 323 397
#     4  12  22  40  68  98 130 172 212 272 330 374
#     4  11  23  42  66  96 132 174 212 263 329 392
#     4  10  25  45  67  96 134 176 221 271 331 395
#     4  12  24  42  68 106 124 168 230 274 328 394
#
# _framework density 24.573384999999998
#
# number of rings (size 3 to 8) (size 9 to 14) (size 15 to 20)
#    0.000    1.333    3.333    1.000    7.000    0.667 
#    9.000    0.000    0.000    0.000    0.000    0.000 
#    0.000    0.000    0.000    0.000    0.000    0.000 
#
# Total GULP energy -297451.687255 kJ/mol
# GULP energy per Si atom -12393.820302 kJ/mol
# Density = 2.451745 g / cm^3
# Si number density = 24.573385 Si / 1000 Ang^3
#
#
#
# Elastic Constant Matrix: (Units=GPa)
#
#
# Indices 1 2 3 4 5 6 
#
# 1 204.9971 48.6871 37.0354 0.0000 16.2728 0.0000
# 2 48.6871 113.7944 6.9896 0.0000 7.3740 0.0000
# 3 37.0354 6.9896 47.3878 0.0000 14.5738 0.0000
# 4 0.0000 0.0000 0.0000 8.0373 0.0000 -8.7511
# 5 16.2728 7.3740 14.5738 0.0000 56.7860 0.0000
# 6 0.0000 0.0000 0.0000 -8.7511 0.0000 36.5137
#
#
#
# Elastic Compliance Matrix: (Units=1/GPa)
#
#
# Indices 1 2 3 4 5 6 
#
# 1 0.006277 -0.002390 -0.004446 0.000000 -0.000347 0.000000
# 2 -0.002390 0.009819 0.000652 0.000000 -0.000758 0.000000
# 3 -0.004446 0.000652 0.026182 0.000000 -0.005530 0.000000
# 4 0.000000 0.000000 0.000000 0.168352 0.000000 0.040348
# 5 -0.000347 -0.000758 -0.005530 0.000000 0.019227 0.000000
# 6 0.000000 0.000000 0.000000 0.040348 0.000000 0.037057
#
#
# Mechanical properties :
#
#
# Convention : Reuss Voigt Hill
#
# Bulk Modulus (GPa) = 33.43292 61.28928 47.36110
# Shear Modulus (GPa) = 17.28601 38.49855 27.89228
#
# Velocity S-wave (km/s) = 2.65513 3.96242 3.37272
# Velocity P-wave (km/s) = 4.79943 6.77716 5.87215
#
# Compressibility (1/GPa) = 0.02991064
#
# Stress axis : x y z
#
# Youngs Moduli (GPa) = 159.32445 101.84030 38.19463
#
# Poissons Ratio (x) = 0.24338 0.16981
# Poissons Ratio (y) = 0.38076 -0.02492
# Poissons Ratio (z) = 0.70836 -0.06644
#
# Static dielectric constant tensor:
#      x y z
#    x 5.195070 0.000000 -0.219390 
#    y 0.000000 3.983770 0.000000 
#    z -0.219390 0.000000 4.892530 
# 
# 
# High freq. dielectric constant tensor:
#      x y z
#    x 2.011200 0.000000 -0.025540 
#    y 0.000000 1.938990 0.000000 
#    z -0.025540 0.000000 2.025420 
# 
# From -- ./inp_files/92639.got.cif
#   From: 2010.06.25/outbox.cif.g09.slc.cpg/sg13_47_cif.got.tgz:92639.got - 2010.06.28 04:50:58.
