data_PCOD8121898
_publ_section_title
;
Structure prediction by ZEFSAII (Michael W. Deem and Ramdas Pophale) SiO2 
 PCOD8121898
Probable space group: P 2/C
;
_chemical_formula_sum "Si O2"
_cell_formula_units_Z 30
_cell_length_a 5.383140
_cell_length_b 8.517667
_cell_length_c 26.520931
_cell_angle_alpha 90.000000
_cell_angle_beta 77.057836
_cell_angle_gamma 90.000000
_cell_volume 1185.140958
_symmetry_space_group_name_H-M "P 2/C"
_symmetry_group_IT_number 13
_symmetry_cell_setting 'monoclinic'
loop_
_space_group_symop_operation_xyz
x,y,z
-x,y,1/2-z
-x,-y,-z
x,-y,1/2+z
loop_
_atom_site_type_symbol
_atom_site_label
_atom_site_fract_x
_atom_site_fract_y
_atom_site_fract_z
Si Si1 0.690616 0.882633 0.198825
Si Si2 0.893687 0.637635 0.921848
Si Si3 0.678774 0.839272 0.635954
Si Si4 0.448339 0.138099 0.463670
Si Si5 0.458374 0.269640 0.890586
Si Si6 0.649579 0.440897 0.333834
Si Si7 0.096385 0.291912 0.550819
Si Si8 0.000000 0.645126 0.250000
O O1 0.500000 0.940471 0.250000
O O2 0.501814 0.817492 0.164522
O O3 0.896573 0.755810 0.209153
O O4 0.814595 0.041218 0.169028
O O5 0.659291 0.725968 0.958762
O O6 0.869770 0.601621 0.863114
O O7 0.927171 0.479268 0.952198
O O8 0.136944 0.747726 0.910141
O O9 0.537496 0.929552 0.595051
O O10 0.496127 0.719502 0.675580
O O11 0.181875 0.221267 0.493305
O O12 0.500000 0.000000 0.500000
O O13 0.449314 0.452962 0.874465
O O14 0.696017 0.237655 0.916596
O O15 0.182580 0.220153 0.925011
O O16 0.773371 0.532976 0.280586
#
# Coordination Sequence:
#
# PCOD8121898 Si02
#       8
#     4   4   4   4   4   4   4   2
#     4  12  27  46  73 109 150 199 256 318 402 469
#     4  10  23  44  69 103 150 193 251 318 384 454
#     4  11  26  47  74 108 159 194 254 326 396 458
#     4  11  26  44  70 110 150 204 254 310 392 472
#     4  11  23  46  75 111 149 198 259 319 380 465
#     4  10  23  47  73 107 144 197 253 326 377 465
#     4  11  24  44  79 109 150 202 257 316 382 464
#     4  12  26  46  84 110 150 202 276 318 402 484
#
# _framework density 25.313442999999999
#
# number of rings (size 3 to 8) (size 9 to 14) (size 15 to 20)
#    0.000    1.067    2.667    2.800    3.733    4.267 
#    0.000    0.000    0.000    0.000    0.000    0.000 
#    0.000    0.000    0.000    0.000    0.000    0.000 
#
# Total GULP energy -371764.006427 kJ/mol
# GULP energy per Si atom -12392.133548 kJ/mol
# Density = 2.525583 g / cm^3
# Si number density = 25.313443 Si / 1000 Ang^3
#
#
#
# Elastic Constant Matrix: (Units=GPa)
#
#
# Indices 1 2 3 4 5 6 
#
# 1 96.9748 22.5444 49.3745 0.0000 -8.6493 0.0000
# 2 22.5444 103.2907 72.9813 0.0000 1.8388 0.0000
# 3 49.3745 72.9813 143.4481 0.0000 -4.3993 0.0000
# 4 0.0000 0.0000 0.0000 45.6350 0.0000 0.2742
# 5 -8.6493 1.8388 -4.3993 0.0000 41.1784 0.0000
# 6 0.0000 0.0000 0.0000 0.2742 0.0000 29.6324
#
#
#
# Elastic Compliance Matrix: (Units=1/GPa)
#
#
# Indices 1 2 3 4 5 6 
#
# 1 0.012709 0.000361 -0.004491 0.000000 0.002173 0.000000
# 2 0.000361 0.015218 -0.007911 0.000000 -0.001449 0.000000
# 3 -0.004491 -0.007911 0.012565 0.000000 0.000752 0.000000
# 4 0.000000 0.000000 0.000000 0.021914 0.000000 -0.000203
# 5 0.002173 -0.001449 0.000752 0.000000 0.024886 0.000000
# 6 0.000000 0.000000 0.000000 -0.000203 0.000000 0.033749
#
#
# Mechanical properties :
#
#
# Convention : Reuss Voigt Hill
#
# Bulk Modulus (GPa) = 60.94288 70.39043 65.66666
# Shear Modulus (GPa) = 33.20201 36.54338 34.87270
#
# Velocity S-wave (km/s) = 3.62558 3.80364 3.71568
# Velocity P-wave (km/s) = 6.45399 6.86718 6.66379
#
# Compressibility (1/GPa) = 0.01640881
#
# Stress axis : x y z
#
# Youngs Moduli (GPa) = 78.68687 65.71116 79.58646
#
# Poissons Ratio (x) = -0.02371 0.35744
# Poissons Ratio (y) = -0.02839 0.62961
# Poissons Ratio (z) = 0.35340 0.51985
#
# Static dielectric constant tensor:
#      x y z
#    x 4.341860 0.000000 0.064720 
#    y 0.000000 4.891760 0.000000 
#    z 0.064720 0.000000 4.519970 
# 
# 
# High freq. dielectric constant tensor:
#      x y z
#    x 1.995910 0.000000 0.004750 
#    y 0.000000 2.021480 0.000000 
#    z 0.004750 0.000000 2.017930 
# 
# From -- ./inp_files/95021.got.cif
#   From: 2010.06.25/outbox.cif.g09.slc.cpg/sg13_48_cif.got.tgz:95021.got - 2010.06.28 04:50:58.
