data_PCOD8121624
_publ_section_title
;
Structure prediction by ZEFSAII (Michael W. Deem and Ramdas Pophale) SiO2 
 PCOD8121624
Probable space group: P 2/C
;
_chemical_formula_sum "Si O2"
_cell_formula_units_Z 22
_cell_length_a 14.167667
_cell_length_b 12.237189
_cell_length_c 10.540820
_cell_angle_alpha 90.000000
_cell_angle_beta 147.876460
_cell_angle_gamma 90.000000
_cell_volume 971.760198
_symmetry_space_group_name_H-M "P 2/C"
_symmetry_group_IT_number 13
_symmetry_cell_setting 'monoclinic'
loop_
_space_group_symop_operation_xyz
x,y,z
-x,y,1/2-z
-x,-y,-z
x,-y,1/2+z
loop_
_atom_site_type_symbol
_atom_site_label
_atom_site_fract_x
_atom_site_fract_y
_atom_site_fract_z
Si Si1 0.500000 0.690049 0.250000
Si Si2 0.362019 0.849507 0.290763
Si Si3 0.000000 0.575064 0.750000
Si Si4 0.645178 0.912316 0.804465
Si Si5 0.000000 0.777534 0.250000
Si Si6 0.676752 0.485408 0.503614
Si Si7 0.885426 0.312823 0.874392
O O1 0.371079 0.763852 0.186479
O O2 0.617309 0.609513 0.474764
O O3 0.554033 0.859935 0.576259
O O4 0.295618 0.964559 0.160676
O O5 0.214553 0.802162 0.218026
O O6 0.826858 0.497739 0.564360
O O7 0.002280 0.652281 0.627662
O O8 0.500000 0.913068 0.750000
O O9 0.821547 0.849078 0.044696
O O10 0.999410 0.702566 0.375750
O O11 0.748536 0.414011 0.701389
O O12 0.500000 0.423030 0.250000
#
# Coordination Sequence:
#
# PCOD8121624 Si02
#       7
#     2   4   2   4   2   4   4
#     4  10  22  44  74 108 140 194 236 302 362 438
#     4  11  24  46  77 101 146 193 243 300 380 430
#     4  12  25  47  68 106 152 188 245 293 358 440
#     4  11  25  48  72 105 145 188 247 308 363 446
#     4  12  29  45  78 112 148 190 247 311 374 424
#     4  10  25  43  70 105 144 192 242 296 356 439
#     4  12  26  47  73 111 147 196 241 306 365 441
#
# _framework density 22.639329
#
# number of rings (size 3 to 8) (size 9 to 14) (size 15 to 20)
#    0.545    0.364    4.545    1.091    5.091    4.364 
#    0.000    0.000    0.000    0.000    0.000    0.000 
#    0.000    0.000    0.000    0.000    0.000    0.000 
#
# Total GULP energy -272666.589800 kJ/mol
# GULP energy per Si atom -12393.935900 kJ/mol
# Density = 2.258780 g / cm^3
# Si number density = 22.639329 Si / 1000 Ang^3
#
#
#
# Elastic Constant Matrix: (Units=GPa)
#
#
# Indices 1 2 3 4 5 6 
#
# 1 127.2242 42.6333 50.7522 0.0000 -2.3517 0.0000
# 2 42.6333 100.4116 43.2763 0.0000 -9.8128 0.0000
# 3 50.7522 43.2763 117.4839 0.0000 0.4549 0.0000
# 4 0.0000 0.0000 0.0000 21.7529 0.0000 -3.0050
# 5 -2.3517 -9.8128 0.4549 0.0000 42.3135 0.0000
# 6 0.0000 0.0000 0.0000 -3.0050 0.0000 35.2222
#
#
#
# Elastic Compliance Matrix: (Units=1/GPa)
#
#
# Indices 1 2 3 4 5 6 
#
# 1 0.010151 -0.002885 -0.003322 0.000000 -0.000069 0.000000
# 2 -0.002885 0.012998 -0.003553 0.000000 0.002892 0.000000
# 3 -0.003322 -0.003553 0.011260 0.000000 -0.001130 0.000000
# 4 0.000000 0.000000 0.000000 0.046519 0.000000 0.003969
# 5 -0.000069 0.002892 -0.001130 0.000000 0.024312 0.000000
# 6 0.000000 0.000000 0.000000 0.003969 0.000000 0.028730
#
#
# Mechanical properties :
#
#
# Convention : Reuss Voigt Hill
#
# Bulk Modulus (GPa) = 67.16370 68.71592 67.93981
# Shear Modulus (GPa) = 31.55524 33.75491 32.65507
#
# Velocity S-wave (km/s) = 3.73745 3.86552 3.80202
# Velocity P-wave (km/s) = 6.95384 7.09516 7.02486
#
# Compressibility (1/GPa) = 0.01488899
#
# Stress axis : x y z
#
# Youngs Moduli (GPa) = 98.51374 76.93653 88.80960
#
# Poissons Ratio (x) = 0.22195 0.29504
# Poissons Ratio (y) = 0.28420 0.31552
# Poissons Ratio (z) = 0.32728 0.27334
#
# Static dielectric constant tensor:
#      x y z
#    x 4.049780 0.000000 0.081430 
#    y 0.000000 4.098330 0.000000 
#    z 0.081430 0.000000 4.004380 
# 
# 
# High freq. dielectric constant tensor:
#      x y z
#    x 1.892270 0.000000 0.004810 
#    y 0.000000 1.897600 0.000000 
#    z 0.004810 0.000000 1.885610 
# 
# From -- ./inp_files/37267.got.cif
#   From: 2010.06.25/outbox.cif.g09.slc.cpg/sg13_19_cif.got.tgz:37267.got - 2010.06.28 04:50:58.
