data_PCOD8121677
_publ_section_title
;
Structure prediction by ZEFSAII (Michael W. Deem and Ramdas Pophale) SiO2 
 PCOD8121677
Probable space group: P 2/C
;
_chemical_formula_sum "Si O2"
_cell_formula_units_Z 28
_cell_length_a 16.852720
_cell_length_b 6.888625
_cell_length_c 11.588598
_cell_angle_alpha 90.000000
_cell_angle_beta 112.154538
_cell_angle_gamma 90.000000
_cell_volume 1246.017669
_symmetry_space_group_name_H-M "P 2/C"
_symmetry_group_IT_number 13
_symmetry_cell_setting 'monoclinic'
loop_
_space_group_symop_operation_xyz
x,y,z
-x,y,1/2-z
-x,-y,-z
x,-y,1/2+z
loop_
_atom_site_type_symbol
_atom_site_label
_atom_site_fract_x
_atom_site_fract_y
_atom_site_fract_z
Si Si1 0.000000 0.694768 0.750000
Si Si2 0.715369 0.734843 0.118966
Si Si3 0.078734 0.114869 0.497532
Si Si4 0.371159 0.882789 0.850537
Si Si5 0.869913 0.540274 0.334710
Si Si6 0.500000 0.688466 0.750000
Si Si7 0.583840 0.554099 0.478745
Si Si8 0.778507 0.804013 0.900217
O O1 0.937815 0.838688 0.645280
O O2 0.933186 0.561332 0.780764
O O3 0.800561 0.681837 0.235593
O O4 0.650089 0.891078 0.141418
O O5 0.663918 0.537056 0.087647
O O6 0.735127 0.804135 0.000921
O O7 0.073662 0.319574 0.557657
O O8 0.165837 0.999871 0.569525
O O9 0.000000 0.000000 0.500000
O O10 0.453696 0.833946 0.814864
O O11 0.287940 0.801267 0.741145
O O12 0.392558 0.782868 0.988488
O O13 0.833044 0.388177 0.407082
O O14 0.429402 0.537478 0.656183
O O15 0.500000 0.500000 0.500000
#
# Coordination Sequence:
#
# PCOD8121677 Si02
#       8
#     2   4   4   4   4   2   4   4
#     4  12  28  48  76 102 144 196 234 294 364 428
#     4  12  26  45  76 104 142 189 233 297 350 423
#     4  12  28  47  71 106 143 185 240 294 357 421
#     4  11  24  48  71 106 142 185 241 289 354 417
#     4  12  27  49  72 106 141 191 240 292 359 425
#     4  10  22  48  72 104 148 190 234 296 350 434
#     4  10  23  45  71 102 145 183 235 286 353 415
#     4  12  26  47  71 106 144 184 240 296 353 424
#
# _framework density 22.471589999999999
#
# number of rings (size 3 to 8) (size 9 to 14) (size 15 to 20)
#    0.000    0.571    5.714    1.286    6.000    3.429 
#    5.143    1.429    0.000    0.000    0.000    0.000 
#    0.000    0.000    0.000    0.000    0.000    0.000 
#
# Total GULP energy -346916.599967 kJ/mol
# GULP energy per Si atom -12389.878570 kJ/mol
# Density = 2.242044 g / cm^3
# Si number density = 22.471590 Si / 1000 Ang^3
#
#
#
# Elastic Constant Matrix: (Units=GPa)
#
#
# Indices 1 2 3 4 5 6 
#
# 1 94.4354 33.6295 24.0351 0.0000 -1.1409 0.0000
# 2 33.6295 108.2695 37.4600 0.0000 -1.4268 0.0000
# 3 24.0351 37.4600 104.1377 0.0000 3.1033 0.0000
# 4 0.0000 0.0000 0.0000 23.6880 0.0000 14.5629
# 5 -1.1409 -1.4268 3.1033 0.0000 34.4091 0.0000
# 6 0.0000 0.0000 0.0000 14.5629 0.0000 45.3882
#
#
#
# Elastic Compliance Matrix: (Units=1/GPa)
#
#
# Indices 1 2 3 4 5 6 
#
# 1 0.012156 -0.003193 -0.001670 0.000000 0.000421 0.000000
# 2 -0.003193 0.011409 -0.003387 0.000000 0.000673 0.000000
# 3 -0.001670 -0.003387 0.011242 0.000000 -0.001210 0.000000
# 4 0.000000 0.000000 0.000000 0.052589 0.000000 -0.016873
# 5 0.000421 0.000673 -0.001210 0.000000 0.029213 0.000000
# 6 0.000000 0.000000 0.000000 -0.016873 0.000000 0.027446
#
#
# Mechanical properties :
#
#
# Convention : Reuss Voigt Hill
#
# Bulk Modulus (GPa) = 54.61950 55.23242 54.92596
# Shear Modulus (GPa) = 30.00176 34.81160 32.40668
#
# Velocity S-wave (km/s) = 3.65786 3.94018 3.80164
# Velocity P-wave (km/s) = 6.49606 6.73292 6.61555
#
# Compressibility (1/GPa) = 0.01830848
#
# Stress axis : x y z
#
# Youngs Moduli (GPa) = 82.26235 87.65319 88.94826
#
# Poissons Ratio (x) = 0.27984 0.14853
# Poissons Ratio (y) = 0.26263 0.30127
# Poissons Ratio (z) = 0.13736 0.29689
#
# Static dielectric constant tensor:
#      x y z
#    x 4.051620 0.000000 0.105370 
#    y 0.000000 4.594030 0.000000 
#    z 0.105370 0.000000 4.532510 
# 
# 
# High freq. dielectric constant tensor:
#      x y z
#    x 1.890100 0.000000 0.015360 
#    y 0.000000 1.893610 0.000000 
#    z 0.015360 0.000000 1.896880 
# 
# From -- ./inp_files/40203.got.cif
#   From: 2010.06.25/outbox.cif.g09.slc.cpg/sg13_21_cif.got.tgz:40203.got - 2010.06.28 04:50:58.
