data_PCOD8121328
_publ_section_title
;
Structure prediction by ZEFSAII (Michael W. Deem and Ramdas Pophale) SiO2 
 PCOD8121328
Probable space group: P 2/C
;
_chemical_formula_sum "Si O2"
_cell_formula_units_Z 32
_cell_length_a 26.136376
_cell_length_b 7.221499
_cell_length_c 15.371804
_cell_angle_alpha 90.000000
_cell_angle_beta 148.314288
_cell_angle_gamma 90.000000
_cell_volume 1523.952570
_symmetry_space_group_name_H-M "P 2/C"
_symmetry_group_IT_number 13
_symmetry_cell_setting 'monoclinic'
loop_
_space_group_symop_operation_xyz
x,y,z
-x,y,1/2-z
-x,-y,-z
x,-y,1/2+z
loop_
_atom_site_type_symbol
_atom_site_label
_atom_site_fract_x
_atom_site_fract_y
_atom_site_fract_z
Si Si1 0.870575 0.519357 0.399410
Si Si2 0.598953 0.175484 0.724405
Si Si3 0.552843 0.121542 0.465588
Si Si4 0.199521 0.991058 0.928883
Si Si5 0.723431 0.762798 0.099950
Si Si6 0.573260 0.549297 0.780848
Si Si7 0.087022 0.627495 0.727106
Si Si8 0.886936 0.682373 0.096279
O O1 0.783170 0.665939 0.264003
O O2 0.878773 0.402425 0.322397
O O3 0.844044 0.387924 0.442213
O O4 0.970175 0.628217 0.563755
O O5 0.609071 0.157127 0.636120
O O6 0.592351 0.388862 0.739822
O O7 0.500762 0.075313 0.615013
O O8 0.692660 0.083676 0.902254
O O9 0.633011 0.119111 0.505962
O O10 0.472294 0.279393 0.336654
O O11 0.200998 0.105135 0.840859
O O12 0.168836 0.128181 0.962196
O O13 0.121928 0.826573 0.810604
O O14 0.678246 0.606614 0.971089
O O15 0.500000 0.480098 0.750000
O O16 0.130215 0.468436 0.852336
O O17 0.000000 0.729408 0.250000
#
# Coordination Sequence:
#
# PCOD8121328 Si02
#       8
#     4   4   4   4   4   4   4   4
#     4  10  22  45  71  95 137 180 224 275 337 410
#     4  11  24  41  66  93 128 174 216 275 329 396
#     4  10  24  44  60  93 131 166 222 274 327 393
#     4  12  25  40  71  99 137 171 224 280 337 402
#     4  11  23  42  66  98 130 172 220 278 327 402
#     4  10  22  41  66  89 128 175 213 267 330 387
#     4  10  23  45  67  99 136 179 220 280 338 394
#     4  10  24  47  67  96 140 177 223 277 333 406
#
# _framework density 20.998028999999999
#
# number of rings (size 3 to 8) (size 9 to 14) (size 15 to 20)
#    0.000    1.500    2.500    1.125    3.500    3.000 
#    9.000    0.000    0.000    0.000    0.000    0.000 
#    0.000    0.000    0.000    0.000    0.000    0.000 
#
# Total GULP energy -396956.737292 kJ/mol
# GULP energy per Si atom -12404.898040 kJ/mol
# Density = 2.095024 g / cm^3
# Si number density = 20.998029 Si / 1000 Ang^3
#
#
#
# Elastic Constant Matrix: (Units=GPa)
#
#
# Indices 1 2 3 4 5 6 
#
# 1 85.0442 44.7400 21.0645 0.0000 -6.8488 0.0000
# 2 44.7400 92.8714 23.2814 0.0000 -1.6619 0.0000
# 3 21.0645 23.2814 74.4687 0.0000 -7.4430 0.0000
# 4 0.0000 0.0000 0.0000 31.8441 0.0000 -5.9161
# 5 -6.8488 -1.6619 -7.4430 0.0000 32.6731 0.0000
# 6 0.0000 0.0000 0.0000 -5.9161 0.0000 24.6150
#
#
#
# Elastic Compliance Matrix: (Units=1/GPa)
#
#
# Indices 1 2 3 4 5 6 
#
# 1 0.016318 -0.007294 -0.002078 0.000000 0.002576 0.000000
# 2 -0.007294 0.014946 -0.002749 0.000000 -0.001395 0.000000
# 3 -0.002078 -0.002749 0.015163 0.000000 0.002879 0.000000
# 4 0.000000 0.000000 0.000000 0.032871 0.000000 0.007900
# 5 0.002576 -0.001395 0.002879 0.000000 0.031731 0.000000
# 6 0.000000 0.000000 0.000000 0.007900 0.000000 0.042524
#
#
# Mechanical properties :
#
#
# Convention : Reuss Voigt Hill
#
# Bulk Modulus (GPa) = 45.07442 47.83954 46.45698
# Shear Modulus (GPa) = 26.99938 28.71300 27.85619
#
# Velocity S-wave (km/s) = 3.58970 3.70187 3.64622
# Velocity P-wave (km/s) = 6.22044 6.41125 6.31657
#
# Compressibility (1/GPa) = 0.02218553
#
# Stress axis : x y z
#
# Youngs Moduli (GPa) = 61.28214 66.90974 65.94878
#
# Poissons Ratio (x) = 0.48804 0.13704
# Poissons Ratio (y) = 0.44699 0.18127
# Poissons Ratio (z) = 0.12734 0.18391
#
# Static dielectric constant tensor:
#      x y z
#    x 3.779410 0.000000 -0.093970 
#    y 0.000000 3.671770 0.000000 
#    z -0.093970 0.000000 3.883670 
# 
# 
# High freq. dielectric constant tensor:
#      x y z
#    x 1.828030 0.000000 -0.001090 
#    y 0.000000 1.815910 0.000000 
#    z -0.001090 0.000000 1.830130 
# 
# From -- ./inp_files/72235.got.cif
#   From: 2010.06.25/outbox.cif.g09.slc.cpg/sg13_37_cif.got.tgz:72235.got - 2010.06.28 04:50:58.
