data_PCOD8121647
_publ_section_title
;
Structure prediction by ZEFSAII (Michael W. Deem and Ramdas Pophale) SiO2 
 PCOD8121647
Probable space group: P 2/C
;
_chemical_formula_sum "Si O2"
_cell_formula_units_Z 14
_cell_length_a 9.971411
_cell_length_b 5.213423
_cell_length_c 15.410137
_cell_angle_alpha 90.000000
_cell_angle_beta 39.125584
_cell_angle_gamma 90.000000
_cell_volume 505.511182
_symmetry_space_group_name_H-M "P 2/C"
_symmetry_group_IT_number 13
_symmetry_cell_setting 'monoclinic'
loop_
_space_group_symop_operation_xyz
x,y,z
-x,y,1/2-z
-x,-y,-z
x,-y,1/2+z
loop_
_atom_site_type_symbol
_atom_site_label
_atom_site_fract_x
_atom_site_fract_y
_atom_site_fract_z
Si Si1 0.000000 0.470710 0.250000
Si Si2 0.744221 0.871757 0.143143
Si Si3 0.233867 0.648016 0.970549
Si Si4 0.632974 0.867304 0.858806
O O1 0.081153 0.639949 0.129733
O O2 0.198451 0.304499 0.178338
O O3 0.500000 0.931102 0.250000
O O4 0.134214 0.893752 0.969094
O O5 0.758396 0.914660 0.240189
O O6 0.800360 0.593742 0.076600
O O7 0.479580 0.686414 0.875636
O O8 0.500000 0.000000 0.000000
#
# Coordination Sequence:
#
# PCOD8121647 Si02
#       4
#     2   4   4   4
#     4  12  26  44  74 112 152 196 242 304 376 440
#     4  10  22  45  73 100 141 192 241 298 360 425
#     4  11  25  46  72 104 143 191 244 299 359 430
#     4  11  26  48  77 111 151 193 246 308 370 440
#
# _framework density 27.694738000000001
#
# number of rings (size 3 to 8) (size 9 to 14) (size 15 to 20)
#    0.000    1.143    0.000    6.857    0.000    9.143 
#    0.000    0.000    0.000    1.714    0.000    0.000 
#    0.000    0.000    0.000    0.000    0.000    0.000 
#
# Total GULP energy -173577.399004 kJ/mol
# GULP energy per Si atom -12398.385643 kJ/mol
# Density = 2.763170 g / cm^3
# Si number density = 27.694738 Si / 1000 Ang^3
#
#
#
# Elastic Constant Matrix: (Units=GPa)
#
#
# Indices 1 2 3 4 5 6 
#
# 1 108.9979 97.1117 89.1707 0.0000 21.2970 0.0000
# 2 97.1117 199.0369 82.0033 0.0000 2.5640 0.0000
# 3 89.1707 82.0033 159.3637 0.0000 35.3206 0.0000
# 4 0.0000 0.0000 0.0000 40.0748 0.0000 11.3677
# 5 21.2970 2.5640 35.3206 0.0000 56.6402 0.0000
# 6 0.0000 0.0000 0.0000 11.3677 0.0000 25.6378
#
#
#
# Elastic Compliance Matrix: (Units=1/GPa)
#
#
# Indices 1 2 3 4 5 6 
#
# 1 0.024131 -0.008219 -0.008523 0.000000 -0.003387 0.000000
# 2 -0.008219 0.009385 -0.000953 0.000000 0.003260 0.000000
# 3 -0.008523 -0.000953 0.012549 0.000000 -0.004578 0.000000
# 4 0.000000 0.000000 0.000000 0.028543 0.000000 -0.012656
# 5 -0.003387 0.003260 -0.004578 0.000000 0.021636 0.000000
# 6 0.000000 0.000000 0.000000 -0.012656 0.000000 0.044617
#
#
# Mechanical properties :
#
#
# Convention : Reuss Voigt Hill
#
# Bulk Modulus (GPa) = 93.66825 111.55223 102.61024
# Shear Modulus (GPa) = 27.80759 37.74474 32.77617
#
# Velocity S-wave (km/s) = 3.17215 3.69573 3.44391
# Velocity P-wave (km/s) = 6.87836 7.65362 7.27632
#
# Compressibility (1/GPa) = 0.01067598
#
# Stress axis : x y z
#
# Youngs Moduli (GPa) = 41.44036 106.55568 79.69052
#
# Poissons Ratio (x) = 0.87576 0.67917
# Poissons Ratio (y) = 0.34059 0.07593
# Poissons Ratio (z) = 0.35318 0.10152
#
# Static dielectric constant tensor:
#      x y z
#    x 6.333450 0.000000 1.772520 
#    y 0.000000 4.580160 0.000000 
#    z 1.772520 0.000000 13.042990 
# 
# 
# High freq. dielectric constant tensor:
#      x y z
#    x 2.146400 0.000000 -0.010770 
#    y 0.000000 2.117730 0.000000 
#    z -0.010770 0.000000 2.156130 
# 
# From -- ./inp_files/62195.got.cif
#   From: 2010.06.25/outbox.cif.g09.slc.cpg/sg13_32_cif.got.tgz:62195.got - 2010.06.28 04:50:58.
