data_PCOD8121115
_publ_section_title
;
Structure prediction by ZEFSAII (Michael W. Deem and Ramdas Pophale) SiO2 
 PCOD8121115
Probable space group: P 2/C
;
_chemical_formula_sum "Si O2"
_cell_formula_units_Z 28
_cell_length_a 21.767294
_cell_length_b 8.554969
_cell_length_c 9.656448
_cell_angle_alpha 90.000000
_cell_angle_beta 49.542950
_cell_angle_gamma 90.000000
_cell_volume 1368.244290
_symmetry_space_group_name_H-M "P 2/C"
_symmetry_group_IT_number 13
_symmetry_cell_setting 'monoclinic'
loop_
_space_group_symop_operation_xyz
x,y,z
-x,y,1/2-z
-x,-y,-z
x,-y,1/2+z
loop_
_atom_site_type_symbol
_atom_site_label
_atom_site_fract_x
_atom_site_fract_y
_atom_site_fract_z
Si Si1 0.912821 0.659088 0.045361
Si Si2 0.747543 0.178909 0.395029
Si Si3 0.322606 0.679512 0.767766
Si Si4 0.765759 0.820858 0.359803
Si Si5 0.666411 0.685849 0.270951
Si Si6 0.494790 0.344657 0.095548
Si Si7 0.095862 0.352784 0.262899
O O1 0.860078 0.800991 0.183551
O O2 0.893174 0.512645 0.170883
O O3 0.888345 0.617170 0.923270
O O4 0.005748 0.712717 0.918927
O O5 0.696814 0.283658 0.362592
O O6 0.705204 0.198608 0.603981
O O7 0.841141 0.228652 0.268354
O O8 0.742444 0.998319 0.361904
O O9 0.324432 0.493550 0.792120
O O10 0.411733 0.745914 0.679305
O O11 0.253123 0.768531 0.955746
O O12 0.713939 0.701582 0.344360
O O13 0.575131 0.747940 0.431075
O O14 0.500000 0.384354 0.250000
O O15 0.500000 0.500000 0.000000
#
# Coordination Sequence:
#
# PCOD8121115 Si02
#       7
#     4   4   4   4   4   4   4
#     4  10  22  41  68  93 125 164 210 263 306 373
#     4  12  26  40  62  97 130 168 206 258 322 376
#     4  11  24  41  68  93 123 167 215 263 312 371
#     4  12  24  42  62  95 132 166 206 260 319 378
#     4  11  22  43  67  89 126 164 217 261 308 375
#     4  10  22  39  65  96 124 159 217 272 310 361
#     4  10  22  42  65  96 125 162 213 258 311 370
#
# _framework density 20.464182000000001
#
# number of rings (size 3 to 8) (size 9 to 14) (size 15 to 20)
#    0.000    1.143    2.857    3.429    8.000    0.571 
#    0.000    4.286    0.000    0.000    0.000    0.000 
#    0.000    0.000    0.000    0.000    0.000    0.000 
#
# Total GULP energy -347215.167624 kJ/mol
# GULP energy per Si atom -12400.541701 kJ/mol
# Density = 2.041760 g / cm^3
# Si number density = 20.464182 Si / 1000 Ang^3
#
#
#
# Elastic Constant Matrix: (Units=GPa)
#
#
# Indices 1 2 3 4 5 6 
#
# 1 118.3242 29.0002 36.9651 0.0000 -9.1217 0.0000
# 2 29.0002 75.4130 40.7877 0.0000 -9.8221 0.0000
# 3 36.9651 40.7877 107.7828 0.0000 -17.1801 0.0000
# 4 0.0000 0.0000 0.0000 20.4812 0.0000 4.3605
# 5 -9.1217 -9.8221 -17.1801 0.0000 36.4076 0.0000
# 6 0.0000 0.0000 0.0000 4.3605 0.0000 17.1429
#
#
#
# Elastic Compliance Matrix: (Units=1/GPa)
#
#
# Indices 1 2 3 4 5 6 
#
# 1 0.009831 -0.002422 -0.002343 0.000000 0.000704 0.000000
# 2 -0.002422 0.017361 -0.005503 0.000000 0.001480 0.000000
# 3 -0.002343 -0.005503 0.012796 0.000000 0.003967 0.000000
# 4 0.000000 0.000000 0.000000 0.051621 0.000000 -0.013131
# 5 0.000704 0.001480 0.003967 0.000000 0.029914 0.000000
# 6 0.000000 0.000000 0.000000 -0.013131 0.000000 0.061673
#
#
# Mechanical properties :
#
#
# Convention : Reuss Voigt Hill
#
# Bulk Modulus (GPa) = 51.40776 57.22512 54.31644
# Shear Modulus (GPa) = 23.78499 27.79081 25.78790
#
# Velocity S-wave (km/s) = 3.41291 3.68913 3.55371
# Velocity P-wave (km/s) = 6.38013 6.79489 6.59077
#
# Compressibility (1/GPa) = 0.01945232
#
# Stress axis : x y z
#
# Youngs Moduli (GPa) = 101.71762 57.60091 78.14723
#
# Poissons Ratio (x) = 0.13949 0.18310
# Poissons Ratio (y) = 0.24632 0.43007
# Poissons Ratio (z) = 0.23833 0.31700
#
# Static dielectric constant tensor:
#      x y z
#    x 4.056030 0.000000 -0.321170 
#    y 0.000000 3.395760 0.000000 
#    z -0.321170 0.000000 4.108170 
# 
# 
# High freq. dielectric constant tensor:
#      x y z
#    x 1.815310 0.000000 -0.003480 
#    y 0.000000 1.764070 0.000000 
#    z -0.003480 0.000000 1.822110 
# 
# From -- ./inp_files/22947.got.cif
#   From: 2010.06.25/outbox.cif.g09.slc.cpg/sg13_12_cif.got.tgz:22947.got - 2010.06.28 04:50:58.
