data_PCOD8121639
_publ_section_title
;
Structure prediction by ZEFSAII (Michael W. Deem and Ramdas Pophale) SiO2 
 PCOD8121639
Probable space group: P 2/C
;
_chemical_formula_sum "Si O2"
_cell_formula_units_Z 24
_cell_length_a 19.466383
_cell_length_b 11.265314
_cell_length_c 13.165606
_cell_angle_alpha 90.000000
_cell_angle_beta 158.354122
_cell_angle_gamma 90.000000
_cell_volume 1064.980098
_symmetry_space_group_name_H-M "P 2/C"
_symmetry_group_IT_number 13
_symmetry_cell_setting 'monoclinic'
loop_
_space_group_symop_operation_xyz
x,y,z
-x,y,1/2-z
-x,-y,-z
x,-y,1/2+z
loop_
_atom_site_type_symbol
_atom_site_label
_atom_site_fract_x
_atom_site_fract_y
_atom_site_fract_z
Si Si1 0.343488 0.230688 0.792256
Si Si2 0.156211 0.584885 0.892470
Si Si3 0.654334 0.066226 0.878337
Si Si4 0.382681 0.642910 0.687642
Si Si5 0.115789 0.156562 0.812327
Si Si6 0.986309 0.210011 0.422299
O O1 0.232056 0.304841 0.557757
O O2 0.418483 0.115991 0.831483
O O3 0.200466 0.188944 0.682632
O O4 0.504911 0.315240 0.058485
O O5 0.000000 0.523105 0.750000
O O6 0.071407 0.649321 0.673670
O O7 0.325923 0.495584 0.104337
O O8 0.500000 0.097152 0.750000
O O9 0.852633 0.124168 0.176474
O O10 0.698484 0.925820 0.938275
O O11 0.500000 0.674599 0.750000
O O12 0.187245 0.709690 0.420541
O O13 0.978373 0.162901 0.526809
O O14 0.000000 0.113928 0.750000
#
# Coordination Sequence:
#
# PCOD8121639 Si02
#       6
#     4   4   4   4   4   4
#     4  10  22  45  69  95 135 175 221 274 332 398
#     4   9  21  43  68  95 128 178 221 273 333 393
#     4  11  25  43  71 100 128 173 224 280 333 393
#     4  12  24  42  64 101 136 171 221 279 330 394
#     4  12  26  44  65  96 137 176 220 272 336 403
#     4  10  22  46  70  94 132 177 225 269 335 399
#
# _framework density 22.535633000000001
#
# number of rings (size 3 to 8) (size 9 to 14) (size 15 to 20)
#    0.000    1.333    1.667    4.500    2.333    4.000 
#    3.000    0.000    0.000    0.000    0.000    0.000 
#    0.000    0.000    0.000    0.000    0.000    0.000 
#
# Total GULP energy -297479.458951 kJ/mol
# GULP energy per Si atom -12394.977456 kJ/mol
# Density = 2.248434 g / cm^3
# Si number density = 22.535633 Si / 1000 Ang^3
#
#
#
# Elastic Constant Matrix: (Units=GPa)
#
#
# Indices 1 2 3 4 5 6 
#
# 1 121.9952 45.2227 39.0379 0.0000 -11.9446 0.0000
# 2 45.2227 76.9489 18.8258 0.0000 1.7470 0.0000
# 3 39.0379 18.8258 47.2128 0.0000 -3.0333 0.0000
# 4 0.0000 0.0000 0.0000 49.9296 0.0000 -0.9526
# 5 -11.9446 1.7470 -3.0333 0.0000 32.2592 0.0000
# 6 0.0000 0.0000 0.0000 -0.9526 0.0000 9.2487
#
#
#
# Elastic Compliance Matrix: (Units=1/GPa)
#
#
# Indices 1 2 3 4 5 6 
#
# 1 0.013612 -0.006007 -0.008566 0.000000 0.004560 0.000000
# 2 -0.006007 0.017108 -0.002070 0.000000 -0.003345 0.000000
# 3 -0.008566 -0.002070 0.029068 0.000000 -0.000327 0.000000
# 4 0.000000 0.000000 0.000000 0.020068 0.000000 0.002067
# 5 0.004560 -0.003345 -0.000327 0.000000 0.032838 0.000000
# 6 0.000000 0.000000 0.000000 0.002067 0.000000 0.108337
#
#
# Mechanical properties :
#
#
# Convention : Reuss Voigt Hill
#
# Bulk Modulus (GPa) = 37.73392 50.25887 43.99639
# Shear Modulus (GPa) = 19.00053 27.82552 23.41302
#
# Velocity S-wave (km/s) = 2.90682 3.51769 3.22675
# Velocity P-wave (km/s) = 5.29591 6.23292 5.78342
#
# Compressibility (1/GPa) = 0.02650136
#
# Stress axis : x y z
#
# Youngs Moduli (GPa) = 73.46724 58.45093 34.40191
#
# Poissons Ratio (x) = 0.35113 0.29470
# Poissons Ratio (y) = 0.44133 0.07120
# Poissons Ratio (z) = 0.62935 0.12098
#
# Static dielectric constant tensor:
#      x y z
#    x 4.349780 0.000000 0.002450 
#    y 0.000000 4.004900 0.000000 
#    z 0.002450 0.000000 4.062820 
# 
# 
# High freq. dielectric constant tensor:
#      x y z
#    x 1.884570 0.000000 -0.005310 
#    y 0.000000 1.889120 0.000000 
#    z -0.005310 0.000000 1.887140 
# 
# From -- ./inp_files/57724.got.cif
#   From: 2010.06.25/outbox.cif.g09.slc.cpg/sg13_29_cif.got.tgz:57724.got - 2010.06.28 04:50:58.
