data_PCOD8121695
_publ_section_title
;
Structure prediction by ZEFSAII (Michael W. Deem and Ramdas Pophale) SiO2 
 PCOD8121695
Probable space group: P 2/C
;
_chemical_formula_sum "Si O2"
_cell_formula_units_Z 28
_cell_length_a 21.773448
_cell_length_b 5.103880
_cell_length_c 27.159059
_cell_angle_alpha 90.000000
_cell_angle_beta 25.351622
_cell_angle_gamma 90.000000
_cell_volume 1292.292707
_symmetry_space_group_name_H-M "P 2/C"
_symmetry_group_IT_number 13
_symmetry_cell_setting 'monoclinic'
loop_
_space_group_symop_operation_xyz
x,y,z
-x,y,1/2-z
-x,-y,-z
x,-y,1/2+z
loop_
_atom_site_type_symbol
_atom_site_label
_atom_site_fract_x
_atom_site_fract_y
_atom_site_fract_z
Si Si1 0.216296 0.611775 0.724317
Si Si2 0.127085 0.010287 0.475046
Si Si3 0.271042 0.859860 0.590358
Si Si4 0.442594 0.774717 0.077894
Si Si5 0.844407 0.362127 0.875235
Si Si6 0.193878 0.005767 0.319998
Si Si7 0.100095 0.484958 0.555588
O O1 0.220284 0.869435 0.685016
O O2 0.374539 0.477135 0.597579
O O3 0.211958 0.699865 0.784703
O O4 0.073333 0.445359 0.814840
O O5 0.136160 0.767525 0.506171
O O6 0.968076 0.080589 0.572185
O O7 0.227116 0.980976 0.354197
O O8 0.178040 0.269631 0.465753
O O9 0.433868 0.746352 0.470397
O O10 0.170764 0.639895 0.639883
O O11 0.263224 0.138546 0.567893
O O12 0.299160 0.823285 0.213367
O O13 0.500000 0.000000 0.000000
O O14 0.825309 0.431329 0.946209
O O15 0.000000 0.245355 0.750000
#
# Coordination Sequence:
#
# PCOD8121695 Si02
#       7
#     4   4   4   4   4   4   4
#     4  11  23  39  64  97 141 174 210 270 340 412
#     4  10  23  41  66  99 129 170 220 277 330 385
#     4  12  26  40  63  96 135 174 215 262 334 400
#     4  12  24  40  63  98 143 175 215 263 343 418
#     4  12  26  42  66  91 131 177 226 274 325 384
#     4  10  23  38  65  97 136 171 213 268 340 399
#     4  11  23  42  68  92 131 167 227 277 327 378
#
# _framework density 21.666917999999999
#
# number of rings (size 3 to 8) (size 9 to 14) (size 15 to 20)
#    0.000    0.857    4.286    2.571    8.000    1.714 
#    0.000    0.000    0.000    5.143    0.000    0.000 
#    0.000    0.000    0.000    0.000    0.000    0.000 
#
# Total GULP energy -346884.320199 kJ/mol
# GULP energy per Si atom -12388.725721 kJ/mol
# Density = 2.161760 g / cm^3
# Si number density = 21.666918 Si / 1000 Ang^3
#
#
#
# Elastic Constant Matrix: (Units=GPa)
#
#
# Indices 1 2 3 4 5 6 
#
# 1 110.8320 42.4084 45.9212 0.0000 24.7244 0.0000
# 2 42.4084 94.2542 4.2958 0.0000 14.4434 0.0000
# 3 45.9212 4.2958 51.8595 0.0000 19.2606 0.0000
# 4 0.0000 0.0000 0.0000 15.4464 0.0000 2.6645
# 5 24.7244 14.4434 19.2606 0.0000 37.5432 0.0000
# 6 0.0000 0.0000 0.0000 2.6645 0.0000 40.3332
#
#
#
# Elastic Compliance Matrix: (Units=1/GPa)
#
#
# Indices 1 2 3 4 5 6 
#
# 1 0.018485 -0.007389 -0.015184 0.000000 -0.001541 0.000000
# 2 -0.007389 0.014257 0.006908 0.000000 -0.004163 0.000000
# 3 -0.015184 0.006908 0.036356 0.000000 -0.011310 0.000000
# 4 0.000000 0.000000 0.000000 0.065486 0.000000 -0.004326
# 5 -0.001541 -0.004163 -0.011310 0.000000 0.035055 0.000000
# 6 0.000000 0.000000 0.000000 -0.004326 0.000000 0.025079
#
#
# Mechanical properties :
#
#
# Convention : Reuss Voigt Hill
#
# Bulk Modulus (GPa) = 26.47693 49.13295 37.80494
# Shear Modulus (GPa) = 20.95232 29.61923 25.28578
#
# Velocity S-wave (km/s) = 3.11307 3.70134 3.41988
# Velocity P-wave (km/s) = 5.01678 6.40252 5.75154
#
# Compressibility (1/GPa) = 0.03776873
#
# Stress axis : x y z
#
# Youngs Moduli (GPa) = 54.09868 70.14015 27.50569
#
# Poissons Ratio (x) = 0.51825 0.41764
# Poissons Ratio (y) = 0.39972 -0.19000
# Poissons Ratio (z) = 0.82142 -0.48451
#
# Static dielectric constant tensor:
#      x y z
#    x 4.270730 0.000000 -0.028310 
#    y 0.000000 3.851570 0.000000 
#    z -0.028310 0.000000 4.082560 
# 
# 
# High freq. dielectric constant tensor:
#      x y z
#    x 1.845790 0.000000 0.013150 
#    y 0.000000 1.856890 0.000000 
#    z 0.013150 0.000000 1.833230 
# 
# From -- ./inp_files/88298.got.cif
#   From: 2010.06.25/outbox.cif.g09.slc.cpg/sg13_45_cif.got.tgz:88298.got - 2010.06.28 04:50:58.
