data_PCOD8121697
_publ_section_title
;
Structure prediction by ZEFSAII (Michael W. Deem and Ramdas Pophale) SiO2 
 PCOD8121697
Probable space group: P 2/C
;
_chemical_formula_sum "Si O2"
_cell_formula_units_Z 24
_cell_length_a 16.287050
_cell_length_b 11.016382
_cell_length_c 11.535947
_cell_angle_alpha 90.000000
_cell_angle_beta 29.869035
_cell_angle_gamma 90.000000
_cell_volume 1030.814978
_symmetry_space_group_name_H-M "P 2/C"
_symmetry_group_IT_number 13
_symmetry_cell_setting 'monoclinic'
loop_
_space_group_symop_operation_xyz
x,y,z
-x,y,1/2-z
-x,-y,-z
x,-y,1/2+z
loop_
_atom_site_type_symbol
_atom_site_label
_atom_site_fract_x
_atom_site_fract_y
_atom_site_fract_z
Si Si1 0.778575 0.533319 0.390420
Si Si2 0.355631 0.134569 0.776629
Si Si3 0.000000 0.166316 0.250000
Si Si4 0.832418 0.284031 0.017875
Si Si5 0.500000 0.652942 0.250000
Si Si6 0.470638 0.124295 0.159651
Si Si7 0.011125 0.655836 0.528369
O O1 0.755913 0.599285 0.542414
O O2 0.635493 0.439046 0.532379
O O3 0.953341 0.461023 0.174286
O O4 0.808482 0.633092 0.251552
O O5 0.412680 0.261905 0.762576
O O6 0.377039 0.155101 0.612105
O O7 0.468498 0.021809 0.675625
O O8 0.172122 0.094085 0.044504
O O9 0.029605 0.237072 0.095309
O O10 0.700268 0.175558 0.182356
O O11 0.871253 0.314287 0.103467
O O12 0.000000 0.239527 0.750000
O O13 0.500000 0.183784 0.250000
#
# Coordination Sequence:
#
# PCOD8121697 Si02
#       7
#     4   4   2   4   2   4   4
#     4  10  23  38  69  95 140 182 220 288 341 414
#     4  11  27  46  72 103 138 188 235 299 343 425
#     4  12  26  44  76 100 142 190 238 286 362 418
#     4  10  24  43  69 102 139 181 233 290 344 420
#     4  12  22  46  72 102 142 184 240 284 364 418
#     4  11  26  49  72 101 143 182 236 296 353 413
#     4  10  23  43  64 103 141 179 229 289 340 418
#
# _framework density 23.282550000000001
#
# number of rings (size 3 to 8) (size 9 to 14) (size 15 to 20)
#    0.000    1.333    2.500    1.000   12.833    0.000 
#    0.000    4.167    0.000    0.000    0.000    0.000 
#    0.000    0.000    0.000    0.000    0.000    0.000 
#
# Total GULP energy -297386.130074 kJ/mol
# GULP energy per Si atom -12391.088753 kJ/mol
# Density = 2.322956 g / cm^3
# Si number density = 23.282550 Si / 1000 Ang^3
#
#
#
# Elastic Constant Matrix: (Units=GPa)
#
#
# Indices 1 2 3 4 5 6 
#
# 1 88.3828 27.1410 41.6853 0.0000 14.0559 0.0000
# 2 27.1410 73.8061 35.3349 0.0000 -1.8530 0.0000
# 3 41.6853 35.3349 139.1194 0.0000 -0.6695 0.0000
# 4 0.0000 0.0000 0.0000 615.0084 0.0000 -626.5497
# 5 14.0559 -1.8530 -0.6695 0.0000 36.7441 0.0000
# 6 0.0000 0.0000 0.0000 -626.5497 0.0000 691.9398
#
#
#
# Elastic Compliance Matrix: (Units=1/GPa)
#
#
# Indices 1 2 3 4 5 6 
#
# 1 0.015200 -0.004039 -0.003558 0.000000 -0.006083 0.000000
# 2 -0.004039 0.016516 -0.002974 0.000000 0.002324 0.000000
# 3 -0.003558 -0.002974 0.009016 0.000000 0.001375 0.000000
# 4 0.000000 0.000000 0.000000 0.020978 0.000000 0.018995
# 5 -0.006083 0.002324 0.001375 0.000000 0.029685 0.000000
# 6 0.000000 0.000000 0.000000 0.018995 0.000000 0.018646
#
#
# Mechanical properties :
#
#
# Convention : Reuss Voigt Hill
#
# Bulk Modulus (GPa) = 51.04248 56.62563 53.83406
# Shear Modulus (GPa) = 36.30768 281.88161 159.09465
#
# Velocity S-wave (km/s) = 3.95326 11.01511 8.27529
# Velocity P-wave (km/s) = 6.54280 13.64371 10.69951
#
# Compressibility (1/GPa) = 0.01959153
#
# Stress axis : x y z
#
# Youngs Moduli (GPa) = 65.78837 60.54655 110.91357
#
# Poissons Ratio (x) = 0.24455 0.39463
# Poissons Ratio (y) = 0.26572 0.32981
# Poissons Ratio (z) = 0.23407 0.18004
#
# Static dielectric constant tensor:
#      x y z
#    x 4.004690 0.000000 0.134870 
#    y 0.000000 3.966130 0.000000 
#    z 0.134870 0.000000 4.506760 
# 
# 
# High freq. dielectric constant tensor:
#      x y z
#    x 1.906070 0.000000 0.013560 
#    y 0.000000 1.910950 0.000000 
#    z 0.013560 0.000000 1.933550 
# 
# From -- ./inp_files/39150.got.cif
#   From: 2010.06.25/outbox.cif.g09.slc.cpg/sg13_20_cif.got.tgz:39150.got - 2010.06.28 04:50:58.
