data_PCOD8121890
_publ_section_title
;
Structure prediction by ZEFSAII (Michael W. Deem and Ramdas Pophale) SiO2 
 PCOD8121890
Probable space group: P 2/C
;
_chemical_formula_sum "Si O2"
_cell_formula_units_Z 26
_cell_length_a 9.060461
_cell_length_b 12.305555
_cell_length_c 13.138579
_cell_angle_alpha 90.000000
_cell_angle_beta 133.654836
_cell_angle_gamma 90.000000
_cell_volume 1059.852299
_symmetry_space_group_name_H-M "P 2/C"
_symmetry_group_IT_number 13
_symmetry_cell_setting 'monoclinic'
loop_
_space_group_symop_operation_xyz
x,y,z
-x,y,1/2-z
-x,-y,-z
x,-y,1/2+z
loop_
_atom_site_type_symbol
_atom_site_label
_atom_site_fract_x
_atom_site_fract_y
_atom_site_fract_z
Si Si1 0.734376 0.039750 0.347025
Si Si2 0.046855 0.357028 0.542909
Si Si3 0.145674 0.760371 0.728136
Si Si4 0.981041 0.871181 0.361957
Si Si5 0.519615 0.330988 0.977204
Si Si6 0.188567 0.470481 0.907422
Si Si7 0.500000 0.676421 0.250000
O O1 0.500000 0.058952 0.250000
O O2 0.833673 0.133573 0.327698
O O3 0.838498 0.051954 0.507382
O O4 0.773353 0.924606 0.309309
O O5 0.012320 0.252199 0.597826
O O6 0.286783 0.391001 0.656125
O O7 0.961667 0.335414 0.388519
O O8 0.905089 0.451058 0.524458
O O9 0.000000 0.791067 0.750000
O O10 0.631613 0.728908 0.622786
O O11 0.000000 0.876193 0.250000
O O12 0.292751 0.361916 0.908549
O O13 0.508531 0.260456 0.864935
O O14 0.639391 0.439217 0.001584
O O15 0.000000 0.510715 0.750000
#
# Coordination Sequence:
#
# PCOD8121890 Si02
#       7
#     4   4   4   4   4   4   2
#     4  10  24  42  68 104 135 175 230 278 341 411
#     4  11  25  42  70  95 141 179 230 283 339 411
#     4  11  23  44  67  97 138 185 224 284 342 411
#     4  10  23  44  67  99 137 179 221 282 342 405
#     4  11  26  42  69  98 131 180 232 274 356 396
#     4  11  24  44  67  98 135 176 230 290 333 414
#     4  12  24  42  62 104 126 184 226 282 330 412
#
# _framework density 24.53172
#
# number of rings (size 3 to 8) (size 9 to 14) (size 15 to 20)
#    0.000    1.231    3.077    1.385    5.385    3.692 
#    0.000    0.000    0.000    0.000    0.000    0.000 
#    0.000    0.000    0.000    0.000    0.000    0.000 
#
# Total GULP energy -322235.607975 kJ/mol
# GULP energy per Si atom -12393.677230 kJ/mol
# Density = 2.447588 g / cm^3
# Si number density = 24.531720 Si / 1000 Ang^3
#
#
#
# Elastic Constant Matrix: (Units=GPa)
#
#
# Indices 1 2 3 4 5 6 
#
# 1 145.5324 3.2760 65.0055 0.0000 -6.7595 0.0000
# 2 3.2760 29.6332 17.5452 0.0000 2.1931 0.0000
# 3 65.0055 17.5452 144.8539 0.0000 -16.4811 0.0000
# 4 0.0000 0.0000 0.0000 24.1853 0.0000 -1.1503
# 5 -6.7595 2.1931 -16.4811 0.0000 53.5282 0.0000
# 6 0.0000 0.0000 0.0000 -1.1503 0.0000 30.0930
#
#
#
# Elastic Compliance Matrix: (Units=1/GPa)
#
#
# Indices 1 2 3 4 5 6 
#
# 1 0.008654 0.001481 -0.004089 0.000000 -0.000227 0.000000
# 2 0.001481 0.037061 -0.005498 0.000000 -0.003024 0.000000
# 3 -0.004089 -0.005498 0.009711 0.000000 0.002699 0.000000
# 4 0.000000 0.000000 0.000000 0.041423 0.000000 0.001583
# 5 -0.000227 -0.003024 0.002699 0.000000 0.019608 0.000000
# 6 0.000000 0.000000 0.000000 0.001583 0.000000 0.033291
#
#
# Mechanical properties :
#
#
# Convention : Reuss Voigt Hill
#
# Bulk Modulus (GPa) = 25.50018 54.63033 40.06525
# Shear Modulus (GPa) = 27.92820 37.17414 32.55117
#
# Velocity S-wave (km/s) = 3.37776 3.89697 3.64662
# Velocity P-wave (km/s) = 5.06257 6.52427 5.83934
#
# Compressibility (1/GPa) = 0.03921541
#
# Stress axis : x y z
#
# Youngs Moduli (GPa) = 115.55658 26.98248 102.97222
#
# Poissons Ratio (x) = -0.03996 0.42102
# Poissons Ratio (y) = -0.17113 0.56611
# Poissons Ratio (z) = 0.47248 0.14834
#
# Static dielectric constant tensor:
#      x y z
#    x 4.771820 0.000000 -0.176720 
#    y 0.000000 4.215590 0.000000 
#    z -0.176720 0.000000 4.802780 
# 
# 
# High freq. dielectric constant tensor:
#      x y z
#    x 1.999680 0.000000 -0.007740 
#    y 0.000000 1.950170 0.000000 
#    z -0.007740 0.000000 1.991700 
# 
# From -- ./inp_files/47949.got.cif
#   From: 2010.06.25/outbox.cif.g09.slc.cpg/sg13_24_cif.got.tgz:47949.got - 2010.06.28 04:50:58.
