data_PCOD8121744
_publ_section_title
;
Structure prediction by ZEFSAII (Michael W. Deem and Ramdas Pophale) SiO2 
 PCOD8121744
Probable space group: P 2/C
;
_chemical_formula_sum "Si O2"
_cell_formula_units_Z 30
_cell_length_a 12.285828
_cell_length_b 11.403021
_cell_length_c 22.897475
_cell_angle_alpha 90.000000
_cell_angle_beta 153.877180
_cell_angle_gamma 90.000000
_cell_volume 1412.399264
_symmetry_space_group_name_H-M "P 2/C"
_symmetry_group_IT_number 13
_symmetry_cell_setting 'monoclinic'
loop_
_space_group_symop_operation_xyz
x,y,z
-x,y,1/2-z
-x,-y,-z
x,-y,1/2+z
loop_
_atom_site_type_symbol
_atom_site_label
_atom_site_fract_x
_atom_site_fract_y
_atom_site_fract_z
Si Si1 0.025008 0.020995 0.132685
Si Si2 0.511402 0.022832 0.438271
Si Si3 0.000000 0.596815 0.250000
Si Si4 0.746324 0.457471 0.229164
Si Si5 0.015040 0.220518 0.942377
Si Si6 0.017347 0.266438 0.074416
Si Si7 0.349598 0.286460 0.000522
Si Si8 0.480166 0.345264 0.804800
O O1 0.255866 0.978783 0.284479
O O2 0.108752 0.143688 0.145113
O O3 0.965541 0.920018 0.056190
O O4 0.763505 0.041423 0.039200
O O5 0.529432 0.160592 0.438609
O O6 0.500000 0.000000 0.500000
O O7 0.935535 0.515980 0.274700
O O8 0.787656 0.686051 0.126497
O O9 0.574100 0.554059 0.175454
O O10 0.875822 0.380401 0.341739
O O11 0.569795 0.377678 0.106226
O O12 0.729325 0.247444 0.795490
O O13 0.169293 0.296441 0.969757
O O14 0.107196 0.263329 0.050328
O O15 0.724127 0.274479 0.939246
O O16 0.500000 0.402993 0.750000
#
# Coordination Sequence:
#
# PCOD8121744 Si02
#       8
#     4   4   2   4   4   4   4   4
#     4  11  23  45  68 104 137 178 230 283 350 409
#     4  11  25  42  70  98 137 182 228 285 341 414
#     4  12  26  44  68  92 142 184 224 288 330 420
#     4  12  25  44  66 102 134 180 229 276 349 393
#     4  10  23  43  70 100 135 179 223 279 351 409
#     4  11  24  43  68 102 138 176 228 283 339 410
#     4  11  25  44  65 102 131 178 233 277 345 403
#     4  10  23  40  67  96 135 180 223 275 332 405
#
# _framework density 21.240452999999999
#
# number of rings (size 3 to 8) (size 9 to 14) (size 15 to 20)
#    0.000    1.067    2.667    2.800    5.600    3.200 
#    0.000    1.333    0.000    0.000    0.000    0.000 
#    0.000    0.000    0.000    0.000    0.000    0.000 
#
# Total GULP energy -371945.318781 kJ/mol
# GULP energy per Si atom -12398.177293 kJ/mol
# Density = 2.119211 g / cm^3
# Si number density = 21.240453 Si / 1000 Ang^3
#
#
#
# Elastic Constant Matrix: (Units=GPa)
#
#
# Indices 1 2 3 4 5 6 
#
# 1 99.4243 25.0976 23.8571 0.0000 -8.7488 0.0000
# 2 25.0976 67.5116 4.5977 0.0000 -13.5363 0.0000
# 3 23.8571 4.5977 110.9511 0.0000 -4.8162 0.0000
# 4 0.0000 0.0000 0.0000 35.3041 0.0000 0.1005
# 5 -8.7488 -13.5363 -4.8162 0.0000 34.8070 0.0000
# 6 0.0000 0.0000 0.0000 0.1005 0.0000 20.4134
#
#
#
# Elastic Compliance Matrix: (Units=1/GPa)
#
#
# Indices 1 2 3 4 5 6 
#
# 1 0.011711 -0.003981 -0.002306 0.000000 0.001076 0.000000
# 2 -0.003981 0.017435 0.000387 0.000000 0.005834 0.000000
# 3 -0.002306 0.000387 0.009532 0.000000 0.000890 0.000000
# 4 0.000000 0.000000 0.000000 0.028326 0.000000 -0.000140
# 5 0.001076 0.005834 0.000890 0.000000 0.031392 0.000000
# 6 0.000000 0.000000 0.000000 -0.000140 0.000000 0.048988
#
#
# Mechanical properties :
#
#
# Convention : Reuss Voigt Hill
#
# Bulk Modulus (GPa) = 37.20668 42.77688 39.99178
# Shear Modulus (GPa) = 29.73650 33.06054 31.39852
#
# Velocity S-wave (km/s) = 3.74571 3.94952 3.84896
# Velocity P-wave (km/s) = 6.02180 6.40166 6.21463
#
# Compressibility (1/GPa) = 0.02687690
#
# Stress axis : x y z
#
# Youngs Moduli (GPa) = 85.39062 57.35461 104.91519
#
# Poissons Ratio (x) = 0.22831 0.24198
# Poissons Ratio (y) = 0.33991 -0.04057
# Poissons Ratio (z) = 0.19695 -0.02218
#
# Static dielectric constant tensor:
#      x y z
#    x 3.909010 0.000000 0.022790 
#    y 0.000000 3.682070 0.000000 
#    z 0.022790 0.000000 3.986320 
# 
# 
# High freq. dielectric constant tensor:
#      x y z
#    x 1.835550 0.000000 0.001250 
#    y 0.000000 1.836680 0.000000 
#    z 0.001250 0.000000 1.843260 
# 
# From -- ./inp_files/78653.got.cif
#   From: 2010.06.25/outbox.cif.g09.slc.cpg/sg13_40_cif.got.tgz:78653.got - 2010.06.28 04:50:58.
