data_PCOD8121351
_publ_section_title
;
Structure prediction by ZEFSAII (Michael W. Deem and Ramdas Pophale) SiO2 
 PCOD8121351
Probable space group: P 2/C
;
_chemical_formula_sum "Si O2"
_cell_formula_units_Z 30
_cell_length_a 11.952373
_cell_length_b 8.786584
_cell_length_c 31.025791
_cell_angle_alpha 90.000000
_cell_angle_beta 27.213435
_cell_angle_gamma 90.000000
_cell_volume 1490.062245
_symmetry_space_group_name_H-M "P 2/C"
_symmetry_group_IT_number 13
_symmetry_cell_setting 'monoclinic'
loop_
_space_group_symop_operation_xyz
x,y,z
-x,y,1/2-z
-x,-y,-z
x,-y,1/2+z
loop_
_atom_site_type_symbol
_atom_site_label
_atom_site_fract_x
_atom_site_fract_y
_atom_site_fract_z
Si Si1 0.663915 0.830939 0.558893
Si Si2 0.865983 0.666645 0.251876
Si Si3 0.251839 0.343461 0.048816
Si Si4 0.500000 0.485871 0.250000
Si Si5 0.619643 0.182787 0.580149
Si Si6 0.689026 0.307774 0.960508
Si Si7 0.716172 0.636014 0.761506
Si Si8 0.117051 0.356933 0.936371
O O1 0.655071 0.810407 0.510631
O O2 0.420593 0.763415 0.663968
O O3 0.904115 0.753666 0.495008
O O4 0.685059 0.007480 0.562050
O O5 0.672450 0.800922 0.326548
O O6 0.708032 0.522758 0.289934
O O7 0.000000 0.619827 0.250000
O O8 0.058258 0.724210 0.150721
O O9 0.307494 0.521443 0.021637
O O10 0.996803 0.314443 0.160187
O O11 0.236648 0.258139 0.008745
O O12 0.465398 0.275918 0.005111
O O13 0.418466 0.379729 0.238308
O O14 0.731027 0.589710 0.157580
O O15 0.698256 0.266754 0.596551
O O16 0.000000 0.500000 0.000000
#
# Coordination Sequence:
#
# PCOD8121351 Si02
#       8
#     4   4   4   2   4   4   4   4
#     4  12  27  42  63  99 139 174 207 267 345 404
#     4  11  21  43  71  96 128 170 227 273 317 380
#     4  10  22  41  68  97 126 171 225 276 308 380
#     4  12  22  42  74  98 120 172 230 286 320 372
#     4  12  25  44  64  98 138 172 206 270 344 398
#     4  10  22  41  69  96 127 173 227 268 319 376
#     4  11  24  41  68  99 126 169 228 275 321 384
#     4  12  23  46  73  94 127 167 230 273 320 390
#
# _framework density 20.133386999999999
#
# number of rings (size 3 to 8) (size 9 to 14) (size 15 to 20)
#    0.000    0.800    4.000    4.400    3.733    1.600 
#    2.400    0.000    0.000    0.000    0.000    0.000 
#    0.000    0.000    0.000    0.000    0.000    0.000 
#
# Total GULP energy -372210.445818 kJ/mol
# GULP energy per Si atom -12407.014861 kJ/mol
# Density = 2.008756 g / cm^3
# Si number density = 20.133387 Si / 1000 Ang^3
#
#
#
# Elastic Constant Matrix: (Units=GPa)
#
#
# Indices 1 2 3 4 5 6 
#
# 1 64.2743 4.5065 2.6360 0.0000 8.1375 0.0000
# 2 4.5065 69.3318 29.6880 0.0000 7.6126 0.0000
# 3 2.6360 29.6880 113.5457 0.0000 6.1042 0.0000
# 4 0.0000 0.0000 0.0000 20.0642 0.0000 2.5940
# 5 8.1375 7.6126 6.1042 0.0000 38.1648 0.0000
# 6 0.0000 0.0000 0.0000 2.5940 0.0000 16.1096
#
#
#
# Elastic Compliance Matrix: (Units=1/GPa)
#
#
# Indices 1 2 3 4 5 6 
#
# 1 0.016021 -0.000673 -0.000020 0.000000 -0.003279 0.000000
# 2 -0.000673 0.016526 -0.004172 0.000000 -0.002486 0.000000
# 3 -0.000020 -0.004172 0.009939 0.000000 -0.000753 0.000000
# 4 0.000000 0.000000 0.000000 0.050900 0.000000 -0.008196
# 5 -0.003279 -0.002486 -0.000753 0.000000 0.027518 0.000000
# 6 0.000000 0.000000 0.000000 -0.008196 0.000000 0.063395
#
#
# Mechanical properties :
#
#
# Convention : Reuss Voigt Hill
#
# Bulk Modulus (GPa) = 30.52721 35.64588 33.08654
# Shear Modulus (GPa) = 24.39662 28.88913 26.64287
#
# Velocity S-wave (km/s) = 3.48480 3.79210 3.64169
# Velocity P-wave (km/s) = 5.60242 6.07591 5.84396
#
# Compressibility (1/GPa) = 0.03275766
#
# Stress axis : x y z
#
# Youngs Moduli (GPa) = 62.41644 60.50916 100.61626
#
# Poissons Ratio (x) = 0.04072 0.00199
# Poissons Ratio (y) = 0.04200 0.41975
# Poissons Ratio (z) = 0.00123 0.25243
#
# Static dielectric constant tensor:
#      x y z
#    x 3.886760 0.000000 -0.012760 
#    y 0.000000 3.529630 0.000000 
#    z -0.012760 0.000000 3.890070 
# 
# 
# High freq. dielectric constant tensor:
#      x y z
#    x 1.802690 0.000000 -0.003280 
#    y 0.000000 1.756850 0.000000 
#    z -0.003280 0.000000 1.806560 
# 
# From -- ./inp_files/50393.got.cif
#   From: 2010.06.25/outbox.cif.g09.slc.cpg/sg13_26_cif.got.tgz:50393.got - 2010.06.28 04:50:58.
