data_PCOD8121528
_publ_section_title
;
Structure prediction by ZEFSAII (Michael W. Deem and Ramdas Pophale) SiO2 
 PCOD8121528
Probable space group: P 2/C
;
_chemical_formula_sum "Si O2"
_cell_formula_units_Z 22
_cell_length_a 7.250967
_cell_length_b 7.035708
_cell_length_c 23.962002
_cell_angle_alpha 90.000000
_cell_angle_beta 125.109849
_cell_angle_gamma 90.000000
_cell_volume 1000.016447
_symmetry_space_group_name_H-M "P 2/C"
_symmetry_group_IT_number 13
_symmetry_cell_setting 'monoclinic'
loop_
_space_group_symop_operation_xyz
x,y,z
-x,y,1/2-z
-x,-y,-z
x,-y,1/2+z
loop_
_atom_site_type_symbol
_atom_site_label
_atom_site_fract_x
_atom_site_fract_y
_atom_site_fract_z
Si Si1 0.219562 0.977077 0.611336
Si Si2 0.500000 0.787108 0.750000
Si Si3 0.491894 0.694404 0.374858
Si Si4 0.123698 0.772527 0.396370
Si Si5 0.819929 0.470769 0.766092
Si Si6 0.784969 0.372776 0.470243
O O1 0.428339 0.918142 0.686241
O O2 0.173248 0.817639 0.557692
O O3 0.289138 0.173578 0.593103
O O4 0.992280 0.026176 0.606825
O O5 0.717702 0.664352 0.771837
O O6 0.316575 0.805641 0.384135
O O7 0.376538 0.659267 0.294684
O O8 0.563762 0.488670 0.411878
O O9 0.245692 0.677870 0.470455
O O10 0.930505 0.635730 0.337703
O O11 0.000000 0.523653 0.750000
O O12 0.000000 0.500000 0.500000
#
# Coordination Sequence:
#
# PCOD8121528 Si02
#       6
#     4   2   4   4   4   4
#     4  12  25  42  67  98 133 170 224 271 325 395
#     4  12  22  40  68  98 128 180 214 268 336 384
#     4  11  24  46  68  95 134 172 222 275 327 393
#     4  11  24  43  69  98 131 176 218 275 333 386
#     4  10  22  43  69  96 130 172 221 270 324 394
#     4  12  24  46  67  96 136 173 220 271 330 400
#
# _framework density 21.999639999999999
#
# number of rings (size 3 to 8) (size 9 to 14) (size 15 to 20)
#    0.000    0.727    3.636    4.364    0.000    2.182 
#    3.273    0.000    0.000    0.000    0.000    0.000 
#    0.000    0.000    0.000    0.000    0.000    0.000 
#
# Total GULP energy -272931.890456 kJ/mol
# GULP energy per Si atom -12405.995021 kJ/mol
# Density = 2.194957 g / cm^3
# Si number density = 21.999640 Si / 1000 Ang^3
#
#
#
# Elastic Constant Matrix: (Units=GPa)
#
#
# Indices 1 2 3 4 5 6 
#
# 1 68.1229 35.1812 13.5895 0.0000 1.9008 0.0000
# 2 35.1812 108.1708 38.1212 0.0000 -5.7871 0.0000
# 3 13.5895 38.1212 126.5693 0.0000 -17.5271 0.0000
# 4 0.0000 0.0000 0.0000 36.3529 0.0000 -2.3000
# 5 1.9008 -5.7871 -17.5271 0.0000 31.4434 0.0000
# 6 0.0000 0.0000 0.0000 -2.3000 0.0000 25.4650
#
#
#
# Elastic Compliance Matrix: (Units=1/GPa)
#
#
# Indices 1 2 3 4 5 6 
#
# 1 0.017815 -0.005741 -0.000519 0.000000 -0.002423 0.000000
# 2 -0.005741 0.012193 -0.002923 0.000000 0.000962 0.000000
# 3 -0.000519 -0.002923 0.009500 0.000000 0.004789 0.000000
# 4 0.000000 0.000000 0.000000 0.027666 0.000000 0.002499
# 5 -0.002423 0.000962 0.004789 0.000000 0.034796 0.000000
# 6 0.000000 0.000000 0.000000 0.002499 0.000000 0.039495
#
#
# Mechanical properties :
#
#
# Convention : Reuss Voigt Hill
#
# Bulk Modulus (GPa) = 47.29758 52.96073 50.12916
# Shear Modulus (GPa) = 29.96166 33.05034 31.50600
#
# Velocity S-wave (km/s) = 3.69442 3.88017 3.78843
# Velocity P-wave (km/s) = 6.30430 6.64831 6.47859
#
# Compressibility (1/GPa) = 0.02114273
#
# Stress axis : x y z
#
# Youngs Moduli (GPa) = 56.13142 82.01210 105.26241
#
# Poissons Ratio (x) = 0.47082 0.05466
# Poissons Ratio (y) = 0.32224 0.30767
# Poissons Ratio (z) = 0.02915 0.23971
#
# Static dielectric constant tensor:
#      x y z
#    x 3.919610 0.000000 -0.114460 
#    y 0.000000 3.948090 0.000000 
#    z -0.114460 0.000000 4.332160 
# 
# 
# High freq. dielectric constant tensor:
#      x y z
#    x 1.865680 0.000000 -0.003150 
#    y 0.000000 1.857890 0.000000 
#    z -0.003150 0.000000 1.886730 
# 
# From -- ./inp_files/95401.got.cif
#   From: 2010.06.25/outbox.cif.g09.slc.cpg/sg13_48_cif.got.tgz:95401.got - 2010.06.28 04:50:58.
