data_PCOD8121493
_publ_section_title
;
Structure prediction by ZEFSAII (Michael W. Deem and Ramdas Pophale) SiO2 
 PCOD8121493
Probable space group: P 2/C
;
_chemical_formula_sum "Si O2"
_cell_formula_units_Z 18
_cell_length_a 6.393616
_cell_length_b 8.744075
_cell_length_c 17.674218
_cell_angle_alpha 90.000000
_cell_angle_beta 122.222702
_cell_angle_gamma 90.000000
_cell_volume 835.914258
_symmetry_space_group_name_H-M "P 2/C"
_symmetry_group_IT_number 13
_symmetry_cell_setting 'monoclinic'
loop_
_space_group_symop_operation_xyz
x,y,z
-x,y,1/2-z
-x,-y,-z
x,-y,1/2+z
loop_
_atom_site_type_symbol
_atom_site_label
_atom_site_fract_x
_atom_site_fract_y
_atom_site_fract_z
Si Si1 0.225138 0.670438 0.409358
Si Si2 0.000000 0.108303 0.250000
Si Si3 0.113384 0.842848 0.043371
Si Si4 0.767373 0.679799 0.576934
Si Si5 0.372918 0.851008 0.300543
O O1 0.472519 0.696689 0.506856
O O2 0.158129 0.493007 0.390502
O O3 0.230472 0.724895 0.323096
O O4 0.002568 0.767452 0.403667
O O5 0.142597 0.210784 0.338404
O O6 0.203865 0.999043 0.249094
O O7 0.395714 0.896470 0.103567
O O8 0.083181 0.721089 0.970037
O O9 0.000000 0.000000 0.000000
O O10 0.500000 0.779758 0.250000
#
# Coordination Sequence:
#
# PCOD8121493 Si02
#       5
#     4   2   4   4   4
#     4  10  22  43  64  88 125 164 205 249 305 372
#     4  12  24  40  60  90 126 156 206 262 304 360
#     4  11  21  38  65  90 120 162 203 247 303 368
#     4  10  23  40  63  93 124 162 203 252 309 364
#     4  11  23  38  60  89 120 160 206 252 304 360
#
# _framework density 21.533308000000002
#
# number of rings (size 3 to 8) (size 9 to 14) (size 15 to 20)
#    0.000    1.333    0.000    6.000    0.000    6.222 
#    0.000    1.111    0.000    2.667    0.000    0.000 
#    0.000    0.000    0.000    0.000    0.000    0.000 
#
# Total GULP energy -223103.379073 kJ/mol
# GULP energy per Si atom -12394.632171 kJ/mol
# Density = 2.148430 g / cm^3
# Si number density = 21.533308 Si / 1000 Ang^3
#
#
#
# Elastic Constant Matrix: (Units=GPa)
#
#
# Indices 1 2 3 4 5 6 
#
# 1 121.1986 67.0395 31.8729 0.0000 -20.6390 0.0000
# 2 67.0395 161.7074 53.0681 0.0000 -3.3138 0.0000
# 3 31.8729 53.0681 84.6182 0.0000 -8.4929 0.0000
# 4 0.0000 0.0000 0.0000 43.3722 0.0000 1.5985
# 5 -20.6390 -3.3138 -8.4929 0.0000 45.1369 0.0000
# 6 0.0000 0.0000 0.0000 1.5985 0.0000 33.3532
#
#
#
# Elastic Compliance Matrix: (Units=1/GPa)
#
#
# Indices 1 2 3 4 5 6 
#
# 1 0.011836 -0.004412 -0.001203 0.000000 0.004862 0.000000
# 2 -0.004412 0.009437 -0.004474 0.000000 -0.002167 0.000000
# 3 -0.001203 -0.004474 0.015277 0.000000 0.001996 0.000000
# 4 0.000000 0.000000 0.000000 0.023097 0.000000 -0.001107
# 5 0.004862 -0.002167 0.001996 0.000000 0.024594 0.000000
# 6 0.000000 0.000000 0.000000 -0.001107 0.000000 0.030035
#
#
# Mechanical properties :
#
#
# Convention : Reuss Voigt Hill
#
# Bulk Modulus (GPa) = 61.08215 74.60947 67.84581
# Shear Modulus (GPa) = 35.73667 38.74202 37.23935
#
# Velocity S-wave (km/s) = 4.07824 4.24626 4.16310
# Velocity P-wave (km/s) = 7.11365 7.66581 7.39488
#
# Compressibility (1/GPa) = 0.01637140
#
# Stress axis : x y z
#
# Youngs Moduli (GPa) = 84.48914 105.96490 65.45767
#
# Poissons Ratio (x) = 0.46756 0.07875
# Poissons Ratio (y) = 0.37280 0.29285
# Poissons Ratio (z) = 0.10164 0.47408
#
# Static dielectric constant tensor:
#      x y z
#    x 4.748430 0.000000 0.000740 
#    y 0.000000 3.884800 0.000000 
#    z 0.000740 0.000000 4.063700 
# 
# 
# High freq. dielectric constant tensor:
#      x y z
#    x 1.853500 0.000000 0.006320 
#    y 0.000000 1.841410 0.000000 
#    z 0.006320 0.000000 1.861270 
# 
# From -- ./inp_files/60445.got.cif
#   From: 2010.06.25/outbox.cif.g09.slc.cpg/sg13_31_cif.got.tgz:60445.got - 2010.06.28 04:50:58.
