data_PCOD8121475
_publ_section_title
;
Structure prediction by ZEFSAII (Michael W. Deem and Ramdas Pophale) SiO2 
 PCOD8121475
Probable space group: P 2/C
;
_chemical_formula_sum "Si O2"
_cell_formula_units_Z 16
_cell_length_a 11.228046
_cell_length_b 12.759806
_cell_length_c 13.982381
_cell_angle_alpha 90.000000
_cell_angle_beta 19.350500
_cell_angle_gamma 90.000000
_cell_volume 663.760308
_symmetry_space_group_name_H-M "P 2/C"
_symmetry_group_IT_number 13
_symmetry_cell_setting 'monoclinic'
loop_
_space_group_symop_operation_xyz
x,y,z
-x,y,1/2-z
-x,-y,-z
x,-y,1/2+z
loop_
_atom_site_type_symbol
_atom_site_label
_atom_site_fract_x
_atom_site_fract_y
_atom_site_fract_z
Si Si1 0.341382 0.774146 0.101147
Si Si2 0.449269 0.597753 0.677734
Si Si3 0.623262 0.636805 0.261439
Si Si4 0.757349 0.088083 0.136685
O O1 0.536205 0.728116 0.048962
O O2 0.968402 0.824666 0.416492
O O3 0.266001 0.670947 0.093783
O O4 0.564376 0.860044 0.873968
O O5 0.500000 0.619390 0.750000
O O6 0.535237 0.476615 0.587867
O O7 0.054253 0.632324 0.942006
O O8 0.500000 0.668862 0.250000
O O9 0.500000 0.037484 0.250000
O O10 0.000000 0.000000 0.000000
#
# Coordination Sequence:
#
# PCOD8121475 Si02
#       4
#     4   4   4   4
#     4  12  24  47  76 107 144 191 239 289 359 437
#     4  10  22  42  71 106 154 195 238 289 348 428
#     4  10  23  42  67 111 154 195 238 289 347 417
#     4  12  29  52  78 107 139 183 242 310 375 432
#
# _framework density 24.105089
#
# number of rings (size 3 to 8) (size 9 to 14) (size 15 to 20)
#    0.000    1.000    2.500    3.000    3.500    2.000 
#    4.500    7.500    0.000    0.000    0.000    0.000 
#    0.000    0.000    0.000    0.000    0.000    0.000 
#
# Total GULP energy -198317.972639 kJ/mol
# GULP energy per Si atom -12394.873290 kJ/mol
# Density = 2.405022 g / cm^3
# Si number density = 24.105089 Si / 1000 Ang^3
#
#
#
# Elastic Constant Matrix: (Units=GPa)
#
#
# Indices 1 2 3 4 5 6 
#
# 1 225.0314 76.7684 59.5889 0.0000 -15.2262 0.0000
# 2 76.7684 82.7791 8.1366 0.0000 -8.2560 0.0000
# 3 59.5889 8.1366 64.0022 0.0000 5.2195 0.0000
# 4 0.0000 0.0000 0.0000 -3.0234 0.0000 34.4705
# 5 -15.2262 -8.2560 5.2195 0.0000 32.3911 0.0000
# 6 0.0000 0.0000 0.0000 34.4705 0.0000 36.6759
#
#
#
# Elastic Compliance Matrix: (Units=1/GPa)
#
#
# Indices 1 2 3 4 5 6 
#
# 1 0.009442 -0.007575 -0.008139 0.000000 0.003819 0.000000
# 2 -0.007575 0.018695 0.004639 0.000000 0.000457 0.000000
# 3 -0.008139 0.004639 0.023132 0.000000 -0.006371 0.000000
# 4 0.000000 0.000000 0.000000 -0.028232 0.000000 0.026534
# 5 0.003819 0.000457 -0.006371 0.000000 0.033811 0.000000
# 6 0.000000 0.000000 0.000000 0.026534 0.000000 0.002327
#
#
# Mechanical properties :
#
#
# Convention : Reuss Voigt Hill
#
# Bulk Modulus (GPa) = 34.34272 73.42226 53.88249
# Shear Modulus (GPa) = 54.92554 28.36331 41.64443
#
# Velocity S-wave (km/s) = 4.77863 3.43396 4.16097
# Velocity P-wave (km/s) = 6.68768 6.80060 6.74438
#
# Compressibility (1/GPa) = 0.02911826
#
# Stress axis : x y z
#
# Youngs Moduli (GPa) = 105.91253 53.48983 43.22985
#
# Poissons Ratio (x) = 0.40520 0.35185
# Poissons Ratio (y) = 0.80232 -0.20054
# Poissons Ratio (z) = 0.86203 -0.24814
#
# Static dielectric constant tensor:
#      x y z
#    x 5.259190 0.000000 0.114340 
#    y 0.000000 4.521120 0.000000 
#    z 0.114340 0.000000 4.341470 
# 
# 
# High freq. dielectric constant tensor:
#      x y z
#    x 1.981050 0.000000 0.011850 
#    y 0.000000 1.952510 0.000000 
#    z 0.011850 0.000000 1.948180 
# 
# From -- ./inp_files/51040.got.cif
#   From: 2010.06.25/outbox.cif.g09.slc.cpg/sg13_26_cif.got.tgz:51040.got - 2010.06.28 04:50:58.
