data_PCOD8121689
_publ_section_title
;
Structure prediction by ZEFSAII (Michael W. Deem and Ramdas Pophale) SiO2 
 PCOD8121689
Probable space group: P 2/C
;
_chemical_formula_sum "Si O2"
_cell_formula_units_Z 24
_cell_length_a 17.192394
_cell_length_b 6.766427
_cell_length_c 18.303497
_cell_angle_alpha 90.000000
_cell_angle_beta 33.337562
_cell_angle_gamma 90.000000
_cell_volume 1170.181832
_symmetry_space_group_name_H-M "P 2/C"
_symmetry_group_IT_number 13
_symmetry_cell_setting 'monoclinic'
loop_
_space_group_symop_operation_xyz
x,y,z
-x,y,1/2-z
-x,-y,-z
x,-y,1/2+z
loop_
_atom_site_type_symbol
_atom_site_label
_atom_site_fract_x
_atom_site_fract_y
_atom_site_fract_z
Si Si1 0.999201 0.775021 0.524851
Si Si2 0.561037 0.671714 0.333278
Si Si3 0.713232 0.418115 0.958989
Si Si4 0.761546 0.314637 0.547992
Si Si5 0.818123 0.538687 0.222568
Si Si6 0.590230 0.979804 0.610141
O O1 0.102003 0.741100 0.512678
O O2 0.049295 0.659537 0.413412
O O3 0.845622 0.688287 0.671813
O O4 0.000000 0.000000 0.500000
O O5 0.426312 0.537955 0.452679
O O6 0.633955 0.611635 0.199725
O O7 0.670213 0.633717 0.312957
O O8 0.513812 0.902241 0.364318
O O9 0.822513 0.441765 0.806340
O O10 0.791735 0.505179 0.968778
O O11 0.668358 0.192861 0.005822
O O12 0.714020 0.124378 0.539791
O O13 0.500000 0.898506 0.750000
#
# Coordination Sequence:
#
# PCOD8121689 Si02
#       6
#     4   4   4   4   4   4
#     4  10  23  43  60  75 110 161 203 241 289 346
#     4   9  19  36  55  83 119 149 186 231 285 357
#     4  11  20  34  59  88 118 144 181 245 303 343
#     4   9  20  37  56  83 114 148 195 238 278 346
#     4  10  23  38  57  86 112 147 197 242 291 349
#     4   9  18  32  55  86 117 154 188 226 292 356
#
# _framework density 20.509630999999999
#
# number of rings (size 3 to 8) (size 9 to 14) (size 15 to 20)
#    0.000    2.333    0.000    3.000    0.000   12.000 
#    0.000    0.000    0.000    0.000    0.000    0.000 
#    0.000    0.000    0.000    0.000    0.000    0.000 
#
# Total GULP energy -297504.158911 kJ/mol
# GULP energy per Si atom -12396.006621 kJ/mol
# Density = 2.046295 g / cm^3
# Si number density = 20.509631 Si / 1000 Ang^3
#
#
#
# Elastic Constant Matrix: (Units=GPa)
#
#
# Indices 1 2 3 4 5 6 
#
# 1 92.7490 42.9274 44.5575 0.0000 10.1084 0.0000
# 2 42.9274 129.8958 51.8737 0.0000 16.7270 0.0000
# 3 44.5575 51.8737 97.5160 0.0000 22.0323 0.0000
# 4 0.0000 0.0000 0.0000 22.0504 0.0000 -7.4599
# 5 10.1084 16.7270 22.0323 0.0000 34.2096 0.0000
# 6 0.0000 0.0000 0.0000 -7.4599 0.0000 18.9461
#
#
#
# Elastic Compliance Matrix: (Units=1/GPa)
#
#
# Indices 1 2 3 4 5 6 
#
# 1 0.014546 -0.002756 -0.005282 0.000000 0.000451 0.000000
# 2 -0.002756 0.010380 -0.003862 0.000000 -0.001774 0.000000
# 3 -0.005282 -0.003862 0.016318 0.000000 -0.007060 0.000000
# 4 0.000000 0.000000 0.000000 0.052320 0.000000 0.020601
# 5 0.000451 -0.001774 -0.007060 0.000000 0.034513 0.000000
# 6 0.000000 0.000000 0.000000 0.020601 0.000000 0.060893
#
#
# Mechanical properties :
#
#
# Convention : Reuss Voigt Hill
#
# Bulk Modulus (GPa) = 57.32668 66.54197 61.93433
# Shear Modulus (GPa) = 22.87464 27.09469 24.98467
#
# Velocity S-wave (km/s) = 3.34325 3.63860 3.49405
# Velocity P-wave (km/s) = 6.55095 7.08288 6.82210
#
# Compressibility (1/GPa) = 0.01744388
#
# Stress axis : x y z
#
# Youngs Moduli (GPa) = 68.74878 96.34200 61.28306
#
# Poissons Ratio (x) = 0.26548 0.32372
# Poissons Ratio (y) = 0.18944 0.23665
# Poissons Ratio (z) = 0.36316 0.37203
#
# Static dielectric constant tensor:
#      x y z
#    x 3.783870 0.000000 0.032390 
#    y 0.000000 3.731430 0.000000 
#    z 0.032390 0.000000 3.668970 
# 
# 
# High freq. dielectric constant tensor:
#      x y z
#    x 1.797400 0.000000 0.006530 
#    y 0.000000 1.796720 0.000000 
#    z 0.006530 0.000000 1.793380 
# 
# From -- ./inp_files/81330.got.cif
#   From: 2010.06.25/outbox.cif.g09.slc.cpg/sg13_41_cif.got.tgz:81330.got - 2010.06.28 04:50:58.
