data_PCOD8121076
_publ_section_title
;
Structure prediction by ZEFSAII (Michael W. Deem and Ramdas Pophale) SiO2 
 PCOD8121076
Probable space group: P 2/C
;
_chemical_formula_sum "Si O2"
_cell_formula_units_Z 28
_cell_length_a 14.853522
_cell_length_b 9.186070
_cell_length_c 20.175668
_cell_angle_alpha 90.000000
_cell_angle_beta 149.483958
_cell_angle_gamma 90.000000
_cell_volume 1397.855743
_symmetry_space_group_name_H-M "P 2/C"
_symmetry_group_IT_number 13
_symmetry_cell_setting 'monoclinic'
loop_
_space_group_symop_operation_xyz
x,y,z
-x,y,1/2-z
-x,-y,-z
x,-y,1/2+z
loop_
_atom_site_type_symbol
_atom_site_label
_atom_site_fract_x
_atom_site_fract_y
_atom_site_fract_z
Si Si1 0.089577 0.626515 0.012488
Si Si2 0.876791 0.085028 0.369864
Si Si3 0.235422 0.201548 0.956378
Si Si4 0.375582 0.483316 0.107727
Si Si5 0.487990 0.001371 0.816096
Si Si6 0.843410 0.837956 0.240997
Si Si7 0.621214 0.289880 0.704024
O O1 0.189111 0.554593 0.012634
O O2 0.237966 0.711704 0.147339
O O3 0.000000 0.500000 0.000000
O O4 0.948753 0.751132 0.900542
O O5 0.681766 0.103650 0.278739
O O6 0.854704 0.991321 0.287993
O O7 0.000000 0.000000 0.500000
O O8 0.245913 0.145824 0.887395
O O9 0.038378 0.226191 0.856967
O O10 0.341143 0.347850 0.038659
O O11 0.326448 0.077052 0.056464
O O12 0.500000 0.444669 0.250000
O O13 0.480001 0.583407 0.121822
O O14 0.500000 0.063305 0.750000
O O15 0.482360 0.137852 0.861333
O O16 0.731812 0.709621 0.206078
#
# Coordination Sequence:
#
# PCOD8121076 Si02
#       7
#     4   4   4   4   4   4   4
#     4  11  22  37  63  96 133 157 203 271 315 381
#     4  11  22  38  65  95 121 166 210 258 320 375
#     4  11  24  40  65  88 125 170 212 267 314 390
#     4  10  23  38  61  97 127 160 213 262 333 379
#     4  11  22  35  66  92 122 160 214 266 312 375
#     4  10  23  43  64  86 126 167 220 256 326 378
#     4  10  22  39  61  93 126 163 204 268 322 376
#
# _framework density 20.03068
#
# number of rings (size 3 to 8) (size 9 to 14) (size 15 to 20)
#    0.000    1.429    2.857    3.429    8.000    2.857 
#    0.000    0.000    9.429    0.000    0.000    0.000 
#    0.000    0.000    0.000    0.000    0.000    0.000 
#
# Total GULP energy -347049.259794 kJ/mol
# GULP energy per Si atom -12394.616421 kJ/mol
# Density = 1.998509 g / cm^3
# Si number density = 20.030680 Si / 1000 Ang^3
#
#
#
# Elastic Constant Matrix: (Units=GPa)
#
#
# Indices 1 2 3 4 5 6 
#
# 1 124.2174 44.0376 39.5528 0.0000 -0.0264 0.0000
# 2 44.0376 115.7822 42.0743 0.0000 -3.0725 0.0000
# 3 39.5528 42.0743 65.2100 0.0000 1.4274 0.0000
# 4 0.0000 0.0000 0.0000 16.2972 0.0000 6.5443
# 5 -0.0264 -3.0725 1.4274 0.0000 22.1230 0.0000
# 6 0.0000 0.0000 0.0000 6.5443 0.0000 31.3929
#
#
#
# Elastic Compliance Matrix: (Units=1/GPa)
#
#
# Indices 1 2 3 4 5 6 
#
# 1 0.010378 -0.002167 -0.004897 0.000000 0.000027 0.000000
# 2 -0.002167 0.011827 -0.006362 0.000000 0.002050 0.000000
# 3 -0.004897 -0.006362 0.022461 0.000000 -0.002339 0.000000
# 4 0.000000 0.000000 0.000000 0.066966 0.000000 -0.013960
# 5 0.000027 0.002050 -0.002339 0.000000 0.045637 0.000000
# 6 0.000000 0.000000 0.000000 -0.013960 0.000000 0.034765
#
#
# Mechanical properties :
#
#
# Convention : Reuss Voigt Hill
#
# Bulk Modulus (GPa) = 56.13257 61.83768 58.98512
# Shear Modulus (GPa) = 22.23959 25.93228 24.08593
#
# Velocity S-wave (km/s) = 3.33570 3.60200 3.47140
# Velocity P-wave (km/s) = 6.55133 6.94534 6.75121
#
# Compressibility (1/GPa) = 0.01781497
#
# Stress axis : x y z
#
# Youngs Moduli (GPa) = 96.35803 84.55026 44.52113
#
# Poissons Ratio (x) = 0.18321 0.21803
# Poissons Ratio (y) = 0.20880 0.28323
# Poissons Ratio (z) = 0.47188 0.53788
#
# Static dielectric constant tensor:
#      x y z
#    x 3.872980 0.000000 0.276560 
#    y 0.000000 3.644470 0.000000 
#    z 0.276560 0.000000 3.649760 
# 
# 
# High freq. dielectric constant tensor:
#      x y z
#    x 1.789520 0.000000 0.025590 
#    y 0.000000 1.778220 0.000000 
#    z 0.025590 0.000000 1.769010 
# 
# From -- ./inp_files/80010.got.cif
#   From: 2010.06.25/outbox.cif.g09.slc.cpg/sg13_41_cif.got.tgz:80010.got - 2010.06.28 04:50:58.
