data_PCOD8121801
_publ_section_title
;
Structure prediction by ZEFSAII (Michael W. Deem and Ramdas Pophale) SiO2 
 PCOD8121801
Probable space group: P 2/C
;
_chemical_formula_sum "Si O2"
_cell_formula_units_Z 28
_cell_length_a 14.476492
_cell_length_b 12.264601
_cell_length_c 9.720483
_cell_angle_alpha 90.000000
_cell_angle_beta 56.954697
_cell_angle_gamma 90.000000
_cell_volume 1446.681116
_symmetry_space_group_name_H-M "P 2/C"
_symmetry_group_IT_number 13
_symmetry_cell_setting 'monoclinic'
loop_
_space_group_symop_operation_xyz
x,y,z
-x,y,1/2-z
-x,-y,-z
x,-y,1/2+z
loop_
_atom_site_type_symbol
_atom_site_label
_atom_site_fract_x
_atom_site_fract_y
_atom_site_fract_z
Si Si1 0.871723 0.394634 0.522683
Si Si2 0.753889 0.186639 0.744488
Si Si3 0.618231 0.141734 0.103438
Si Si4 0.919164 0.007436 0.689159
Si Si5 0.382629 0.892288 0.391115
Si Si6 0.873140 0.397106 0.202236
Si Si7 0.751527 0.179635 0.262551
O O1 0.799572 0.296610 0.640885
O O2 0.844842 0.419063 0.385076
O O3 0.840268 0.498125 0.640207
O O4 0.000261 0.365565 0.428219
O O5 0.703368 0.113463 0.664265
O O6 0.850310 0.119061 0.740660
O O7 0.661535 0.210815 0.936818
O O8 0.500000 0.188616 0.250000
O O9 0.708659 0.143708 0.149591
O O10 0.605443 0.016471 0.066243
O O11 0.839650 0.903368 0.756105
O O12 0.000000 0.006925 0.750000
O O13 0.000000 0.000000 0.500000
O O14 0.500000 0.845080 0.250000
O O15 0.347980 0.817334 0.547540
O O16 0.801637 0.298471 0.203540
#
# Coordination Sequence:
#
# PCOD8121801 Si02
#       7
#     4   4   4   4   4   4   4
#     4  10  23  42  64  90 122 162 208 250 296 369
#     4  12  22  40  61  91 124 165 203 250 310 365
#     4  11  23  39  61  93 127 160 209 257 301 367
#     4  12  24  36  55  90 129 162 194 240 304 371
#     4  11  21  39  63  89 122 162 210 252 303 368
#     4  10  23  42  64  90 121 163 208 249 300 363
#     4  12  22  39  62  89 125 165 200 252 311 359
#
# _framework density 19.354647
#
# number of rings (size 3 to 8) (size 9 to 14) (size 15 to 20)
#    0.000    0.857    4.286    3.429    4.000    2.286 
#    2.571    0.000    0.000    5.143    0.000    0.000 
#    0.000    0.000    0.000    0.000    0.000    0.000 
#
# Total GULP energy -347283.259653 kJ/mol
# GULP energy per Si atom -12402.973559 kJ/mol
# Density = 1.931059 g / cm^3
# Si number density = 19.354647 Si / 1000 Ang^3
#
#
#
# Elastic Constant Matrix: (Units=GPa)
#
#
# Indices 1 2 3 4 5 6 
#
# 1 63.3107 32.5010 25.0539 0.0000 3.3255 0.0000
# 2 32.5010 101.0976 52.9686 0.0000 -10.4971 0.0000
# 3 25.0539 52.9686 149.8996 0.0000 -6.7058 0.0000
# 4 0.0000 0.0000 0.0000 36.1877 0.0000 -1.8592
# 5 3.3255 -10.4971 -6.7058 0.0000 35.3682 0.0000
# 6 0.0000 0.0000 0.0000 -1.8592 0.0000 20.8111
#
#
#
# Elastic Compliance Matrix: (Units=1/GPa)
#
#
# Indices 1 2 3 4 5 6 
#
# 1 0.019610 -0.006012 -0.001327 0.000000 -0.003880 0.000000
# 2 -0.006012 0.014266 -0.003854 0.000000 0.004069 0.000000
# 3 -0.001327 -0.003854 0.008279 0.000000 0.000551 0.000000
# 4 0.000000 0.000000 0.000000 0.027761 0.000000 0.002480
# 5 -0.003880 0.004069 0.000551 0.000000 0.029951 0.000000
# 6 0.000000 0.000000 0.000000 0.002480 0.000000 0.048273
#
#
# Mechanical properties :
#
#
# Convention : Reuss Voigt Hill
#
# Bulk Modulus (GPa) = 50.58241 59.48387 55.03314
# Shear Modulus (GPa) = 28.23006 32.05904 30.14455
#
# Velocity S-wave (km/s) = 3.82326 4.07430 3.95078
# Velocity P-wave (km/s) = 6.75877 7.27555 7.02192
#
# Compressibility (1/GPa) = 0.01976972
#
# Stress axis : x y z
#
# Youngs Moduli (GPa) = 50.99366 70.09678 120.78124
#
# Poissons Ratio (x) = 0.42143 0.16025
# Poissons Ratio (y) = 0.30658 0.46551
# Poissons Ratio (z) = 0.06766 0.27017
#
# Static dielectric constant tensor:
#      x y z
#    x 3.591490 0.000000 -0.111270 
#    y 0.000000 3.310260 0.000000 
#    z -0.111270 0.000000 3.856950 
# 
# 
# High freq. dielectric constant tensor:
#      x y z
#    x 1.754890 0.000000 0.002220 
#    y 0.000000 1.723740 0.000000 
#    z 0.002220 0.000000 1.780050 
# 
# From -- ./inp_files/18917.got.cif
#   From: 2010.06.25/outbox.cif.g09.slc.cpg/sg13_10_cif.got.tgz:18917.got - 2010.06.28 04:50:58.
