data_PCOD8121987
_publ_section_title
;
Structure prediction by ZEFSAII (Michael W. Deem and Ramdas Pophale) SiO2 
 PCOD8121987
Probable space group: P 2/C
;
_chemical_formula_sum "Si O2"
_cell_formula_units_Z 26
_cell_length_a 8.823891
_cell_length_b 14.492856
_cell_length_c 13.972893
_cell_angle_alpha 90.000000
_cell_angle_beta 42.439091
_cell_angle_gamma 90.000000
_cell_volume 1205.811483
_symmetry_space_group_name_H-M "P 2/C"
_symmetry_group_IT_number 13
_symmetry_cell_setting 'monoclinic'
loop_
_space_group_symop_operation_xyz
x,y,z
-x,y,1/2-z
-x,-y,-z
x,-y,1/2+z
loop_
_atom_site_type_symbol
_atom_site_label
_atom_site_fract_x
_atom_site_fract_y
_atom_site_fract_z
Si Si1 0.611979 0.165775 0.794581
Si Si2 0.295492 0.630901 0.013618
Si Si3 0.959795 0.955990 0.416541
Si Si4 0.227611 0.629091 0.260476
Si Si5 0.461337 0.177777 0.376103
Si Si6 0.500000 0.491044 0.250000
Si Si7 0.683022 0.077906 0.421886
O O1 0.500000 0.128711 0.750000
O O2 0.679117 0.271540 0.754101
O O3 0.824288 0.100164 0.721499
O O4 0.419307 0.157501 0.963194
O O5 0.313666 0.595934 0.115233
O O6 0.037164 0.637211 0.106958
O O7 0.405243 0.731587 0.962416
O O8 0.419451 0.567444 0.878630
O O9 0.746412 0.890912 0.521002
O O10 0.914678 0.037931 0.359229
O O11 0.000000 0.000000 0.500000
O O12 0.299023 0.555021 0.306388
O O13 0.500000 0.207966 0.250000
O O14 0.687222 0.128017 0.314850
O O15 0.500000 0.000000 0.500000
#
# Coordination Sequence:
#
# PCOD8121987 Si02
#       7
#     4   4   4   4   4   2   4
#     4  12  22  41  66  95 129 174 219 265 329 391
#     4  11  23  42  69  98 127 170 222 267 335 398
#     4  11  24  39  63  92 129 168 218 274 319 385
#     4  11  24  42  68  99 130 170 223 272 328 403
#     4  11  23  42  61  91 130 170 213 267 332 390
#     4  12  24  44  68  98 134 172 214 278 334 400
#     4  10  24  38  61  93 123 168 221 266 314 386
#
# _framework density 21.562242999999999
#
# number of rings (size 3 to 8) (size 9 to 14) (size 15 to 20)
#    0.000    0.923    6.154    0.923    4.308    2.462 
#    0.000    0.000    0.000    0.000    0.000    0.000 
#    0.000    0.000    0.000    0.000    0.000    0.000 
#
# Total GULP energy -322265.505062 kJ/mol
# GULP energy per Si atom -12394.827118 kJ/mol
# Density = 2.151317 g / cm^3
# Si number density = 21.562243 Si / 1000 Ang^3
#
#
#
# Elastic Constant Matrix: (Units=GPa)
#
#
# Indices 1 2 3 4 5 6 
#
# 1 131.4891 48.8831 21.6186 0.0000 -1.6312 0.0000
# 2 48.8831 107.2087 20.5721 0.0000 -5.4288 0.0000
# 3 21.6186 20.5721 71.4329 0.0000 5.9425 0.0000
# 4 0.0000 0.0000 0.0000 -8.8763 0.0000 -29.4176
# 5 -1.6312 -5.4288 5.9425 0.0000 28.7765 0.0000
# 6 0.0000 0.0000 0.0000 -29.4176 0.0000 14.5021
#
#
#
# Elastic Compliance Matrix: (Units=1/GPa)
#
#
# Indices 1 2 3 4 5 6 
#
# 1 0.009348 -0.003927 -0.001710 0.000000 0.000142 0.000000
# 2 -0.003927 0.011702 -0.002388 0.000000 0.002478 0.000000
# 3 -0.001710 -0.002388 0.015516 0.000000 -0.003752 0.000000
# 4 0.000000 0.000000 0.000000 -0.014588 0.000000 -0.029592
# 5 0.000142 0.002478 -0.003752 0.000000 0.036001 0.000000
# 6 0.000000 0.000000 0.000000 -0.029592 0.000000 0.008929
#
#
# Mechanical properties :
#
#
# Convention : Reuss Voigt Hill
#
# Bulk Modulus (GPa) = 48.74045 54.69760 51.71903
# Shear Modulus (GPa) = 55.68153 21.48425 38.58289
#
# Velocity S-wave (km/s) = 5.08721 3.15998 4.23469
# Velocity P-wave (km/s) = 7.56041 6.22385 6.92446
#
# Compressibility (1/GPa) = 0.02051684
#
# Stress axis : x y z
#
# Youngs Moduli (GPa) = 106.97436 85.45667 64.44800
#
# Poissons Ratio (x) = 0.33559 0.11020
# Poissons Ratio (y) = 0.42009 0.15388
# Poissons Ratio (z) = 0.18292 0.20404
#
# Static dielectric constant tensor:
#      x y z
#    x 4.247660 0.000000 0.122250 
#    y 0.000000 3.892790 0.000000 
#    z 0.122250 0.000000 3.894120 
# 
# 
# High freq. dielectric constant tensor:
#      x y z
#    x 1.868140 0.000000 0.013900 
#    y 0.000000 1.842220 0.000000 
#    z 0.013900 0.000000 1.846020 
# 
# From -- ./inp_files/47893.got.cif
#   From: 2010.06.25/outbox.cif.g09.slc.cpg/sg13_24_cif.got.tgz:47893.got - 2010.06.28 04:50:58.
