data_PCOD8121589
_publ_section_title
;
Structure prediction by ZEFSAII (Michael W. Deem and Ramdas Pophale) SiO2 
 PCOD8121589
Probable space group: P 2/C
;
_chemical_formula_sum "Si O2"
_cell_formula_units_Z 24
_cell_length_a 20.660022
_cell_length_b 5.579985
_cell_length_c 13.899828
_cell_angle_alpha 90.000000
_cell_angle_beta 41.334449
_cell_angle_gamma 90.000000
_cell_volume 1058.315887
_symmetry_space_group_name_H-M "P 2/C"
_symmetry_group_IT_number 13
_symmetry_cell_setting 'monoclinic'
loop_
_space_group_symop_operation_xyz
x,y,z
-x,y,1/2-z
-x,-y,-z
x,-y,1/2+z
loop_
_atom_site_type_symbol
_atom_site_label
_atom_site_fract_x
_atom_site_fract_y
_atom_site_fract_z
Si Si1 0.960651 0.748739 0.998109
Si Si2 0.352233 0.633172 0.324316
Si Si3 0.321260 0.996378 0.011788
Si Si4 0.500000 0.671158 0.750000
Si Si5 0.812161 0.736221 0.480075
Si Si6 0.000000 0.427742 0.250000
Si Si7 0.757419 0.079868 0.699579
O O1 0.992733 0.745786 0.850193
O O2 0.841317 0.731833 0.139713
O O3 0.000000 0.500000 0.000000
O O4 0.000000 0.000000 0.000000
O O5 0.455325 0.491176 0.212690
O O6 0.265199 0.456623 0.400405
O O7 0.337260 0.826459 0.256100
O O8 0.343656 0.748363 0.439809
O O9 0.295029 0.044073 0.151589
O O10 0.415925 0.827866 0.893519
O O11 0.225351 0.885503 0.069211
O O12 0.910035 0.607387 0.339525
O O13 0.823419 0.900748 0.561807
#
# Coordination Sequence:
#
# PCOD8121589 Si02
#       7
#     4   4   4   2   4   2   4
#     4  12  28  44  72 111 149 200 262 297 366 440
#     4  10  22  44  67  99 136 179 239 288 375 441
#     4  10  23  42  71  97 140 180 233 305 361 443
#     4  10  22  44  70 100 132 178 232 294 384 444
#     4  10  23  43  67 101 140 195 238 291 369 429
#     4  12  24  48  72  98 158 194 240 314 356 424
#     4  11  24  43  68 103 142 184 245 297 362 438
#
# _framework density 22.677537999999998
#
# number of rings (size 3 to 8) (size 9 to 14) (size 15 to 20)
#    0.000    1.333    1.667    2.500    2.333    6.000 
#    0.000   11.667    0.000    0.000    0.000    0.000 
#    0.000    0.000    0.000    0.000    0.000    0.000 
#
# Total GULP energy -297443.805396 kJ/mol
# GULP energy per Si atom -12393.491892 kJ/mol
# Density = 2.262592 g / cm^3
# Si number density = 22.677538 Si / 1000 Ang^3
#
#
#
# Elastic Constant Matrix: (Units=GPa)
#
#
# Indices 1 2 3 4 5 6 
#
# 1 106.5275 33.2124 50.8760 0.0000 -7.3101 0.0000
# 2 33.2124 86.5873 6.0744 0.0000 -3.7229 0.0000
# 3 50.8760 6.0744 74.6352 0.0000 6.8670 0.0000
# 4 0.0000 0.0000 0.0000 23.7730 0.0000 2.3557
# 5 -7.3101 -3.7229 6.8670 0.0000 50.4077 0.0000
# 6 0.0000 0.0000 0.0000 2.3557 0.0000 33.4348
#
#
#
# Elastic Compliance Matrix: (Units=1/GPa)
#
#
# Indices 1 2 3 4 5 6 
#
# 1 0.016726 -0.005471 -0.011284 0.000000 0.003559 0.000000
# 2 -0.005471 0.013455 0.002649 0.000000 -0.000161 0.000000
# 3 -0.011284 0.002649 0.021274 0.000000 -0.004339 0.000000
# 4 0.000000 0.000000 0.000000 0.042360 0.000000 -0.002985
# 5 0.003559 -0.000161 -0.004339 0.000000 0.020934 0.000000
# 6 0.000000 0.000000 0.000000 -0.002985 0.000000 0.030119
#
#
# Mechanical properties :
#
#
# Convention : Reuss Voigt Hill
#
# Bulk Modulus (GPa) = 43.02289 49.78616 46.40452
# Shear Modulus (GPa) = 27.65076 33.36223 30.50650
#
# Velocity S-wave (km/s) = 3.49564 3.83973 3.67172
# Velocity P-wave (km/s) = 5.94184 6.45443 6.20343
#
# Compressibility (1/GPa) = 0.02324344
#
# Stress axis : x y z
#
# Youngs Moduli (GPa) = 59.78678 74.32277 47.00629
#
# Poissons Ratio (x) = 0.40662 0.53040
# Poissons Ratio (y) = 0.32710 -0.12453
# Poissons Ratio (z) = 0.67462 -0.19689
#
# Static dielectric constant tensor:
#      x y z
#    x 4.310880 0.000000 -0.051860 
#    y 0.000000 4.243880 0.000000 
#    z -0.051860 0.000000 3.771200 
# 
# 
# High freq. dielectric constant tensor:
#      x y z
#    x 1.914120 0.000000 -0.009260 
#    y 0.000000 1.901080 0.000000 
#    z -0.009260 0.000000 1.875560 
# 
# From -- ./inp_files/52266.got.cif
#   From: 2010.06.25/outbox.cif.g09.slc.cpg/sg13_27_cif.got.tgz:52266.got - 2010.06.28 04:50:58.
