data_PCOD8121036
_publ_section_title
;
Structure prediction by ZEFSAII (Michael W. Deem and Ramdas Pophale) SiO2 
 PCOD8121036
Probable space group: P 2/C
;
_chemical_formula_sum "Si O2"
_cell_formula_units_Z 28
_cell_length_a 14.336903
_cell_length_b 9.369807
_cell_length_c 20.318473
_cell_angle_alpha 90.000000
_cell_angle_beta 29.460784
_cell_angle_gamma 90.000000
_cell_volume 1342.425122
_symmetry_space_group_name_H-M "P 2/C"
_symmetry_group_IT_number 13
_symmetry_cell_setting 'monoclinic'
loop_
_space_group_symop_operation_xyz
x,y,z
-x,y,1/2-z
-x,-y,-z
x,-y,1/2+z
loop_
_atom_site_type_symbol
_atom_site_label
_atom_site_fract_x
_atom_site_fract_y
_atom_site_fract_z
Si Si1 0.694134 0.528363 0.594679
Si Si2 0.998259 0.271601 0.942639
Si Si3 0.066645 0.726742 0.547563
Si Si4 0.229001 0.506846 0.226279
Si Si5 0.321975 0.916830 0.076722
Si Si6 0.639448 0.399206 0.985079
Si Si7 0.929259 0.972446 0.389755
O O1 0.500000 0.556245 0.750000
O O2 0.738083 0.360340 0.560551
O O3 0.728629 0.605877 0.503003
O O4 0.845848 0.602930 0.549057
O O5 0.168012 0.342461 0.796134
O O6 0.899508 0.135583 0.968663
O O7 0.065722 0.222310 0.972685
O O8 0.891984 0.627086 0.675666
O O9 0.061077 0.864619 0.595470
O O10 0.220457 0.518785 0.151679
O O11 0.445520 0.485043 0.114198
O O12 0.396706 0.756280 0.023007
O O13 0.252375 0.967183 0.047201
O O14 0.133287 0.927812 0.235962
O O15 0.500000 0.000000 0.000000
#
# Coordination Sequence:
#
# PCOD8121036 Si02
#       7
#     4   4   4   4   4   4   4
#     4  11  23  40  66  94 130 170 222 278 336 395
#     4  11  21  43  65  92 132 178 220 269 341 398
#     4  11  24  40  62  94 134 171 223 270 329 394
#     4  10  22  38  68  96 123 171 216 279 329 389
#     4  11  24  43  68  96 137 174 220 279 336 402
#     4  11  21  39  66  97 130 165 224 277 333 393
#     4  11  24  43  67  95 134 181 221 267 342 401
#
# _framework density 20.857773999999999
#
# number of rings (size 3 to 8) (size 9 to 14) (size 15 to 20)
#    0.000    1.143    2.857    4.714    0.000    6.857 
#    2.571    0.714    0.000    0.000    0.000    0.000 
#    0.000    0.000    0.000    0.000    0.000    0.000 
#
# Total GULP energy -347086.346292 kJ/mol
# GULP energy per Si atom -12395.940939 kJ/mol
# Density = 2.081030 g / cm^3
# Si number density = 20.857774 Si / 1000 Ang^3
#
#
#
# Elastic Constant Matrix: (Units=GPa)
#
#
# Indices 1 2 3 4 5 6 
#
# 1 112.9034 39.3804 36.2068 0.0000 6.7584 0.0000
# 2 39.3804 107.4813 10.4220 0.0000 5.9156 0.0000
# 3 36.2068 10.4220 86.8723 0.0000 3.6668 0.0000
# 4 0.0000 0.0000 0.0000 20.0967 0.0000 -1.3088
# 5 6.7584 5.9156 3.6668 0.0000 32.7936 0.0000
# 6 0.0000 0.0000 0.0000 -1.3088 0.0000 34.2109
#
#
#
# Elastic Compliance Matrix: (Units=1/GPa)
#
#
# Indices 1 2 3 4 5 6 
#
# 1 0.011642 -0.003776 -0.004347 0.000000 -0.001232 0.000000
# 2 -0.003776 0.010720 0.000338 0.000000 -0.001193 0.000000
# 3 -0.004347 0.000338 0.013310 0.000000 -0.000653 0.000000
# 4 0.000000 0.000000 0.000000 0.049884 0.000000 0.001908
# 5 -0.001232 -0.001193 -0.000653 0.000000 0.031036 0.000000
# 6 0.000000 0.000000 0.000000 0.001908 0.000000 0.029303
#
#
# Mechanical properties :
#
#
# Convention : Reuss Voigt Hill
#
# Bulk Modulus (GPa) = 49.74652 53.25282 51.49967
# Shear Modulus (GPa) = 29.73237 32.17009 30.95123
#
# Velocity S-wave (km/s) = 3.77965 3.93154 3.85634
# Velocity P-wave (km/s) = 6.55361 6.79678 6.67630
#
# Compressibility (1/GPa) = 0.02010191
#
# Stress axis : x y z
#
# Youngs Moduli (GPa) = 85.89505 93.27979 75.13158
#
# Poissons Ratio (x) = 0.35225 0.32661
# Poissons Ratio (y) = 0.32436 -0.02540
# Poissons Ratio (z) = 0.37340 -0.03154
#
# Static dielectric constant tensor:
#      x y z
#    x 3.927980 0.000000 0.105560 
#    y 0.000000 3.711660 0.000000 
#    z 0.105560 0.000000 3.769230 
# 
# 
# High freq. dielectric constant tensor:
#      x y z
#    x 1.824180 0.000000 0.009920 
#    y 0.000000 1.816750 0.000000 
#    z 0.009920 0.000000 1.816940 
# 
# From -- ./inp_files/79928.got.cif
#   From: 2010.06.25/outbox.cif.g09.slc.cpg/sg13_40_cif.got.tgz:79928.got - 2010.06.28 04:50:58.
