data_PCOD8121289
_publ_section_title
;
Structure prediction by ZEFSAII (Michael W. Deem and Ramdas Pophale) SiO2 
 PCOD8121289
Probable space group: P 2/C
;
_chemical_formula_sum "Si O2"
_cell_formula_units_Z 16
_cell_length_a 8.320621
_cell_length_b 6.269281
_cell_length_c 21.225241
_cell_angle_alpha 90.000000
_cell_angle_beta 38.406318
_cell_angle_gamma 90.000000
_cell_volume 687.830547
_symmetry_space_group_name_H-M "P 2/C"
_symmetry_group_IT_number 13
_symmetry_cell_setting 'monoclinic'
loop_
_space_group_symop_operation_xyz
x,y,z
-x,y,1/2-z
-x,-y,-z
x,-y,1/2+z
loop_
_atom_site_type_symbol
_atom_site_label
_atom_site_fract_x
_atom_site_fract_y
_atom_site_fract_z
Si Si1 0.745462 0.735970 0.948794
Si Si2 0.896093 0.648540 0.476144
Si Si3 0.221713 0.008648 0.811922
Si Si4 0.572965 0.063488 0.381745
O O1 0.748673 0.487887 0.966999
O O2 0.728221 0.771808 0.879004
O O3 0.012388 0.831269 0.894711
O O4 0.502850 0.853526 0.055591
O O5 0.685528 0.819290 0.566126
O O6 0.000000 0.500000 0.500000
O O7 0.138704 0.766290 0.368507
O O8 0.500000 0.935534 0.750000
O O9 0.239703 0.021022 0.730583
#
# Coordination Sequence:
#
# PCOD8121289 Si02
#       4
#     4   4   4   4
#     4  10  22  41  64  91 123 166 210 259 316 374
#     4  11  23  40  65  95 126 165 211 260 318 379
#     4  11  23  39  61  91 126 164 208 259 317 376
#     4  10  22  42  64  89 127 165 208 262 315 374
#
# _framework density 23.261545000000002
#
# number of rings (size 3 to 8) (size 9 to 14) (size 15 to 20)
#    0.000    1.500    0.000    4.500    0.000    9.000 
#    0.000   10.000    0.000    0.000    0.000    0.000 
#    0.000    0.000    0.000    0.000    0.000    0.000 
#
# Total GULP energy -198411.400068 kJ/mol
# GULP energy per Si atom -12400.712504 kJ/mol
# Density = 2.320860 g / cm^3
# Si number density = 23.261545 Si / 1000 Ang^3
#
#
#
# Elastic Constant Matrix: (Units=GPa)
#
#
# Indices 1 2 3 4 5 6 
#
# 1 60.2649 6.3477 4.2485 0.0000 4.3085 0.0000
# 2 6.3477 72.3472 40.4664 0.0000 5.0571 0.0000
# 3 4.2485 40.4664 108.8150 0.0000 16.6075 0.0000
# 4 0.0000 0.0000 0.0000 33.2593 0.0000 6.9479
# 5 4.3085 5.0571 16.6075 0.0000 40.0011 0.0000
# 6 0.0000 0.0000 0.0000 6.9479 0.0000 37.5934
#
#
#
# Elastic Compliance Matrix: (Units=1/GPa)
#
#
# Indices 1 2 3 4 5 6 
#
# 1 0.016856 -0.001436 0.000134 0.000000 -0.001690 0.000000
# 2 -0.001436 0.017585 -0.006585 0.000000 0.000665 0.000000
# 3 0.000134 -0.006585 0.012287 0.000000 -0.004283 0.000000
# 4 0.000000 0.000000 0.000000 0.031274 0.000000 -0.005780
# 5 -0.001690 0.000665 -0.004283 0.000000 0.026875 0.000000
# 6 0.000000 0.000000 0.000000 -0.005780 0.000000 0.027669
#
#
# Mechanical properties :
#
#
# Convention : Reuss Voigt Hill
#
# Bulk Modulus (GPa) = 32.30582 38.17249 35.23916
# Shear Modulus (GPa) = 31.51818 34.86173 33.18996
#
# Velocity S-wave (km/s) = 3.68495 3.87549 3.78142
# Velocity P-wave (km/s) = 5.65892 6.03917 5.85214
#
# Compressibility (1/GPa) = 0.03095417
#
# Stress axis : x y z
#
# Youngs Moduli (GPa) = 59.32615 56.86681 81.38500
#
# Poissons Ratio (x) = 0.08164 -0.01087
# Poissons Ratio (y) = 0.08517 0.53592
# Poissons Ratio (z) = -0.00793 0.37447
#
# Static dielectric constant tensor:
#      x y z
#    x 4.191870 0.000000 0.032860 
#    y 0.000000 4.009970 0.000000 
#    z 0.032860 0.000000 4.156720 
# 
# 
# High freq. dielectric constant tensor:
#      x y z
#    x 1.935090 0.000000 -0.000200 
#    y 0.000000 1.904370 0.000000 
#    z -0.000200 0.000000 1.917770 
# 
# From -- ./inp_files/35270.got.cif
#   From: 2010.06.25/outbox.cif.g09.slc.cpg/sg13_18_cif.got.tgz:35270.got - 2010.06.28 04:50:58.
