data_PCOD8121481
_publ_section_title
;
Structure prediction by ZEFSAII (Michael W. Deem and Ramdas Pophale) SiO2 
 PCOD8121481
Probable space group: P 2/C
;
_chemical_formula_sum "Si O2"
_cell_formula_units_Z 14
_cell_length_a 7.825941
_cell_length_b 17.025016
_cell_length_c 5.215650
_cell_angle_alpha 90.000000
_cell_angle_beta 116.347115
_cell_angle_gamma 90.000000
_cell_volume 622.729692
_symmetry_space_group_name_H-M "P 2/C"
_symmetry_group_IT_number 13
_symmetry_cell_setting 'monoclinic'
loop_
_space_group_symop_operation_xyz
x,y,z
-x,y,1/2-z
-x,-y,-z
x,-y,1/2+z
loop_
_atom_site_type_symbol
_atom_site_label
_atom_site_fract_x
_atom_site_fract_y
_atom_site_fract_z
Si Si1 0.000000 0.052718 0.250000
Si Si2 0.500000 0.291833 0.250000
Si Si3 0.000000 0.446211 0.250000
Si Si4 0.180802 0.671080 0.190906
Si Si5 0.301117 0.816437 0.994693
O O1 0.188161 0.105375 0.353904
O O2 0.000000 0.000000 0.500000
O O3 0.617643 0.345511 0.530166
O O4 0.340749 0.236216 0.272005
O O5 0.000000 0.500000 0.500000
O O6 0.174792 0.385878 0.433513
O O7 0.176895 0.762366 0.105017
O O8 0.000000 0.651530 0.250000
O O9 0.500000 0.843071 0.250000
#
# Coordination Sequence:
#
# PCOD8121481 Si02
#       5
#     2   2   2   4   4
#     4  12  29  44  67 102 142 182 222 272 351 416
#     4  10  22  42  74 102 130 174 250 286 332 396
#     4  12  25  42  67 102 146 186 218 280 355 412
#     4  11  22  43  74 100 134 181 238 281 342 406
#     4  10  24  43  71  98 133 178 233 286 332 401
#
# _framework density 22.481667000000002
#
# number of rings (size 3 to 8) (size 9 to 14) (size 15 to 20)
#    0.000    1.143    1.429    4.286   10.000    1.143 
#    0.000    1.429    0.000    0.000    0.000    0.000 
#    0.000    0.000    0.000    0.000    0.000    0.000 
#
# Total GULP energy -173473.874364 kJ/mol
# GULP energy per Si atom -12390.991026 kJ/mol
# Density = 2.243050 g / cm^3
# Si number density = 22.481667 Si / 1000 Ang^3
#
#
#
# Elastic Constant Matrix: (Units=GPa)
#
#
# Indices 1 2 3 4 5 6 
#
# 1 89.5669 50.8893 51.8308 0.0000 5.0663 0.0000
# 2 50.8893 140.6645 106.0450 0.0000 25.1544 0.0000
# 3 51.8308 106.0450 205.6126 0.0000 11.1967 0.0000
# 4 0.0000 0.0000 0.0000 47.6449 0.0000 0.1374
# 5 5.0663 25.1544 11.1967 0.0000 34.6822 0.0000
# 6 0.0000 0.0000 0.0000 0.1374 0.0000 7.3280
#
#
#
# Elastic Compliance Matrix: (Units=1/GPa)
#
#
# Indices 1 2 3 4 5 6 
#
# 1 0.014416 -0.004401 -0.001449 0.000000 0.001554 0.000000
# 2 -0.004401 0.014686 -0.006026 0.000000 -0.008063 0.000000
# 3 -0.001449 -0.006026 0.008232 0.000000 0.001925 0.000000
# 4 0.000000 0.000000 0.000000 0.020990 0.000000 -0.000394
# 5 0.001554 -0.008063 0.001925 0.000000 0.033833 0.000000
# 6 0.000000 0.000000 0.000000 -0.000394 0.000000 0.136469
#
#
# Mechanical properties :
#
#
# Convention : Reuss Voigt Hill
#
# Bulk Modulus (GPa) = 73.62458 94.81935 84.22197
# Shear Modulus (GPa) = 19.46248 33.06963 26.26605
#
# Velocity S-wave (km/s) = 2.94548 3.83947 3.42180
# Velocity P-wave (km/s) = 6.66240 7.86913 7.29078
#
# Compressibility (1/GPa) = 0.01358242
#
# Stress axis : x y z
#
# Youngs Moduli (GPa) = 69.36823 68.09190 121.48090
#
# Poissons Ratio (x) = 0.29967 0.17599
# Poissons Ratio (y) = 0.30529 0.73203
# Poissons Ratio (z) = 0.10050 0.41031
#
# Static dielectric constant tensor:
#      x y z
#    x 4.702040 0.000000 -0.094660 
#    y 0.000000 4.106080 0.000000 
#    z -0.094660 0.000000 4.881320 
# 
# 
# High freq. dielectric constant tensor:
#      x y z
#    x 1.867350 0.000000 0.000600 
#    y 0.000000 1.873630 0.000000 
#    z 0.000600 0.000000 1.920610 
# 
# From -- ./inp_files/1012.got.cif
#   From: 2010.06.25/outbox.cif.g09.slc.cpg/sg13_1_cif.got.tgz:1012.got - 2010.06.28 04:50:58.
