data_PCOD8121237
_publ_section_title
;
Structure prediction by ZEFSAII (Michael W. Deem and Ramdas Pophale) SiO2 
 PCOD8121237
Probable space group: P 2/C
;
_chemical_formula_sum "Si O2"
_cell_formula_units_Z 32
_cell_length_a 24.077944
_cell_length_b 8.918652
_cell_length_c 14.205622
_cell_angle_alpha 90.000000
_cell_angle_beta 149.949999
_cell_angle_gamma 90.000000
_cell_volume 1527.582467
_symmetry_space_group_name_H-M "P 2/C"
_symmetry_group_IT_number 13
_symmetry_cell_setting 'monoclinic'
loop_
_space_group_symop_operation_xyz
x,y,z
-x,y,1/2-z
-x,-y,-z
x,-y,1/2+z
loop_
_atom_site_type_symbol
_atom_site_label
_atom_site_fract_x
_atom_site_fract_y
_atom_site_fract_z
Si Si1 0.237059 0.251187 0.663075
Si Si2 0.043979 0.834765 0.545679
Si Si3 0.176337 0.658676 0.271776
Si Si4 0.877883 0.062384 0.528214
Si Si5 0.693951 0.144209 0.403044
Si Si6 0.517990 0.174778 0.509508
Si Si7 0.588900 0.832737 0.305481
Si Si8 0.207504 0.338554 0.407104
O O1 0.197351 0.357587 0.690552
O O2 0.365882 0.210061 0.871181
O O3 0.217538 0.336020 0.535418
O O4 0.164170 0.101970 0.560622
O O5 0.119029 0.837308 0.561813
O O6 0.114447 0.780178 0.738690
O O7 0.944345 0.721098 0.383017
O O8 0.000000 0.000000 0.500000
O O9 0.269772 0.770218 0.449839
O O10 0.179200 0.501351 0.328485
O O11 0.794980 0.145147 0.477775
O O12 0.000000 0.049203 0.750000
O O13 0.662697 0.973288 0.380166
O O14 0.587220 0.234070 0.204289
O O15 0.522652 0.243827 0.621348
O O16 0.500000 0.000000 0.500000
O O17 0.500000 0.887386 0.250000
O O18 0.675637 0.709478 0.469602
#
# Coordination Sequence:
#
# PCOD8121237 Si02
#       8
#     4   4   4   4   4   4   4   4
#     4  11  24  43  70  96 137 183 222 283 352 399
#     4  12  24  42  74 103 131 174 236 282 333 408
#     4  12  27  44  66 106 139 183 228 272 350 425
#     4  12  22  40  70 104 138 171 230 290 341 387
#     4  11  23  40  68 100 137 176 231 287 332 407
#     4   9  19  38  63  99 127 170 226 282 336 389
#     4  10  22  40  68  98 131 179 235 287 339 393
#     4  11  26  48  64  97 148 179 223 278 354 416
#
# _framework density 20.948132000000001
#
# number of rings (size 3 to 8) (size 9 to 14) (size 15 to 20)
#    0.000    1.000    6.250    1.875    5.250    1.000 
#    2.250    1.250    0.000    0.000    0.000    0.000 
#    0.000    0.000    0.000    0.000    0.000    0.000 
#
# Total GULP energy -396750.918674 kJ/mol
# GULP energy per Si atom -12398.466209 kJ/mol
# Density = 2.090045 g / cm^3
# Si number density = 20.948132 Si / 1000 Ang^3
#
#
#
# Elastic Constant Matrix: (Units=GPa)
#
#
# Indices 1 2 3 4 5 6 
#
# 1 149.8013 50.1261 55.1114 0.0000 3.7664 0.0000
# 2 50.1261 81.5968 43.5052 0.0000 -0.5857 0.0000
# 3 55.1114 43.5052 155.5713 0.0000 -0.3185 0.0000
# 4 0.0000 0.0000 0.0000 27.0943 0.0000 -6.6782
# 5 3.7664 -0.5857 -0.3185 0.0000 34.4206 0.0000
# 6 0.0000 0.0000 0.0000 -6.6782 0.0000 23.2842
#
#
#
# Elastic Compliance Matrix: (Units=1/GPa)
#
#
# Indices 1 2 3 4 5 6 
#
# 1 0.008895 -0.004455 -0.001907 0.000000 -0.001067 0.000000
# 2 -0.004455 0.016636 -0.003072 0.000000 0.000742 0.000000
# 3 -0.001907 -0.003072 0.007963 0.000000 0.000230 0.000000
# 4 0.000000 0.000000 0.000000 0.039716 0.000000 0.011391
# 5 -0.001067 0.000742 0.000230 0.000000 0.029184 0.000000
# 6 0.000000 0.000000 0.000000 0.011391 0.000000 0.046215
#
#
# Mechanical properties :
#
#
# Convention : Reuss Voigt Hill
#
# Bulk Modulus (GPa) = 68.37970 76.05054 72.21512
# Shear Modulus (GPa) = 29.01040 32.84158 30.92599
#
# Velocity S-wave (km/s) = 3.72542 3.96379 3.84645
# Velocity P-wave (km/s) = 7.15669 7.57178 7.36716
#
# Compressibility (1/GPa) = 0.01462422
#
# Stress axis : x y z
#
# Youngs Moduli (GPa) = 112.42627 60.11230 125.57646
#
# Poissons Ratio (x) = 0.26779 0.23952
# Poissons Ratio (y) = 0.50084 0.38582
# Poissons Ratio (z) = 0.21444 0.18469
#
# Static dielectric constant tensor:
#      x y z
#    x 9.105230 0.000000 -0.609380 
#    y 0.000000 3.415590 0.000000 
#    z -0.609380 0.000000 4.603850 
# 
# 
# High freq. dielectric constant tensor:
#      x y z
#    x 1.826060 0.000000 -0.002490 
#    y 0.000000 1.784460 0.000000 
#    z -0.002490 0.000000 1.846960 
# 
# From -- ./inp_files/58819.got.cif
#   From: 2010.06.25/outbox.cif.g09.slc.cpg/sg13_30_cif.got.tgz:58819.got - 2010.06.28 04:50:58.
