data_PCOD8121467
_publ_section_title
;
Structure prediction by ZEFSAII (Michael W. Deem and Ramdas Pophale) SiO2 
 PCOD8121467
Probable space group: P 2/C
;
_chemical_formula_sum "Si O2"
_cell_formula_units_Z 22
_cell_length_a 13.611985
_cell_length_b 6.048852
_cell_length_c 23.148313
_cell_angle_alpha 90.000000
_cell_angle_beta 151.098419
_cell_angle_gamma 90.000000
_cell_volume 921.162901
_symmetry_space_group_name_H-M "P 2/C"
_symmetry_group_IT_number 13
_symmetry_cell_setting 'monoclinic'
loop_
_space_group_symop_operation_xyz
x,y,z
-x,y,1/2-z
-x,-y,-z
x,-y,1/2+z
loop_
_atom_site_type_symbol
_atom_site_label
_atom_site_fract_x
_atom_site_fract_y
_atom_site_fract_z
Si Si1 0.758130 0.930837 0.082044
Si Si2 0.061315 0.387012 0.684542
Si Si3 0.810063 0.995240 0.323150
Si Si4 0.200566 0.763291 0.003169
Si Si5 0.500000 0.850133 0.250000
Si Si6 0.327143 0.236883 0.359938
O O1 0.962112 0.790167 0.177024
O O2 0.792152 0.092320 0.153968
O O3 0.568186 0.765771 0.996493
O O4 0.710860 0.080283 0.001555
O O5 0.883358 0.540332 0.568000
O O6 0.165865 0.259443 0.685000
O O7 0.232399 0.516142 0.810033
O O8 0.664828 0.006986 0.303819
O O9 0.710547 0.139425 0.222078
O O10 0.026835 0.106091 0.449645
O O11 0.382268 0.703003 0.141291
#
# Coordination Sequence:
#
# PCOD8121467 Si02
#       6
#     4   4   4   4   2   4
#     4  10  22  42  70 101 133 173 216 264 332 400
#     4  10  24  42  66  98 134 165 220 273 328 394
#     4  10  23  42  65  97 132 175 220 271 331 385
#     4  10  23  42  65  97 132 175 220 271 331 385
#     4  12  22  42  68  90 136 176 222 278 324 378
#     4  10  22  42  70 101 133 173 216 264 332 400
#
# _framework density 23.882853999999998
#
# number of rings (size 3 to 8) (size 9 to 14) (size 15 to 20)
#    0.000    1.818    1.818    0.545    2.545   10.182 
#    0.000   12.727    0.000    1.091    0.000    0.000 
#    0.000    0.000    0.000    0.000    0.000    0.000 
#
# Total GULP energy -272824.262683 kJ/mol
# GULP energy per Si atom -12401.102849 kJ/mol
# Density = 2.382850 g / cm^3
# Si number density = 23.882854 Si / 1000 Ang^3
#
#
#
# Elastic Constant Matrix: (Units=GPa)
#
#
# Indices 1 2 3 4 5 6 
#
# 1 145.7134 36.2338 19.4544 0.0000 12.3188 0.0000
# 2 36.2338 99.6528 25.1955 0.0000 7.9430 0.0000
# 3 19.4544 25.1955 73.6441 0.0000 -6.6631 0.0000
# 4 0.0000 0.0000 0.0000 27.3239 0.0000 4.6501
# 5 12.3188 7.9430 -6.6631 0.0000 35.5438 0.0000
# 6 0.0000 0.0000 0.0000 4.6501 0.0000 8.1725
#
#
#
# Elastic Compliance Matrix: (Units=1/GPa)
#
#
# Indices 1 2 3 4 5 6 
#
# 1 0.007841 -0.002267 -0.001521 0.000000 -0.002496 0.000000
# 2 -0.002267 0.012014 -0.003747 0.000000 -0.002601 0.000000
# 3 -0.001521 -0.003747 0.015651 0.000000 0.004299 0.000000
# 4 0.000000 0.000000 0.000000 0.040522 0.000000 -0.023057
# 5 -0.002496 -0.002601 0.004299 0.000000 0.030387 0.000000
# 6 0.000000 0.000000 0.000000 -0.023057 0.000000 0.135481
#
#
# Mechanical properties :
#
#
# Convention : Reuss Voigt Hill
#
# Bulk Modulus (GPa) = 48.93480 53.41977 51.17729
# Shear Modulus (GPa) = 18.95532 30.08315 24.51924
#
# Velocity S-wave (km/s) = 2.82029 3.55295 3.20761
# Velocity P-wave (km/s) = 5.58026 6.26476 5.93240
#
# Compressibility (1/GPa) = 0.02043535
#
# Stress axis : x y z
#
# Youngs Moduli (GPa) = 127.53936 83.23731 63.89175
#
# Poissons Ratio (x) = 0.18872 0.09720
# Poissons Ratio (y) = 0.28917 0.23938
# Poissons Ratio (z) = 0.19404 0.31186
#
# Static dielectric constant tensor:
#      x y z
#    x 4.394840 0.000000 0.187560 
#    y 0.000000 4.230300 0.000000 
#    z 0.187560 0.000000 4.379280 
# 
# 
# High freq. dielectric constant tensor:
#      x y z
#    x 1.954690 0.000000 0.006820 
#    y 0.000000 1.924080 0.000000 
#    z 0.006820 0.000000 1.958600 
# 
# From -- ./inp_files/87035.got.cif
#   From: 2010.06.25/outbox.cif.g09.slc.cpg/sg13_44_cif.got.tgz:87035.got - 2010.06.28 04:50:58.
