data_PCOD8121267
_publ_section_title
;
Structure prediction by ZEFSAII (Michael W. Deem and Ramdas Pophale) SiO2 
 PCOD8121267
Probable space group: P 2/C
;
_chemical_formula_sum "Si O2"
_cell_formula_units_Z 18
_cell_length_a 8.682615
_cell_length_b 21.380620
_cell_length_c 5.069837
_cell_angle_alpha 90.000000
_cell_angle_beta 62.656283
_cell_angle_gamma 90.000000
_cell_volume 836.004036
_symmetry_space_group_name_H-M "P 2/C"
_symmetry_group_IT_number 13
_symmetry_cell_setting 'monoclinic'
loop_
_space_group_symop_operation_xyz
x,y,z
-x,y,1/2-z
-x,-y,-z
x,-y,1/2+z
loop_
_atom_site_type_symbol
_atom_site_label
_atom_site_fract_x
_atom_site_fract_y
_atom_site_fract_z
Si Si1 0.194411 0.223267 0.564146
Si Si2 0.500000 0.956292 0.250000
Si Si3 0.797568 0.466582 0.863103
Si Si4 0.388890 0.654044 0.073768
Si Si5 0.196530 0.859362 0.556122
O O1 0.322654 0.279249 0.525790
O O2 0.234762 0.194636 0.243384
O O3 0.000000 0.249596 0.750000
O O4 0.222128 0.168133 0.747290
O O5 0.330382 0.915724 0.448683
O O6 0.500000 0.000000 0.500000
O O7 0.716819 0.514910 0.710586
O O8 0.764542 0.396460 0.778378
O O9 0.000000 0.475450 0.750000
O O10 0.500000 0.662813 0.250000
O O11 0.500000 0.625067 0.750000
O O12 0.000000 0.884836 0.750000
#
# Coordination Sequence:
#
# PCOD8121267 Si02
#       5
#     4   2   4   4   4
#     4  10  22  42  64  90 124 166 212 258 315 375
#     4  12  26  42  66 100 132 172 210 258 314 372
#     4  10  22  41  62  82 116 168 213 255 311 379
#     4  12  25  37  59  95 124 159 203 264 325 374
#     4  10  23  42  67  94 127 173 212 261 316 374
#
# _framework density 21.530996999999999
#
# number of rings (size 3 to 8) (size 9 to 14) (size 15 to 20)
#    0.000    1.333    0.000    4.667    4.667    3.556 
#    0.000    8.889    0.000    0.000    0.000    0.000 
#    0.000    0.000    0.000    0.000    0.000    0.000 
#
# Total GULP energy -223085.224536 kJ/mol
# GULP energy per Si atom -12393.623585 kJ/mol
# Density = 2.148199 g / cm^3
# Si number density = 21.530997 Si / 1000 Ang^3
#
#
#
# Elastic Constant Matrix: (Units=GPa)
#
#
# Indices 1 2 3 4 5 6 
#
# 1 129.4848 71.5597 48.5280 0.0000 20.2761 0.0000
# 2 71.5597 100.3021 21.9503 0.0000 -11.0258 0.0000
# 3 48.5280 21.9503 93.9675 0.0000 18.0629 0.0000
# 4 0.0000 0.0000 0.0000 19.7423 0.0000 -6.9678
# 5 20.2761 -11.0258 18.0629 0.0000 30.8665 0.0000
# 6 0.0000 0.0000 0.0000 -6.9678 0.0000 85.6326
#
#
#
# Elastic Compliance Matrix: (Units=1/GPa)
#
#
# Indices 1 2 3 4 5 6 
#
# 1 0.020277 -0.015511 -0.003631 0.000000 -0.016736 0.000000
# 2 -0.015511 0.023401 -0.001151 0.000000 0.019222 0.000000
# 3 -0.003631 -0.001151 0.013979 0.000000 -0.006206 0.000000
# 4 0.000000 0.000000 0.000000 0.052150 0.000000 0.004243
# 5 -0.016736 0.019222 -0.006206 0.000000 0.053889 0.000000
# 6 0.000000 0.000000 0.000000 0.004243 0.000000 0.012023
#
#
# Mechanical properties :
#
#
# Convention : Reuss Voigt Hill
#
# Bulk Modulus (GPa) = 58.58109 67.53671 63.05890
# Shear Modulus (GPa) = 22.52288 39.36271 30.94280
#
# Velocity S-wave (km/s) = 3.23781 4.28037 3.79506
# Velocity P-wave (km/s) = 6.42220 7.47423 6.96810
#
# Compressibility (1/GPa) = 0.01707035
#
# Stress axis : x y z
#
# Youngs Moduli (GPa) = 49.31739 42.73292 71.53559
#
# Poissons Ratio (x) = 0.66285 0.25976
# Poissons Ratio (y) = 0.76498 0.08232
# Poissons Ratio (z) = 0.17908 0.04917
#
# Static dielectric constant tensor:
#      x y z
#    x 4.581480 0.000000 -0.096830 
#    y 0.000000 3.641540 0.000000 
#    z -0.096830 0.000000 4.351740 
# 
# 
# High freq. dielectric constant tensor:
#      x y z
#    x 1.859920 0.000000 0.012630 
#    y 0.000000 1.841630 0.000000 
#    z 0.012630 0.000000 1.858900 
# 
# From -- ./inp_files/1485.got.cif
#   From: 2010.06.25/outbox.cif.g09.slc.cpg/sg13_1_cif.got.tgz:1485.got - 2010.06.28 04:50:58.
