data_PCOD8121866
_publ_section_title
;
Structure prediction by ZEFSAII (Michael W. Deem and Ramdas Pophale) SiO2 
 PCOD8121866
Probable space group: P 2/C
;
_chemical_formula_sum "Si O2"
_cell_formula_units_Z 18
_cell_length_a 8.085819
_cell_length_b 10.596821
_cell_length_c 17.190789
_cell_angle_alpha 90.000000
_cell_angle_beta 148.372492
_cell_angle_gamma 90.000000
_cell_volume 772.420463
_symmetry_space_group_name_H-M "P 2/C"
_symmetry_group_IT_number 13
_symmetry_cell_setting 'monoclinic'
loop_
_space_group_symop_operation_xyz
x,y,z
-x,y,1/2-z
-x,-y,-z
x,-y,1/2+z
loop_
_atom_site_type_symbol
_atom_site_label
_atom_site_fract_x
_atom_site_fract_y
_atom_site_fract_z
Si Si1 0.247334 0.932707 0.286514
Si Si2 0.812963 0.897279 0.971784
Si Si3 0.331229 0.425801 0.337725
Si Si4 0.500000 0.307301 0.250000
Si Si5 0.369417 0.690799 0.406156
O O1 0.487305 0.822967 0.415651
O O2 0.000000 0.986829 0.250000
O O3 0.461240 0.050403 0.347984
O O4 0.030334 0.868582 0.133033
O O5 0.768179 0.773103 0.901228
O O6 0.000000 0.000000 0.000000
O O7 0.315014 0.392348 0.240040
O O8 0.491821 0.564593 0.410824
O O9 0.539221 0.319734 0.465847
O O10 0.000000 0.427969 0.250000
O O11 0.000000 0.704068 0.250000
#
# Coordination Sequence:
#
# PCOD8121866 Si02
#       5
#     4   4   4   2   4
#     4  11  23  43  70  92 126 180 225 270 332 393
#     4  12  25  44  59  95 139 169 216 280 322 385
#     4  10  23  43  70  98 132 171 216 274 330 390
#     4  12  24  42  66 100 136 168 222 268 332 392
#     4   9  20  44  67  97 130 166 218 275 325 393
#
# _framework density 23.303369
#
# number of rings (size 3 to 8) (size 9 to 14) (size 15 to 20)
#    0.000    1.333    2.222    3.333    3.111    0.889 
#    4.000   11.111    0.000    0.000    0.000    0.000 
#    0.000    0.000    0.000    0.000    0.000    0.000 
#
# Total GULP energy -223102.449552 kJ/mol
# GULP energy per Si atom -12394.580531 kJ/mol
# Density = 2.325033 g / cm^3
# Si number density = 23.303369 Si / 1000 Ang^3
#
#
#
# Elastic Constant Matrix: (Units=GPa)
#
#
# Indices 1 2 3 4 5 6 
#
# 1 150.1052 39.3396 32.1969 0.0000 -18.0922 0.0000
# 2 39.3396 68.2093 10.2472 0.0000 -7.3418 0.0000
# 3 32.1969 10.2472 89.0205 0.0000 -23.7207 0.0000
# 4 0.0000 0.0000 0.0000 37.7513 0.0000 -10.6881
# 5 -18.0922 -7.3418 -23.7207 0.0000 41.6071 0.0000
# 6 0.0000 0.0000 0.0000 -10.6881 0.0000 26.1165
#
#
#
# Elastic Compliance Matrix: (Units=1/GPa)
#
#
# Indices 1 2 3 4 5 6 
#
# 1 0.008468 -0.004384 -0.002102 0.000000 0.001710 0.000000
# 2 -0.004384 0.017324 -0.000120 0.000000 0.001082 0.000000
# 3 -0.002102 -0.000120 0.013865 0.000000 0.006969 0.000000
# 4 0.000000 0.000000 0.000000 0.029961 0.000000 0.012261
# 5 0.001710 0.001082 0.006969 0.000000 0.028942 0.000000
# 6 0.000000 0.000000 0.000000 0.012261 0.000000 0.043308
#
#
# Mechanical properties :
#
#
# Convention : Reuss Voigt Hill
#
# Bulk Modulus (GPa) = 37.81711 52.32248 45.06979
# Shear Modulus (GPa) = 30.50745 36.13173 33.31959
#
# Velocity S-wave (km/s) = 3.62213 3.94190 3.78540
# Velocity P-wave (km/s) = 5.81004 6.57416 6.20388
#
# Compressibility (1/GPa) = 0.02644306
#
# Stress axis : x y z
#
# Youngs Moduli (GPa) = 118.09142 57.72424 72.12628
#
# Poissons Ratio (x) = 0.25306 0.15164
# Poissons Ratio (y) = 0.51771 0.00867
# Poissons Ratio (z) = 0.24828 0.00694
#
# Static dielectric constant tensor:
#      x y z
#    x 2.700980 0.000000 1.045470 
#    y 0.000000 4.860520 0.000000 
#    z 1.045470 0.000000 2.898350 
# 
# 
# High freq. dielectric constant tensor:
#      x y z
#    x 1.906580 0.000000 -0.019130 
#    y 0.000000 1.928950 0.000000 
#    z -0.019130 0.000000 1.927530 
# 
# From -- ./inp_files/11880.got.cif
#   From: 2010.06.25/outbox.cif.g09.slc.cpg/sg13_6_cif.got.tgz:11880.got - 2010.06.28 04:50:58.
