data_PCOD8121603
_publ_section_title
;
Structure prediction by ZEFSAII (Michael W. Deem and Ramdas Pophale) SiO2 
 PCOD8121603
Probable space group: P 2/C
;
_chemical_formula_sum "Si O2"
_cell_formula_units_Z 28
_cell_length_a 9.020656
_cell_length_b 4.946347
_cell_length_c 31.867007
_cell_angle_alpha 90.000000
_cell_angle_beta 59.596221
_cell_angle_gamma 90.000000
_cell_volume 1226.346390
_symmetry_space_group_name_H-M "P 2/C"
_symmetry_group_IT_number 13
_symmetry_cell_setting 'monoclinic'
loop_
_space_group_symop_operation_xyz
x,y,z
-x,y,1/2-z
-x,-y,-z
x,-y,1/2+z
loop_
_atom_site_type_symbol
_atom_site_label
_atom_site_fract_x
_atom_site_fract_y
_atom_site_fract_z
Si Si1 0.652129 0.347016 0.133388
Si Si2 0.509551 0.829073 0.199185
Si Si3 0.031529 0.820560 0.584909
Si Si4 0.488080 0.378711 0.068868
Si Si5 0.259424 0.668853 0.039056
Si Si6 0.169794 0.205300 0.149012
Si Si7 0.169465 0.295688 0.703654
O O1 0.652246 0.603906 0.165395
O O2 0.573133 0.458987 0.101172
O O3 0.839895 0.228305 0.095645
O O4 0.539424 0.108247 0.170181
O O5 0.500000 0.883984 0.250000
O O6 0.324656 0.708785 0.213793
O O7 0.163343 0.614633 0.544314
O O8 0.014870 0.781104 0.637890
O O9 0.104838 0.119838 0.567031
O O10 0.389558 0.631360 0.060118
O O11 0.346387 0.140494 0.097817
O O12 0.631253 0.253400 0.017660
O O13 0.210568 0.504192 0.160034
O O14 0.128443 0.000536 0.191805
O O15 0.000000 0.409122 0.750000
#
# Coordination Sequence:
#
# PCOD8121603 Si02
#       7
#     4   4   4   4   4   4   4
#     4  12  26  44  72  97 141 183 222 278 346 413
#     4  12  27  46  68 100 135 178 226 278 346 407
#     4  11  25  42  65 102 137 180 218 282 336 405
#     4  10  22  44  70  99 134 183 227 282 333 414
#     4  10  24  42  69 100 138 177 228 282 335 401
#     4  11  23  42  66  94 132 169 229 265 338 399
#     4  12  25  42  68  97 124 173 219 286 328 400
#
# _framework density 22.832048
#
# number of rings (size 3 to 8) (size 9 to 14) (size 15 to 20)
#    0.000    0.857    2.857    3.429    4.000    8.571 
#    0.000    0.000    0.000    0.000    0.000    0.000 
#    0.000    0.000    0.000    0.000    0.000    0.000 
#
# Total GULP energy -347125.979649 kJ/mol
# GULP energy per Si atom -12397.356416 kJ/mol
# Density = 2.278008 g / cm^3
# Si number density = 22.832048 Si / 1000 Ang^3
#
#
#
# Elastic Constant Matrix: (Units=GPa)
#
#
# Indices 1 2 3 4 5 6 
#
# 1 86.3897 12.7889 44.9254 0.0000 -6.4141 0.0000
# 2 12.7889 95.0044 33.6778 0.0000 3.5000 0.0000
# 3 44.9254 33.6778 124.3401 0.0000 4.8899 0.0000
# 4 0.0000 0.0000 0.0000 22.5783 0.0000 -2.6678
# 5 -6.4141 3.5000 4.8899 0.0000 37.2047 0.0000
# 6 0.0000 0.0000 0.0000 -2.6678 0.0000 27.5506
#
#
#
# Elastic Compliance Matrix: (Units=1/GPa)
#
#
# Indices 1 2 3 4 5 6 
#
# 1 0.014634 -0.000188 -0.005364 0.000000 0.003246 0.000000
# 2 -0.000188 0.011664 -0.003063 0.000000 -0.000727 0.000000
# 3 -0.005364 -0.003063 0.010891 0.000000 -0.002068 0.000000
# 4 0.000000 0.000000 0.000000 0.044803 0.000000 0.004338
# 5 0.003246 -0.000727 -0.002068 0.000000 0.027778 0.000000
# 6 0.000000 0.000000 0.000000 0.004338 0.000000 0.036717
#
#
# Mechanical properties :
#
#
# Convention : Reuss Voigt Hill
#
# Bulk Modulus (GPa) = 50.10157 54.27980 52.19068
# Shear Modulus (GPa) = 29.34806 31.75620 30.55213
#
# Velocity S-wave (km/s) = 3.58912 3.73347 3.66201
# Velocity P-wave (km/s) = 6.25835 6.51231 6.38659
#
# Compressibility (1/GPa) = 0.01995946
#
# Stress axis : x y z
#
# Youngs Moduli (GPa) = 68.33529 85.73712 91.81569
#
# Poissons Ratio (x) = 0.01612 0.49250
# Poissons Ratio (y) = 0.01285 0.28119
# Poissons Ratio (z) = 0.36655 0.26258
#
# Static dielectric constant tensor:
#      x y z
#    x 4.081750 0.000000 0.003460 
#    y 0.000000 3.924070 0.000000 
#    z 0.003460 0.000000 4.116440 
# 
# 
# High freq. dielectric constant tensor:
#      x y z
#    x 1.898750 0.000000 -0.004200 
#    y 0.000000 1.897960 0.000000 
#    z -0.004200 0.000000 1.907510 
# 
# From -- ./inp_files/95569.got.cif
#   From: 2010.06.25/outbox.cif.g09.slc.cpg/sg13_48_cif.got.tgz:95569.got - 2010.06.28 04:50:58.
