data_PCOD8121914
_publ_section_title
;
Structure prediction by ZEFSAII (Michael W. Deem and Ramdas Pophale) SiO2 
 PCOD8121914
Probable space group: P 2/C
;
_chemical_formula_sum "Si O2"
_cell_formula_units_Z 22
_cell_length_a 9.479707
_cell_length_b 15.756559
_cell_length_c 8.998138
_cell_angle_alpha 90.000000
_cell_angle_beta 130.546426
_cell_angle_gamma 90.000000
_cell_volume 1021.300769
_symmetry_space_group_name_H-M "P 2/C"
_symmetry_group_IT_number 13
_symmetry_cell_setting 'monoclinic'
loop_
_space_group_symop_operation_xyz
x,y,z
-x,y,1/2-z
-x,-y,-z
x,-y,1/2+z
loop_
_atom_site_type_symbol
_atom_site_label
_atom_site_fract_x
_atom_site_fract_y
_atom_site_fract_z
Si Si1 0.136602 0.022387 0.460239
Si Si2 0.500000 0.477234 0.750000
Si Si3 0.667163 0.392977 0.149069
Si Si4 0.000000 0.701010 0.750000
Si Si5 0.298150 0.192457 0.643836
Si Si6 0.788647 0.160987 0.589753
Si Si7 0.500000 0.731742 0.750000
O O1 0.234735 0.939082 0.459080
O O2 0.000000 0.066311 0.250000
O O3 0.290849 0.092097 0.600826
O O4 0.000000 0.000000 0.500000
O O5 0.393568 0.419754 0.557794
O O6 0.345941 0.531233 0.737695
O O7 0.876794 0.357521 0.276488
O O8 0.527035 0.322271 0.118166
O O9 0.864020 0.756607 0.551910
O O10 0.500000 0.231235 0.750000
O O11 0.297489 0.195170 0.819259
O O12 0.684619 0.210707 0.387236
O O13 0.000000 0.187486 0.750000
#
# Coordination Sequence:
#
# PCOD8121914 Si02
#       7
#     4   2   4   2   4   4   2
#     4  11  22  42  64  89 132 182 236 293 331 396
#     4   9  22  48  74 105 136 176 220 261 346 430
#     4  10  23  44  74 102 141 174 216 280 334 416
#     4  12  26  42  70 108 140 178 228 282 338 408
#     4  12  26  41  65 100 137 183 233 289 349 395
#     4  11  24  42  64  92 134 184 236 285 341 394
#     4  11  24  42  68 103 134 180 230 283 338 400
#
# _framework density 21.541156999999998
#
# number of rings (size 3 to 8) (size 9 to 14) (size 15 to 20)
#    0.000    1.091    4.545    2.182    5.091    2.909 
#    0.000    0.000    4.000    0.000    0.000    0.000 
#    0.000    0.000    0.000    0.000    0.000    0.000 
#
# Total GULP energy -272598.322367 kJ/mol
# GULP energy per Si atom -12390.832835 kJ/mol
# Density = 2.149213 g / cm^3
# Si number density = 21.541157 Si / 1000 Ang^3
#
#
#
# Elastic Constant Matrix: (Units=GPa)
#
#
# Indices 1 2 3 4 5 6 
#
# 1 127.2086 47.3512 45.7387 0.0000 2.6587 0.0000
# 2 47.3512 102.9288 64.1374 0.0000 10.5650 0.0000
# 3 45.7387 64.1374 125.4337 0.0000 0.2845 0.0000
# 4 0.0000 0.0000 0.0000 32.3347 0.0000 1.2448
# 5 2.6587 10.5650 0.2845 0.0000 42.8923 0.0000
# 6 0.0000 0.0000 0.0000 1.2448 0.0000 33.7650
#
#
#
# Elastic Compliance Matrix: (Units=1/GPa)
#
#
# Indices 1 2 3 4 5 6 
#
# 1 0.009773 -0.003375 -0.001839 0.000000 0.000238 0.000000
# 2 -0.003375 0.015958 -0.006921 0.000000 -0.003676 0.000000
# 3 -0.001839 -0.006921 0.012178 0.000000 0.001738 0.000000
# 4 0.000000 0.000000 0.000000 0.030971 0.000000 -0.001142
# 5 0.000238 -0.003676 0.001738 0.000000 0.024193 0.000000
# 6 0.000000 0.000000 0.000000 -0.001142 0.000000 0.029659
#
#
# Mechanical properties :
#
#
# Convention : Reuss Voigt Hill
#
# Bulk Modulus (GPa) = 73.31181 74.44732 73.87956
# Shear Modulus (GPa) = 32.99321 35.02129 34.00725
#
# Velocity S-wave (km/s) = 3.91786 4.03648 3.97761
# Velocity P-wave (km/s) = 7.38738 7.50731 7.44759
#
# Compressibility (1/GPa) = 0.01364037
#
# Stress axis : x y z
#
# Youngs Moduli (GPa) = 102.31761 62.66578 82.11805
#
# Poissons Ratio (x) = 0.21148 0.15100
# Poissons Ratio (y) = 0.34530 0.56831
# Poissons Ratio (z) = 0.18814 0.43369
#
# Static dielectric constant tensor:
#      x y z
#    x 3.862700 0.000000 -0.506240 
#    y 0.000000 4.067270 0.000000 
#    z -0.506240 0.000000 7.757540 
# 
# 
# High freq. dielectric constant tensor:
#      x y z
#    x 1.849380 0.000000 -0.016070 
#    y 0.000000 1.849600 0.000000 
#    z -0.016070 0.000000 1.847270 
# 
# From -- ./inp_files/13208.got.cif
#   From: 2010.06.25/outbox.cif.g09.slc.cpg/sg13_7_cif.got.tgz:13208.got - 2010.06.28 04:50:58.
