data_PCOD8121635
_publ_section_title
;
Structure prediction by ZEFSAII (Michael W. Deem and Ramdas Pophale) SiO2 
 PCOD8121635
Probable space group: P 2/C
;
_chemical_formula_sum "Si O2"
_cell_formula_units_Z 24
_cell_length_a 8.615397
_cell_length_b 11.591172
_cell_length_c 10.333475
_cell_angle_alpha 90.000000
_cell_angle_beta 91.517647
_cell_angle_gamma 90.000000
_cell_volume 1031.565164
_symmetry_space_group_name_H-M "P 2/C"
_symmetry_group_IT_number 13
_symmetry_cell_setting 'monoclinic'
loop_
_space_group_symop_operation_xyz
x,y,z
-x,y,1/2-z
-x,-y,-z
x,-y,1/2+z
loop_
_atom_site_type_symbol
_atom_site_label
_atom_site_fract_x
_atom_site_fract_y
_atom_site_fract_z
Si Si1 0.318968 0.287103 0.987941
Si Si2 0.165856 0.115163 0.603864
Si Si3 0.898798 0.530693 0.121848
Si Si4 0.324527 0.581451 0.722990
Si Si5 0.382832 0.332080 0.630608
Si Si6 0.187779 0.934458 0.389720
O O1 0.255627 0.317845 0.130056
O O2 0.206774 0.355132 0.886743
O O3 0.498660 0.330167 0.988415
O O4 0.313060 0.153179 0.952559
O O5 0.243306 0.241043 0.609229
O O6 0.214554 0.044732 0.736254
O O7 0.979979 0.124878 0.593167
O O8 0.215666 0.050472 0.472765
O O9 0.778470 0.424295 0.148269
O O10 0.000000 0.549220 0.250000
O O11 0.000000 0.500000 0.000000
O O12 0.500000 0.612471 0.750000
O O13 0.308994 0.458758 0.645788
O O14 0.500000 0.296928 0.750000
#
# Coordination Sequence:
#
# PCOD8121635 Si02
#       6
#     4   4   4   4   4   4
#     4  12  24  42  67 100 132 179 228 274 338 410
#     4  10  22  45  67  94 127 175 222 285 338 402
#     4  12  25  41  65 100 137 181 227 280 330 403
#     4  11  24  45  64  96 144 180 221 275 340 407
#     4  11  21  40  68  95 127 178 224 270 332 409
#     4  10  23  43  69  93 130 170 226 280 345 400
#
# _framework density 23.265618
#
# number of rings (size 3 to 8) (size 9 to 14) (size 15 to 20)
#    0.000    1.000    6.667    0.500    4.667    0.667 
#    3.000    5.000    0.000    0.000    0.000    0.000 
#    0.000    0.000    0.000    0.000    0.000    0.000 
#
# Total GULP energy -297466.243744 kJ/mol
# GULP energy per Si atom -12394.426823 kJ/mol
# Density = 2.321266 g / cm^3
# Si number density = 23.265618 Si / 1000 Ang^3
#
#
#
# Elastic Constant Matrix: (Units=GPa)
#
#
# Indices 1 2 3 4 5 6 
#
# 1 85.4816 2.7436 18.9301 0.0000 -2.7706 0.0000
# 2 2.7436 48.5691 19.4705 0.0000 10.9862 0.0000
# 3 18.9301 19.4705 121.3354 0.0000 -11.4118 0.0000
# 4 0.0000 0.0000 0.0000 33.7399 0.0000 2.5396
# 5 -2.7706 10.9862 -11.4118 0.0000 34.7259 0.0000
# 6 0.0000 0.0000 0.0000 2.5396 0.0000 34.6153
#
#
#
# Elastic Compliance Matrix: (Units=1/GPa)
#
#
# Indices 1 2 3 4 5 6 
#
# 1 0.012121 -0.000025 -0.001853 0.000000 0.000366 0.000000
# 2 -0.000025 0.024653 -0.004835 0.000000 -0.009390 0.000000
# 3 -0.001853 -0.004835 0.009738 0.000000 0.004582 0.000000
# 4 0.000000 0.000000 0.000000 0.029803 0.000000 -0.002187
# 5 0.000366 -0.009390 0.004582 0.000000 0.033303 0.000000
# 6 0.000000 0.000000 0.000000 -0.002187 0.000000 0.029049
#
#
# Mechanical properties :
#
#
# Convention : Reuss Voigt Hill
#
# Bulk Modulus (GPa) = 30.22401 37.51939 33.87170
# Shear Modulus (GPa) = 30.65196 34.89902 32.77549
#
# Velocity S-wave (km/s) = 3.63365 3.87722 3.75741
# Velocity P-wave (km/s) = 5.53386 6.01708 5.78052
#
# Compressibility (1/GPa) = 0.03308627
#
# Stress axis : x y z
#
# Youngs Moduli (GPa) = 82.49887 40.56279 102.69542
#
# Poissons Ratio (x) = 0.00101 0.19026
# Poissons Ratio (y) = 0.00205 0.49657
# Poissons Ratio (z) = 0.15285 0.19614
#
# Static dielectric constant tensor:
#      x y z
#    x 4.497680 0.000000 -0.295910 
#    y 0.000000 3.668450 0.000000 
#    z -0.295910 0.000000 4.679950 
# 
# 
# High freq. dielectric constant tensor:
#      x y z
#    x 1.930030 0.000000 -0.001140 
#    y 0.000000 1.877570 0.000000 
#    z -0.001140 0.000000 1.935210 
# 
# From -- ./inp_files/29444.got.cif
#   From: 2010.06.25/outbox.cif.g09.slc.cpg/sg13_15_cif.got.tgz:29444.got - 2010.06.28 04:50:58.
