data_PCOD8121625
_publ_section_title
;
Structure prediction by ZEFSAII (Michael W. Deem and Ramdas Pophale) SiO2 
 PCOD8121625
Probable space group: P 2/C
;
_chemical_formula_sum "Si O2"
_cell_formula_units_Z 26
_cell_length_a 8.287739
_cell_length_b 18.818624
_cell_length_c 8.555378
_cell_angle_alpha 90.000000
_cell_angle_beta 55.608762
_cell_angle_gamma 90.000000
_cell_volume 1101.088668
_symmetry_space_group_name_H-M "P 2/C"
_symmetry_group_IT_number 13
_symmetry_cell_setting 'monoclinic'
loop_
_space_group_symop_operation_xyz
x,y,z
-x,y,1/2-z
-x,-y,-z
x,-y,1/2+z
loop_
_atom_site_type_symbol
_atom_site_label
_atom_site_fract_x
_atom_site_fract_y
_atom_site_fract_z
Si Si1 0.678349 0.326768 0.049579
Si Si2 0.343157 0.783655 0.208018
Si Si3 0.972764 0.282401 0.429733
Si Si4 0.785939 0.471843 0.823580
Si Si5 0.305389 0.410041 0.930522
Si Si6 0.283892 0.940104 0.320544
Si Si7 0.000000 0.029101 0.250000
O O1 0.500000 0.352684 0.250000
O O2 0.832354 0.307320 0.096413
O O3 0.622439 0.257933 0.973734
O O4 0.745328 0.391787 0.905801
O O5 0.500000 0.758126 0.250000
O O6 0.342995 0.868643 0.193375
O O7 0.127843 0.765934 0.386675
O O8 0.000000 0.240180 0.250000
O O9 0.842396 0.348761 0.445242
O O10 0.783247 0.467706 0.639732
O O11 0.000000 0.498510 0.750000
O O12 0.643004 0.537687 0.952386
O O13 0.500000 0.375055 0.750000
O O14 0.500000 0.973505 0.250000
O O15 0.158684 0.985408 0.265072
O O16 0.141208 0.927135 0.551308
#
# Coordination Sequence:
#
# PCOD8121625 Si02
#       7
#     4   4   4   4   4   4   2
#     4  12  26  45  67  97 132 176 231 285 349 415
#     4  11  24  47  70 101 141 182 229 286 343 410
#     4  12  26  42  68  94 133 175 224 289 345 416
#     4  12  24  44  64  91 125 168 217 286 346 417
#     4  12  26  42  66  91 127 164 221 283 353 416
#     4  10  23  43  75 109 154 192 243 290 348 419
#     4  10  22  44  74 114 150 200 232 294 342 422
#
# _framework density 23.612995000000002
#
# number of rings (size 3 to 8) (size 9 to 14) (size 15 to 20)
#    0.000    0.615    3.077    4.154    7.538    0.000 
#    0.000    0.769    0.000    0.000    0.000    0.000 
#    0.000    0.000    0.000    0.000    0.000    0.000 
#
# Total GULP energy -322129.823076 kJ/mol
# GULP energy per Si atom -12389.608580 kJ/mol
# Density = 2.355925 g / cm^3
# Si number density = 23.612995 Si / 1000 Ang^3
#
#
#
# Elastic Constant Matrix: (Units=GPa)
#
#
# Indices 1 2 3 4 5 6 
#
# 1 127.5675 13.5722 8.6337 0.0000 -7.4070 0.0000
# 2 13.5722 65.4737 2.8769 0.0000 6.9282 0.0000
# 3 8.6337 2.8769 92.3913 0.0000 -1.4668 0.0000
# 4 0.0000 0.0000 0.0000 22.8579 0.0000 3.5166
# 5 -7.4070 6.9282 -1.4668 0.0000 37.7697 0.0000
# 6 0.0000 0.0000 0.0000 3.5166 0.0000 48.0420
#
#
#
# Elastic Compliance Matrix: (Units=1/GPa)
#
#
# Indices 1 2 3 4 5 6 
#
# 1 0.008196 -0.001873 -0.000677 0.000000 0.001925 0.000000
# 2 -0.001873 0.016030 -0.000377 0.000000 -0.003322 0.000000
# 3 -0.000677 -0.000377 0.010904 0.000000 0.000360 0.000000
# 4 0.000000 0.000000 0.000000 0.044247 0.000000 -0.003239
# 5 0.001925 -0.003322 0.000360 0.000000 0.027477 0.000000
# 6 0.000000 0.000000 0.000000 -0.003239 0.000000 0.021052
#
#
# Mechanical properties :
#
#
# Convention : Reuss Voigt Hill
#
# Bulk Modulus (GPa) = 34.15733 37.28869 35.72301
# Shear Modulus (GPa) = 34.83885 39.09058 36.96471
#
# Velocity S-wave (km/s) = 3.84527 4.07316 3.96086
# Velocity P-wave (km/s) = 5.84908 6.16009 6.00660
#
# Compressibility (1/GPa) = 0.02927630
#
# Stress axis : x y z
#
# Youngs Moduli (GPa) = 122.01365 62.38436 91.70744
#
# Poissons Ratio (x) = 0.11684 0.06209
# Poissons Ratio (y) = 0.22851 0.03456
# Poissons Ratio (z) = 0.08260 0.02351
#
# Static dielectric constant tensor:
#      x y z
#    x 4.898070 0.000000 -0.282990 
#    y 0.000000 3.863500 0.000000 
#    z -0.282990 0.000000 4.344680 
# 
# 
# High freq. dielectric constant tensor:
#      x y z
#    x 1.961480 0.000000 -0.003450 
#    y 0.000000 1.905740 0.000000 
#    z -0.003450 0.000000 1.950150 
# 
# From -- ./inp_files/13642.got.cif
#   From: 2010.06.25/outbox.cif.g09.slc.cpg/sg13_7_cif.got.tgz:13642.got - 2010.06.28 04:50:58.
