data_PCOD8121592
_publ_section_title
;
Structure prediction by ZEFSAII (Michael W. Deem and Ramdas Pophale) SiO2 
 PCOD8121592
Probable space group: P 2/C
;
_chemical_formula_sum "Si O2"
_cell_formula_units_Z 18
_cell_length_a 6.209089
_cell_length_b 5.971312
_cell_length_c 22.586995
_cell_angle_alpha 90.000000
_cell_angle_beta 70.560585
_cell_angle_gamma 90.000000
_cell_volume 789.705210
_symmetry_space_group_name_H-M "P 2/C"
_symmetry_group_IT_number 13
_symmetry_cell_setting 'monoclinic'
loop_
_space_group_symop_operation_xyz
x,y,z
-x,y,1/2-z
-x,-y,-z
x,-y,1/2+z
loop_
_atom_site_type_symbol
_atom_site_label
_atom_site_fract_x
_atom_site_fract_y
_atom_site_fract_z
Si Si1 0.325436 0.690015 0.532006
Si Si2 0.726961 0.912933 0.196294
Si Si3 0.539879 0.927169 0.088874
Si Si4 0.129885 0.580629 0.143265
Si Si5 0.000000 0.741299 0.750000
O O1 0.500000 0.500000 0.500000
O O2 0.276415 0.824661 0.475564
O O3 0.113300 0.563157 0.583094
O O4 0.429394 0.853188 0.571721
O O5 0.500000 0.829364 0.250000
O O6 0.675532 0.999819 0.134828
O O7 0.891327 0.701425 0.175544
O O8 0.839316 0.110790 0.223137
O O9 0.340152 0.752432 0.123497
O O10 0.166057 0.410296 0.194463
#
# Coordination Sequence:
#
# PCOD8121592 Si02
#       5
#     4   4   4   4   2
#     4   9  20  41  69  97 129 165 207 260 318 381
#     4  12  25  41  64  93 127 169 216 265 316 376
#     4  10  22  44  68  95 129 166 210 262 317 379
#     4  11  23  43  65  92 129 168 213 265 317 377
#     4  12  26  42  62  92 128 168 216 266 316 374
#
# _framework density 22.793317999999999
#
# number of rings (size 3 to 8) (size 9 to 14) (size 15 to 20)
#    0.000    1.333    0.000    6.000    0.000    7.111 
#    0.000   17.778    0.000    0.000    0.000    0.000 
#    0.000    0.000    0.000    0.000    0.000    0.000 
#
# Total GULP energy -223101.384408 kJ/mol
# GULP energy per Si atom -12394.521356 kJ/mol
# Density = 2.274144 g / cm^3
# Si number density = 22.793318 Si / 1000 Ang^3
#
#
#
# Elastic Constant Matrix: (Units=GPa)
#
#
# Indices 1 2 3 4 5 6 
#
# 1 92.9665 59.3475 74.4868 0.0000 10.4228 0.0000
# 2 59.3475 142.1839 91.1875 0.0000 -9.4639 0.0000
# 3 74.4868 91.1875 195.4079 0.0000 8.3041 0.0000
# 4 0.0000 0.0000 0.0000 49.0215 0.0000 -5.5795
# 5 10.4228 -9.4639 8.3041 0.0000 42.4239 0.0000
# 6 0.0000 0.0000 0.0000 -5.5795 0.0000 11.4658
#
#
#
# Elastic Compliance Matrix: (Units=1/GPa)
#
#
# Indices 1 2 3 4 5 6 
#
# 1 0.017940 -0.005056 -0.004279 0.000000 -0.004698 0.000000
# 2 -0.005056 0.011907 -0.003827 0.000000 0.004648 0.000000
# 3 -0.004279 -0.003827 0.008597 0.000000 -0.001485 0.000000
# 4 0.000000 0.000000 0.000000 0.021595 0.000000 0.010509
# 5 -0.004698 0.004648 -0.001485 0.000000 0.026053 0.000000
# 6 0.000000 0.000000 0.000000 0.010509 0.000000 0.092330
#
#
# Mechanical properties :
#
#
# Convention : Reuss Voigt Hill
#
# Bulk Modulus (GPa) = 82.50767 97.84464 90.17616
# Shear Modulus (GPa) = 23.94791 34.28468 29.11629
#
# Velocity S-wave (km/s) = 3.24490 3.88255 3.57796
# Velocity P-wave (km/s) = 7.09337 7.94475 7.53110
#
# Compressibility (1/GPa) = 0.01212008
#
# Stress axis : x y z
#
# Youngs Moduli (GPa) = 55.74248 83.98334 116.31348
#
# Poissons Ratio (x) = 0.42465 0.49772
# Poissons Ratio (y) = 0.28185 0.44508
# Poissons Ratio (z) = 0.23853 0.32137
#
# Static dielectric constant tensor:
#      x y z
#    x 3.649350 0.000000 -0.208590 
#    y 0.000000 4.770610 0.000000 
#    z -0.208590 0.000000 4.739910 
# 
# 
# High freq. dielectric constant tensor:
#      x y z
#    x 1.852870 0.000000 -0.010470 
#    y 0.000000 1.918640 0.000000 
#    z -0.010470 0.000000 1.942500 
# 
# From -- ./inp_files/72645.got.cif
#   From: 2010.06.25/outbox.cif.g09.slc.cpg/sg13_37_cif.got.tgz:72645.got - 2010.06.28 04:50:58.
