data_PCOD8121782
_publ_section_title
;
Structure prediction by ZEFSAII (Michael W. Deem and Ramdas Pophale) SiO2 
 PCOD8121782
Probable space group: P 2/C
;
_chemical_formula_sum "Si O2"
_cell_formula_units_Z 28
_cell_length_a 21.807705
_cell_length_b 8.536926
_cell_length_c 14.227550
_cell_angle_alpha 90.000000
_cell_angle_beta 30.084681
_cell_angle_gamma 90.000000
_cell_volume 1327.765758
_symmetry_space_group_name_H-M "P 2/C"
_symmetry_group_IT_number 13
_symmetry_cell_setting 'monoclinic'
loop_
_space_group_symop_operation_xyz
x,y,z
-x,y,1/2-z
-x,-y,-z
x,-y,1/2+z
loop_
_atom_site_type_symbol
_atom_site_label
_atom_site_fract_x
_atom_site_fract_y
_atom_site_fract_z
Si Si1 0.972699 0.057250 0.683973
Si Si2 0.115699 0.600464 0.146051
Si Si3 0.139975 0.547856 0.801182
Si Si4 0.818877 0.088520 0.236857
Si Si5 0.473288 0.747573 0.058324
Si Si6 0.696196 0.475948 0.252123
Si Si7 0.456343 0.024132 0.413426
O O1 0.936132 0.238535 0.742672
O O2 0.000000 0.983370 0.750000
O O3 0.092730 0.025570 0.462351
O O4 0.858608 0.972058 0.786769
O O5 0.176503 0.498037 0.147385
O O6 0.000000 0.513324 0.250000
O O7 0.220610 0.623617 0.929976
O O8 0.170208 0.726811 0.778717
O O9 0.225095 0.459694 0.763830
O O10 0.000000 0.500000 0.000000
O O11 0.684306 0.026609 0.394392
O O12 0.357521 0.632987 0.223617
O O13 0.462204 0.883498 0.151061
O O14 0.592665 0.644638 0.921667
O O15 0.477519 0.820243 0.947524
O O16 0.500000 0.059846 0.250000
#
# Coordination Sequence:
#
# PCOD8121782 Si02
#       7
#     4   4   4   4   4   4   4
#     4  10  23  41  67  97 130 175 215 270 347 397
#     4  11  23  40  68  98 129 176 216 267 345 404
#     4  12  22  41  65  96 136 166 212 279 337 396
#     4  11  24  42  64  98 134 170 224 281 328 410
#     4  10  26  46  67  96 132 180 227 283 332 393
#     4  11  24  44  68  98 134 173 229 277 331 412
#     4  11  26  45  68  96 133 182 231 279 341 392
#
# _framework density 21.088056000000002
#
# number of rings (size 3 to 8) (size 9 to 14) (size 15 to 20)
#    0.000    1.143    4.286    0.857    6.000    1.714 
#    0.000    2.857    0.000    0.000    0.000    0.000 
#    0.000    0.000    0.000    0.000    0.000    0.000 
#
# Total GULP energy -347204.007133 kJ/mol
# GULP energy per Si atom -12400.143112 kJ/mol
# Density = 2.104006 g / cm^3
# Si number density = 21.088056 Si / 1000 Ang^3
#
#
#
# Elastic Constant Matrix: (Units=GPa)
#
#
# Indices 1 2 3 4 5 6 
#
# 1 147.3730 19.3410 44.5324 0.0000 -4.7012 0.0000
# 2 19.3410 48.7782 17.3369 0.0000 -11.4455 0.0000
# 3 44.5324 17.3369 81.4046 0.0000 -11.5009 0.0000
# 4 0.0000 0.0000 0.0000 23.0091 0.0000 0.9658
# 5 -4.7012 -11.4455 -11.5009 0.0000 41.5032 0.0000
# 6 0.0000 0.0000 0.0000 0.9658 0.0000 35.1801
#
#
#
# Elastic Compliance Matrix: (Units=1/GPa)
#
#
# Indices 1 2 3 4 5 6 
#
# 1 0.008297 -0.001969 -0.004229 0.000000 -0.000775 0.000000
# 2 -0.001969 0.023692 -0.003203 0.000000 0.005423 0.000000
# 3 -0.004229 -0.003203 0.015702 0.000000 0.002989 0.000000
# 4 0.000000 0.000000 0.000000 0.043511 0.000000 -0.001195
# 5 -0.000775 0.005423 0.002989 0.000000 0.026331 0.000000
# 6 0.000000 0.000000 0.000000 -0.001195 0.000000 0.028458
#
#
# Mechanical properties :
#
#
# Convention : Reuss Voigt Hill
#
# Bulk Modulus (GPa) = 34.61307 48.88627 41.74967
# Shear Modulus (GPa) = 28.66601 33.02817 30.84709
#
# Velocity S-wave (km/s) = 3.69093 3.96182 3.82877
# Velocity P-wave (km/s) = 5.88330 6.64532 6.27589
#
# Compressibility (1/GPa) = 0.02889082
#
# Stress axis : x y z
#
# Youngs Moduli (GPa) = 120.52433 42.20766 63.68514
#
# Poissons Ratio (x) = 0.08309 0.26933
# Poissons Ratio (y) = 0.23726 0.20397
# Poissons Ratio (z) = 0.50972 0.13518
#
# Static dielectric constant tensor:
#      x y z
#    x 4.451890 0.000000 -0.170380 
#    y 0.000000 3.783090 0.000000 
#    z -0.170380 0.000000 3.901990 
# 
# 
# High freq. dielectric constant tensor:
#      x y z
#    x 1.849880 0.000000 -0.008270 
#    y 0.000000 1.816520 0.000000 
#    z -0.008270 0.000000 1.819360 
# 
# From -- ./inp_files/57442.got.cif
#   From: 2010.06.25/outbox.cif.g09.slc.cpg/sg13_29_cif.got.tgz:57442.got - 2010.06.28 04:50:58.
