data_PCOD8121531
_publ_section_title
;
Structure prediction by ZEFSAII (Michael W. Deem and Ramdas Pophale) SiO2 
 PCOD8121531
Probable space group: P 2/C
;
_chemical_formula_sum "Si O2"
_cell_formula_units_Z 20
_cell_length_a 10.937374
_cell_length_b 8.256925
_cell_length_c 10.190296
_cell_angle_alpha 90.000000
_cell_angle_beta 101.220773
_cell_angle_gamma 90.000000
_cell_volume 902.684840
_symmetry_space_group_name_H-M "P 2/C"
_symmetry_group_IT_number 13
_symmetry_cell_setting 'monoclinic'
loop_
_space_group_symop_operation_xyz
x,y,z
-x,y,1/2-z
-x,-y,-z
x,-y,1/2+z
loop_
_atom_site_type_symbol
_atom_site_label
_atom_site_fract_x
_atom_site_fract_y
_atom_site_fract_z
Si Si1 0.730023 0.306377 0.320526
Si Si2 0.009341 0.144419 0.103303
Si Si3 0.635782 0.353354 0.778246
Si Si4 0.380047 0.877146 0.474044
Si Si5 0.742048 0.188855 0.044125
O O1 0.869420 0.254818 0.392389
O O2 0.734055 0.500070 0.296248
O O3 0.627378 0.251127 0.407250
O O4 0.687125 0.229033 0.175155
O O5 0.000000 0.075078 0.250000
O O6 0.883852 0.252174 0.054543
O O7 0.000000 0.000000 0.000000
O O8 0.500000 0.434633 0.750000
O O9 0.643580 0.222423 0.663986
O O10 0.649369 0.261641 0.918311
O O11 0.500000 0.000000 0.500000
O O12 0.260348 0.993499 0.468185
#
# Coordination Sequence:
#
# PCOD8121531 Si02
#       5
#     4   4   4   4   4
#     4  11  26  44  69 102 144 183 229 296 352 411
#     4  10  22  43  70 100 134 177 236 287 339 413
#     4  12  27  45  67 105 145 187 230 289 356 415
#     4  12  25  44  71 104 138 189 239 285 347 423
#     4  11  24  44  73 100 137 184 240 284 347 419
#
# _framework density 22.156127999999999
#
# number of rings (size 3 to 8) (size 9 to 14) (size 15 to 20)
#    0.000    0.800    4.000    2.400    5.600    2.400 
#    0.000    2.000    0.000    0.000    0.000    0.000 
#    0.000    0.000    0.000    0.000    0.000    0.000 
#
# Total GULP energy -247845.676795 kJ/mol
# GULP energy per Si atom -12392.283840 kJ/mol
# Density = 2.210570 g / cm^3
# Si number density = 22.156128 Si / 1000 Ang^3
#
#
#
# Elastic Constant Matrix: (Units=GPa)
#
#
# Indices 1 2 3 4 5 6 
#
# 1 119.4232 44.3573 47.2430 0.0000 12.3780 0.0000
# 2 44.3573 130.0705 41.6750 0.0000 19.3895 0.0000
# 3 47.2430 41.6750 138.6230 0.0000 17.3664 0.0000
# 4 0.0000 0.0000 0.0000 36.7479 0.0000 6.6767
# 5 12.3780 19.3895 17.3664 0.0000 22.2603 0.0000
# 6 0.0000 0.0000 0.0000 6.6767 0.0000 34.0855
#
#
#
# Elastic Compliance Matrix: (Units=1/GPa)
#
#
# Indices 1 2 3 4 5 6 
#
# 1 0.010509 -0.002501 -0.002627 0.000000 -0.001615 0.000000
# 2 -0.002501 0.009894 -0.001348 0.000000 -0.006175 0.000000
# 3 -0.002627 -0.001348 0.009071 0.000000 -0.004441 0.000000
# 4 0.000000 0.000000 0.000000 0.028217 0.000000 -0.005527
# 5 -0.001615 -0.006175 -0.004441 0.000000 0.054665 0.000000
# 6 0.000000 0.000000 0.000000 -0.005527 0.000000 0.030421
#
#
# Mechanical properties :
#
#
# Convention : Reuss Voigt Hill
#
# Bulk Modulus (GPa) = 60.53239 72.74082 66.63660
# Shear Modulus (GPa) = 31.01032 35.60817 33.30925
#
# Velocity S-wave (km/s) = 3.74522 4.01327 3.88156
# Velocity P-wave (km/s) = 6.78840 7.37411 7.08731
#
# Compressibility (1/GPa) = 0.01652008
#
# Stress axis : x y z
#
# Youngs Moduli (GPa) = 95.15259 101.07465 110.24216
#
# Poissons Ratio (x) = 0.25283 0.28963
# Poissons Ratio (y) = 0.23801 0.14864
# Poissons Ratio (z) = 0.24999 0.13628
#
# Static dielectric constant tensor:
#      x y z
#    x 4.446630 0.000000 0.052880 
#    y 0.000000 3.960300 0.000000 
#    z 0.052880 0.000000 4.142460 
# 
# 
# High freq. dielectric constant tensor:
#      x y z
#    x 1.880400 0.000000 0.003590 
#    y 0.000000 1.859740 0.000000 
#    z 0.003590 0.000000 1.889490 
# 
# From -- ./inp_files/14990.got.cif
#   From: 2010.06.25/outbox.cif.g09.slc.cpg/sg13_8_cif.got.tgz:14990.got - 2010.06.28 04:50:58.
