data_PCOD8121046
_publ_section_title
;
Structure prediction by ZEFSAII (Michael W. Deem and Ramdas Pophale) SiO2 
 PCOD8121046
Probable space group: P 2/C
;
_chemical_formula_sum "Si O2"
_cell_formula_units_Z 22
_cell_length_a 9.022702
_cell_length_b 13.445795
_cell_length_c 8.685074
_cell_angle_alpha 90.000000
_cell_angle_beta 82.714191
_cell_angle_gamma 90.000000
_cell_volume 1045.143311
_symmetry_space_group_name_H-M "P 2/C"
_symmetry_group_IT_number 13
_symmetry_cell_setting 'monoclinic'
loop_
_space_group_symop_operation_xyz
x,y,z
-x,y,1/2-z
-x,-y,-z
x,-y,1/2+z
loop_
_atom_site_type_symbol
_atom_site_label
_atom_site_fract_x
_atom_site_fract_y
_atom_site_fract_z
Si Si1 0.147331 0.782832 0.643104
Si Si2 0.393576 0.190293 0.629165
Si Si3 0.337593 0.077658 0.332814
Si Si4 0.609583 0.360737 0.497618
Si Si5 0.140682 0.117489 0.834690
Si Si6 0.500000 0.501784 0.750000
O O1 0.261980 0.833884 0.745542
O O2 0.234038 0.693987 0.547025
O O3 0.091104 0.855432 0.514376
O O4 0.000000 0.743586 0.750000
O O5 0.500000 0.147975 0.750000
O O6 0.358547 0.106951 0.507803
O O7 0.466466 0.287284 0.539979
O O8 0.235661 0.207184 0.740050
O O9 0.500000 0.054175 0.250000
O O10 0.239074 0.980545 0.333824
O O11 0.618905 0.431483 0.645673
O O12 0.590317 0.428630 0.351918
O O13 0.000000 0.091056 0.750000
#
# Coordination Sequence:
#
# PCOD8121046 Si02
#       6
#     4   4   4   4   4   2
#     4  12  25  44  65  94 136 174 217 268 320 382
#     4  12  22  42  67  92 131 168 225 266 312 381
#     4  12  24  40  66  96 131 179 225 270 307 366
#     4  11  21  43  65 103 121 166 209 265 328 398
#     4  12  26  42  61  94 135 181 223 266 317 366
#     4  10  22  38  74  96 130 150 208 270 328 398
#
# _framework density 21.049745000000001
#
# number of rings (size 3 to 8) (size 9 to 14) (size 15 to 20)
#    0.000    0.364    4.545    4.364    0.000    4.364 
#    0.000    2.727    0.000    4.364    0.000    0.000 
#    0.000    0.000    0.000    0.000    0.000    0.000 
#
# Total GULP energy -272734.393242 kJ/mol
# GULP energy per Si atom -12397.017875 kJ/mol
# Density = 2.100184 g / cm^3
# Si number density = 21.049745 Si / 1000 Ang^3
#
#
#
# Elastic Constant Matrix: (Units=GPa)
#
#
# Indices 1 2 3 4 5 6 
#
# 1 124.3922 61.8782 71.1879 0.0000 -0.7580 0.0000
# 2 61.8782 95.5319 56.2841 0.0000 -2.4223 0.0000
# 3 71.1879 56.2841 166.3430 0.0000 6.0503 0.0000
# 4 0.0000 0.0000 0.0000 64.8370 0.0000 -36.0712
# 5 -0.7580 -2.4223 6.0503 0.0000 43.2940 0.0000
# 6 0.0000 0.0000 0.0000 -36.0712 0.0000 38.0108
#
#
#
# Elastic Compliance Matrix: (Units=1/GPa)
#
#
# Indices 1 2 3 4 5 6 
#
# 1 0.013294 -0.006547 -0.003487 0.000000 0.000354 0.000000
# 2 -0.006547 0.016379 -0.002783 0.000000 0.001191 0.000000
# 3 -0.003487 -0.002783 0.008497 0.000000 -0.001404 0.000000
# 4 0.000000 0.000000 0.000000 0.032673 0.000000 0.031006
# 5 0.000354 0.001191 -0.001404 0.000000 0.023367 0.000000
# 6 0.000000 0.000000 0.000000 0.031006 0.000000 0.055732
#
#
# Mechanical properties :
#
#
# Convention : Reuss Voigt Hill
#
# Bulk Modulus (GPa) = 79.78045 84.99639 82.38842
# Shear Modulus (GPa) = 27.81600 42.35617 35.08609
#
# Velocity S-wave (km/s) = 3.63911 4.49061 4.08710
# Velocity P-wave (km/s) = 7.45927 8.20695 7.84202
#
# Compressibility (1/GPa) = 0.01253440
#
# Stress axis : x y z
#
# Youngs Moduli (GPa) = 75.22471 61.05556 117.69458
#
# Poissons Ratio (x) = 0.39975 0.41035
# Poissons Ratio (y) = 0.49252 0.32756
# Poissons Ratio (z) = 0.26227 0.16993
#
# Static dielectric constant tensor:
#      x y z
#    x 4.247480 0.000000 0.123750 
#    y 0.000000 3.799190 0.000000 
#    z 0.123750 0.000000 4.576820 
# 
# 
# High freq. dielectric constant tensor:
#      x y z
#    x 1.811720 0.000000 -0.002810 
#    y 0.000000 1.808560 0.000000 
#    z -0.002810 0.000000 1.863170 
# 
# From -- ./inp_files/12394.got.cif
#   From: 2010.06.25/outbox.cif.g09.slc.cpg/sg13_7_cif.got.tgz:12394.got - 2010.06.28 04:50:58.
