data_PCOD8121286
_publ_section_title
;
Structure prediction by ZEFSAII (Michael W. Deem and Ramdas Pophale) SiO2 
 PCOD8121286
Probable space group: P 2/C
;
_chemical_formula_sum "Si O2"
_cell_formula_units_Z 22
_cell_length_a 5.203669
_cell_length_b 7.258843
_cell_length_c 25.761254
_cell_angle_alpha 90.000000
_cell_angle_beta 111.779197
_cell_angle_gamma 90.000000
_cell_volume 903.612815
_symmetry_space_group_name_H-M "P 2/C"
_symmetry_group_IT_number 13
_symmetry_cell_setting 'monoclinic'
loop_
_space_group_symop_operation_xyz
x,y,z
-x,y,1/2-z
-x,-y,-z
x,-y,1/2+z
loop_
_atom_site_type_symbol
_atom_site_label
_atom_site_fract_x
_atom_site_fract_y
_atom_site_fract_z
Si Si1 0.886861 0.705482 0.619186
Si Si2 0.500000 0.289640 0.750000
Si Si3 0.732857 0.794799 0.947735
Si Si4 0.136914 0.199729 0.565590
Si Si5 0.388329 0.618060 0.349674
Si Si6 0.002922 0.078915 0.831129
O O1 0.585715 0.737577 0.571389
O O2 0.860079 0.510552 0.647390
O O3 0.126842 0.706489 0.593617
O O4 0.961768 0.858332 0.668243
O O5 0.523325 0.431764 0.702750
O O6 0.755319 0.149905 0.776986
O O7 0.729628 0.016991 0.949522
O O8 0.897691 0.720298 0.010323
O O9 0.356862 0.366782 0.590552
O O10 0.011484 0.141643 0.610561
O O11 0.284194 0.827495 0.332259
#
# Coordination Sequence:
#
# PCOD8121286 Si02
#       6
#     4   2   4   4   4   4
#     4  11  25  41  70  98 142 166 227 266 339 394
#     4  10  24  46  70  90 130 174 238 278 368 384
#     4  10  22  41  64 105 136 186 211 269 322 409
#     4   9  21  38  69  94 142 174 225 258 336 390
#     4  11  23  43  68  95 129 178 218 291 327 410
#     4  10  22  45  66  95 129 178 219 288 327 409
#
# _framework density 24.346709000000001
#
# number of rings (size 3 to 8) (size 9 to 14) (size 15 to 20)
#    0.000    1.818    1.818    0.545    7.636    3.636 
#    0.000    5.455    0.000    0.000    0.000    0.000 
#    0.000    0.000    0.000    0.000    0.000    0.000 
#
# Total GULP energy -272695.171861 kJ/mol
# GULP energy per Si atom -12395.235085 kJ/mol
# Density = 2.429129 g / cm^3
# Si number density = 24.346709 Si / 1000 Ang^3
#
#
#
# Elastic Constant Matrix: (Units=GPa)
#
#
# Indices 1 2 3 4 5 6 
#
# 1 41.5178 -1.5137 -9.0945 0.0000 13.8640 0.0000
# 2 -1.5137 78.7844 11.3705 0.0000 -1.9598 0.0000
# 3 -9.0945 11.3705 106.0342 0.0000 10.5171 0.0000
# 4 0.0000 0.0000 0.0000 16.6529 0.0000 2.6313
# 5 13.8640 -1.9598 10.5171 0.0000 29.3808 0.0000
# 6 0.0000 0.0000 0.0000 2.6313 0.0000 39.5393
#
#
#
# Elastic Compliance Matrix: (Units=1/GPa)
#
#
# Indices 1 2 3 4 5 6 
#
# 1 0.030277 -0.000420 0.004211 0.000000 -0.015822 0.000000
# 2 -0.000420 0.012954 -0.001587 0.000000 0.001630 0.000000
# 3 0.004211 -0.001587 0.010544 0.000000 -0.005867 0.000000
# 4 0.000000 0.000000 0.000000 0.060688 0.000000 -0.004039
# 5 -0.015822 0.001630 -0.005867 0.000000 0.043711 0.000000
# 6 0.000000 0.000000 0.000000 -0.004039 0.000000 0.025560
#
#
# Mechanical properties :
#
#
# Convention : Reuss Voigt Hill
#
# Bulk Modulus (GPa) = 17.18664 25.31789 21.25226
# Shear Modulus (GPa) = 25.16106 32.15287 28.65697
#
# Velocity S-wave (km/s) = 3.21822 3.63798 3.43452
# Velocity P-wave (km/s) = 4.56987 5.29793 4.94731
#
# Compressibility (1/GPa) = 0.05818474
#
# Stress axis : x y z
#
# Youngs Moduli (GPa) = 33.02861 77.19403 94.83850
#
# Poissons Ratio (x) = 0.03240 -0.39938
# Poissons Ratio (y) = 0.01386 0.15049
# Poissons Ratio (z) = -0.13909 0.12249
#
# Static dielectric constant tensor:
#      x y z
#    x 4.275340 0.000000 0.014710 
#    y 0.000000 4.538410 0.000000 
#    z 0.014710 0.000000 4.529670 
# 
# 
# High freq. dielectric constant tensor:
#      x y z
#    x 1.968340 0.000000 0.004860 
#    y 0.000000 1.954640 0.000000 
#    z 0.004860 0.000000 1.967370 
# 
# From -- ./inp_files/90185.got.cif
#   From: 2010.06.25/outbox.cif.g09.slc.cpg/sg13_46_cif.got.tgz:90185.got - 2010.06.28 04:50:58.
