data_PCOD8121162
_publ_section_title
;
Structure prediction by ZEFSAII (Michael W. Deem and Ramdas Pophale) SiO2 
 PCOD8121162
Probable space group: P 2/C
;
_chemical_formula_sum "Si O2"
_cell_formula_units_Z 20
_cell_length_a 17.864181
_cell_length_b 7.694348
_cell_length_c 10.330118
_cell_angle_alpha 90.000000
_cell_angle_beta 46.076286
_cell_angle_gamma 90.000000
_cell_volume 1022.708727
_symmetry_space_group_name_H-M "P 2/C"
_symmetry_group_IT_number 13
_symmetry_cell_setting 'monoclinic'
loop_
_space_group_symop_operation_xyz
x,y,z
-x,y,1/2-z
-x,-y,-z
x,-y,1/2+z
loop_
_atom_site_type_symbol
_atom_site_label
_atom_site_fract_x
_atom_site_fract_y
_atom_site_fract_z
Si Si1 0.249929 0.696391 0.807920
Si Si2 0.752720 0.306476 0.673443
Si Si3 0.297265 0.143383 0.515128
Si Si4 0.382656 0.781791 0.406537
Si Si5 0.879299 0.987491 0.119355
O O1 0.204134 0.501601 0.860388
O O2 0.299872 0.734230 0.887684
O O3 0.341303 0.718144 0.594398
O O4 0.155500 0.827443 0.895916
O O5 0.687441 0.300245 0.621333
O O6 0.849503 0.169330 0.554545
O O7 0.678338 0.257041 0.885223
O O8 0.381735 0.991351 0.398328
O O9 0.183275 0.051538 0.671931
O O10 0.500000 0.715584 0.250000
O O11 0.000000 0.000000 0.000000
#
# Coordination Sequence:
#
# PCOD8121162 Si02
#       5
#     4   4   4   4   4
#     4  11  21  40  63  89 128 155 206 258 296 365
#     4  10  22  40  62  89 125 160 201 254 305 358
#     4   9  20  40  60  89 119 163 198 254 300 361
#     4  11  22  40  64  88 121 166 204 250 314 363
#     4   9  21  40  65  89 122 162 202 241 313 362
#
# _framework density 19.555910999999998
#
# number of rings (size 3 to 8) (size 9 to 14) (size 15 to 20)
#    1.200    0.800    2.000    1.200    0.000    5.600 
#    0.000    2.000    8.800    0.000    0.000    0.000 
#    0.000    0.000    0.000    0.000    0.000    0.000 
#
# Total GULP energy -247861.404088 kJ/mol
# GULP energy per Si atom -12393.070204 kJ/mol
# Density = 1.951140 g / cm^3
# Si number density = 19.555911 Si / 1000 Ang^3
#
#
#
# Elastic Constant Matrix: (Units=GPa)
#
#
# Indices 1 2 3 4 5 6 
#
# 1 77.6845 29.0213 35.4934 0.0000 -1.1386 0.0000
# 2 29.0213 161.4933 13.4516 0.0000 2.0757 0.0000
# 3 35.4934 13.4516 75.3664 0.0000 16.6204 0.0000
# 4 0.0000 0.0000 0.0000 18.7812 0.0000 9.8249
# 5 -1.1386 2.0757 16.6204 0.0000 40.4521 0.0000
# 6 0.0000 0.0000 0.0000 9.8249 0.0000 19.7982
#
#
#
# Elastic Compliance Matrix: (Units=1/GPa)
#
#
# Indices 1 2 3 4 5 6 
#
# 1 0.017982 -0.002540 -0.008968 0.000000 0.004321 0.000000
# 2 -0.002540 0.006645 0.000111 0.000000 -0.000458 0.000000
# 3 -0.008968 0.000111 0.019276 0.000000 -0.008178 0.000000
# 4 0.000000 0.000000 0.000000 0.071914 0.000000 -0.035687
# 5 0.004321 -0.000458 -0.008178 0.000000 0.028226 0.000000
# 6 0.000000 0.000000 0.000000 -0.035687 0.000000 0.068220
#
#
# Mechanical properties :
#
#
# Convention : Reuss Voigt Hill
#
# Bulk Modulus (GPa) = 47.37314 52.27522 49.82418
# Shear Modulus (GPa) = 20.65321 31.57816 26.11568
#
# Velocity S-wave (km/s) = 3.25331 4.02277 3.65833
# Velocity P-wave (km/s) = 6.19589 6.95457 6.58617
#
# Compressibility (1/GPa) = 0.02110901
#
# Stress axis : x y z
#
# Youngs Moduli (GPa) = 55.61004 150.48239 51.87886
#
# Poissons Ratio (x) = 0.38223 0.46527
# Poissons Ratio (y) = 0.14125 -0.00577
# Poissons Ratio (z) = 0.49873 -0.01673
#
# Static dielectric constant tensor:
#      x y z
#    x 3.195470 0.000000 0.262390 
#    y 0.000000 3.659310 0.000000 
#    z 0.262390 0.000000 3.449280 
# 
# 
# High freq. dielectric constant tensor:
#      x y z
#    x 1.737170 0.000000 0.026790 
#    y 0.000000 1.770950 0.000000 
#    z 0.026790 0.000000 1.751640 
# 
# From -- ./inp_files/21043.got.cif
#   From: 2010.06.25/outbox.cif.g09.slc.cpg/sg13_11_cif.got.tgz:21043.got - 2010.06.28 04:50:58.
