data_PCOD8121621
_publ_section_title
;
Structure prediction by ZEFSAII (Michael W. Deem and Ramdas Pophale) SiO2 
 PCOD8121621
Probable space group: P 2/C
;
_chemical_formula_sum "Si O2"
_cell_formula_units_Z 18
_cell_length_a 4.930480
_cell_length_b 15.715718
_cell_length_c 10.632335
_cell_angle_alpha 90.000000
_cell_angle_beta 103.825211
_cell_angle_gamma 90.000000
_cell_volume 799.989677
_symmetry_space_group_name_H-M "P 2/C"
_symmetry_group_IT_number 13
_symmetry_cell_setting 'monoclinic'
loop_
_space_group_symop_operation_xyz
x,y,z
-x,y,1/2-z
-x,-y,-z
x,-y,1/2+z
loop_
_atom_site_type_symbol
_atom_site_label
_atom_site_fract_x
_atom_site_fract_y
_atom_site_fract_z
Si Si1 0.968638 0.173289 0.102013
Si Si2 0.000000 0.823452 0.250000
Si Si3 0.953936 0.316884 0.552770
Si Si4 0.602687 0.095220 0.524592
Si Si5 0.532006 0.427986 0.898593
O O1 0.000000 0.154487 0.250000
O O2 0.085582 0.269601 0.085708
O O3 0.646121 0.161862 0.026438
O O4 0.157891 0.104157 0.053181
O O5 0.906463 0.760231 0.351997
O O6 0.742491 0.883073 0.176091
O O7 0.152061 0.396993 0.556989
O O8 0.674895 0.350246 0.590694
O O9 0.500000 0.000000 0.500000
O O10 0.500000 0.460692 0.750000
O O11 0.500000 0.500000 0.000000
#
# Coordination Sequence:
#
# PCOD8121621 Si02
#       5
#     4   2   4   4   4
#     4  11  25  45  68 101 140 186 235 293 364 419
#     4  10  22  44  74 100 134 192 244 278 352 418
#     4  11  23  43  72  96 136 187 235 283 336 442
#     4  11  25  43  70 101 142 185 238 301 357 418
#     4  12  25  43  69 105 143 179 231 296 361 422
#
# _framework density 22.500288000000001
#
# number of rings (size 3 to 8) (size 9 to 14) (size 15 to 20)
#    0.000    0.889    2.222    4.667    1.556    4.444 
#    8.000    0.000    0.000    0.000    0.000    0.000 
#    0.000    0.000    0.000    0.000    0.000    0.000 
#
# Total GULP energy -223091.850083 kJ/mol
# GULP energy per Si atom -12393.991671 kJ/mol
# Density = 2.244908 g / cm^3
# Si number density = 22.500288 Si / 1000 Ang^3
#
#
#
# Elastic Constant Matrix: (Units=GPa)
#
#
# Indices 1 2 3 4 5 6 
#
# 1 89.5338 7.0202 40.6628 0.0000 9.6043 0.0000
# 2 7.0202 101.8689 47.0980 0.0000 5.5089 0.0000
# 3 40.6628 47.0980 119.9231 0.0000 4.0897 0.0000
# 4 0.0000 0.0000 0.0000 37.3830 0.0000 2.3879
# 5 9.6043 5.5089 4.0897 0.0000 32.4456 0.0000
# 6 0.0000 0.0000 0.0000 2.3879 0.0000 29.2308
#
#
#
# Elastic Compliance Matrix: (Units=1/GPa)
#
#
# Indices 1 2 3 4 5 6 
#
# 1 0.013800 0.001655 -0.005203 0.000000 -0.003710 0.000000
# 2 0.001655 0.012261 -0.005312 0.000000 -0.001902 0.000000
# 3 -0.005203 -0.005312 0.012158 0.000000 0.000909 0.000000
# 4 0.000000 0.000000 0.000000 0.026890 0.000000 -0.002197
# 5 -0.003710 -0.001902 0.000909 0.000000 0.032127 0.000000
# 6 0.000000 0.000000 0.000000 -0.002197 0.000000 0.034390
#
#
# Mechanical properties :
#
#
# Convention : Reuss Voigt Hill
#
# Bulk Modulus (GPa) = 48.77967 55.65421 52.21694
# Shear Modulus (GPa) = 32.01451 34.24818 33.13135
#
# Velocity S-wave (km/s) = 3.77616 3.90567 3.84146
# Velocity P-wave (km/s) = 6.38272 6.71771 6.55236
#
# Compressibility (1/GPa) = 0.02050034
#
# Stress axis : x y z
#
# Youngs Moduli (GPa) = 72.46349 81.55832 82.25138
#
# Poissons Ratio (x) = -0.13498 0.42793
# Poissons Ratio (y) = -0.11993 0.43689
# Poissons Ratio (z) = 0.37701 0.43321
#
# Static dielectric constant tensor:
#      x y z
#    x 4.279380 0.000000 -0.154420 
#    y 0.000000 3.903620 0.000000 
#    z -0.154420 0.000000 4.346480 
# 
# 
# High freq. dielectric constant tensor:
#      x y z
#    x 1.903950 0.000000 -0.009220 
#    y 0.000000 1.881060 0.000000 
#    z -0.009220 0.000000 1.884650 
# 
# From -- ./inp_files/26424.got.cif
#   From: 2010.06.25/outbox.cif.g09.slc.cpg/sg13_14_cif.got.tgz:26424.got - 2010.06.28 04:50:58.
