data_PCOD8121491
_publ_section_title
;
Structure prediction by ZEFSAII (Michael W. Deem and Ramdas Pophale) SiO2 
 PCOD8121491
Probable space group: P 2/C
;
_chemical_formula_sum "Si O2"
_cell_formula_units_Z 16
_cell_length_a 9.553596
_cell_length_b 12.968022
_cell_length_c 9.024233
_cell_angle_alpha 90.000000
_cell_angle_beta 41.911189
_cell_angle_gamma 90.000000
_cell_volume 746.814948
_symmetry_space_group_name_H-M "P 2/C"
_symmetry_group_IT_number 13
_symmetry_cell_setting 'monoclinic'
loop_
_space_group_symop_operation_xyz
x,y,z
-x,y,1/2-z
-x,-y,-z
x,-y,1/2+z
loop_
_atom_site_type_symbol
_atom_site_label
_atom_site_fract_x
_atom_site_fract_y
_atom_site_fract_z
Si Si1 0.451755 0.154103 0.952965
Si Si2 0.615249 0.629220 0.888117
Si Si3 0.238347 0.452162 0.543477
Si Si4 0.155070 0.033305 0.749338
O O1 0.500000 0.192212 0.750000
O O2 0.673123 0.118631 0.846574
O O3 0.350215 0.248322 0.125475
O O4 0.279441 0.064712 0.086504
O O5 0.710852 0.572687 0.958363
O O6 0.709019 0.578124 0.665817
O O7 0.365196 0.612732 0.067917
O O8 0.000000 0.424576 0.750000
O O9 0.000000 0.081704 0.750000
O O10 0.000000 0.000000 0.000000
#
# Coordination Sequence:
#
# PCOD8121491 Si02
#       4
#     4   4   4   4
#     4  11  25  43  69 100 135 174 219 275 331 398
#     4  10  24  40  67  96 133 171 224 264 327 386
#     4  10  22  43  63  95 130 179 214 274 319 383
#     4  11  24  46  70  98 132 171 219 275 334 397
#
# _framework density 21.424316999999999
#
# number of rings (size 3 to 8) (size 9 to 14) (size 15 to 20)
#    0.000    1.500    2.500    0.750    7.000    8.000 
#    0.000    0.000    0.000    0.000    0.000    0.000 
#    0.000    0.000    0.000    0.000    0.000    0.000 
#
# Total GULP energy -198292.941856 kJ/mol
# GULP energy per Si atom -12393.308866 kJ/mol
# Density = 2.137555 g / cm^3
# Si number density = 21.424317 Si / 1000 Ang^3
#
#
#
# Elastic Constant Matrix: (Units=GPa)
#
#
# Indices 1 2 3 4 5 6 
#
# 1 132.0317 36.2849 57.8558 0.0000 -3.3292 0.0000
# 2 36.2849 116.2392 33.7136 0.0000 14.4627 0.0000
# 3 57.8558 33.7136 114.1419 0.0000 2.9464 0.0000
# 4 0.0000 0.0000 0.0000 17.7341 0.0000 11.3427
# 5 -3.3292 14.4627 2.9464 0.0000 41.7998 0.0000
# 6 0.0000 0.0000 0.0000 11.3427 0.0000 19.0396
#
#
#
# Elastic Compliance Matrix: (Units=1/GPa)
#
#
# Indices 1 2 3 4 5 6 
#
# 1 0.010213 -0.002082 -0.004610 0.000000 0.001859 0.000000
# 2 -0.002082 0.010243 -0.001877 0.000000 -0.003577 0.000000
# 3 -0.004610 -0.001877 0.011666 0.000000 -0.000540 0.000000
# 4 0.000000 0.000000 0.000000 0.091101 0.000000 -0.054273
# 5 0.001859 -0.003577 -0.000540 0.000000 0.025347 0.000000
# 6 0.000000 0.000000 0.000000 -0.054273 0.000000 0.084855
#
#
# Mechanical properties :
#
#
# Convention : Reuss Voigt Hill
#
# Bulk Modulus (GPa) = 66.74376 68.68013 67.71195
# Shear Modulus (GPa) = 19.56497 31.35196 25.45846
#
# Velocity S-wave (km/s) = 3.02522 3.82957 3.45091
# Velocity P-wave (km/s) = 6.58965 7.18894 6.89581
#
# Compressibility (1/GPa) = 0.01498267
#
# Stress axis : x y z
#
# Youngs Moduli (GPa) = 97.91426 97.63125 85.71902
#
# Poissons Ratio (x) = 0.20331 0.39513
# Poissons Ratio (y) = 0.20389 0.16093
# Poissons Ratio (z) = 0.45135 0.18330
#
# Static dielectric constant tensor:
#      x y z
#    x 6.109760 0.000000 0.032260 
#    y 0.000000 3.677400 0.000000 
#    z 0.032260 0.000000 3.938880 
# 
# 
# High freq. dielectric constant tensor:
#      x y z
#    x 1.857250 0.000000 -0.003150 
#    y 0.000000 1.825750 0.000000 
#    z -0.003150 0.000000 1.844500 
# 
# From -- ./inp_files/11494.got.cif
#   From: 2010.06.25/outbox.cif.g09.slc.cpg/sg13_6_cif.got.tgz:11494.got - 2010.06.28 04:50:58.
