data_PCOD8121431
_publ_section_title
;
Structure prediction by ZEFSAII (Michael W. Deem and Ramdas Pophale) SiO2 
 PCOD8121431
Probable space group: P 2/C
;
_chemical_formula_sum "Si O2"
_cell_formula_units_Z 30
_cell_length_a 20.405189
_cell_length_b 5.891154
_cell_length_c 23.215275
_cell_angle_alpha 90.000000
_cell_angle_beta 29.239216
_cell_angle_gamma 90.000000
_cell_volume 1363.142257
_symmetry_space_group_name_H-M "P 2/C"
_symmetry_group_IT_number 13
_symmetry_cell_setting 'monoclinic'
loop_
_space_group_symop_operation_xyz
x,y,z
-x,y,1/2-z
-x,-y,-z
x,-y,1/2+z
loop_
_atom_site_type_symbol
_atom_site_label
_atom_site_fract_x
_atom_site_fract_y
_atom_site_fract_z
Si Si1 0.198162 0.190035 0.042502
Si Si2 0.572776 0.755571 0.442865
Si Si3 0.897279 0.305173 0.092511
Si Si4 0.750967 0.203349 0.917792
Si Si5 0.680377 0.628103 0.245857
Si Si6 0.566988 0.481678 0.139685
Si Si7 0.000000 0.514758 0.250000
Si Si8 0.119748 0.072514 0.981661
O O1 0.078613 0.369507 0.142068
O O2 0.213841 0.053253 0.090452
O O3 0.340458 0.301815 0.917544
O O4 0.152377 0.036672 0.023705
O O5 0.500000 0.500000 0.500000
O O6 0.675939 0.767705 0.415787
O O7 0.646898 0.787686 0.325129
O O8 0.500000 0.000000 0.500000
O O9 0.754164 0.411234 0.218979
O O10 0.866568 0.170733 0.057472
O O11 0.000000 0.500000 0.000000
O O12 0.964348 0.151859 0.091124
O O13 0.890343 0.333913 0.801354
O O14 0.660161 0.289785 0.040496
O O15 0.545147 0.547852 0.319901
O O16 0.775892 0.751707 0.126886
O O17 0.500000 0.390294 0.250000
#
# Coordination Sequence:
#
# PCOD8121431 Si02
#       8
#     4   4   4   4   4   4   2   4
#     4  11  24  44  70  98 140 182 241 301 371 443
#     4  12  28  50  75 105 150 192 249 304 361 452
#     4   9  22  41  62  99 132 174 229 289 360 434
#     4  11  26  47  71 103 140 194 243 301 372 442
#     4  11  23  43  70 100 137 187 234 295 371 433
#     4  11  23  42  68 105 141 177 230 299 364 442
#     4  10  26  48  68  98 140 188 246 300 370 440
#     4  10  22  42  66  99 136 179 236 301 366 438
#
# _framework density 22.007975999999999
#
# number of rings (size 3 to 8) (size 9 to 14) (size 15 to 20)
#    0.000    1.333    2.667    1.200    7.467    2.667 
#   12.000    0.000    0.000    0.000    0.000    0.000 
#    0.000    0.000    0.000    0.000    0.000    0.000 
#
# Total GULP energy -371749.206884 kJ/mol
# GULP energy per Si atom -12391.640229 kJ/mol
# Density = 2.195788 g / cm^3
# Si number density = 22.007976 Si / 1000 Ang^3
#
#
#
# Elastic Constant Matrix: (Units=GPa)
#
#
# Indices 1 2 3 4 5 6 
#
# 1 145.4698 25.1165 49.8709 0.0000 -14.4838 0.0000
# 2 25.1165 94.1869 29.8454 0.0000 -18.4633 0.0000
# 3 49.8709 29.8454 105.7999 0.0000 -17.8171 0.0000
# 4 0.0000 0.0000 0.0000 29.5441 0.0000 -6.3322
# 5 -14.4838 -18.4633 -17.8171 0.0000 34.7360 0.0000
# 6 0.0000 0.0000 0.0000 -6.3322 0.0000 32.3266
#
#
#
# Elastic Compliance Matrix: (Units=1/GPa)
#
#
# Indices 1 2 3 4 5 6 
#
# 1 0.008340 -0.000882 -0.003476 0.000000 0.001226 0.000000
# 2 -0.000882 0.012581 -0.002265 0.000000 0.005158 0.000000
# 3 -0.003476 -0.002265 0.012349 0.000000 0.003681 0.000000
# 4 0.000000 0.000000 0.000000 0.035331 0.000000 0.006921
# 5 0.001226 0.005158 0.003681 0.000000 0.033929 0.000000
# 6 0.000000 0.000000 0.000000 0.006921 0.000000 0.032290
#
#
# Mechanical properties :
#
#
# Convention : Reuss Voigt Hill
#
# Bulk Modulus (GPa) = 49.93859 61.68024 55.80941
# Shear Modulus (GPa) = 32.31193 35.36292 33.83743
#
# Velocity S-wave (km/s) = 3.83586 4.01287 3.92536
# Velocity P-wave (km/s) = 6.50836 7.03974 6.77926
#
# Compressibility (1/GPa) = 0.02002460
#
# Stress axis : x y z
#
# Youngs Moduli (GPa) = 119.89895 79.48412 80.97792
#
# Poissons Ratio (x) = 0.07013 0.28149
# Poissons Ratio (y) = 0.10579 0.18338
# Poissons Ratio (z) = 0.41678 0.17999
#
# Static dielectric constant tensor:
#      x y z
#    x 4.046930 0.000000 -0.325470 
#    y 0.000000 3.429600 0.000000 
#    z -0.325470 0.000000 4.158910 
# 
# 
# High freq. dielectric constant tensor:
#      x y z
#    x 1.876250 0.000000 -0.016740 
#    y 0.000000 1.869000 0.000000 
#    z -0.016740 0.000000 1.866650 
# 
# From -- ./inp_files/88346.got.cif
#   From: 2010.06.25/outbox.cif.g09.slc.cpg/sg13_45_cif.got.tgz:88346.got - 2010.06.28 04:50:58.
