data_PCOD8121856
_publ_section_title
;
Structure prediction by ZEFSAII (Michael W. Deem and Ramdas Pophale) SiO2 
 PCOD8121856
Probable space group: P 2/C
;
_chemical_formula_sum "Si O2"
_cell_formula_units_Z 18
_cell_length_a 9.201732
_cell_length_b 10.865435
_cell_length_c 8.860076
_cell_angle_alpha 90.000000
_cell_angle_beta 66.758307
_cell_angle_gamma 90.000000
_cell_volume 813.950556
_symmetry_space_group_name_H-M "P 2/C"
_symmetry_group_IT_number 13
_symmetry_cell_setting 'monoclinic'
loop_
_space_group_symop_operation_xyz
x,y,z
-x,y,1/2-z
-x,-y,-z
x,-y,1/2+z
loop_
_atom_site_type_symbol
_atom_site_label
_atom_site_fract_x
_atom_site_fract_y
_atom_site_fract_z
Si Si1 0.500000 0.289220 0.250000
Si Si2 0.134500 0.654154 0.482570
Si Si3 0.834129 0.931489 0.045250
Si Si4 0.797800 0.416949 0.212314
Si Si5 0.632871 0.068909 0.357635
O O1 0.651404 0.376714 0.165334
O O2 0.555634 0.202790 0.365014
O O3 0.171416 0.789291 0.400488
O O4 0.176907 0.562277 0.327903
O O5 0.226069 0.611716 0.599024
O O6 0.948307 0.657367 0.591330
O O7 0.685900 0.003348 0.181023
O O8 0.797047 0.925941 0.882453
O O9 0.000000 0.000000 0.000000
O O10 0.500000 0.000000 0.500000
#
# Coordination Sequence:
#
# PCOD8121856 Si02
#       5
#     2   4   4   4   4
#     4  12  22  42  68  94 142 182 222 288 358 406
#     4  10  23  45  66  97 134 181 236 290 337 422
#     4  12  25  45  72 102 135 185 236 287 348 415
#     4  10  23  43  68  93 137 180 231 286 353 404
#     4  12  25  44  65 103 141 179 224 291 351 415
#
# _framework density 22.114367000000001
#
# number of rings (size 3 to 8) (size 9 to 14) (size 15 to 20)
#    0.000    0.889    4.444    2.000    3.111    2.667 
#   16.000    0.000    0.000    0.000    0.000    0.000 
#    0.000    0.000    0.000    0.000    0.000    0.000 
#
# Total GULP energy -223037.273190 kJ/mol
# GULP energy per Si atom -12390.959622 kJ/mol
# Density = 2.206403 g / cm^3
# Si number density = 22.114367 Si / 1000 Ang^3
#
#
#
# Elastic Constant Matrix: (Units=GPa)
#
#
# Indices 1 2 3 4 5 6 
#
# 1 163.0341 35.0243 27.0224 0.0000 9.2430 0.0000
# 2 35.0243 120.1007 23.9970 0.0000 -4.4977 0.0000
# 3 27.0224 23.9970 59.5452 0.0000 -4.7266 0.0000
# 4 0.0000 0.0000 0.0000 15.1076 0.0000 5.4326
# 5 9.2430 -4.4977 -4.7266 0.0000 29.0002 0.0000
# 6 0.0000 0.0000 0.0000 5.4326 0.0000 44.9399
#
#
#
# Elastic Compliance Matrix: (Units=1/GPa)
#
#
# Indices 1 2 3 4 5 6 
#
# 1 0.007118 -0.001626 -0.002812 0.000000 -0.002979 0.000000
# 2 -0.001626 0.009446 -0.002950 0.000000 0.001502 0.000000
# 3 -0.002812 -0.002950 0.019546 0.000000 0.003624 0.000000
# 4 0.000000 0.000000 0.000000 0.069200 0.000000 -0.008365
# 5 -0.002979 0.001502 0.003624 0.000000 0.036256 0.000000
# 6 0.000000 0.000000 0.000000 -0.008365 0.000000 0.023263
#
#
# Mechanical properties :
#
#
# Convention : Reuss Voigt Hill
#
# Bulk Modulus (GPa) = 46.86828 57.19639 52.03234
# Shear Modulus (GPa) = 26.77879 34.91862 30.84871
#
# Velocity S-wave (km/s) = 3.48361 3.97798 3.73897
# Velocity P-wave (km/s) = 6.11721 6.85705 6.49767
#
# Compressibility (1/GPa) = 0.02133639
#
# Stress axis : x y z
#
# Youngs Moduli (GPa) = 140.49328 105.86433 51.16045
#
# Poissons Ratio (x) = 0.17208 0.14384
# Poissons Ratio (y) = 0.22837 0.15092
# Poissons Ratio (z) = 0.39500 0.31229
#
# Static dielectric constant tensor:
#      x y z
#    x 4.503990 0.000000 0.297800 
#    y 0.000000 4.144690 0.000000 
#    z 0.297800 0.000000 3.783690 
# 
# 
# High freq. dielectric constant tensor:
#      x y z
#    x 1.894660 0.000000 0.005030 
#    y 0.000000 1.880220 0.000000 
#    z 0.005030 0.000000 1.838550 
# 
# From -- ./inp_files/11595.got.cif
#   From: 2010.06.25/outbox.cif.g09.slc.cpg/sg13_6_cif.got.tgz:11595.got - 2010.06.28 04:50:58.
