data_PCOD8121923
_publ_section_title
;
Structure prediction by ZEFSAII (Michael W. Deem and Ramdas Pophale) SiO2 
 PCOD8121923
Probable space group: P 2/C
;
_chemical_formula_sum "Si O2"
_cell_formula_units_Z 22
_cell_length_a 28.730651
_cell_length_b 8.431567
_cell_length_c 10.278446
_cell_angle_alpha 90.000000
_cell_angle_beta 155.834651
_cell_angle_gamma 90.000000
_cell_volume 1019.292074
_symmetry_space_group_name_H-M "P 2/C"
_symmetry_group_IT_number 13
_symmetry_cell_setting 'monoclinic'
loop_
_space_group_symop_operation_xyz
x,y,z
-x,y,1/2-z
-x,-y,-z
x,-y,1/2+z
loop_
_atom_site_type_symbol
_atom_site_label
_atom_site_fract_x
_atom_site_fract_y
_atom_site_fract_z
Si Si1 0.111609 0.413635 0.601203
Si Si2 0.764661 0.437157 0.850871
Si Si3 0.116340 0.082541 0.748981
Si Si4 0.700484 0.841365 0.349340
Si Si5 0.500000 0.045599 0.750000
Si Si6 0.311988 0.239287 0.402770
O O1 0.202234 0.417562 0.715355
O O2 0.089000 0.232147 0.587339
O O3 0.137272 0.527729 0.790560
O O4 0.000000 0.485473 0.250000
O O5 0.702975 0.273708 0.730516
O O6 0.682702 0.589917 0.653904
O O7 0.198713 0.141024 0.075172
O O8 0.000000 0.000000 0.500000
O O9 0.187957 0.950934 0.853916
O O10 0.695761 0.731696 0.463783
O O11 0.585931 0.942844 0.054446
O O12 0.427998 0.151040 0.665549
#
# Coordination Sequence:
#
# PCOD8121923 Si02
#       6
#     4   4   4   4   2   4
#     4  11  23  40  65  96 139 180 225 266 329 398
#     4  11  23  44  64  98 134 177 218 279 333 401
#     4  10  24  40  66  99 134 177 223 273 330 400
#     4  11  23  43  69  95 133 170 227 273 340 392
#     4  10  24  44  70  98 124 172 222 286 334 396
#     4  10  23  45  65  96 135 171 224 276 334 400
#
# _framework density 21.583608000000002
#
# number of rings (size 3 to 8) (size 9 to 14) (size 15 to 20)
#    0.000    1.455    1.818    2.182    7.636    2.182 
#    3.273    1.818    0.000    0.000    0.000    0.000 
#    0.000    0.000    0.000    0.000    0.000    0.000 
#
# Total GULP energy -272698.867508 kJ/mol
# GULP energy per Si atom -12395.403069 kJ/mol
# Density = 2.153448 g / cm^3
# Si number density = 21.583608 Si / 1000 Ang^3
#
#
#
# Elastic Constant Matrix: (Units=GPa)
#
#
# Indices 1 2 3 4 5 6 
#
# 1 94.5620 18.9110 21.5394 0.0000 -1.5473 0.0000
# 2 18.9110 98.8389 27.7979 0.0000 11.1532 0.0000
# 3 21.5394 27.7979 108.2242 0.0000 19.8691 0.0000
# 4 0.0000 0.0000 0.0000 18.8433 0.0000 2.9640
# 5 -1.5473 11.1532 19.8691 0.0000 23.8996 0.0000
# 6 0.0000 0.0000 0.0000 2.9640 0.0000 37.5978
#
#
#
# Elastic Compliance Matrix: (Units=1/GPa)
#
#
# Indices 1 2 3 4 5 6 
#
# 1 0.011591 -0.001937 -0.002494 0.000000 0.003728 0.000000
# 2 -0.001937 0.011448 -0.001831 0.000000 -0.003946 0.000000
# 3 -0.002494 -0.001831 0.011895 0.000000 -0.009196 0.000000
# 4 0.000000 0.000000 0.000000 0.053736 0.000000 -0.004236
# 5 0.003728 -0.003946 -0.009196 0.000000 0.051570 0.000000
# 6 0.000000 0.000000 0.000000 -0.004236 0.000000 0.026931
#
#
# Mechanical properties :
#
#
# Convention : Reuss Voigt Hill
#
# Bulk Modulus (GPa) = 44.61940 48.68018 46.64979
# Shear Modulus (GPa) = 26.71443 31.62660 29.17052
#
# Velocity S-wave (km/s) = 3.52194 3.83209 3.68028
# Velocity P-wave (km/s) = 6.10381 6.49485 6.30236
#
# Compressibility (1/GPa) = 0.02241177
#
# Stress axis : x y z
#
# Youngs Moduli (GPa) = 86.27017 87.34987 84.06948
#
# Poissons Ratio (x) = 0.16920 0.20965
# Poissons Ratio (y) = 0.16711 0.15389
# Poissons Ratio (z) = 0.21514 0.15990
#
# Static dielectric constant tensor:
#      x y z
#    x 3.870490 0.000000 -0.017750 
#    y 0.000000 4.014480 0.000000 
#    z -0.017750 0.000000 3.828520 
# 
# 
# High freq. dielectric constant tensor:
#      x y z
#    x 1.851680 0.000000 -0.005460 
#    y 0.000000 1.859210 0.000000 
#    z -0.005460 0.000000 1.834980 
# 
# From -- ./inp_files/42734.got.cif
#   From: 2010.06.25/outbox.cif.g09.slc.cpg/sg13_22_cif.got.tgz:42734.got - 2010.06.28 04:50:58.
