data_PCOD8121332
_publ_section_title
;
Structure prediction by ZEFSAII (Michael W. Deem and Ramdas Pophale) SiO2 
 PCOD8121332
Probable space group: P 2/C
;
_chemical_formula_sum "Si O2"
_cell_formula_units_Z 28
_cell_length_a 18.643694
_cell_length_b 6.087316
_cell_length_c 15.843082
_cell_angle_alpha 90.000000
_cell_angle_beta 133.368201
_cell_angle_gamma 90.000000
_cell_volume 1307.090155
_symmetry_space_group_name_H-M "P 2/C"
_symmetry_group_IT_number 13
_symmetry_cell_setting 'monoclinic'
loop_
_space_group_symop_operation_xyz
x,y,z
-x,y,1/2-z
-x,-y,-z
x,-y,1/2+z
loop_
_atom_site_type_symbol
_atom_site_label
_atom_site_fract_x
_atom_site_fract_y
_atom_site_fract_z
Si Si1 0.425999 0.814332 0.469548
Si Si2 0.051512 0.026566 0.950619
Si Si3 0.500000 0.274517 0.750000
Si Si4 0.245990 0.727183 0.607122
Si Si5 0.677869 0.034941 0.973957
Si Si6 0.000000 0.679023 0.250000
Si Si7 0.588060 0.476720 0.177721
Si Si8 0.152803 0.649165 0.936954
O O1 0.379907 0.678789 0.355397
O O2 0.485241 0.635712 0.571996
O O3 0.500000 0.000000 0.500000
O O4 0.333824 0.918507 0.444894
O O5 0.996316 0.176373 0.834071
O O6 0.071422 0.794703 0.920697
O O7 0.153766 0.132710 0.062615
O O8 0.000000 0.000000 0.000000
O O9 0.569419 0.133311 0.867923
O O10 0.423909 0.423817 0.739265
O O11 0.323039 0.700818 0.746794
O O12 0.213975 0.482377 0.555890
O O13 0.300386 0.847526 0.575202
O O14 0.769460 0.204740 0.053795
O O15 0.097158 0.524031 0.330464
#
# Coordination Sequence:
#
# PCOD8121332 Si02
#       8
#     4   4   2   4   4   2   4   4
#     4  11  24  40  57  90 135 173 216 274 322 378
#     4  10  23  45  73 100 134 174 221 281 346 409
#     4  12  20  38  72  84 128 182 216 270 310 386
#     4  10  22  41  66  96 127 167 225 266 320 404
#     4  11  22  39  66  94 127 175 220 264 326 388
#     4  10  22  44  72 102 134 174 216 282 344 412
#     4  11  23  39  61  92 130 176 222 265 324 377
#     4  10  22  43  69  96 132 169 217 275 334 402
#
# _framework density 21.42163
#
# number of rings (size 3 to 8) (size 9 to 14) (size 15 to 20)
#    0.000    1.429    2.857    2.143    0.000    2.286 
#    0.000   18.571    0.000    0.000    0.000    0.000 
#    0.000    0.000    0.000    0.000    0.000    0.000 
#
# Total GULP energy -347093.134001 kJ/mol
# GULP energy per Si atom -12396.183357 kJ/mol
# Density = 2.137287 g / cm^3
# Si number density = 21.421630 Si / 1000 Ang^3
#
#
#
# Elastic Constant Matrix: (Units=GPa)
#
#
# Indices 1 2 3 4 5 6 
#
# 1 125.0684 42.4622 44.5838 0.0000 -15.0665 0.0000
# 2 42.4622 105.0803 31.4573 0.0000 -8.6217 0.0000
# 3 44.5838 31.4573 93.4915 0.0000 -4.3167 0.0000
# 4 0.0000 0.0000 0.0000 34.6903 0.0000 6.6530
# 5 -15.0665 -8.6217 -4.3167 0.0000 29.7457 0.0000
# 6 0.0000 0.0000 0.0000 6.6530 0.0000 27.0111
#
#
#
# Elastic Compliance Matrix: (Units=1/GPa)
#
#
# Indices 1 2 3 4 5 6 
#
# 1 0.010904 -0.002857 -0.004049 0.000000 0.004107 0.000000
# 2 -0.002857 0.011530 -0.002446 0.000000 0.001540 0.000000
# 3 -0.004049 -0.002446 0.013412 0.000000 -0.000813 0.000000
# 4 0.000000 0.000000 0.000000 0.030256 0.000000 -0.007452
# 5 0.004107 0.001540 -0.000813 0.000000 0.036027 0.000000
# 6 0.000000 0.000000 0.000000 -0.007452 0.000000 0.038857
#
#
# Mechanical properties :
#
#
# Convention : Reuss Voigt Hill
#
# Bulk Modulus (GPa) = 58.33523 62.29410 60.31466
# Shear Modulus (GPa) = 30.22922 31.96521 31.09721
#
# Velocity S-wave (km/s) = 3.76061 3.86708 3.81422
# Velocity P-wave (km/s) = 6.79318 7.00587 6.90034
#
# Compressibility (1/GPa) = 0.01714230
#
# Stress axis : x y z
#
# Youngs Moduli (GPa) = 91.71207 86.73340 74.55834
#
# Poissons Ratio (x) = 0.24780 0.30187
# Poissons Ratio (y) = 0.26203 0.18236
# Poissons Ratio (z) = 0.37132 0.21214
#
# Static dielectric constant tensor:
#      x y z
#    x 3.873540 0.000000 0.081620 
#    y 0.000000 4.208070 0.000000 
#    z 0.081620 0.000000 3.925860 
# 
# 
# High freq. dielectric constant tensor:
#      x y z
#    x 1.827830 0.000000 0.008010 
#    y 0.000000 1.862320 0.000000 
#    z 0.008010 0.000000 1.834430 
# 
# From -- ./inp_files/54557.got.cif
#   From: 2010.06.25/outbox.cif.g09.slc.cpg/sg13_28_cif.got.tgz:54557.got - 2010.06.28 04:50:58.
