data_PCOD8121155
_publ_section_title
;
Structure prediction by ZEFSAII (Michael W. Deem and Ramdas Pophale) SiO2 
 PCOD8121155
Probable space group: P 2/C
;
_chemical_formula_sum "Si O2"
_cell_formula_units_Z 28
_cell_length_a 13.692424
_cell_length_b 11.127702
_cell_length_c 9.701669
_cell_angle_alpha 90.000000
_cell_angle_beta 114.959867
_cell_angle_gamma 90.000000
_cell_volume 1340.138590
_symmetry_space_group_name_H-M "P 2/C"
_symmetry_group_IT_number 13
_symmetry_cell_setting 'monoclinic'
loop_
_space_group_symop_operation_xyz
x,y,z
-x,y,1/2-z
-x,-y,-z
x,-y,1/2+z
loop_
_atom_site_type_symbol
_atom_site_label
_atom_site_fract_x
_atom_site_fract_y
_atom_site_fract_z
Si Si1 0.095450 0.723767 0.415250
Si Si2 0.376155 0.096841 0.699612
Si Si3 0.594470 0.273575 0.543454
Si Si4 0.296126 0.835055 0.635589
Si Si5 0.055164 0.409996 0.134493
Si Si6 0.241354 0.520577 0.383043
Si Si7 0.345566 0.720191 0.948389
O O1 0.187709 0.825253 0.476336
O O2 0.050881 0.715059 0.545791
O O3 0.153468 0.595018 0.419070
O O4 0.000000 0.753544 0.250000
O O5 0.500000 0.063863 0.750000
O O6 0.360839 0.170835 0.829647
O O7 0.327829 0.172059 0.544508
O O8 0.311779 0.973890 0.678773
O O9 0.606664 0.222407 0.395933
O O10 0.663001 0.393854 0.611309
O O11 0.471437 0.304745 0.499755
O O12 0.288105 0.758972 0.771804
O O13 0.175913 0.462379 0.217957
O O14 0.000000 0.391061 0.250000
O O15 0.000000 0.500000 0.000000
O O16 0.294992 0.401557 0.485012
#
# Coordination Sequence:
#
# PCOD8121155 Si02
#       7
#     4   4   4   4   4   4   4
#     4  11  23  42  62  90 122 157 205 264 317 367
#     4  10  22  40  61  88 124 167 210 246 291 356
#     4  10  23  37  58  91 130 167 193 252 301 360
#     4  11  22  39  64  86 114 165 216 253 298 359
#     4  12  21  37  62  89 120 157 203 254 310 381
#     4  11  22  36  61  93 129 156 201 244 315 365
#     4  11  22  37  61  91 127 163 205 244 298 370
#
# _framework density 20.893360999999999
#
# number of rings (size 3 to 8) (size 9 to 14) (size 15 to 20)
#    0.000    1.143    4.286    2.571    2.000    2.286 
#    0.000    2.857    0.000   11.143    0.000    1.000 
#    0.000    0.000    0.000    0.000    0.000    0.000 
#
# Total GULP energy -346939.158981 kJ/mol
# GULP energy per Si atom -12390.684249 kJ/mol
# Density = 2.084581 g / cm^3
# Si number density = 20.893361 Si / 1000 Ang^3
#
#
#
# Elastic Constant Matrix: (Units=GPa)
#
#
# Indices 1 2 3 4 5 6 
#
# 1 55.4875 33.4801 32.7696 0.0000 12.9025 0.0000
# 2 33.4801 128.4877 42.2431 0.0000 13.2283 0.0000
# 3 32.7696 42.2431 117.0101 0.0000 8.7189 0.0000
# 4 0.0000 0.0000 0.0000 26.0826 0.0000 5.9443
# 5 12.9025 13.2283 8.7189 0.0000 37.4596 0.0000
# 6 0.0000 0.0000 0.0000 5.9443 0.0000 23.1987
#
#
#
# Elastic Compliance Matrix: (Units=1/GPa)
#
#
# Indices 1 2 3 4 5 6 
#
# 1 0.024911 -0.004236 -0.005006 0.000000 -0.005919 0.000000
# 2 -0.004236 0.009772 -0.002232 0.000000 -0.001472 0.000000
# 3 -0.005006 -0.002232 0.010753 0.000000 0.000010 0.000000
# 4 0.000000 0.000000 0.000000 0.040718 0.000000 -0.010433
# 5 -0.005919 -0.001472 0.000010 0.000000 0.029252 0.000000
# 6 0.000000 0.000000 0.000000 -0.010433 0.000000 0.045779
#
#
# Mechanical properties :
#
#
# Convention : Reuss Voigt Hill
#
# Bulk Modulus (GPa) = 44.46737 57.55233 51.00985
# Shear Modulus (GPa) = 26.09212 30.18099 28.13656
#
# Velocity S-wave (km/s) = 3.53770 3.80481 3.67369
# Velocity P-wave (km/s) = 6.16574 6.84892 6.51629
#
# Compressibility (1/GPa) = 0.02248840
#
# Stress axis : x y z
#
# Youngs Moduli (GPa) = 40.14324 102.33405 92.99419
#
# Poissons Ratio (x) = 0.43346 0.46555
# Poissons Ratio (y) = 0.17003 0.20756
# Poissons Ratio (z) = 0.20097 0.22840
#
# Static dielectric constant tensor:
#      x y z
#    x 4.088990 0.000000 0.019730 
#    y 0.000000 3.693500 0.000000 
#    z 0.019730 0.000000 4.007260 
# 
# 
# High freq. dielectric constant tensor:
#      x y z
#    x 1.812980 0.000000 0.004380 
#    y 0.000000 1.803340 0.000000 
#    z 0.004380 0.000000 1.830290 
# 
# From -- ./inp_files/19137.got.cif
#   From: 2010.06.25/outbox.cif.g09.slc.cpg/sg13_10_cif.got.tgz:19137.got - 2010.06.28 04:50:58.
