data_PCOD8121604
_publ_section_title
;
Structure prediction by ZEFSAII (Michael W. Deem and Ramdas Pophale) SiO2 
 PCOD8121604
Probable space group: P 2/C
;
_chemical_formula_sum "Si O2"
_cell_formula_units_Z 20
_cell_length_a 10.914570
_cell_length_b 14.210982
_cell_length_c 8.280441
_cell_angle_alpha 90.000000
_cell_angle_beta 44.798303
_cell_angle_gamma 90.000000
_cell_volume 904.971616
_symmetry_space_group_name_H-M "P 2/C"
_symmetry_group_IT_number 13
_symmetry_cell_setting 'monoclinic'
loop_
_space_group_symop_operation_xyz
x,y,z
-x,y,1/2-z
-x,-y,-z
x,-y,1/2+z
loop_
_atom_site_type_symbol
_atom_site_label
_atom_site_fract_x
_atom_site_fract_y
_atom_site_fract_z
Si Si1 0.155912 0.131019 0.382697
Si Si2 0.000000 0.727891 0.250000
Si Si3 0.694413 0.612940 0.402768
Si Si4 0.597523 0.725829 0.988568
Si Si5 0.000000 0.991000 0.750000
Si Si6 0.197846 0.568548 0.551771
O O1 0.022430 0.211492 0.565594
O O2 0.081240 0.078025 0.301328
O O3 0.158327 0.054848 0.527789
O O4 0.339833 0.177696 0.157366
O O5 0.823755 0.670108 0.396337
O O6 0.517914 0.671089 0.537412
O O7 0.666687 0.513135 0.519658
O O8 0.781498 0.592128 0.152353
O O9 0.500000 0.747658 0.250000
O O10 0.763322 0.660466 0.875620
O O11 0.000000 0.533905 0.750000
#
# Coordination Sequence:
#
# PCOD8121604 Si02
#       6
#     4   2   4   4   2   4
#     4  10  22  44  71 100 126 170 214 279 334 403
#     4  11  24  40  69  98 128 180 233 264 322 399
#     4  11  24  40  59  96 136 180 228 269 324 373
#     4  10  24  40  64  98 137 178 216 272 332 392
#     4   9  22  44  79  96 126 162 223 276 342 405
#     4  11  22  39  62  91 132 185 232 270 311 380
#
# _framework density 22.100142000000002
#
# number of rings (size 3 to 8) (size 9 to 14) (size 15 to 20)
#    0.000    1.600    1.000    2.400    9.800    0.800 
#    0.000    1.000    0.000    0.000    0.000    0.000 
#    0.000    0.000    0.000    0.000    0.000    0.000 
#
# Total GULP energy -247858.296993 kJ/mol
# GULP energy per Si atom -12392.914850 kJ/mol
# Density = 2.204984 g / cm^3
# Si number density = 22.100142 Si / 1000 Ang^3
#
#
#
# Elastic Constant Matrix: (Units=GPa)
#
#
# Indices 1 2 3 4 5 6 
#
# 1 103.5002 53.6930 43.8221 0.0000 4.9613 0.0000
# 2 53.6930 130.5715 65.7410 0.0000 7.5170 0.0000
# 3 43.8221 65.7410 86.0577 0.0000 -2.8685 0.0000
# 4 0.0000 0.0000 0.0000 42.3929 0.0000 6.7545
# 5 4.9613 7.5170 -2.8685 0.0000 31.8077 0.0000
# 6 0.0000 0.0000 0.0000 6.7545 0.0000 43.4080
#
#
#
# Elastic Compliance Matrix: (Units=1/GPa)
#
#
# Indices 1 2 3 4 5 6 
#
# 1 0.013231 -0.003121 -0.004411 0.000000 -0.001724 0.000000
# 2 -0.003121 0.013659 -0.008964 0.000000 -0.003550 0.000000
# 3 -0.004411 -0.008964 0.020870 0.000000 0.004689 0.000000
# 4 0.000000 0.000000 0.000000 0.024189 0.000000 -0.003764
# 5 -0.001724 -0.003550 0.004689 0.000000 0.032970 0.000000
# 6 0.000000 0.000000 0.000000 -0.003764 0.000000 0.023623
#
#
# Mechanical properties :
#
#
# Convention : Reuss Voigt Hill
#
# Bulk Modulus (GPa) = 67.70691 71.84906 69.77798
# Shear Modulus (GPa) = 30.03794 33.97994 32.00894
#
# Velocity S-wave (km/s) = 3.69070 3.92541 3.80986
# Velocity P-wave (km/s) = 6.99032 7.28878 7.14111
#
# Compressibility (1/GPa) = 0.01476954
#
# Stress axis : x y z
#
# Youngs Moduli (GPa) = 75.58011 73.20927 47.91502
#
# Poissons Ratio (x) = 0.22846 0.21135
# Poissons Ratio (y) = 0.23586 0.42951
# Poissons Ratio (z) = 0.33339 0.65624
#
# Static dielectric constant tensor:
#      x y z
#    x 3.963240 0.000000 0.227700 
#    y 0.000000 4.303200 0.000000 
#    z 0.227700 0.000000 4.097010 
# 
# 
# High freq. dielectric constant tensor:
#      x y z
#    x 1.855330 0.000000 0.024810 
#    y 0.000000 1.874730 0.000000 
#    z 0.024810 0.000000 1.880080 
# 
# From -- ./inp_files/15749.got.cif
#   From: 2010.06.25/outbox.cif.g09.slc.cpg/sg13_8_cif.got.tgz:15749.got - 2010.06.28 04:50:58.
