data_PCOD8121655
_publ_section_title
;
Structure prediction by ZEFSAII (Michael W. Deem and Ramdas Pophale) SiO2 
 PCOD8121655
Probable space group: P 2/C
;
_chemical_formula_sum "Si O2"
_cell_formula_units_Z 28
_cell_length_a 9.275037
_cell_length_b 6.646856
_cell_length_c 27.785697
_cell_angle_alpha 90.000000
_cell_angle_beta 53.513083
_cell_angle_gamma 90.000000
_cell_volume 1377.226281
_symmetry_space_group_name_H-M "P 2/C"
_symmetry_group_IT_number 13
_symmetry_cell_setting 'monoclinic'
loop_
_space_group_symop_operation_xyz
x,y,z
-x,y,1/2-z
-x,-y,-z
x,-y,1/2+z
loop_
_atom_site_type_symbol
_atom_site_label
_atom_site_fract_x
_atom_site_fract_y
_atom_site_fract_z
Si Si1 0.417776 0.894943 0.125201
Si Si2 0.500000 0.363965 0.250000
Si Si3 0.619189 0.456876 0.628598
Si Si4 0.256635 0.147269 0.444680
Si Si5 0.959113 0.156436 0.834151
Si Si6 0.940813 0.168277 0.576281
Si Si7 0.769731 0.844063 0.760121
Si Si8 0.000000 0.499029 0.250000
O O1 0.462812 0.670324 0.133966
O O2 0.252841 0.891061 0.120713
O O3 0.592542 0.992618 0.065584
O O4 0.367582 0.023662 0.182093
O O5 0.435912 0.508447 0.305465
O O6 0.335045 0.221582 0.267135
O O7 0.637400 0.664425 0.597073
O O8 0.808638 0.345402 0.587421
O O9 0.132519 0.210743 0.513863
O O10 0.137358 0.045803 0.426043
O O11 0.040347 0.172250 0.870514
O O12 0.985227 0.364618 0.800484
O O13 0.054301 0.973336 0.787532
O O14 0.826220 0.643451 0.778158
#
# Coordination Sequence:
#
# PCOD8121655 Si02
#       8
#     4   2   4   4   4   4   4   2
#     4  11  23  40  62  88 129 167 207 258 318 371
#     4  12  24  36  68  98 124 164 214 262 330 384
#     4  11  23  40  64  95 126 164 209 267 316 377
#     4  10  22  46  66  91 128 170 209 267 312 370
#     4  12  24  40  63  94 125 171 209 261 317 386
#     4  10  24  42  68  94 126 167 217 258 316 372
#     4  12  24  41  59  94 132 165 204 264 320 385
#     4  12  22  42  62  86 134 174 200 252 336 380
#
# _framework density 20.330718000000001
#
# number of rings (size 3 to 8) (size 9 to 14) (size 15 to 20)
#    0.000    0.857    4.286    3.000    4.000    0.571 
#    0.000    0.714    0.000    0.000    0.000    0.000 
#    0.000    0.000    0.000    0.000    0.000    0.000 
#
# Total GULP energy -347305.381633 kJ/mol
# GULP energy per Si atom -12403.763630 kJ/mol
# Density = 2.028444 g / cm^3
# Si number density = 20.330718 Si / 1000 Ang^3
#
#
#
# Elastic Constant Matrix: (Units=GPa)
#
#
# Indices 1 2 3 4 5 6 
#
# 1 95.1551 33.9820 7.8812 0.0000 -10.2440 0.0000
# 2 33.9820 114.5377 31.0822 0.0000 -4.0655 0.0000
# 3 7.8812 31.0822 75.0209 0.0000 -11.0447 0.0000
# 4 0.0000 0.0000 0.0000 25.9734 0.0000 -8.8278
# 5 -10.2440 -4.0655 -11.0447 0.0000 34.5214 0.0000
# 6 0.0000 0.0000 0.0000 -8.8278 0.0000 34.0287
#
#
#
# Elastic Compliance Matrix: (Units=1/GPa)
#
#
# Indices 1 2 3 4 5 6 
#
# 1 0.012128 -0.003682 0.000753 0.000000 0.003406 0.000000
# 2 -0.003682 0.010955 -0.004327 0.000000 -0.001187 0.000000
# 3 0.000753 -0.004327 0.015743 0.000000 0.004750 0.000000
# 4 0.000000 0.000000 0.000000 0.042224 0.000000 0.010954
# 5 0.003406 -0.001187 0.004750 0.000000 0.031358 0.000000
# 6 0.000000 0.000000 0.000000 0.010954 0.000000 0.032229
#
#
# Mechanical properties :
#
#
# Convention : Reuss Voigt Hill
#
# Bulk Modulus (GPa) = 41.12770 47.84492 44.48631
# Shear Modulus (GPa) = 29.89479 33.02260 31.45869
#
# Velocity S-wave (km/s) = 3.83877 4.03460 3.93790
# Velocity P-wave (km/s) = 6.31834 6.72966 6.52724
#
# Compressibility (1/GPa) = 0.02431451
#
# Stress axis : x y z
#
# Youngs Moduli (GPa) = 82.45160 91.28160 63.52207
#
# Poissons Ratio (x) = 0.33607 -0.04782
# Poissons Ratio (y) = 0.30356 0.27485
# Poissons Ratio (z) = -0.06206 0.39496
#
# Static dielectric constant tensor:
#      x y z
#    x 3.792070 0.000000 -0.204950 
#    y 0.000000 3.816550 0.000000 
#    z -0.204950 0.000000 3.591220 
# 
# 
# High freq. dielectric constant tensor:
#      x y z
#    x 1.804940 0.000000 -0.020820 
#    y 0.000000 1.806670 0.000000 
#    z -0.020820 0.000000 1.778670 
# 
# From -- ./inp_files/95609.got.cif
#   From: 2010.06.25/outbox.cif.g09.slc.cpg/sg13_48_cif.got.tgz:95609.got - 2010.06.28 04:50:58.
