data_PCOD8121582
_publ_section_title
;
Structure prediction by ZEFSAII (Michael W. Deem and Ramdas Pophale) SiO2 
 PCOD8121582
Probable space group: P 2/C
;
_chemical_formula_sum "Si O2"
_cell_formula_units_Z 30
_cell_length_a 11.491107
_cell_length_b 11.539524
_cell_length_c 16.201572
_cell_angle_alpha 90.000000
_cell_angle_beta 137.960010
_cell_angle_gamma 90.000000
_cell_volume 1438.646936
_symmetry_space_group_name_H-M "P 2/C"
_symmetry_group_IT_number 13
_symmetry_cell_setting 'monoclinic'
loop_
_space_group_symop_operation_xyz
x,y,z
-x,y,1/2-z
-x,-y,-z
x,-y,1/2+z
loop_
_atom_site_type_symbol
_atom_site_label
_atom_site_fract_x
_atom_site_fract_y
_atom_site_fract_z
Si Si1 0.305167 0.397177 0.661427
Si Si2 0.166663 0.961623 0.482755
Si Si3 0.804377 0.239399 0.261907
Si Si4 0.069098 0.824273 0.032132
Si Si5 0.000000 0.934421 0.750000
Si Si6 0.568621 0.767504 0.873586
Si Si7 0.181239 0.499138 0.260778
Si Si8 0.796280 0.557583 0.046141
O O1 0.500000 0.354598 0.750000
O O2 0.187392 0.285320 0.614465
O O3 0.301317 0.473420 0.744098
O O4 0.246963 0.466616 0.549254
O O5 0.348071 0.894967 0.590120
O O6 0.995864 0.889744 0.420686
O O7 0.179992 0.085273 0.536096
O O8 0.133581 0.984838 0.369561
O O9 0.876931 0.142644 0.240790
O O10 0.596076 0.228659 0.152467
O O11 0.865035 0.364031 0.262114
O O12 0.888784 0.218148 0.395780
O O13 0.500000 0.721261 0.750000
O O14 0.714451 0.681226 0.983676
O O15 0.271855 0.523211 0.397582
O O16 0.003935 0.571871 0.158189
#
# Coordination Sequence:
#
# PCOD8121582 Si02
#       8
#     4   4   4   4   2   4   4   4
#     4  12  25  41  66 102 137 174 218 278 339 395
#     4  10  23  43  68  93 128 172 225 273 330 396
#     4  11  22  42  69  94 130 179 222 266 335 408
#     4  10  22  44  67  91 130 177 219 268 327 404
#     4  10  24  44  66  96 130 178 222 274 340 402
#     4  12  24  40  68 100 131 175 227 277 332 394
#     4  11  24  42  70  98 136 183 223 269 343 410
#     4  11  24  43  68  99 136 176 226 278 332 404
#
# _framework density 20.852927000000001
#
# number of rings (size 3 to 8) (size 9 to 14) (size 15 to 20)
#    0.000    1.067    2.667    4.000    1.867    5.333 
#    0.000    0.000    0.000    0.000    0.000    0.000 
#    0.000    0.000    0.000    0.000    0.000    0.000 
#
# Total GULP energy -372010.656309 kJ/mol
# GULP energy per Si atom -12400.355210 kJ/mol
# Density = 2.080547 g / cm^3
# Si number density = 20.852927 Si / 1000 Ang^3
#
#
#
# Elastic Constant Matrix: (Units=GPa)
#
#
# Indices 1 2 3 4 5 6 
#
# 1 89.0419 13.9990 44.4209 0.0000 -12.0519 0.0000
# 2 13.9990 87.5685 37.9158 0.0000 -9.2848 0.0000
# 3 44.4209 37.9158 80.2773 0.0000 -13.8171 0.0000
# 4 0.0000 0.0000 0.0000 30.6733 0.0000 -1.2225
# 5 -12.0519 -9.2848 -13.8171 0.0000 45.6052 0.0000
# 6 0.0000 0.0000 0.0000 -1.2225 0.0000 11.3051
#
#
#
# Elastic Compliance Matrix: (Units=1/GPa)
#
#
# Indices 1 2 3 4 5 6 
#
# 1 0.015809 0.001652 -0.009233 0.000000 0.001717 0.000000
# 2 0.001652 0.014564 -0.007604 0.000000 0.001098 0.000000
# 3 -0.009233 -0.007604 0.021597 0.000000 0.002555 0.000000
# 4 0.000000 0.000000 0.000000 0.032743 0.000000 0.003541
# 5 0.001717 0.001098 0.002555 0.000000 0.023379 0.000000
# 6 0.000000 0.000000 0.000000 0.003541 0.000000 0.088838
#
#
# Mechanical properties :
#
#
# Convention : Reuss Voigt Hill
#
# Bulk Modulus (GPa) = 46.29341 49.95101 48.12221
# Shear Modulus (GPa) = 21.32187 28.22019 24.77103
#
# Velocity S-wave (km/s) = 3.20111 3.68271 3.45032
# Velocity P-wave (km/s) = 5.99257 6.48761 6.24500
#
# Compressibility (1/GPa) = 0.02160135
#
# Stress axis : x y z
#
# Youngs Moduli (GPa) = 63.25369 68.66038 46.30233
#
# Poissons Ratio (x) = -0.11346 0.42751
# Poissons Ratio (y) = -0.10452 0.35210
# Poissons Ratio (z) = 0.58402 0.52212
#
# Static dielectric constant tensor:
#      x y z
#    x 4.102010 0.000000 -0.225290 
#    y 0.000000 3.790340 0.000000 
#    z -0.225290 0.000000 3.849890 
# 
# 
# High freq. dielectric constant tensor:
#      x y z
#    x 1.824620 0.000000 -0.005160 
#    y 0.000000 1.821230 0.000000 
#    z -0.005160 0.000000 1.809470 
# 
# From -- ./inp_files/66666.got.cif
#   From: 2010.06.25/outbox.cif.g09.slc.cpg/sg13_34_cif.got.tgz:66666.got - 2010.06.28 04:50:58.
