data_PCOD8121988
_publ_section_title
;
Structure prediction by ZEFSAII (Michael W. Deem and Ramdas Pophale) SiO2 
 PCOD8121988
Probable space group: P 2/C
;
_chemical_formula_sum "Si O2"
_cell_formula_units_Z 26
_cell_length_a 24.619195
_cell_length_b 9.177810
_cell_length_c 9.035592
_cell_angle_alpha 90.000000
_cell_angle_beta 141.096853
_cell_angle_gamma 90.000000
_cell_volume 1282.133298
_symmetry_space_group_name_H-M "P 2/C"
_symmetry_group_IT_number 13
_symmetry_cell_setting 'monoclinic'
loop_
_space_group_symop_operation_xyz
x,y,z
-x,y,1/2-z
-x,-y,-z
x,-y,1/2+z
loop_
_atom_site_type_symbol
_atom_site_label
_atom_site_fract_x
_atom_site_fract_y
_atom_site_fract_z
Si Si1 0.680305 0.402887 0.256781
Si Si2 0.539679 0.801141 0.569955
Si Si3 0.829438 0.187970 0.604632
Si Si4 0.654624 0.312198 0.868280
Si Si5 0.806508 0.894880 0.722331
Si Si6 0.500000 0.980956 0.750000
Si Si7 0.011576 0.148962 0.944022
O O1 0.769296 0.328592 0.499380
O O2 0.679868 0.572543 0.295223
O O3 0.602027 0.334469 0.184665
O O4 0.665955 0.386625 0.051888
O O5 0.441458 0.747030 0.356092
O O6 0.558450 0.879850 0.766908
O O7 0.559828 0.916021 0.480221
O O8 0.810634 0.111936 0.408061
O O9 0.930108 0.247824 0.827218
O O10 0.809395 0.065457 0.685295
O O11 0.718042 0.176094 0.978543
O O12 0.887994 0.801988 0.822406
O O13 0.000000 0.113576 0.750000
O O14 0.000000 0.000000 0.000000
#
# Coordination Sequence:
#
# PCOD8121988 Si02
#       7
#     4   4   4   4   4   2   4
#     4  11  24  39  55  79 112 149 186 221 269 326
#     4  11  23  40  59  84 115 139 180 223 277 316
#     4   9  19  33  56  82 108 139 180 225 272 322
#     4  11  24  39  55  79 112 149 186 221 269 326
#     4   9  19  33  56  82 108 139 180 225 272 322
#     4  10  24  38  62  88 108 136 184 230 268 320
#     4   8  14  30  51  78 108 136 170 222 275 318
#
# _framework density 20.278701000000002
#
# number of rings (size 3 to 8) (size 9 to 14) (size 15 to 20)
#    0.000    2.154    1.538    0.462    6.462    1.231 
#    0.000    0.769    0.000    0.000    0.000    0.000 
#    0.000    0.000    0.000    0.000    0.000    0.000 
#
# Total GULP energy -322141.053186 kJ/mol
# GULP energy per Si atom -12390.040507 kJ/mol
# Density = 2.023255 g / cm^3
# Si number density = 20.278701 Si / 1000 Ang^3
#
#
#
# Elastic Constant Matrix: (Units=GPa)
#
#
# Indices 1 2 3 4 5 6 
#
# 1 88.3148 21.5435 34.3583 0.0000 18.1337 0.0000
# 2 21.5435 47.0201 12.9925 0.0000 0.3342 0.0000
# 3 34.3583 12.9925 54.2166 0.0000 22.1972 0.0000
# 4 0.0000 0.0000 0.0000 18.2192 0.0000 -6.7023
# 5 18.1337 0.3342 22.1972 0.0000 46.6870 0.0000
# 6 0.0000 0.0000 0.0000 -6.7023 0.0000 29.0677
#
#
#
# Elastic Compliance Matrix: (Units=1/GPa)
#
#
# Indices 1 2 3 4 5 6 
#
# 1 0.016216 -0.005193 -0.008032 0.000000 -0.002443 0.000000
# 2 -0.005193 0.024787 -0.004224 0.000000 0.003848 0.000000
# 3 -0.008032 -0.004224 0.028879 0.000000 -0.010580 0.000000
# 4 0.000000 0.000000 0.000000 0.059974 0.000000 0.013829
# 5 -0.002443 0.003848 -0.010580 0.000000 0.027371 0.000000
# 6 0.000000 0.000000 0.000000 0.013829 0.000000 0.037591
#
#
# Mechanical properties :
#
#
# Convention : Reuss Voigt Hill
#
# Bulk Modulus (GPa) = 28.58565 36.37110 32.47837
# Shear Modulus (GPa) = 20.71438 26.83859 23.77648
#
# Velocity S-wave (km/s) = 3.19953 3.64192 3.42787
# Velocity P-wave (km/s) = 5.27033 5.97154 5.63186
#
# Compressibility (1/GPa) = 0.03498259
#
# Stress axis : x y z
#
# Youngs Moduli (GPa) = 61.66630 40.34410 34.62748
#
# Poissons Ratio (x) = 0.20951 0.27813
# Poissons Ratio (y) = 0.32024 0.14628
# Poissons Ratio (z) = 0.49531 0.17043
#
# Static dielectric constant tensor:
#      x y z
#    x 4.131320 0.000000 0.217970 
#    y 0.000000 3.388940 0.000000 
#    z 0.217970 0.000000 3.830190 
# 
# 
# High freq. dielectric constant tensor:
#      x y z
#    x 1.809930 0.000000 0.005930 
#    y 0.000000 1.756430 0.000000 
#    z 0.005930 0.000000 1.791480 
# 
# From -- ./inp_files/24460.got.cif
#   From: 2010.06.25/outbox.cif.g09.slc.cpg/sg13_13_cif.got.tgz:24460.got - 2010.06.28 04:50:58.
