data_PCOD8121746
_publ_section_title
;
Structure prediction by ZEFSAII (Michael W. Deem and Ramdas Pophale) SiO2 
 PCOD8121746
Probable space group: P 2/C
;
_chemical_formula_sum "Si O2"
_cell_formula_units_Z 20
_cell_length_a 16.766261
_cell_length_b 6.158864
_cell_length_c 16.807430
_cell_angle_alpha 90.000000
_cell_angle_beta 30.541527
_cell_angle_gamma 90.000000
_cell_volume 881.943882
_symmetry_space_group_name_H-M "P 2/C"
_symmetry_group_IT_number 13
_symmetry_cell_setting 'monoclinic'
loop_
_space_group_symop_operation_xyz
x,y,z
-x,y,1/2-z
-x,-y,-z
x,-y,1/2+z
loop_
_atom_site_type_symbol
_atom_site_label
_atom_site_fract_x
_atom_site_fract_y
_atom_site_fract_z
Si Si1 0.337915 0.534544 0.545882
Si Si2 0.150760 0.109343 0.431952
Si Si3 0.391225 0.815373 0.128897
Si Si4 0.147409 0.412404 0.567264
Si Si5 0.049838 0.269146 0.365963
O O1 0.509809 0.640532 0.404046
O O2 0.315719 0.321583 0.620983
O O3 0.299128 0.479662 0.487842
O O4 0.209637 0.713623 0.679759
O O5 0.218144 0.215587 0.454158
O O6 0.095813 0.307050 0.420035
O O7 0.266240 0.931807 0.293308
O O8 0.995270 0.984685 0.595203
O O9 0.500000 0.000000 0.000000
O O10 0.000000 0.346609 0.750000
O O11 0.089509 0.592768 0.553685
#
# Coordination Sequence:
#
# PCOD8121746 Si02
#       5
#     4   4   4   4   4
#     4  10  24  45  68  96 140 174 222 277 337 387
#     4  11  24  40  73  98 132 173 227 268 330 404
#     4  11  24  44  71  96 131 185 223 266 331 409
#     4  10  24  41  65 101 137 170 216 287 332 384
#     4  10  23  40  69  99 128 170 221 273 331 394
#
# _framework density 22.677181999999998
#
# number of rings (size 3 to 8) (size 9 to 14) (size 15 to 20)
#    0.000    1.600    2.000    0.600   14.000    4.000 
#    0.000    6.000    0.000    0.000    0.000    0.000 
#    0.000    0.000    0.000    0.000    0.000    0.000 
#
# Total GULP energy -247775.230414 kJ/mol
# GULP energy per Si atom -12388.761521 kJ/mol
# Density = 2.262557 g / cm^3
# Si number density = 22.677182 Si / 1000 Ang^3
#
#
#
# Elastic Constant Matrix: (Units=GPa)
#
#
# Indices 1 2 3 4 5 6 
#
# 1 197.0450 71.8855 57.2830 0.0000 10.3523 0.0000
# 2 71.8855 87.1040 58.4493 0.0000 16.3626 0.0000
# 3 57.2830 58.4493 68.1516 0.0000 4.5091 0.0000
# 4 0.0000 0.0000 0.0000 35.3622 0.0000 16.7225
# 5 10.3523 16.3626 4.5091 0.0000 31.4255 0.0000
# 6 0.0000 0.0000 0.0000 16.7225 0.0000 28.3291
#
#
#
# Elastic Compliance Matrix: (Units=1/GPa)
#
#
# Indices 1 2 3 4 5 6 
#
# 1 0.007416 -0.004669 -0.002249 0.000000 0.000311 0.000000
# 2 -0.004669 0.034229 -0.024588 0.000000 -0.012756 0.000000
# 3 -0.002249 -0.024588 0.037107 0.000000 0.008219 0.000000
# 4 0.000000 0.000000 0.000000 0.039230 0.000000 -0.023157
# 5 0.000311 -0.012756 0.008219 0.000000 0.037181 0.000000
# 6 0.000000 0.000000 0.000000 -0.023157 0.000000 0.048969
#
#
# Mechanical properties :
#
#
# Convention : Reuss Voigt Hill
#
# Bulk Modulus (GPa) = 63.53240 80.83734 72.18487
# Shear Modulus (GPa) = 18.35592 30.00223 24.17907
#
# Velocity S-wave (km/s) = 2.84816 3.64127 3.26886
# Velocity P-wave (km/s) = 6.23641 7.30773 6.79322
#
# Compressibility (1/GPa) = 0.01574000
#
# Stress axis : x y z
#
# Youngs Moduli (GPa) = 134.84336 29.21459 26.94897
#
# Poissons Ratio (x) = 0.13642 0.06061
# Poissons Ratio (y) = 0.62964 0.66261
# Poissons Ratio (z) = 0.30329 0.71832
#
# Static dielectric constant tensor:
#      x y z
#    x 4.439970 0.000000 0.014560 
#    y 0.000000 4.049460 0.000000 
#    z 0.014560 0.000000 3.968750 
# 
# 
# High freq. dielectric constant tensor:
#      x y z
#    x 1.906260 0.000000 0.000210 
#    y 0.000000 1.893190 0.000000 
#    z 0.000210 0.000000 1.877710 
# 
# From -- ./inp_files/69131.got.cif
#   From: 2010.06.25/outbox.cif.g09.slc.cpg/sg13_35_cif.got.tgz:69131.got - 2010.06.28 04:50:58.
