data_PCOD8121858
_publ_section_title
;
Structure prediction by ZEFSAII (Michael W. Deem and Ramdas Pophale) SiO2 
 PCOD8121858
Probable space group: P 2/C
;
_chemical_formula_sum "Si O2"
_cell_formula_units_Z 14
_cell_length_a 11.749295
_cell_length_b 7.519968
_cell_length_c 9.790934
_cell_angle_alpha 90.000000
_cell_angle_beta 125.564248
_cell_angle_gamma 90.000000
_cell_volume 703.704255
_symmetry_space_group_name_H-M "P 2/C"
_symmetry_group_IT_number 13
_symmetry_cell_setting 'monoclinic'
loop_
_space_group_symop_operation_xyz
x,y,z
-x,y,1/2-z
-x,-y,-z
x,-y,1/2+z
loop_
_atom_site_type_symbol
_atom_site_label
_atom_site_fract_x
_atom_site_fract_y
_atom_site_fract_z
Si Si1 0.267229 0.115123 0.341212
Si Si2 0.270150 0.817341 0.538405
Si Si3 0.000000 0.039986 0.750000
Si Si4 0.595612 0.449572 0.940974
O O1 0.098710 0.085351 0.224545
O O2 0.298041 0.294973 0.444378
O O3 0.339391 0.948598 0.472482
O O4 0.323533 0.124897 0.225897
O O5 0.312877 0.616699 0.541546
O O6 0.100742 0.834893 0.413016
O O7 0.500000 0.382828 0.750000
O O8 0.500000 0.500000 0.000000
#
# Coordination Sequence:
#
# PCOD8121858 Si02
#       4
#     4   4   2   4
#     4  10  23  43  68  95 130 170 211 272 318 380
#     4  10  23  43  68  96 128 170 213 271 319 380
#     4   8  22  42  70  98 122 166 222 260 336 360
#     4  12  26  43  62  98 133 169 217 258 323 388
#
# _framework density 19.894721000000001
#
# number of rings (size 3 to 8) (size 9 to 14) (size 15 to 20)
#    1.714    0.000    2.857    0.857    4.000    3.429 
#    0.000    2.857    0.000    0.000    0.000    0.000 
#    0.000    0.000    0.000    0.000    0.000    0.000 
#
# Total GULP energy -173483.771359 kJ/mol
# GULP energy per Si atom -12391.697954 kJ/mol
# Density = 1.984944 g / cm^3
# Si number density = 19.894721 Si / 1000 Ang^3
#
#
#
# Elastic Constant Matrix: (Units=GPa)
#
#
# Indices 1 2 3 4 5 6 
#
# 1 49.2528 19.7869 33.7529 0.0000 7.9417 0.0000
# 2 19.7869 104.3488 56.5784 0.0000 9.4926 0.0000
# 3 33.7529 56.5784 149.6170 0.0000 -13.4029 0.0000
# 4 0.0000 0.0000 0.0000 40.1469 0.0000 2.5270
# 5 7.9417 9.4926 -13.4029 0.0000 30.6290 0.0000
# 6 0.0000 0.0000 0.0000 2.5270 0.0000 39.1829
#
#
#
# Elastic Compliance Matrix: (Units=1/GPa)
#
#
# Indices 1 2 3 4 5 6 
#
# 1 0.026653 -0.000562 -0.006665 0.000000 -0.009653 0.000000
# 2 -0.000562 0.013213 -0.005437 0.000000 -0.006328 0.000000
# 3 -0.006665 -0.005437 0.010979 0.000000 0.008218 0.000000
# 4 0.000000 0.000000 0.000000 0.025010 0.000000 -0.001613
# 5 -0.009653 -0.006328 0.008218 0.000000 0.040709 0.000000
# 6 0.000000 0.000000 0.000000 -0.001613 0.000000 0.025625
#
#
# Mechanical properties :
#
#
# Convention : Reuss Voigt Hill
#
# Bulk Modulus (GPa) = 39.18769 58.16167 48.67468
# Shear Modulus (GPa) = 28.40510 34.86510 31.63510
#
# Velocity S-wave (km/s) = 3.78268 4.19080 3.99196
# Velocity P-wave (km/s) = 6.23045 7.26053 6.76513
#
# Compressibility (1/GPa) = 0.02551822
#
# Stress axis : x y z
#
# Youngs Moduli (GPa) = 37.51874 75.68081 91.07931
#
# Poissons Ratio (x) = 0.04254 0.60705
# Poissons Ratio (y) = 0.02109 0.49518
# Poissons Ratio (z) = 0.25006 0.41146
#
# Static dielectric constant tensor:
#      x y z
#    x 3.404760 0.000000 -0.048100 
#    y 0.000000 3.566320 0.000000 
#    z -0.048100 0.000000 3.745620 
# 
# 
# High freq. dielectric constant tensor:
#      x y z
#    x 1.763310 0.000000 -0.003040 
#    y 0.000000 1.770510 0.000000 
#    z -0.003040 0.000000 1.789010 
# 
# From -- ./inp_files/10613.got.cif
#   From: 2010.06.25/outbox.cif.g09.slc.cpg/sg13_6_cif.got.tgz:10613.got - 2010.06.28 04:50:58.
