data_PCOD8121124
_publ_section_title
;
Structure prediction by ZEFSAII (Michael W. Deem and Ramdas Pophale) SiO2 
 PCOD8121124
Probable space group: P 2/C
;
_chemical_formula_sum "Si O2"
_cell_formula_units_Z 32
_cell_length_a 12.980261
_cell_length_b 13.449476
_cell_length_c 18.044282
_cell_angle_alpha 90.000000
_cell_angle_beta 151.611689
_cell_angle_gamma 90.000000
_cell_volume 1497.712460
_symmetry_space_group_name_H-M "P 2/C"
_symmetry_group_IT_number 13
_symmetry_cell_setting 'monoclinic'
loop_
_space_group_symop_operation_xyz
x,y,z
-x,y,1/2-z
-x,-y,-z
x,-y,1/2+z
loop_
_atom_site_type_symbol
_atom_site_label
_atom_site_fract_x
_atom_site_fract_y
_atom_site_fract_z
Si Si1 0.583105 0.165420 0.598085
Si Si2 0.029082 0.190154 0.456075
Si Si3 0.483526 0.452775 0.828136
Si Si4 0.891561 0.324165 0.851783
Si Si5 0.551937 0.152001 0.142656
Si Si6 0.663452 0.041562 0.791913
Si Si7 0.788071 0.715877 0.571138
Si Si8 0.638532 0.661379 0.909206
O O1 0.758748 0.254868 0.710399
O O2 0.563478 0.110868 0.505386
O O3 0.641282 0.084945 0.696052
O O4 0.347728 0.209285 0.464847
O O5 0.051318 0.261073 0.540086
O O6 0.101481 0.076732 0.526583
O O7 0.180816 0.230195 0.487477
O O8 0.787088 0.195067 0.271976
O O9 0.500000 0.444362 0.750000
O O10 0.247792 0.420021 0.709917
O O11 0.534496 0.566070 0.885012
O O12 0.664352 0.386070 0.980009
O O13 0.110352 0.361329 0.950743
O O14 0.384391 0.238765 0.057963
O O15 0.601454 0.074093 0.240719
O O16 0.500000 0.085790 0.750000
O O17 0.000000 0.687296 0.750000
O O18 0.500000 0.684942 0.750000
#
# Coordination Sequence:
#
# PCOD8121124 Si02
#       8
#     4   4   4   4   4   4   4   4
#     4  10  23  41  65  93 130 173 214 278 332 389
#     4  11  21  38  68  93 123 166 216 273 328 381
#     4  10  22  39  67  97 128 170 226 273 329 389
#     4  10  22  42  65  93 130 169 219 271 333 385
#     4  12  24  42  62  94 133 175 216 266 334 399
#     4  11  23  40  67  94 130 168 221 273 326 398
#     4  11  20  39  64  99 127 166 218 280 331 390
#     4  11  24  42  65  97 134 175 224 273 325 402
#
# _framework density 21.365915999999999
#
# number of rings (size 3 to 8) (size 9 to 14) (size 15 to 20)
#    0.000    1.250    5.000    1.125    0.000    3.500 
#    2.250    1.250    2.750    0.000    0.000    0.000 
#    0.000    0.000    0.000    0.000    0.000    0.000 
#
# Total GULP energy -396574.991581 kJ/mol
# GULP energy per Si atom -12392.968487 kJ/mol
# Density = 2.131729 g / cm^3
# Si number density = 21.365916 Si / 1000 Ang^3
#
#
#
# Elastic Constant Matrix: (Units=GPa)
#
#
# Indices 1 2 3 4 5 6 
#
# 1 70.9602 31.7248 35.8535 0.0000 4.9960 0.0000
# 2 31.7248 99.5703 13.3957 0.0000 9.5553 0.0000
# 3 35.8535 13.3957 96.1981 0.0000 13.0194 0.0000
# 4 0.0000 0.0000 0.0000 19.5304 0.0000 3.2393
# 5 4.9960 9.5553 13.0194 0.0000 38.8623 0.0000
# 6 0.0000 0.0000 0.0000 3.2393 0.0000 15.2628
#
#
#
# Elastic Compliance Matrix: (Units=1/GPa)
#
#
# Indices 1 2 3 4 5 6 
#
# 1 0.019930 -0.005538 -0.006803 0.000000 0.001079 0.000000
# 2 -0.005538 0.011946 0.000735 0.000000 -0.002472 0.000000
# 3 -0.006803 0.000735 0.013339 0.000000 -0.003775 0.000000
# 4 0.000000 0.000000 0.000000 0.053070 0.000000 -0.011263
# 5 0.001079 -0.002472 -0.003775 0.000000 0.027466 0.000000
# 6 0.000000 0.000000 0.000000 -0.011263 0.000000 0.067909
#
#
# Mechanical properties :
#
#
# Convention : Reuss Voigt Hill
#
# Bulk Modulus (GPa) = 45.44778 47.63074 46.53926
# Shear Modulus (GPa) = 22.30094 27.11473 24.70784
#
# Velocity S-wave (km/s) = 3.23424 3.56626 3.40430
# Velocity P-wave (km/s) = 5.93838 6.26888 6.10587
#
# Compressibility (1/GPa) = 0.02200327
#
# Stress axis : x y z
#
# Youngs Moduli (GPa) = 50.17662 83.70993 74.96738
#
# Poissons Ratio (x) = 0.46360 0.50998
# Poissons Ratio (y) = 0.27789 -0.05511
# Poissons Ratio (z) = 0.34133 -0.06154
#
# Static dielectric constant tensor:
#      x y z
#    x 3.873310 0.000000 0.126720 
#    y 0.000000 3.828180 0.000000 
#    z 0.126720 0.000000 3.991730 
# 
# 
# High freq. dielectric constant tensor:
#      x y z
#    x 1.833060 0.000000 -0.000670 
#    y 0.000000 1.830320 0.000000 
#    z -0.000670 0.000000 1.845960 
# 
# From -- ./inp_files/66953.got.cif
#   From: 2010.06.25/outbox.cif.g09.slc.cpg/sg13_34_cif.got.tgz:66953.got - 2010.06.28 04:50:58.
