data_PCOD8121731
_publ_section_title
;
Structure prediction by ZEFSAII (Michael W. Deem and Ramdas Pophale) SiO2 
 PCOD8121731
Probable space group: P 2/C
;
_chemical_formula_sum "Si O2"
_cell_formula_units_Z 32
_cell_length_a 9.030582
_cell_length_b 10.510769
_cell_length_c 30.313011
_cell_angle_alpha 90.000000
_cell_angle_beta 29.743921
_cell_angle_gamma 90.000000
_cell_volume 1427.479512
_symmetry_space_group_name_H-M "P 2/C"
_symmetry_group_IT_number 13
_symmetry_cell_setting 'monoclinic'
loop_
_space_group_symop_operation_xyz
x,y,z
-x,y,1/2-z
-x,-y,-z
x,-y,1/2+z
loop_
_atom_site_type_symbol
_atom_site_label
_atom_site_fract_x
_atom_site_fract_y
_atom_site_fract_z
Si Si1 0.126933 0.625582 0.448488
Si Si2 0.871091 0.878923 0.558850
Si Si3 0.805794 0.938956 0.756973
Si Si4 0.835996 0.424071 0.381966
Si Si5 0.215220 0.665100 0.047923
Si Si6 0.148466 0.794624 0.841000
Si Si7 0.788855 0.178674 0.704147
Si Si8 0.207407 0.401084 0.733812
O O1 0.469257 0.599101 0.371124
O O2 0.000000 0.500000 0.500000
O O3 0.000238 0.752300 0.503730
O O4 0.048595 0.629004 0.417231
O O5 0.957360 0.875493 0.588772
O O6 0.515736 0.884161 0.646966
O O7 0.000000 0.000000 0.500000
O O8 0.801683 0.085083 0.742387
O O9 0.000000 0.923098 0.750000
O O10 0.951772 0.864803 0.677939
O O11 0.744427 0.562718 0.423412
O O12 0.547479 0.340074 0.439854
O O13 0.997005 0.344019 0.379165
O O14 0.069233 0.458270 0.281899
O O15 0.103762 0.804860 0.095327
O O16 0.500000 0.776781 0.750000
O O17 0.500000 0.137061 0.750000
O O18 0.749364 0.319812 0.733027
O O19 0.000000 0.337475 0.750000
#
# Coordination Sequence:
#
# PCOD8121731 Si02
#       8
#     4   4   4   4   4   4   4   4
#     4  12  25  40  69 103 146 183 246 297 371 427
#     4  11  26  46  70 101 146 187 245 307 369 438
#     4  11  26  45  70 102 138 190 242 302 374 446
#     4  10  23  41  66  96 145 179 239 291 371 425
#     4  10  23  40  65 104 134 186 227 304 351 438
#     4  10  24  43  69  94 136 186 236 290 360 448
#     4  11  21  42  71  97 139 186 245 290 363 440
#     4  11  24  40  67 100 140 190 236 299 359 440
#
# _framework density 22.417134000000001
#
# number of rings (size 3 to 8) (size 9 to 14) (size 15 to 20)
#    0.000    1.250    1.250    3.750    8.750    3.500 
#    0.000    1.250    0.000    0.000    0.000    0.000 
#    0.000    0.000    0.000    0.000    0.000    0.000 
#
# Total GULP energy -396432.017792 kJ/mol
# GULP energy per Si atom -12388.500556 kJ/mol
# Density = 2.236611 g / cm^3
# Si number density = 22.417134 Si / 1000 Ang^3
#
#
#
# Elastic Constant Matrix: (Units=GPa)
#
#
# Indices 1 2 3 4 5 6 
#
# 1 148.5716 30.9768 50.3003 0.0000 -4.3739 0.0000
# 2 30.9768 104.6685 66.3872 0.0000 -6.8809 0.0000
# 3 50.3003 66.3872 142.8827 0.0000 -13.0665 0.0000
# 4 0.0000 0.0000 0.0000 34.9749 0.0000 10.9704
# 5 -4.3739 -6.8809 -13.0665 0.0000 29.5096 0.0000
# 6 0.0000 0.0000 0.0000 10.9704 0.0000 37.4017
#
#
#
# Elastic Compliance Matrix: (Units=1/GPa)
#
#
# Indices 1 2 3 4 5 6 
#
# 1 0.007688 -0.000793 -0.002346 0.000000 -0.000084 0.000000
# 2 -0.000793 0.013632 -0.006018 0.000000 0.000396 0.000000
# 3 -0.002346 -0.006018 0.010902 0.000000 0.003076 0.000000
# 4 0.000000 0.000000 0.000000 0.031489 0.000000 -0.009236
# 5 -0.000084 0.000396 0.003076 0.000000 0.035329 0.000000
# 6 0.000000 0.000000 0.000000 -0.009236 0.000000 0.029446
#
#
# Mechanical properties :
#
#
# Convention : Reuss Voigt Hill
#
# Bulk Modulus (GPa) = 71.90193 76.82795 74.36494
# Shear Modulus (GPa) = 33.01728 36.94114 34.97921
#
# Velocity S-wave (km/s) = 3.84195 4.06383 3.95445
# Velocity P-wave (km/s) = 7.19895 7.50773 7.35496
#
# Compressibility (1/GPa) = 0.01390783
#
# Stress axis : x y z
#
# Youngs Moduli (GPa) = 130.07696 73.35720 91.72524
#
# Poissons Ratio (x) = 0.05817 0.21515
# Poissons Ratio (y) = 0.10315 0.55204
# Poissons Ratio (z) = 0.30511 0.44149
#
# Static dielectric constant tensor:
#      x y z
#    x 4.023070 0.000000 0.030000 
#    y 0.000000 3.917310 0.000000 
#    z 0.030000 0.000000 4.483640 
# 
# 
# High freq. dielectric constant tensor:
#      x y z
#    x 1.885070 0.000000 0.002200 
#    y 0.000000 1.874930 0.000000 
#    z 0.002200 0.000000 1.892960 
# 
# From -- ./inp_files/96128.got.cif
#   From: 2010.06.25/outbox.cif.g09.slc.cpg/sg13_49_cif.got.tgz:96128.got - 2010.06.28 04:50:58.
