data_PCOD8121142
_publ_section_title
;
Structure prediction by ZEFSAII (Michael W. Deem and Ramdas Pophale) SiO2 
 PCOD8121142
Probable space group: P 2/C
;
_chemical_formula_sum "Si O2"
_cell_formula_units_Z 26
_cell_length_a 16.712455
_cell_length_b 6.441341
_cell_length_c 13.474998
_cell_angle_alpha 90.000000
_cell_angle_beta 58.299444
_cell_angle_gamma 90.000000
_cell_volume 1234.172316
_symmetry_space_group_name_H-M "P 2/C"
_symmetry_group_IT_number 13
_symmetry_cell_setting 'monoclinic'
loop_
_space_group_symop_operation_xyz
x,y,z
-x,y,1/2-z
-x,-y,-z
x,-y,1/2+z
loop_
_atom_site_type_symbol
_atom_site_label
_atom_site_fract_x
_atom_site_fract_y
_atom_site_fract_z
Si Si1 0.153777 0.856452 0.106211
Si Si2 0.725095 0.767227 0.956862
Si Si3 0.860822 0.481158 0.242846
Si Si4 0.000000 0.826954 0.750000
Si Si5 0.775761 0.468363 0.094281
Si Si6 0.519666 0.775003 0.022454
Si Si7 0.568254 0.529567 0.797380
O O1 0.123646 0.703192 0.214822
O O2 0.245503 0.992009 0.074732
O O3 0.071079 0.025445 0.142285
O O4 0.177088 0.724442 0.993535
O O5 0.764942 0.625935 0.842259
O O6 0.764970 0.672272 0.033580
O O7 0.613800 0.753078 0.026511
O O8 0.848558 0.523411 0.134250
O O9 0.947135 0.323849 0.206741
O O10 0.673527 0.402655 0.201762
O O11 0.437440 0.704615 0.153350
O O12 0.523641 0.654298 0.917120
O O13 0.500000 0.000000 0.000000
O O14 0.500000 0.566658 0.750000
#
# Coordination Sequence:
#
# PCOD8121142 Si02
#       7
#     4   4   4   2   4   4   4
#     4  10  24  41  68  94 130 165 209 273 318 393
#     4  10  22  40  59  95 128 167 221 261 316 377
#     4  10  22  43  67  91 129 168 206 266 330 385
#     4  10  22  46  68  96 128 164 210 260 334 402
#     4  11  23  41  65  96 130 172 213 266 323 374
#     4  11  25  38  62  91 127 180 220 265 314 377
#     4  11  24  42  60  92 136 173 215 268 316 370
#
# _framework density 21.066749999999999
#
# number of rings (size 3 to 8) (size 9 to 14) (size 15 to 20)
#    0.000    1.538    3.077    0.462    4.308    4.923 
#    0.000   10.769    0.000    0.000    0.000    0.000 
#    0.000    0.000    0.000    0.000    0.000    0.000 
#
# Total GULP energy -322295.734200 kJ/mol
# GULP energy per Si atom -12395.989777 kJ/mol
# Density = 2.101880 g / cm^3
# Si number density = 21.066750 Si / 1000 Ang^3
#
#
#
# Elastic Constant Matrix: (Units=GPa)
#
#
# Indices 1 2 3 4 5 6 
#
# 1 125.0661 54.7063 55.0246 0.0000 20.5510 0.0000
# 2 54.7063 120.1271 44.3585 0.0000 14.2877 0.0000
# 3 55.0246 44.3585 99.0191 0.0000 15.5559 0.0000
# 4 0.0000 0.0000 0.0000 24.1570 0.0000 -4.7206
# 5 20.5510 14.2877 15.5559 0.0000 33.5619 0.0000
# 6 0.0000 0.0000 0.0000 -4.7206 0.0000 25.7871
#
#
#
# Elastic Compliance Matrix: (Units=1/GPa)
#
#
# Indices 1 2 3 4 5 6 
#
# 1 0.012137 -0.003357 -0.004635 0.000000 -0.003854 0.000000
# 2 -0.003357 0.011077 -0.002889 0.000000 -0.001321 0.000000
# 3 -0.004635 -0.002889 0.014377 0.000000 -0.002596 0.000000
# 4 0.000000 0.000000 0.000000 0.042932 0.000000 0.007859
# 5 -0.003854 -0.001321 -0.002596 0.000000 0.033921 0.000000
# 6 0.000000 0.000000 0.000000 0.007859 0.000000 0.040218
#
#
# Mechanical properties :
#
#
# Convention : Reuss Voigt Hill
#
# Bulk Modulus (GPa) = 63.17895 72.48790 67.83343
# Shear Modulus (GPa) = 27.51779 29.37606 28.44693
#
# Velocity S-wave (km/s) = 3.61809 3.73825 3.67866
# Velocity P-wave (km/s) = 6.89268 7.28808 7.09314
#
# Compressibility (1/GPa) = 0.01582806
#
# Stress axis : x y z
#
# Youngs Moduli (GPa) = 82.39388 90.27358 69.55654
#
# Poissons Ratio (x) = 0.30307 0.32239
# Poissons Ratio (y) = 0.27662 0.20097
# Poissons Ratio (z) = 0.38189 0.26083
#
# Static dielectric constant tensor:
#      x y z
#    x 3.699360 0.000000 -0.001280 
#    y 0.000000 4.063170 0.000000 
#    z -0.001280 0.000000 3.857410 
# 
# 
# High freq. dielectric constant tensor:
#      x y z
#    x 1.825940 0.000000 -0.002230 
#    y 0.000000 1.830670 0.000000 
#    z -0.002230 0.000000 1.826170 
# 
# From -- ./inp_files/54391.got.cif
#   From: 2010.06.25/outbox.cif.g09.slc.cpg/sg13_28_cif.got.tgz:54391.got - 2010.06.28 04:50:58.
