data_PCOD8121366
_publ_section_title
;
Structure prediction by ZEFSAII (Michael W. Deem and Ramdas Pophale) SiO2 
 PCOD8121366
Probable space group: P 2/C
;
_chemical_formula_sum "Si O2"
_cell_formula_units_Z 16
_cell_length_a 7.336199
_cell_length_b 8.939603
_cell_length_c 12.733546
_cell_angle_alpha 90.000000
_cell_angle_beta 55.272917
_cell_angle_gamma 90.000000
_cell_volume 686.348032
_symmetry_space_group_name_H-M "P 2/C"
_symmetry_group_IT_number 13
_symmetry_cell_setting 'monoclinic'
loop_
_space_group_symop_operation_xyz
x,y,z
-x,y,1/2-z
-x,-y,-z
x,-y,1/2+z
loop_
_atom_site_type_symbol
_atom_site_label
_atom_site_fract_x
_atom_site_fract_y
_atom_site_fract_z
Si Si1 0.637830 0.227663 0.405879
Si Si2 0.500000 0.189342 0.750000
Si Si3 0.768763 0.427048 0.545690
Si Si4 0.500000 0.341072 0.250000
Si Si5 0.244622 0.905974 0.142709
O O1 0.748104 0.367695 0.432291
O O2 0.667588 0.245646 0.268794
O O3 0.373474 0.206082 0.520692
O O4 0.767810 0.075774 0.397141
O O5 0.705546 0.289351 0.641744
O O6 0.600753 0.083714 0.805301
O O7 0.599023 0.560676 0.622853
O O8 0.000000 0.500000 0.500000
O O9 0.000000 0.843296 0.250000
#
# Coordination Sequence:
#
# PCOD8121366 Si02
#       5
#     4   2   4   2   4
#     4  10  23  43  61 101 130 163 232 261 324 400
#     4   9  21  44  60 102 127 163 234 254 322 397
#     4  10  23  40  63  92 132 175 212 268 322 388
#     4  11  23  40  64  92 133 171 212 278 314 399
#     4  10  22  41  70  94 133 172 209 281 324 382
#
# _framework density 23.311789999999998
#
# number of rings (size 3 to 8) (size 9 to 14) (size 15 to 20)
#    0.000    2.000    0.000    1.500    7.000    0.000 
#    0.000    5.000    0.000    0.000    0.000    0.000 
#    0.000    0.000    0.000    0.000    0.000    0.000 
#
# Total GULP energy -198222.614305 kJ/mol
# GULP energy per Si atom -12388.913394 kJ/mol
# Density = 2.325873 g / cm^3
# Si number density = 23.311790 Si / 1000 Ang^3
#
#
#
# Elastic Constant Matrix: (Units=GPa)
#
#
# Indices 1 2 3 4 5 6 
#
# 1 122.1256 48.9339 52.1062 0.0000 8.9361 0.0000
# 2 48.9339 93.5232 25.2111 0.0000 7.5972 0.0000
# 3 52.1062 25.2111 77.6629 0.0000 9.6595 0.0000
# 4 0.0000 0.0000 0.0000 25.8486 0.0000 11.7114
# 5 8.9361 7.5972 9.6595 0.0000 58.9888 0.0000
# 6 0.0000 0.0000 0.0000 11.7114 0.0000 31.0147
#
#
#
# Elastic Compliance Matrix: (Units=1/GPa)
#
#
# Indices 1 2 3 4 5 6 
#
# 1 0.013308 -0.004984 -0.007288 0.000000 -0.000181 0.000000
# 2 -0.004984 0.013632 -0.000977 0.000000 -0.000841 0.000000
# 3 -0.007288 -0.000977 0.018303 0.000000 -0.001767 0.000000
# 4 0.000000 0.000000 0.000000 0.046672 0.000000 -0.017624
# 5 -0.000181 -0.000841 -0.001767 0.000000 0.017377 0.000000
# 6 0.000000 0.000000 0.000000 -0.017624 0.000000 0.038898
#
#
# Mechanical properties :
#
#
# Convention : Reuss Voigt Hill
#
# Bulk Modulus (GPa) = 53.34806 60.64601 56.99703
# Shear Modulus (GPa) = 27.63406 34.30779 30.97092
#
# Velocity S-wave (km/s) = 3.44672 3.84043 3.64888
# Velocity P-wave (km/s) = 6.22688 6.76290 6.50042
#
# Compressibility (1/GPa) = 0.01874482
#
# Stress axis : x y z
#
# Youngs Moduli (GPa) = 75.14202 73.35794 54.63546
#
# Poissons Ratio (x) = 0.36560 0.39821
# Poissons Ratio (y) = 0.37449 0.05337
# Poissons Ratio (z) = 0.54767 0.07166
#
# Static dielectric constant tensor:
#      x y z
#    x 2.995750 0.000000 0.440410 
#    y 0.000000 4.191010 0.000000 
#    z 0.440410 0.000000 4.190520 
# 
# 
# High freq. dielectric constant tensor:
#      x y z
#    x 1.897820 0.000000 0.011390 
#    y 0.000000 1.930210 0.000000 
#    z 0.011390 0.000000 1.918990 
# 
# From -- ./inp_files/45427.got.cif
#   From: 2010.06.25/outbox.cif.g09.slc.cpg/sg13_23_cif.got.tgz:45427.got - 2010.06.28 04:50:58.
