data_PCOD8121786
_publ_section_title
;
Structure prediction by ZEFSAII (Michael W. Deem and Ramdas Pophale) SiO2 
 PCOD8121786
Probable space group: P 2/C
;
_chemical_formula_sum "Si O2"
_cell_formula_units_Z 28
_cell_length_a 9.983095
_cell_length_b 7.039994
_cell_length_c 18.894436
_cell_angle_alpha 90.000000
_cell_angle_beta 70.977301
_cell_angle_gamma 90.000000
_cell_volume 1255.400246
_symmetry_space_group_name_H-M "P 2/C"
_symmetry_group_IT_number 13
_symmetry_cell_setting 'monoclinic'
loop_
_space_group_symop_operation_xyz
x,y,z
-x,y,1/2-z
-x,-y,-z
x,-y,1/2+z
loop_
_atom_site_type_symbol
_atom_site_label
_atom_site_fract_x
_atom_site_fract_y
_atom_site_fract_z
Si Si1 0.658459 0.657636 0.739948
Si Si2 0.917743 0.168864 0.641161
Si Si3 0.272417 0.047906 0.710756
Si Si4 0.067366 0.822851 0.661216
Si Si5 0.738199 0.447136 0.592765
Si Si6 0.169611 0.446458 0.570722
Si Si7 0.589894 0.391700 0.869574
O O1 0.500000 0.598837 0.750000
O O2 0.675229 0.882998 0.744938
O O3 0.757162 0.579218 0.659406
O O4 0.683183 0.545934 0.809036
O O5 0.808516 0.241324 0.599007
O O6 0.061582 0.288009 0.615671
O O7 0.839563 0.186625 0.730610
O O8 0.959171 0.944508 0.630221
O O9 0.203835 0.954156 0.653097
O O10 0.402823 0.180957 0.665717
O O11 0.112622 0.645044 0.608554
O O12 0.000000 0.767249 0.750000
O O13 0.826292 0.545069 0.515044
O O14 0.576149 0.432660 0.594654
O O15 0.328747 0.395716 0.569498
#
# Coordination Sequence:
#
# PCOD8121786 Si02
#       7
#     4   4   4   4   4   4   4
#     4  10  23  41  68  99 130 170 226 278 334 393
#     4  11  25  41  64  97 132 170 223 277 330 392
#     4  11  22  41  69 101 123 170 232 278 320 384
#     4  10  24  40  68 100 125 177 232 275 328 391
#     4  11  26  46  65 101 140 180 211 280 350 393
#     4  12  25  46  67  96 142 177 220 275 336 411
#     4  11  23  45  72  94 131 179 229 273 325 407
#
# _framework density 22.303640999999999
#
# number of rings (size 3 to 8) (size 9 to 14) (size 15 to 20)
#    0.000    1.143    4.286    0.857    8.000    0.571 
#    2.571    0.714    0.000    0.000    0.000    0.000 
#    0.000    0.000    0.000    0.000    0.000    0.000 
#
# Total GULP energy -347023.780692 kJ/mol
# GULP energy per Si atom -12393.706453 kJ/mol
# Density = 2.225288 g / cm^3
# Si number density = 22.303641 Si / 1000 Ang^3
#
#
#
# Elastic Constant Matrix: (Units=GPa)
#
#
# Indices 1 2 3 4 5 6 
#
# 1 72.0895 14.2934 13.7220 0.0000 -1.4075 0.0000
# 2 14.2934 89.6478 40.0945 0.0000 -4.3316 0.0000
# 3 13.7220 40.0945 97.2416 0.0000 4.9496 0.0000
# 4 0.0000 0.0000 0.0000 18.8623 0.0000 -3.0314
# 5 -1.4075 -4.3316 4.9496 0.0000 24.5346 0.0000
# 6 0.0000 0.0000 0.0000 -3.0314 0.0000 26.8477
#
#
#
# Elastic Compliance Matrix: (Units=1/GPa)
#
#
# Indices 1 2 3 4 5 6 
#
# 1 0.014481 -0.001638 -0.001410 0.000000 0.000826 0.000000
# 2 -0.001638 0.014182 -0.005799 0.000000 0.003580 0.000000
# 3 -0.001410 -0.005799 0.013064 0.000000 -0.003740 0.000000
# 4 0.000000 0.000000 0.000000 0.053996 0.000000 0.006097
# 5 0.000826 0.003580 -0.003740 0.000000 0.042193 0.000000
# 6 0.000000 0.000000 0.000000 0.006097 0.000000 0.037936
#
#
# Mechanical properties :
#
#
# Convention : Reuss Voigt Hill
#
# Bulk Modulus (GPa) = 41.60891 43.91095 42.75993
# Shear Modulus (GPa) = 24.80697 26.77351 25.79024
#
# Velocity S-wave (km/s) = 3.33864 3.46845 3.40417
# Velocity P-wave (km/s) = 5.79294 5.98086 5.88765
#
# Compressibility (1/GPa) = 0.02403332
#
# Stress axis : x y z
#
# Youngs Moduli (GPa) = 69.05607 70.51004 76.54677
#
# Poissons Ratio (x) = 0.11552 0.10793
# Poissons Ratio (y) = 0.11314 0.44387
# Poissons Ratio (z) = 0.09737 0.40886
#
# Static dielectric constant tensor:
#      x y z
#    x 4.126820 0.000000 -0.017950 
#    y 0.000000 4.055530 0.000000 
#    z -0.017950 0.000000 3.871330 
# 
# 
# High freq. dielectric constant tensor:
#      x y z
#    x 1.888260 0.000000 -0.001620 
#    y 0.000000 1.879190 0.000000 
#    z -0.001620 0.000000 1.856240 
# 
# From -- ./inp_files/77482.got.cif
#   From: 2010.06.25/outbox.cif.g09.slc.cpg/sg13_39_cif.got.tgz:77482.got - 2010.06.28 04:50:58.
