data_PCOD8121544
_publ_section_title
;
Structure prediction by ZEFSAII (Michael W. Deem and Ramdas Pophale) SiO2 
 PCOD8121544
Probable space group: P 2/C
;
_chemical_formula_sum "Si O2"
_cell_formula_units_Z 26
_cell_length_a 14.288278
_cell_length_b 14.332547
_cell_length_c 8.817538
_cell_angle_alpha 90.000000
_cell_angle_beta 142.373943
_cell_angle_gamma 90.000000
_cell_volume 1102.402347
_symmetry_space_group_name_H-M "P 2/C"
_symmetry_group_IT_number 13
_symmetry_cell_setting 'monoclinic'
loop_
_space_group_symop_operation_xyz
x,y,z
-x,y,1/2-z
-x,-y,-z
x,-y,1/2+z
loop_
_atom_site_type_symbol
_atom_site_label
_atom_site_fract_x
_atom_site_fract_y
_atom_site_fract_z
Si Si1 0.927865 0.809346 0.405256
Si Si2 0.535345 0.312931 0.013589
Si Si3 0.000000 0.332699 0.250000
Si Si4 0.296418 0.598108 0.007616
Si Si5 0.500000 0.971800 0.250000
Si Si6 0.772542 0.165215 0.393947
Si Si7 0.710048 0.046336 0.769123
Si Si8 0.500000 0.571402 0.750000
O O1 0.918050 0.725338 0.511622
O O2 0.861220 0.896973 0.415706
O O3 0.104627 0.821768 0.584249
O O4 0.828428 0.790778 0.125720
O O5 0.607762 0.210473 0.138592
O O6 0.459516 0.359795 0.062504
O O7 0.677977 0.376865 0.136897
O O8 0.392663 0.318064 0.714068
O O9 0.121097 0.401325 0.328513
O O10 0.358486 0.494324 0.118379
O O11 0.384867 0.909247 0.208216
O O12 0.597188 0.040783 0.481593
O O13 0.756805 0.054986 0.391494
#
# Coordination Sequence:
#
# PCOD8121544 Si02
#       8
#     4   4   2   4   2   4   4   2
#     4  11  26  44  65  97 143 183 235 288 360 403
#     4  10  22  43  74 104 137 181 230 287 345 412
#     4  12  26  44  68 106 140 188 232 290 350 412
#     4  10  22  45  69 106 142 180 230 281 352 425
#     4  10  24  39  63  94 130 172 250 278 351 399
#     4  11  24  45  70 100 138 181 241 293 347 420
#     4  11  23  44  65  97 135 187 235 296 345 410
#     4  10  22  45  77 106 138 182 228 280 361 421
#
# _framework density 23.584855999999998
#
# number of rings (size 3 to 8) (size 9 to 14) (size 15 to 20)
#    0.000    1.538    3.077    2.308    4.308    5.538 
#    0.000    5.385    0.000    0.000    0.000    0.000 
#    0.000    0.000    0.000    0.000    0.000    0.000 
#
# Total GULP energy -322151.897614 kJ/mol
# GULP energy per Si atom -12390.457601 kJ/mol
# Density = 2.353118 g / cm^3
# Si number density = 23.584856 Si / 1000 Ang^3
#
#
#
# Elastic Constant Matrix: (Units=GPa)
#
#
# Indices 1 2 3 4 5 6 
#
# 1 148.6351 34.5398 35.7557 0.0000 -0.1669 0.0000
# 2 34.5398 63.5137 13.3797 0.0000 11.5759 0.0000
# 3 35.7557 13.3797 68.5750 0.0000 -0.5756 0.0000
# 4 0.0000 0.0000 0.0000 9.0137 0.0000 -7.5393
# 5 -0.1669 11.5759 -0.5756 0.0000 39.4532 0.0000
# 6 0.0000 0.0000 0.0000 -7.5393 0.0000 27.9902
#
#
#
# Elastic Compliance Matrix: (Units=1/GPa)
#
#
# Indices 1 2 3 4 5 6 
#
# 1 0.008561 -0.004102 -0.003654 0.000000 0.001187 0.000000
# 2 -0.004102 0.019375 -0.001689 0.000000 -0.005727 0.000000
# 3 -0.003654 -0.001689 0.016823 0.000000 0.000726 0.000000
# 4 0.000000 0.000000 0.000000 0.143206 0.000000 0.038573
# 5 0.001187 -0.005727 0.000726 0.000000 0.027042 0.000000
# 6 0.000000 0.000000 0.000000 0.038573 0.000000 0.046117
#
#
# Mechanical properties :
#
#
# Convention : Reuss Voigt Hill
#
# Bulk Modulus (GPa) = 38.65601 49.78602 44.22102
# Shear Modulus (GPa) = 17.32270 28.42800 22.87535
#
# Velocity S-wave (km/s) = 2.71308 3.47558 3.11773
# Velocity P-wave (km/s) = 5.12251 6.10421 5.63478
#
# Compressibility (1/GPa) = 0.02586920
#
# Stress axis : x y z
#
# Youngs Moduli (GPa) = 116.80233 51.61224 59.44128
#
# Poissons Ratio (x) = 0.21174 0.21718
# Poissons Ratio (y) = 0.47918 0.10041
# Poissons Ratio (z) = 0.42675 0.08719
#
# Static dielectric constant tensor:
#      x y z
#    x 4.862900 0.000000 -0.118800 
#    y 0.000000 3.750550 0.000000 
#    z -0.118800 0.000000 4.115240 
# 
# 
# High freq. dielectric constant tensor:
#      x y z
#    x 1.967060 0.000000 -0.011390 
#    y 0.000000 1.898440 0.000000 
#    z -0.011390 0.000000 1.920120 
# 
# From -- ./inp_files/19962.got.cif
#   From: 2010.06.25/outbox.cif.g09.slc.cpg/sg13_10_cif.got.tgz:19962.got - 2010.06.28 04:50:58.
