data_PCOD8121507
_publ_section_title
;
Structure prediction by ZEFSAII (Michael W. Deem and Ramdas Pophale) SiO2 
 PCOD8121507
Probable space group: P 2/C
;
_chemical_formula_sum "Si O2"
_cell_formula_units_Z 30
_cell_length_a 19.966557
_cell_length_b 12.286954
_cell_length_c 16.641744
_cell_angle_alpha 90.000000
_cell_angle_beta 20.907107
_cell_angle_gamma 90.000000
_cell_volume 1456.923236
_symmetry_space_group_name_H-M "P 2/C"
_symmetry_group_IT_number 13
_symmetry_cell_setting 'monoclinic'
loop_
_space_group_symop_operation_xyz
x,y,z
-x,y,1/2-z
-x,-y,-z
x,-y,1/2+z
loop_
_atom_site_type_symbol
_atom_site_label
_atom_site_fract_x
_atom_site_fract_y
_atom_site_fract_z
Si Si1 0.372493 0.205683 0.319419
Si Si2 0.110857 0.422176 0.815995
Si Si3 0.919664 0.759926 0.038037
Si Si4 0.533970 0.549614 0.799345
Si Si5 0.101203 0.963992 0.803802
Si Si6 0.396553 0.916913 0.059074
Si Si7 0.103602 0.560452 0.555193
Si Si8 0.000000 0.073118 0.750000
O O1 0.500000 0.166641 0.250000
O O2 0.361711 0.335636 0.329307
O O3 0.171637 0.154373 0.556058
O O4 0.453879 0.166505 0.143626
O O5 0.067971 0.295092 0.886322
O O6 0.335574 0.441544 0.568561
O O7 0.023253 0.455359 0.828511
O O8 0.000000 0.500000 0.000000
O O9 0.749983 0.846406 0.224440
O O10 0.891647 0.660088 0.010733
O O11 0.102340 0.831050 0.807264
O O12 0.500000 0.497533 0.750000
O O13 0.677992 0.471192 0.683503
O O14 0.307096 0.015690 0.583932
O O15 0.008718 0.000665 0.822259
O O16 0.000000 0.000000 0.000000
O O17 0.500000 0.000000 0.000000
O O18 0.000000 0.604651 0.750000
#
# Coordination Sequence:
#
# PCOD8121507 Si02
#       8
#     4   4   4   4   4   4   4   2
#     4  11  23  39  65  96 133 171 227 282 344 401
#     4  10  22  43  66  93 130 174 223 273 340 402
#     4  10  23  44  66  94 136 176 223 278 339 411
#     4  11  23  39  65  98 133 169 222 282 330 410
#     4  10  23  42  69  95 138 177 230 281 339 411
#     4  11  22  44  65  99 134 176 225 282 337 410
#     4  11  24  42  69  98 136 176 223 277 344 406
#     4  12  24  42  72 102 134 190 232 284 360 404
#
# _framework density 20.591339000000001
#
# number of rings (size 3 to 8) (size 9 to 14) (size 15 to 20)
#    0.000    1.333    4.000    1.600    1.867    5.333 
#    4.800    0.000    0.000    0.000    0.000    0.000 
#    0.000    0.000    0.000    0.000    0.000    0.000 
#
# Total GULP energy -371732.370914 kJ/mol
# GULP energy per Si atom -12391.079030 kJ/mol
# Density = 2.054447 g / cm^3
# Si number density = 20.591339 Si / 1000 Ang^3
#
#
#
# Elastic Constant Matrix: (Units=GPa)
#
#
# Indices 1 2 3 4 5 6 
#
# 1 113.2921 54.7855 28.7077 0.0000 -6.5741 0.0000
# 2 54.7855 121.9167 43.1732 0.0000 -13.8920 0.0000
# 3 28.7077 43.1732 101.0178 0.0000 -8.1942 0.0000
# 4 0.0000 0.0000 0.0000 35.2760 0.0000 -1.0221
# 5 -6.5741 -13.8920 -8.1942 0.0000 34.3695 0.0000
# 6 0.0000 0.0000 0.0000 -1.0221 0.0000 36.5463
#
#
#
# Elastic Compliance Matrix: (Units=1/GPa)
#
#
# Indices 1 2 3 4 5 6 
#
# 1 0.011407 -0.004688 -0.001239 0.000000 -0.000008 0.000000
# 2 -0.004688 0.011901 -0.003504 0.000000 0.003078 0.000000
# 3 -0.001239 -0.003504 0.011844 0.000000 0.001170 0.000000
# 4 0.000000 0.000000 0.000000 0.028371 0.000000 0.000793
# 5 -0.000008 0.003078 0.001170 0.000000 0.030617 0.000000
# 6 0.000000 0.000000 0.000000 0.000793 0.000000 0.027385
#
#
# Mechanical properties :
#
#
# Convention : Reuss Voigt Hill
#
# Bulk Modulus (GPa) = 61.38959 65.50660 63.44809
# Shear Modulus (GPa) = 34.28955 35.20903 34.74929
#
# Velocity S-wave (km/s) = 4.08516 4.13957 4.11246
# Velocity P-wave (km/s) = 7.22007 7.39796 7.30956
#
# Compressibility (1/GPa) = 0.01628941
#
# Stress axis : x y z
#
# Youngs Moduli (GPa) = 87.66278 84.02829 84.43222
#
# Poissons Ratio (x) = 0.39396 0.10459
# Poissons Ratio (y) = 0.41100 0.29586
# Poissons Ratio (z) = 0.10859 0.29445
#
# Static dielectric constant tensor:
#      x y z
#    x 4.513590 0.000000 -0.184270 
#    y 0.000000 4.232240 0.000000 
#    z -0.184270 0.000000 3.862900 
# 
# 
# High freq. dielectric constant tensor:
#      x y z
#    x 1.807020 0.000000 0.005200 
#    y 0.000000 1.806360 0.000000 
#    z 0.005200 0.000000 1.806100 
# 
# From -- ./inp_files/70688.got.cif
#   From: 2010.06.25/outbox.cif.g09.slc.cpg/sg13_36_cif.got.tgz:70688.got - 2010.06.28 04:50:58.
