data_PCOD8121040
_publ_section_title
;
Structure prediction by ZEFSAII (Michael W. Deem and Ramdas Pophale) SiO2 
 PCOD8121040
Probable space group: P 2/C
;
_chemical_formula_sum "Si O2"
_cell_formula_units_Z 22
_cell_length_a 8.855135
_cell_length_b 7.964353
_cell_length_c 19.163413
_cell_angle_alpha 90.000000
_cell_angle_beta 54.061729
_cell_angle_gamma 90.000000
_cell_volume 1094.247981
_symmetry_space_group_name_H-M "P 2/C"
_symmetry_group_IT_number 13
_symmetry_cell_setting 'monoclinic'
loop_
_space_group_symop_operation_xyz
x,y,z
-x,y,1/2-z
-x,-y,-z
x,-y,1/2+z
loop_
_atom_site_type_symbol
_atom_site_label
_atom_site_fract_x
_atom_site_fract_y
_atom_site_fract_z
Si Si1 0.348057 0.377087 0.843640
Si Si2 0.588140 0.599255 0.540303
Si Si3 0.500000 0.948259 0.250000
Si Si4 0.693949 0.157574 0.312481
Si Si5 0.000000 0.910957 0.250000
Si Si6 0.000000 0.403000 0.250000
Si Si7 0.031052 0.649861 0.126114
O O1 0.500000 0.461236 0.750000
O O2 0.383566 0.457639 0.908770
O O3 0.381402 0.173626 0.834533
O O4 0.137519 0.414145 0.876541
O O5 0.500000 0.500000 0.500000
O O6 0.466912 0.760240 0.596646
O O7 0.786883 0.685404 0.469277
O O8 0.624715 0.074297 0.260520
O O9 0.840828 0.301515 0.252465
O O10 0.815724 0.017761 0.320606
O O11 0.043721 0.806280 0.308129
O O12 0.098966 0.510568 0.163095
#
# Coordination Sequence:
#
# PCOD8121040 Si02
#       7
#     4   4   2   4   2   2   4
#     4  10  23  45  69  93 134 184 225 266 334 406
#     4  12  26  42  68 106 135 170 224 286 333 391
#     4  10  24  42  70  92 132 174 230 268 332 390
#     4  11  23  42  65 101 128 177 223 274 327 403
#     4  10  22  44  68  96 134 182 218 266 338 408
#     4  10  22  38  70  92 134 176 232 258 328 416
#     4  11  22  43  67  98 135 177 220 277 336 391
#
# _framework density 20.105131
#
# number of rings (size 3 to 8) (size 9 to 14) (size 15 to 20)
#    0.545    0.727    3.636    1.636    8.909    0.727 
#    0.000    0.909    0.000    0.000    0.000    0.000 
#    0.000    0.000    0.000    0.000    0.000    0.000 
#
# Total GULP energy -272641.888256 kJ/mol
# GULP energy per Si atom -12392.813103 kJ/mol
# Density = 2.005937 g / cm^3
# Si number density = 20.105131 Si / 1000 Ang^3
#
#
#
# Elastic Constant Matrix: (Units=GPa)
#
#
# Indices 1 2 3 4 5 6 
#
# 1 144.1777 53.8211 61.1650 0.0000 1.7698 0.0000
# 2 53.8211 108.6122 53.3667 0.0000 6.3009 0.0000
# 3 61.1650 53.3667 124.6992 0.0000 -13.2577 0.0000
# 4 0.0000 0.0000 0.0000 24.1516 0.0000 -0.9096
# 5 1.7698 6.3009 -13.2577 0.0000 41.3505 0.0000
# 6 0.0000 0.0000 0.0000 -0.9096 0.0000 26.0384
#
#
#
# Elastic Compliance Matrix: (Units=1/GPa)
#
#
# Indices 1 2 3 4 5 6 
#
# 1 0.009546 -0.002923 -0.003548 0.000000 -0.001101 0.000000
# 2 -0.002923 0.013063 -0.004509 0.000000 -0.003311 0.000000
# 3 -0.003548 -0.004509 0.012194 0.000000 0.004749 0.000000
# 4 0.000000 0.000000 0.000000 0.041460 0.000000 0.001448
# 5 -0.001101 -0.003311 0.004749 0.000000 0.026258 0.000000
# 6 0.000000 0.000000 0.000000 0.001448 0.000000 0.038455
#
#
# Mechanical properties :
#
#
# Convention : Reuss Voigt Hill
#
# Bulk Modulus (GPa) = 77.86432 79.35497 78.60964
# Shear Modulus (GPa) = 29.90127 32.25050 31.07588
#
# Velocity S-wave (km/s) = 3.86067 4.00946 3.93577
# Velocity P-wave (km/s) = 7.66066 7.80961 7.73549
#
# Compressibility (1/GPa) = 0.01284285
#
# Stress axis : x y z
#
# Youngs Moduli (GPa) = 104.75736 76.55229 82.00596
#
# Poissons Ratio (x) = 0.22376 0.29099
# Poissons Ratio (y) = 0.30620 0.36975
# Poissons Ratio (z) = 0.37172 0.34516
#
# Static dielectric constant tensor:
#      x y z
#    x 3.749980 0.000000 -0.182610 
#    y 0.000000 3.718490 0.000000 
#    z -0.182610 0.000000 3.465200 
# 
# 
# High freq. dielectric constant tensor:
#      x y z
#    x 1.803840 0.000000 -0.011310 
#    y 0.000000 1.785620 0.000000 
#    z -0.011310 0.000000 1.762690 
# 
# From -- ./inp_files/63256.got.cif
#   From: 2010.06.25/outbox.cif.g09.slc.cpg/sg13_32_cif.got.tgz:63256.got - 2010.06.28 04:50:58.
