data_PCOD8121157
_publ_section_title
;
Structure prediction by ZEFSAII (Michael W. Deem and Ramdas Pophale) SiO2 
 PCOD8121157
Probable space group: P 2/C
;
_chemical_formula_sum "Si O2"
_cell_formula_units_Z 26
_cell_length_a 19.033433
_cell_length_b 11.771021
_cell_length_c 8.735990
_cell_angle_alpha 90.000000
_cell_angle_beta 40.175296
_cell_angle_gamma 90.000000
_cell_volume 1262.668910
_symmetry_space_group_name_H-M "P 2/C"
_symmetry_group_IT_number 13
_symmetry_cell_setting 'monoclinic'
loop_
_space_group_symop_operation_xyz
x,y,z
-x,y,1/2-z
-x,-y,-z
x,-y,1/2+z
loop_
_atom_site_type_symbol
_atom_site_label
_atom_site_fract_x
_atom_site_fract_y
_atom_site_fract_z
Si Si1 0.621170 0.338866 0.545841
Si Si2 0.196451 0.158797 0.160766
Si Si3 0.700723 0.520004 0.635773
Si Si4 0.148849 0.563825 0.381998
Si Si5 0.040827 0.763048 0.451900
Si Si6 0.877260 0.034184 0.507796
Si Si7 0.000000 0.628260 0.250000
O O1 0.500000 0.286939 0.750000
O O2 0.701629 0.241568 0.476552
O O3 0.619436 0.450123 0.660243
O O4 0.647867 0.379284 0.326943
O O5 0.088852 0.233214 0.328227
O O6 0.187342 0.073016 0.319319
O O7 0.200358 0.088469 0.993940
O O8 0.800839 0.569421 0.371739
O O9 0.752812 0.427462 0.662811
O O10 0.074570 0.674241 0.528388
O O11 0.079327 0.448205 0.513399
O O12 0.102785 0.880314 0.382027
O O13 0.073299 0.711331 0.233241
O O14 0.000000 0.999986 0.250000
#
# Coordination Sequence:
#
# PCOD8121157 Si02
#       7
#     4   4   4   4   4   4   2
#     4  11  24  44  67  92 124 164 216 277 324 376
#     4  11  25  41  64  90 123 170 220 264 318 368
#     4  10  22  40  61  90 128 169 210 247 321 391
#     4  11  22  35  54  96 133 174 202 252 305 396
#     4  11  22  34  58  89 138 170 204 249 307 382
#     4  10  23  41  63  91 127 169 217 257 309 388
#     4  12  24  30  54  92 146 178 208 242 306 376
#
# _framework density 20.591305999999999
#
# number of rings (size 3 to 8) (size 9 to 14) (size 15 to 20)
#    0.000    1.231    1.538    5.538    8.615    0.000 
#    0.000    0.769    0.000    0.000    0.000    0.000 
#    0.000    0.000    0.000    0.000    0.000    0.000 
#
# Total GULP energy -322157.268978 kJ/mol
# GULP energy per Si atom -12390.664191 kJ/mol
# Density = 2.054444 g / cm^3
# Si number density = 20.591306 Si / 1000 Ang^3
#
#
#
# Elastic Constant Matrix: (Units=GPa)
#
#
# Indices 1 2 3 4 5 6 
#
# 1 83.2110 44.5879 54.8392 0.0000 -6.6019 0.0000
# 2 44.5879 88.6933 44.6591 0.0000 -11.0432 0.0000
# 3 54.8392 44.6591 101.2048 0.0000 -0.7776 0.0000
# 4 0.0000 0.0000 0.0000 24.6051 0.0000 3.7390
# 5 -6.6019 -11.0432 -0.7776 0.0000 32.7247 0.0000
# 6 0.0000 0.0000 0.0000 3.7390 0.0000 20.6051
#
#
#
# Elastic Compliance Matrix: (Units=1/GPa)
#
#
# Indices 1 2 3 4 5 6 
#
# 1 0.021197 -0.005945 -0.008847 0.000000 0.002060 0.000000
# 2 -0.005945 0.016938 -0.004219 0.000000 0.004416 0.000000
# 3 -0.008847 -0.004219 0.016515 0.000000 -0.002816 0.000000
# 4 0.000000 0.000000 0.000000 0.041794 0.000000 -0.007584
# 5 0.002060 0.004416 -0.002816 0.000000 0.032397 0.000000
# 6 0.000000 0.000000 0.000000 -0.007584 0.000000 0.049908
#
#
# Mechanical properties :
#
#
# Convention : Reuss Voigt Hill
#
# Bulk Modulus (GPa) = 60.13893 62.36463 61.25178
# Shear Modulus (GPa) = 22.49089 24.18850 23.33970
#
# Velocity S-wave (km/s) = 3.30851 3.43110 3.37036
# Velocity P-wave (km/s) = 6.62302 6.78596 6.70498
#
# Compressibility (1/GPa) = 0.01662817
#
# Stress axis : x y z
#
# Youngs Moduli (GPa) = 47.17647 59.03991 60.55257
#
# Poissons Ratio (x) = 0.35101 0.53568
# Poissons Ratio (y) = 0.28048 0.25545
# Poissons Ratio (z) = 0.41735 0.24907
#
# Static dielectric constant tensor:
#      x y z
#    x 3.971440 0.000000 0.439980 
#    y 0.000000 3.730030 0.000000 
#    z 0.439980 0.000000 3.682910 
# 
# 
# High freq. dielectric constant tensor:
#      x y z
#    x 1.810600 0.000000 0.035290 
#    y 0.000000 1.802100 0.000000 
#    z 0.035290 0.000000 1.779350 
# 
# From -- ./inp_files/23309.got.cif
#   From: 2010.06.25/outbox.cif.g09.slc.cpg/sg13_12_cif.got.tgz:23309.got - 2010.06.28 04:50:58.
