data_PCOD8121230
_publ_section_title
;
Structure prediction by ZEFSAII (Michael W. Deem and Ramdas Pophale) SiO2 
 PCOD8121230
Probable space group: P 2/C
;
_chemical_formula_sum "Si O2"
_cell_formula_units_Z 28
_cell_length_a 8.233446
_cell_length_b 13.753168
_cell_length_c 13.859705
_cell_angle_alpha 90.000000
_cell_angle_beta 65.238459
_cell_angle_gamma 90.000000
_cell_volume 1425.123035
_symmetry_space_group_name_H-M "P 2/C"
_symmetry_group_IT_number 13
_symmetry_cell_setting 'monoclinic'
loop_
_space_group_symop_operation_xyz
x,y,z
-x,y,1/2-z
-x,-y,-z
x,-y,1/2+z
loop_
_atom_site_type_symbol
_atom_site_label
_atom_site_fract_x
_atom_site_fract_y
_atom_site_fract_z
Si Si1 0.198490 0.698514 0.878224
Si Si2 0.306119 0.270270 0.564851
Si Si3 0.536240 0.104616 0.448001
Si Si4 0.601317 0.408717 0.520829
Si Si5 0.000000 0.354147 0.750000
Si Si6 0.858362 0.745984 0.874950
Si Si7 0.151325 0.485414 0.882780
Si Si8 0.500000 0.834463 0.750000
O O1 0.202650 0.591604 0.829032
O O2 0.325525 0.766350 0.781087
O O3 0.996857 0.743993 0.931268
O O4 0.276407 0.687283 0.965471
O O5 0.378769 0.161910 0.540720
O O6 0.448766 0.333681 0.586985
O O7 0.128481 0.275843 0.670053
O O8 0.731650 0.157173 0.412905
O O9 0.492036 0.097731 0.345496
O O10 0.500000 0.000000 0.500000
O O11 0.500000 0.500000 0.500000
O O12 0.738685 0.353120 0.412462
O O13 0.685110 0.435558 0.602690
O O14 0.910967 0.421657 0.691595
O O15 0.000000 0.743109 0.750000
O O16 0.000000 0.500000 0.000000
#
# Coordination Sequence:
#
# PCOD8121230 Si02
#       8
#     4   4   4   4   2   4   4   2
#     4  11  21  39  60  95 127 169 216 269 310 380
#     4  10  23  41  61  88 132 167 213 268 321 388
#     4  10  23  46  67  95 127 158 211 281 337 396
#     4  11  21  39  58  91 136 175 211 271 321 368
#     4  12  24  40  58  90 130 182 218 260 326 376
#     4  11  22  37  67  95 126 168 220 266 320 392
#     4  12  23  37  59  89 135 175 222 262 301 387
#     4  10  22  40  68  92 126 162 208 270 336 382
#
# _framework density 19.647425999999999
#
# number of rings (size 3 to 8) (size 9 to 14) (size 15 to 20)
#    0.000    1.143    5.714    0.000    1.000    1.714 
#    1.286    7.143    0.000    0.000    0.000    0.000 
#    0.000    0.000    0.000    0.000    0.000    0.000 
#
# Total GULP energy -346917.373463 kJ/mol
# GULP energy per Si atom -12389.906195 kJ/mol
# Density = 1.960271 g / cm^3
# Si number density = 19.647426 Si / 1000 Ang^3
#
#
#
# Elastic Constant Matrix: (Units=GPa)
#
#
# Indices 1 2 3 4 5 6 
#
# 1 135.3456 75.2110 40.7532 0.0000 -1.3610 0.0000
# 2 75.2110 148.9655 72.9513 0.0000 -2.7126 0.0000
# 3 40.7532 72.9513 98.3206 0.0000 -10.3492 0.0000
# 4 0.0000 0.0000 0.0000 27.1544 0.0000 0.2769
# 5 -1.3610 -2.7126 -10.3492 0.0000 34.4804 0.0000
# 6 0.0000 0.0000 0.0000 0.2769 0.0000 27.4899
#
#
#
# Elastic Compliance Matrix: (Units=1/GPa)
#
#
# Indices 1 2 3 4 5 6 
#
# 1 0.010297 -0.004874 -0.000671 0.000000 -0.000178 0.000000
# 2 -0.004874 0.012934 -0.007734 0.000000 -0.001496 0.000000
# 3 -0.000671 -0.007734 0.016646 0.000000 0.004361 0.000000
# 4 0.000000 0.000000 0.000000 0.036830 0.000000 -0.000371
# 5 -0.000178 -0.001496 0.004361 0.000000 0.030186 0.000000
# 6 0.000000 0.000000 0.000000 -0.000371 0.000000 0.036381
#
#
# Mechanical properties :
#
#
# Convention : Reuss Voigt Hill
#
# Bulk Modulus (GPa) = 75.07219 84.49585 79.78402
# Shear Modulus (GPa) = 28.69097 30.73936 29.71516
#
# Velocity S-wave (km/s) = 3.82552 3.95973 3.89320
# Velocity P-wave (km/s) = 7.60299 8.00034 7.80419
#
# Compressibility (1/GPa) = 0.01332051
#
# Stress axis : x y z
#
# Youngs Moduli (GPa) = 97.11688 77.31681 60.07349
#
# Poissons Ratio (x) = 0.37681 0.04029
# Poissons Ratio (y) = 0.47331 0.46461
# Poissons Ratio (z) = 0.06513 0.59797
#
# Static dielectric constant tensor:
#      x y z
#    x 4.233800 0.000000 -0.168270 
#    y 0.000000 4.060610 0.000000 
#    z -0.168270 0.000000 3.477490 
# 
# 
# High freq. dielectric constant tensor:
#      x y z
#    x 1.792880 0.000000 -0.003360 
#    y 0.000000 1.738900 0.000000 
#    z -0.003360 0.000000 1.757980 
# 
# From -- ./inp_files/47168.got.cif
#   From: 2010.06.25/outbox.cif.g09.slc.cpg/sg13_24_cif.got.tgz:47168.got - 2010.06.28 04:50:58.
