data_PCOD8121863
_publ_section_title
;
Structure prediction by ZEFSAII (Michael W. Deem and Ramdas Pophale) SiO2 
 PCOD8121863
Probable space group: P 2/C
;
_chemical_formula_sum "Si O2"
_cell_formula_units_Z 18
_cell_length_a 12.720254
_cell_length_b 8.299340
_cell_length_c 20.117642
_cell_angle_alpha 90.000000
_cell_angle_beta 23.111262
_cell_angle_gamma 90.000000
_cell_volume 833.634907
_symmetry_space_group_name_H-M "P 2/C"
_symmetry_group_IT_number 13
_symmetry_cell_setting 'monoclinic'
loop_
_space_group_symop_operation_xyz
x,y,z
-x,y,1/2-z
-x,-y,-z
x,-y,1/2+z
loop_
_atom_site_type_symbol
_atom_site_label
_atom_site_fract_x
_atom_site_fract_y
_atom_site_fract_z
Si Si1 0.000000 0.169392 0.750000
Si Si2 0.708198 0.933528 0.185598
Si Si3 0.724468 0.948817 0.819060
Si Si4 0.524160 0.622710 0.926539
Si Si5 0.701255 0.552891 0.190499
O O1 0.245968 0.281204 0.585762
O O2 0.976108 0.053241 0.698339
O O3 0.500000 0.989824 0.250000
O O4 0.704184 0.743297 0.196435
O O5 0.622683 0.009545 0.304851
O O6 0.000000 0.000000 0.000000
O O7 0.763092 0.754111 0.799961
O O8 0.500000 0.000000 0.000000
O O9 0.589598 0.525897 0.822242
O O10 0.500000 0.500000 0.000000
O O11 0.500000 0.496303 0.250000
O O12 0.000000 0.500000 0.000000
#
# Coordination Sequence:
#
# PCOD8121863 Si02
#       5
#     2   4   4   4   4
#     4  10  24  44  74 102 142 190 238 298 356 432
#     4  11  26  46  71 103 143 188 238 289 358 431
#     4  10  23  43  69  99 136 184 236 279 351 421
#     4  11  25  45  71 104 141 186 238 297 357 424
#     4  11  26  45  71 105 143 185 235 297 360 423
#
# _framework density 21.592186000000002
#
# number of rings (size 3 to 8) (size 9 to 14) (size 15 to 20)
#    0.000    1.333    0.000    4.000   12.444    2.667 
#    0.000    0.000    0.000    0.000    0.000    0.000 
#    0.000    0.000    0.000    0.000    0.000    0.000 
#
# Total GULP energy -223100.318070 kJ/mol
# GULP energy per Si atom -12394.462115 kJ/mol
# Density = 2.154304 g / cm^3
# Si number density = 21.592186 Si / 1000 Ang^3
#
#
#
# Elastic Constant Matrix: (Units=GPa)
#
#
# Indices 1 2 3 4 5 6 
#
# 1 194.7186 99.1114 91.9597 0.0000 21.0871 0.0000
# 2 99.1114 158.2693 62.8475 0.0000 9.5891 0.0000
# 3 91.9597 62.8475 134.9045 0.0000 10.0290 0.0000
# 4 0.0000 0.0000 0.0000 46.4667 0.0000 -0.3849
# 5 21.0871 9.5891 10.0290 0.0000 50.9966 0.0000
# 6 0.0000 0.0000 0.0000 -0.3849 0.0000 40.5701
#
#
#
# Elastic Compliance Matrix: (Units=1/GPa)
#
#
# Indices 1 2 3 4 5 6 
#
# 1 0.009564 -0.004084 -0.004445 0.000000 -0.002313 0.000000
# 2 -0.004084 0.009525 -0.001670 0.000000 0.000226 0.000000
# 3 -0.004445 -0.001670 0.011225 0.000000 -0.000055 0.000000
# 4 0.000000 0.000000 0.000000 0.021522 0.000000 0.000204
# 5 -0.002313 0.000226 -0.000055 0.000000 0.020534 0.000000
# 6 0.000000 0.000000 0.000000 0.000204 0.000000 0.024651
#
#
# Mechanical properties :
#
#
# Convention : Reuss Voigt Hill
#
# Bulk Modulus (GPa) = 100.85128 110.63661 105.74394
# Shear Modulus (GPa) = 41.41630 43.20494 42.31062
#
# Velocity S-wave (km/s) = 4.38438 4.47805 4.43146
# Velocity P-wave (km/s) = 8.51112 8.83673 8.67545
#
# Compressibility (1/GPa) = 0.00991559
#
# Stress axis : x y z
#
# Youngs Moduli (GPa) = 104.55836 104.98168 89.08730
#
# Poissons Ratio (x) = 0.42875 0.39599
# Poissons Ratio (y) = 0.42702 0.14882
# Poissons Ratio (z) = 0.46476 0.17537
#
# Static dielectric constant tensor:
#      x y z
#    x 5.130500 0.000000 -0.318020 
#    y 0.000000 4.781000 0.000000 
#    z -0.318020 0.000000 4.356620 
# 
# 
# High freq. dielectric constant tensor:
#      x y z
#    x 1.857090 0.000000 0.010390 
#    y 0.000000 1.872450 0.000000 
#    z 0.010390 0.000000 1.855470 
# 
# From -- ./inp_files/38501.got.cif
#   From: 2010.06.25/outbox.cif.g09.slc.cpg/sg13_20_cif.got.tgz:38501.got - 2010.06.28 04:50:58.
