data_PCOD8121001
_publ_section_title
;
Structure prediction by ZEFSAII (Michael W. Deem and Ramdas Pophale) SiO2 
 PCOD8121001
Probable space group: P 2/C
;
_chemical_formula_sum "Si O2"
_cell_formula_units_Z 26
_cell_length_a 5.123674
_cell_length_b 11.632443
_cell_length_c 21.469297
_cell_angle_alpha 90.000000
_cell_angle_beta 106.952320
_cell_angle_gamma 90.000000
_cell_volume 1223.987243
_symmetry_space_group_name_H-M "P 2/C"
_symmetry_group_IT_number 13
_symmetry_cell_setting 'monoclinic'
loop_
_space_group_symop_operation_xyz
x,y,z
-x,y,1/2-z
-x,-y,-z
x,-y,1/2+z
loop_
_atom_site_type_symbol
_atom_site_label
_atom_site_fract_x
_atom_site_fract_y
_atom_site_fract_z
Si Si1 0.824642 0.569602 0.072071
Si Si2 0.661811 0.571665 0.923960
Si Si3 0.290673 0.002679 0.681986
Si Si4 0.932340 0.196038 0.918841
Si Si5 0.478896 0.135183 0.502367
Si Si6 0.000000 0.158687 0.250000
Si Si7 0.442729 0.798992 0.867716
O O1 0.589941 0.520380 0.102737
O O2 0.044719 0.470938 0.076933
O O3 0.002613 0.679453 0.107816
O O4 0.669928 0.604500 0.997573
O O5 0.632753 0.686817 0.881031
O O6 0.500000 0.045051 0.750000
O O7 0.068004 0.921786 0.696868
O O8 0.424845 0.922842 0.638461
O O9 0.137755 0.111646 0.642715
O O10 0.678083 0.190492 0.949373
O O11 0.202649 0.165341 0.975129
O O12 0.328661 0.185366 0.430158
O O13 0.500000 0.000000 0.500000
O O14 0.762852 0.235063 0.203106
#
# Coordination Sequence:
#
# PCOD8121001 Si02
#       7
#     4   4   4   4   4   2   4
#     4  10  22  39  59  94 126 172 202 255 318 374
#     4  10  22  38  62  89 129 163 212 253 313 378
#     4  10  24  43  63  95 126 173 213 267 329 396
#     4  12  24  41  65  95 133 166 212 261 326 392
#     4  12  24  36  62 103 131 159 205 268 330 386
#     4  10  24  42  66  90 126 172 216 256 336 380
#     4  11  23  40  65  94 128 169 213 270 326 386
#
# _framework density 21.242051
#
# number of rings (size 3 to 8) (size 9 to 14) (size 15 to 20)
#    0.000    1.231    3.077    2.308   10.769    0.000 
#    0.000    0.000    3.385    0.000    0.000    0.000 
#    0.000    0.000    0.000    0.000    0.000    0.000 
#
# Total GULP energy -322102.986982 kJ/mol
# GULP energy per Si atom -12388.576422 kJ/mol
# Density = 2.119370 g / cm^3
# Si number density = 21.242051 Si / 1000 Ang^3
#
#
#
# Elastic Constant Matrix: (Units=GPa)
#
#
# Indices 1 2 3 4 5 6 
#
# 1 78.2137 4.3773 25.8195 0.0000 9.3774 0.0000
# 2 4.3773 102.2175 53.5349 0.0000 23.7979 0.0000
# 3 25.8195 53.5349 109.0410 0.0000 11.0112 0.0000
# 4 0.0000 0.0000 0.0000 25.9175 0.0000 19.2852
# 5 9.3774 23.7979 11.0112 0.0000 25.4403 0.0000
# 6 0.0000 0.0000 0.0000 19.2852 0.0000 25.3725
#
#
#
# Elastic Compliance Matrix: (Units=1/GPa)
#
#
# Indices 1 2 3 4 5 6 
#
# 1 0.014856 0.003213 -0.004432 0.000000 -0.006563 0.000000
# 2 0.003213 0.016816 -0.007643 0.000000 -0.013607 0.000000
# 3 -0.004432 -0.007643 0.013684 0.000000 0.002861 0.000000
# 4 0.000000 0.000000 0.000000 0.088817 0.000000 -0.067509
# 5 -0.006563 -0.013607 0.002861 0.000000 0.053218 0.000000
# 6 0.000000 0.000000 0.000000 -0.067509 0.000000 0.090725
#
#
# Mechanical properties :
#
#
# Convention : Reuss Voigt Hill
#
# Bulk Modulus (GPa) = 36.19023 50.77062 43.48043
# Shear Modulus (GPa) = 16.39073 29.06209 22.72641
#
# Velocity S-wave (km/s) = 2.78081 3.70285 3.27445
# Velocity P-wave (km/s) = 5.23303 6.49880 5.89996
#
# Compressibility (1/GPa) = 0.02763176
#
# Stress axis : x y z
#
# Youngs Moduli (GPa) = 67.31389 59.46625 73.07846
#
# Poissons Ratio (x) = -0.19108 0.32392
# Poissons Ratio (y) = -0.21630 0.55853
# Poissons Ratio (z) = 0.29837 0.45450
#
# Static dielectric constant tensor:
#      x y z
#    x 3.847860 0.000000 0.216940 
#    y 0.000000 4.101880 0.000000 
#    z 0.216940 0.000000 3.557350 
# 
# 
# High freq. dielectric constant tensor:
#      x y z
#    x 1.836710 0.000000 0.015860 
#    y 0.000000 1.836650 0.000000 
#    z 0.015860 0.000000 1.806640 
# 
# From -- ./inp_files/73725.got.cif
#   From: 2010.06.25/outbox.cif.g09.slc.cpg/sg13_37_cif.got.tgz:73725.got - 2010.06.28 04:50:58.
