data_PCOD8121970
_publ_section_title
;
Structure prediction by ZEFSAII (Michael W. Deem and Ramdas Pophale) SiO2 
 PCOD8121970
Probable space group: P 2/C
;
_chemical_formula_sum "Si O2"
_cell_formula_units_Z 22
_cell_length_a 11.510811
_cell_length_b 11.651588
_cell_length_c 10.569788
_cell_angle_alpha 90.000000
_cell_angle_beta 41.916316
_cell_angle_gamma 90.000000
_cell_volume 947.027744
_symmetry_space_group_name_H-M "P 2/C"
_symmetry_group_IT_number 13
_symmetry_cell_setting 'monoclinic'
loop_
_space_group_symop_operation_xyz
x,y,z
-x,y,1/2-z
-x,-y,-z
x,-y,1/2+z
loop_
_atom_site_type_symbol
_atom_site_label
_atom_site_fract_x
_atom_site_fract_y
_atom_site_fract_z
Si Si1 0.610953 0.034478 0.288345
Si Si2 0.624611 0.264100 0.393663
Si Si3 0.165271 0.562520 0.931990
Si Si4 0.760537 0.189407 0.738246
Si Si5 0.819889 0.338750 0.464528
Si Si6 0.000000 0.258116 0.750000
O O1 0.500000 0.041417 0.250000
O O2 0.748864 0.931015 0.171407
O O3 0.500000 0.000000 0.500000
O O4 0.698379 0.157921 0.248492
O O5 0.693685 0.384545 0.280291
O O6 0.417591 0.250175 0.570683
O O7 0.691378 0.261320 0.484270
O O8 0.261999 0.463333 0.935141
O O9 0.112290 0.663350 0.067578
O O10 0.000000 0.500000 0.000000
O O11 0.860186 0.273668 0.562516
O O12 0.875103 0.173895 0.771371
O O13 0.000000 0.361073 0.250000
#
# Coordination Sequence:
#
# PCOD8121970 Si02
#       6
#     4   4   4   4   4   2
#     4  10  23  47  75 105 149 187 241 320 370 430
#     4  11  25  45  76 104 137 198 247 299 367 443
#     4  12  23  46  67  98 149 193 232 302 369 419
#     4  11  25  45  73 108 144 187 249 303 370 444
#     4  12  23  47  71 100 149 191 233 301 373 432
#     4  12  24  44  64 104 146 188 230 298 364 434
#
# _framework density 23.230575999999999
#
# number of rings (size 3 to 8) (size 9 to 14) (size 15 to 20)
#    0.000    0.727    4.545    2.727    5.091    0.727 
#    4.909    1.818    0.000    0.000    0.000    0.000 
#    0.000    0.000    0.000    0.000    0.000    0.000 
#
# Total GULP energy -272687.870350 kJ/mol
# GULP energy per Si atom -12394.903198 kJ/mol
# Density = 2.317770 g / cm^3
# Si number density = 23.230576 Si / 1000 Ang^3
#
#
#
# Elastic Constant Matrix: (Units=GPa)
#
#
# Indices 1 2 3 4 5 6 
#
# 1 192.8085 72.6202 23.2336 0.0000 9.5584 0.0000
# 2 72.6202 152.4388 38.3127 0.0000 3.0848 0.0000
# 3 23.2336 38.3127 69.8727 0.0000 16.2665 0.0000
# 4 0.0000 0.0000 0.0000 30.2581 0.0000 7.8337
# 5 9.5584 3.0848 16.2665 0.0000 27.2026 0.0000
# 6 0.0000 0.0000 0.0000 7.8337 0.0000 48.1916
#
#
#
# Elastic Compliance Matrix: (Units=1/GPa)
#
#
# Indices 1 2 3 4 5 6 
#
# 1 0.006418 -0.003008 -0.000046 0.000000 -0.001887 0.000000
# 2 -0.003008 0.009103 -0.004644 0.000000 0.002801 0.000000
# 3 -0.000046 -0.004644 0.019455 0.000000 -0.011091 0.000000
# 4 0.000000 0.000000 0.000000 0.034501 0.000000 -0.005608
# 5 -0.001887 0.002801 -0.011091 0.000000 0.043739 0.000000
# 6 0.000000 0.000000 0.000000 -0.005608 0.000000 0.021662
#
#
# Mechanical properties :
#
#
# Convention : Reuss Voigt Hill
#
# Bulk Modulus (GPa) = 51.06563 75.93921 63.50242
# Shear Modulus (GPa) = 31.88761 39.86069 35.87415
#
# Velocity S-wave (km/s) = 3.70896 4.14680 3.93398
# Velocity P-wave (km/s) = 6.35387 7.46246 6.93036
#
# Compressibility (1/GPa) = 0.01958264
#
# Stress axis : x y z
#
# Youngs Moduli (GPa) = 155.79970 109.84921 51.40058
#
# Poissons Ratio (x) = 0.33043 0.00234
# Poissons Ratio (y) = 0.46866 0.23868
# Poissons Ratio (z) = 0.00710 0.51009
#
# Static dielectric constant tensor:
#      x y z
#    x 4.764280 0.000000 0.361320 
#    y 0.000000 5.245430 0.000000 
#    z 0.361320 0.000000 4.019130 
# 
# 
# High freq. dielectric constant tensor:
#      x y z
#    x 1.923630 0.000000 0.025800 
#    y 0.000000 1.928330 0.000000 
#    z 0.025800 0.000000 1.908380 
# 
# From -- ./inp_files/33628.got.cif
#   From: 2010.06.25/outbox.cif.g09.slc.cpg/sg13_17_cif.got.tgz:33628.got - 2010.06.28 04:50:58.
