data_PCOD8121549
_publ_section_title
;
Structure prediction by ZEFSAII (Michael W. Deem and Ramdas Pophale) SiO2 
 PCOD8121549
Probable space group: P 2/C
;
_chemical_formula_sum "Si O2"
_cell_formula_units_Z 22
_cell_length_a 13.313769
_cell_length_b 12.596624
_cell_length_c 16.683455
_cell_angle_alpha 90.000000
_cell_angle_beta 22.966728
_cell_angle_gamma 90.000000
_cell_volume 1091.753442
_symmetry_space_group_name_H-M "P 2/C"
_symmetry_group_IT_number 13
_symmetry_cell_setting 'monoclinic'
loop_
_space_group_symop_operation_xyz
x,y,z
-x,y,1/2-z
-x,-y,-z
x,-y,1/2+z
loop_
_atom_site_type_symbol
_atom_site_label
_atom_site_fract_x
_atom_site_fract_y
_atom_site_fract_z
Si Si1 0.713922 0.786942 0.764832
Si Si2 0.139162 0.732431 0.226791
Si Si3 0.092217 0.380633 0.925788
Si Si4 0.781863 0.905669 0.565128
Si Si5 0.500000 0.287447 0.750000
Si Si6 0.903150 0.125348 0.404180
O O1 0.794505 0.887932 0.651040
O O2 0.836077 0.683303 0.635121
O O3 0.844698 0.811919 0.752622
O O4 0.414563 0.771832 0.995748
O O5 0.168023 0.647036 0.277721
O O6 0.000000 0.682220 0.250000
O O7 0.992270 0.837697 0.363132
O O8 0.328005 0.357602 0.814632
O O9 0.000000 0.500000 0.000000
O O10 0.500000 0.863062 0.750000
O O11 0.812600 0.030012 0.527058
O O12 0.676033 0.212004 0.565013
O O13 0.000000 0.076226 0.250000
#
# Coordination Sequence:
#
# PCOD8121549 Si02
#       6
#     4   4   4   4   2   4
#     4  10  23  40  60  89 125 162 210 258 313 370
#     4  11  22  39  63  92 127 164 206 263 307 370
#     4  10  24  43  67  94 122 165 210 263 321 371
#     4  11  21  37  59  89 126 166 209 250 309 369
#     4  10  22  44  62  88 132 164 204 262 314 374
#     4  11  22  37  61  89 123 167 209 251 307 377
#
# _framework density 20.151070000000001
#
# number of rings (size 3 to 8) (size 9 to 14) (size 15 to 20)
#    0.000    1.455    2.727    2.182    0.000    2.909 
#    0.000    3.636    0.000    0.000    0.000    0.000 
#    0.000    0.000    0.000    0.000    0.000    0.000 
#
# Total GULP energy -272696.823766 kJ/mol
# GULP energy per Si atom -12395.310171 kJ/mol
# Density = 2.010521 g / cm^3
# Si number density = 20.151070 Si / 1000 Ang^3
#
#
#
# Elastic Constant Matrix: (Units=GPa)
#
#
# Indices 1 2 3 4 5 6 
#
# 1 109.5270 49.0954 66.7110 0.0000 2.8967 0.0000
# 2 49.0954 122.4658 51.2223 0.0000 4.3765 0.0000
# 3 66.7110 51.2223 149.7165 0.0000 -7.0823 0.0000
# 4 0.0000 0.0000 0.0000 16.7148 0.0000 -5.8995
# 5 2.8967 4.3765 -7.0823 0.0000 37.4921 0.0000
# 6 0.0000 0.0000 0.0000 -5.8995 0.0000 22.3537
#
#
#
# Elastic Compliance Matrix: (Units=1/GPa)
#
#
# Indices 1 2 3 4 5 6 
#
# 1 0.013753 -0.003338 -0.005063 0.000000 -0.001630 0.000000
# 2 -0.003338 0.010453 -0.002154 0.000000 -0.001369 0.000000
# 3 -0.005063 -0.002154 0.009790 0.000000 0.002492 0.000000
# 4 0.000000 0.000000 0.000000 0.065972 0.000000 0.017411
# 5 -0.001630 -0.001369 0.002492 0.000000 0.027429 0.000000
# 6 0.000000 0.000000 0.000000 0.017411 0.000000 0.049330
#
#
# Mechanical properties :
#
#
# Convention : Reuss Voigt Hill
#
# Bulk Modulus (GPa) = 77.59744 79.52964 78.56354
# Shear Modulus (GPa) = 24.73602 29.62417 27.18009
#
# Velocity S-wave (km/s) = 3.50741 3.83835 3.67661
# Velocity P-wave (km/s) = 7.41580 7.69391 7.55614
#
# Compressibility (1/GPa) = 0.01288702
#
# Stress axis : x y z
#
# Youngs Moduli (GPa) = 72.70929 95.66259 102.14162
#
# Poissons Ratio (x) = 0.31928 0.51719
# Poissons Ratio (y) = 0.24267 0.22002
# Poissons Ratio (z) = 0.36816 0.20606
#
# Static dielectric constant tensor:
#      x y z
#    x 4.001330 0.000000 -0.085830 
#    y 0.000000 3.342240 0.000000 
#    z -0.085830 0.000000 3.722350 
# 
# 
# High freq. dielectric constant tensor:
#      x y z
#    x 1.801360 0.000000 -0.003510 
#    y 0.000000 1.765750 0.000000 
#    z -0.003510 0.000000 1.802170 
# 
# From -- ./inp_files/37234.got.cif
#   From: 2010.06.25/outbox.cif.g09.slc.cpg/sg13_19_cif.got.tgz:37234.got - 2010.06.28 04:50:58.
