data_PCOD8121078
_publ_section_title
;
Structure prediction by ZEFSAII (Michael W. Deem and Ramdas Pophale) SiO2 
 PCOD8121078
Probable space group: P 2/C
;
_chemical_formula_sum "Si O2"
_cell_formula_units_Z 20
_cell_length_a 10.816775
_cell_length_b 5.983433
_cell_length_c 13.965552
_cell_angle_alpha 90.000000
_cell_angle_beta 92.921633
_cell_angle_gamma 90.000000
_cell_volume 902.695889
_symmetry_space_group_name_H-M "P 2/C"
_symmetry_group_IT_number 13
_symmetry_cell_setting 'monoclinic'
loop_
_space_group_symop_operation_xyz
x,y,z
-x,y,1/2-z
-x,-y,-z
x,-y,1/2+z
loop_
_atom_site_type_symbol
_atom_site_label
_atom_site_fract_x
_atom_site_fract_y
_atom_site_fract_z
Si Si1 0.782960 0.944621 0.135485
Si Si2 0.993527 0.671389 0.355212
Si Si3 0.638842 0.342003 0.768076
Si Si4 0.236880 0.091596 0.569978
Si Si5 0.835425 0.279590 0.297555
O O1 0.857667 0.114019 0.208694
O O2 0.666634 0.844308 0.188241
O O3 0.871768 0.741967 0.098939
O O4 0.731902 0.076261 0.040936
O O5 0.962096 0.406541 0.338781
O O6 0.000000 0.783426 0.250000
O O7 0.892256 0.779684 0.419801
O O8 0.500000 0.432636 0.750000
O O9 0.737574 0.537102 0.757539
O O10 0.654070 0.229583 0.873470
O O11 0.223703 0.846029 0.614533
#
# Coordination Sequence:
#
# PCOD8121078 Si02
#       5
#     4   4   4   4   4
#     4  11  23  40  64  90 123 162 198 248 299 356
#     4  11  20  38  59  92 122 161 195 238 294 368
#     4  10  23  42  61  87 119 158 209 251 299 355
#     4  10  23  40  62  93 122 156 202 246 301 360
#     4  10  22  39  62  83 126 158 200 243 308 349
#
# _framework density 22.155854999999999
#
# number of rings (size 3 to 8) (size 9 to 14) (size 15 to 20)
#    0.000    1.600    6.000    0.600    2.800    8.000 
#    0.000    2.000    0.000    0.000    0.000    0.000 
#    0.000    0.000    0.000    0.000    0.000    0.000 
#
# Total GULP energy -247790.409228 kJ/mol
# GULP energy per Si atom -12389.520461 kJ/mol
# Density = 2.210543 g / cm^3
# Si number density = 22.155855 Si / 1000 Ang^3
#
#
#
# Elastic Constant Matrix: (Units=GPa)
#
#
# Indices 1 2 3 4 5 6 
#
# 1 60.5318 12.7895 -5.0087 0.0000 12.2533 0.0000
# 2 12.7895 96.9887 19.2651 0.0000 1.2319 0.0000
# 3 -5.0087 19.2651 101.1212 0.0000 -6.9977 0.0000
# 4 0.0000 0.0000 0.0000 12.8869 0.0000 -3.3394
# 5 12.2533 1.2319 -6.9977 0.0000 22.3582 0.0000
# 6 0.0000 0.0000 0.0000 -3.3394 0.0000 18.4796
#
#
#
# Elastic Compliance Matrix: (Units=1/GPa)
#
#
# Indices 1 2 3 4 5 6 
#
# 1 0.019171 -0.002545 0.000733 0.000000 -0.010137 0.000000
# 2 -0.002545 0.011088 -0.002233 0.000000 0.000085 0.000000
# 3 0.000733 -0.002233 0.010560 0.000000 0.003027 0.000000
# 4 0.000000 0.000000 0.000000 0.081410 0.000000 0.014711
# 5 -0.010137 0.000085 0.003027 0.000000 0.051224 0.000000
# 6 0.000000 0.000000 0.000000 0.014711 0.000000 0.056772
#
#
# Mechanical properties :
#
#
# Convention : Reuss Voigt Hill
#
# Bulk Modulus (GPa) = 30.55294 34.74817 32.65055
# Shear Modulus (GPa) = 20.06217 26.18465 23.12341
#
# Velocity S-wave (km/s) = 3.01242 3.44152 3.23409
# Velocity P-wave (km/s) = 5.09112 5.61334 5.35860
#
# Compressibility (1/GPa) = 0.03273007
#
# Stress axis : x y z
#
# Youngs Moduli (GPa) = 52.16339 90.18388 94.69493
#
# Poissons Ratio (x) = 0.22950 -0.06940
# Poissons Ratio (y) = 0.13274 0.21142
# Poissons Ratio (z) = -0.03823 0.20135
#
# Static dielectric constant tensor:
#      x y z
#    x 3.630700 0.000000 0.053970 
#    y 0.000000 4.158860 0.000000 
#    z 0.053970 0.000000 3.853230 
# 
# 
# High freq. dielectric constant tensor:
#      x y z
#    x 1.834980 0.000000 -0.007010 
#    y 0.000000 1.880220 0.000000 
#    z -0.007010 0.000000 1.862840 
# 
# From -- ./inp_files/48578.got.cif
#   From: 2010.06.25/outbox.cif.g09.slc.cpg/sg13_25_cif.got.tgz:48578.got - 2010.06.28 04:50:58.
