data_PCOD8121657
_publ_section_title
;
Structure prediction by ZEFSAII (Michael W. Deem and Ramdas Pophale) SiO2 
 PCOD8121657
Probable space group: P 2/C
;
_chemical_formula_sum "Si O2"
_cell_formula_units_Z 28
_cell_length_a 8.760261
_cell_length_b 11.297533
_cell_length_c 14.347589
_cell_angle_alpha 90.000000
_cell_angle_beta 64.039303
_cell_angle_gamma 90.000000
_cell_volume 1276.688520
_symmetry_space_group_name_H-M "P 2/C"
_symmetry_group_IT_number 13
_symmetry_cell_setting 'monoclinic'
loop_
_space_group_symop_operation_xyz
x,y,z
-x,y,1/2-z
-x,-y,-z
x,-y,1/2+z
loop_
_atom_site_type_symbol
_atom_site_label
_atom_site_fract_x
_atom_site_fract_y
_atom_site_fract_z
Si Si1 0.057855 0.719390 0.341886
Si Si2 0.316899 0.085350 0.750232
Si Si3 0.184303 0.549679 0.449186
Si Si4 0.182939 0.755015 0.588780
Si Si5 0.808287 0.180065 0.209328
Si Si6 0.485719 0.136391 0.526663
Si Si7 0.716244 0.297998 0.051347
O O1 0.158416 0.841969 0.333487
O O2 0.191549 0.620947 0.348044
O O3 0.000000 0.694758 0.250000
O O4 0.893611 0.725833 0.451593
O O5 0.500000 0.092308 0.750000
O O6 0.346111 0.149883 0.643832
O O7 0.258301 0.951350 0.754677
O O8 0.196012 0.626731 0.539532
O O9 0.316029 0.439611 0.425354
O O10 0.000000 0.500000 0.500000
O O11 0.219851 0.744180 0.689347
O O12 0.322554 0.831648 0.495674
O O13 0.004094 0.821191 0.624511
O O14 0.703609 0.241250 0.156321
O O15 0.434646 0.230221 0.460885
O O16 0.500000 0.000000 0.500000
#
# Coordination Sequence:
#
# PCOD8121657 Si02
#       7
#     4   4   4   4   4   4   4
#     4  11  23  43  71 103 137 183 233 282 345 408
#     4  12  26  43  68 101 142 178 232 286 354 417
#     4  10  22  46  68 102 137 180 237 283 338 409
#     4  11  24  43  72  98 138 180 229 284 346 409
#     4  11  25  43  69 103 135 183 228 281 352 418
#     4  12  25  45  70 101 142 176 225 291 343 411
#     4  11  25  44  71 101 139 183 231 283 345 412
#
# _framework density 21.931740000000001
#
# number of rings (size 3 to 8) (size 9 to 14) (size 15 to 20)
#    0.000    0.857    5.714    1.714    4.000    3.429 
#    0.000    0.000    3.143    0.000    0.000    0.000 
#    0.000    0.000    0.000    0.000    0.000    0.000 
#
# Total GULP energy -346879.205940 kJ/mol
# GULP energy per Si atom -12388.543069 kJ/mol
# Density = 2.188182 g / cm^3
# Si number density = 21.931740 Si / 1000 Ang^3
#
#
#
# Elastic Constant Matrix: (Units=GPa)
#
#
# Indices 1 2 3 4 5 6 
#
# 1 89.2030 69.2882 33.4106 0.0000 17.0750 0.0000
# 2 69.2882 159.9761 49.9035 0.0000 19.8558 0.0000
# 3 33.4106 49.9035 85.1167 0.0000 18.1209 0.0000
# 4 0.0000 0.0000 0.0000 24.4272 0.0000 11.0946
# 5 17.0750 19.8558 18.1209 0.0000 46.8430 0.0000
# 6 0.0000 0.0000 0.0000 11.0946 0.0000 42.2901
#
#
#
# Elastic Compliance Matrix: (Units=1/GPa)
#
#
# Indices 1 2 3 4 5 6 
#
# 1 0.017791 -0.006573 -0.002553 0.000000 -0.002712 0.000000
# 2 -0.006573 0.010196 -0.003256 0.000000 -0.000666 0.000000
# 3 -0.002553 -0.003256 0.015439 0.000000 -0.003662 0.000000
# 4 0.000000 0.000000 0.000000 0.046476 0.000000 -0.012193
# 5 -0.002712 -0.000666 -0.003662 0.000000 0.024035 0.000000
# 6 0.000000 0.000000 0.000000 -0.012193 0.000000 0.026845
#
#
# Mechanical properties :
#
#
# Convention : Reuss Voigt Hill
#
# Bulk Modulus (GPa) = 53.58079 71.05560 62.31819
# Shear Modulus (GPa) = 29.10936 34.82494 31.96715
#
# Velocity S-wave (km/s) = 3.64713 3.98914 3.82196
# Velocity P-wave (km/s) = 6.49762 7.32711 6.92480
#
# Compressibility (1/GPa) = 0.01866341
#
# Stress axis : x y z
#
# Youngs Moduli (GPa) = 56.20884 98.07672 64.77042
#
# Poissons Ratio (x) = 0.64463 0.16533
# Poissons Ratio (y) = 0.36944 0.21090
# Poissons Ratio (z) = 0.14348 0.31935
#
# Static dielectric constant tensor:
#      x y z
#    x 4.372280 0.000000 0.356090 
#    y 0.000000 4.734930 0.000000 
#    z 0.356090 0.000000 3.886210 
# 
# 
# High freq. dielectric constant tensor:
#      x y z
#    x 1.868460 0.000000 0.006200 
#    y 0.000000 1.862200 0.000000 
#    z 0.006200 0.000000 1.868250 
# 
# From -- ./inp_files/47122.got.cif
#   From: 2010.06.25/outbox.cif.g09.slc.cpg/sg13_24_cif.got.tgz:47122.got - 2010.06.28 04:50:58.
