data_PCOD8121832
_publ_section_title
;
Structure prediction by ZEFSAII (Michael W. Deem and Ramdas Pophale) SiO2 
 PCOD8121832
Probable space group: P 2/C
;
_chemical_formula_sum "Si O2"
_cell_formula_units_Z 22
_cell_length_a 14.803031
_cell_length_b 5.160676
_cell_length_c 15.231025
_cell_angle_alpha 90.000000
_cell_angle_beta 125.573516
_cell_angle_gamma 90.000000
_cell_volume 946.399256
_symmetry_space_group_name_H-M "P 2/C"
_symmetry_group_IT_number 13
_symmetry_cell_setting 'monoclinic'
loop_
_space_group_symop_operation_xyz
x,y,z
-x,y,1/2-z
-x,-y,-z
x,-y,1/2+z
loop_
_atom_site_type_symbol
_atom_site_label
_atom_site_fract_x
_atom_site_fract_y
_atom_site_fract_z
Si Si1 0.249767 0.586542 0.885506
Si Si2 0.426162 0.137484 0.382724
Si Si3 0.213715 0.989620 0.659321
Si Si4 0.732961 0.476196 0.906735
Si Si5 0.881505 0.914050 0.226805
Si Si6 0.500000 0.628848 0.750000
O O1 0.365263 0.616947 0.896177
O O2 0.173373 0.370546 0.797415
O O3 0.190185 0.865803 0.863024
O O4 0.272198 0.474179 0.993638
O O5 0.505352 0.205304 0.344172
O O6 0.500000 0.000000 0.500000
O O7 0.323950 0.971335 0.283429
O O8 0.203298 0.215387 0.582044
O O9 0.108111 0.997538 0.665185
O O10 0.209415 0.719054 0.606864
O O11 0.606768 0.447953 0.802453
O O12 0.000000 0.887586 0.250000
#
# Coordination Sequence:
#
# PCOD8121832 Si02
#       6
#     4   4   4   4   4   2
#     4  11  25  42  68 101 135 175 229 283 340 410
#     4  10  24  40  67  99 138 182 228 269 335 406
#     4  10  23  43  62  95 133 175 218 287 335 397
#     4  11  24  41  64  94 142 171 225 275 338 395
#     4  11  23  46  71  95 128 179 231 286 352 405
#     4  10  24  38  62  96 136 188 220 264 330 404
#
# _framework density 23.246001
#
# number of rings (size 3 to 8) (size 9 to 14) (size 15 to 20)
#    0.000    1.455    0.000    4.909   12.727    1.455 
#    0.000    5.455    0.000    0.000    0.000    0.000 
#    0.000    0.000    0.000    0.000    0.000    0.000 
#
# Total GULP energy -272609.504350 kJ/mol
# GULP energy per Si atom -12391.341107 kJ/mol
# Density = 2.319309 g / cm^3
# Si number density = 23.246001 Si / 1000 Ang^3
#
#
#
# Elastic Constant Matrix: (Units=GPa)
#
#
# Indices 1 2 3 4 5 6 
#
# 1 161.0259 52.8655 27.3613 0.0000 -38.2516 0.0000
# 2 52.8655 127.9811 18.2903 0.0000 -11.2665 0.0000
# 3 27.3613 18.2903 71.5554 0.0000 -40.4567 0.0000
# 4 0.0000 0.0000 0.0000 24.1105 0.0000 2.3903
# 5 -38.2516 -11.2665 -40.4567 0.0000 42.5121 0.0000
# 6 0.0000 0.0000 0.0000 2.3903 0.0000 28.8025
#
#
#
# Elastic Compliance Matrix: (Units=1/GPa)
#
#
# Indices 1 2 3 4 5 6 
#
# 1 0.009272 -0.003370 0.003308 0.000000 0.010597 0.000000
# 2 -0.003370 0.009337 -0.003060 0.000000 -0.003469 0.000000
# 3 0.003308 -0.003060 0.031858 0.000000 0.032483 0.000000
# 4 0.000000 0.000000 0.000000 0.041820 0.000000 -0.003471
# 5 0.010597 -0.003469 0.032483 0.000000 0.063051 0.000000
# 6 0.000000 0.000000 0.000000 -0.003471 0.000000 0.035007
#
#
# Mechanical properties :
#
#
# Convention : Reuss Voigt Hill
#
# Bulk Modulus (GPa) = 22.61232 61.95517 42.28375
# Shear Modulus (GPa) = 23.65964 36.55471 30.10718
#
# Velocity S-wave (km/s) = 3.19375 3.96980 3.60273
# Velocity P-wave (km/s) = 4.83204 6.90813 5.96116
#
# Compressibility (1/GPa) = 0.04422368
#
# Stress axis : x y z
#
# Youngs Moduli (GPa) = 107.85352 107.09539 31.38920
#
# Poissons Ratio (x) = 0.36088 -0.10382
# Poissons Ratio (y) = 0.36344 0.09604
# Poissons Ratio (z) = -0.35673 0.32768
#
# Static dielectric constant tensor:
#      x y z
#    x 4.413460 0.000000 -0.418300 
#    y 0.000000 4.032200 0.000000 
#    z -0.418300 0.000000 4.138380 
# 
# 
# High freq. dielectric constant tensor:
#      x y z
#    x 1.926460 0.000000 -0.038030 
#    y 0.000000 1.917200 0.000000 
#    z -0.038030 0.000000 1.904720 
# 
# From -- ./inp_files/52361.got.cif
#   From: 2010.06.25/outbox.cif.g09.slc.cpg/sg13_27_cif.got.tgz:52361.got - 2010.06.28 04:50:58.
