data_PCOD8121345
_publ_section_title
;
Structure prediction by ZEFSAII (Michael W. Deem and Ramdas Pophale) SiO2 
 PCOD8121345
Probable space group: P 2/C
;
_chemical_formula_sum "Si O2"
_cell_formula_units_Z 26
_cell_length_a 12.241917
_cell_length_b 12.363039
_cell_length_c 9.036143
_cell_angle_alpha 90.000000
_cell_angle_beta 61.932024
_cell_angle_gamma 90.000000
_cell_volume 1206.752860
_symmetry_space_group_name_H-M "P 2/C"
_symmetry_group_IT_number 13
_symmetry_cell_setting 'monoclinic'
loop_
_space_group_symop_operation_xyz
x,y,z
-x,y,1/2-z
-x,-y,-z
x,-y,1/2+z
loop_
_atom_site_type_symbol
_atom_site_label
_atom_site_fract_x
_atom_site_fract_y
_atom_site_fract_z
Si Si1 0.183511 0.626676 0.195230
Si Si2 0.614932 0.723977 0.265699
Si Si3 0.384260 0.260538 0.408892
Si Si4 0.000000 0.558126 0.750000
Si Si5 0.984749 0.257502 0.489433
Si Si6 0.218635 0.888289 0.502723
Si Si7 0.220659 0.110893 0.343412
O O1 0.281781 0.629025 0.272291
O O2 0.078598 0.714594 0.311407
O O3 0.124058 0.513115 0.189607
O O4 0.261889 0.662956 0.999907
O O5 0.500000 0.672443 0.250000
O O6 0.571747 0.770435 0.453045
O O7 0.665719 0.826164 0.142246
O O8 0.500000 0.316875 0.250000
O O9 0.345787 0.154631 0.340341
O O10 0.001185 0.627319 0.600180
O O11 0.903447 0.184175 0.432653
O O12 0.112698 0.197901 0.439463
O O13 0.247052 0.910356 0.655091
O O14 0.185663 0.998425 0.440588
#
# Coordination Sequence:
#
# PCOD8121345 Si02
#       7
#     4   4   4   2   4   4   4
#     4   9  23  39  69  99 135 178 224 286 336 413
#     4   9  20  42  67  99 139 181 227 281 333 398
#     4  10  22  41  68 102 132 181 225 282 336 399
#     4  12  20  44  68 108 130 182 232 278 352 402
#     4  11  23  41  68  97 140 176 223 288 337 416
#     4  11  23  40  63 104 137 184 224 281 340 410
#     4  12  23  40  65 102 140 180 228 275 348 410
#
# _framework density 21.545424000000001
#
# number of rings (size 3 to 8) (size 9 to 14) (size 15 to 20)
#    0.923    0.615    1.538    3.692    0.000    0.615 
#    0.000    3.077    0.000   15.692    0.000    0.000 
#    0.000    0.000    0.000    0.000    0.000    0.000 
#
# Total GULP energy -322171.635529 kJ/mol
# GULP energy per Si atom -12391.216751 kJ/mol
# Density = 2.149639 g / cm^3
# Si number density = 21.545424 Si / 1000 Ang^3
#
#
#
# Elastic Constant Matrix: (Units=GPa)
#
#
# Indices 1 2 3 4 5 6 
#
# 1 118.9135 55.3041 54.3528 0.0000 14.8121 0.0000
# 2 55.3041 115.1827 45.6773 0.0000 -1.3337 0.0000
# 3 54.3528 45.6773 152.6504 0.0000 -10.8525 0.0000
# 4 0.0000 0.0000 0.0000 11.6802 0.0000 6.6677
# 5 14.8121 -1.3337 -10.8525 0.0000 38.4686 0.0000
# 6 0.0000 0.0000 0.0000 6.6677 0.0000 33.1122
#
#
#
# Elastic Compliance Matrix: (Units=1/GPa)
#
#
# Indices 1 2 3 4 5 6 
#
# 1 0.013158 -0.004942 -0.003652 0.000000 -0.006268 0.000000
# 2 -0.004942 0.011716 -0.001614 0.000000 0.001854 0.000000
# 3 -0.003652 -0.001614 0.008603 0.000000 0.003777 0.000000
# 4 0.000000 0.000000 0.000000 0.096734 0.000000 -0.019479
# 5 -0.006268 0.001854 0.003777 0.000000 0.029539 0.000000
# 6 0.000000 0.000000 0.000000 -0.019479 0.000000 0.034123
#
#
# Mechanical properties :
#
#
# Convention : Reuss Voigt Hill
#
# Bulk Modulus (GPa) = 76.56674 77.49057 77.02866
# Shear Modulus (GPa) = 22.86835 32.07968 27.47401
#
# Velocity S-wave (km/s) = 3.26145 3.86285 3.57482
# Velocity P-wave (km/s) = 7.05672 7.47929 7.27107
#
# Compressibility (1/GPa) = 0.01306050
#
# Stress axis : x y z
#
# Youngs Moduli (GPa) = 76.00052 85.35024 116.24140
#
# Poissons Ratio (x) = 0.42180 0.42449
# Poissons Ratio (y) = 0.37560 0.18766
# Poissons Ratio (z) = 0.27754 0.13779
#
# Static dielectric constant tensor:
#      x y z
#    x 3.898510 0.000000 0.005800 
#    y 0.000000 3.521380 0.000000 
#    z 0.005800 0.000000 3.937440 
# 
# 
# High freq. dielectric constant tensor:
#      x y z
#    x 1.854680 0.000000 0.004500 
#    y 0.000000 1.815570 0.000000 
#    z 0.004500 0.000000 1.856870 
# 
# From -- ./inp_files/18695.got.cif
#   From: 2010.06.25/outbox.cif.g09.slc.cpg/sg13_10_cif.got.tgz:18695.got - 2010.06.28 04:50:58.
