data_PCOD8121672
_publ_section_title
;
Structure prediction by ZEFSAII (Michael W. Deem and Ramdas Pophale) SiO2 
 PCOD8121672
Probable space group: P 2/C
;
_chemical_formula_sum "Si O2"
_cell_formula_units_Z 16
_cell_length_a 7.476070
_cell_length_b 6.236643
_cell_length_c 14.395360
_cell_angle_alpha 90.000000
_cell_angle_beta 113.172880
_cell_angle_gamma 90.000000
_cell_volume 617.041376
_symmetry_space_group_name_H-M "P 2/C"
_symmetry_group_IT_number 13
_symmetry_cell_setting 'monoclinic'
loop_
_space_group_symop_operation_xyz
x,y,z
-x,y,1/2-z
-x,-y,-z
x,-y,1/2+z
loop_
_atom_site_type_symbol
_atom_site_label
_atom_site_fract_x
_atom_site_fract_y
_atom_site_fract_z
Si Si1 0.465134 0.068265 0.598107
Si Si2 0.804125 0.383473 0.045104
Si Si3 0.781261 0.688929 0.884224
Si Si4 0.231089 0.392319 0.783781
O O1 0.313928 0.258959 0.557059
O O2 0.660220 0.161725 0.686580
O O3 0.500000 0.000000 0.500000
O O4 0.372052 0.883258 0.643654
O O5 0.695986 0.441344 0.120144
O O6 0.002476 0.252166 0.110179
O O7 0.832171 0.612252 0.999540
O O8 0.704834 0.501769 0.799572
O O9 0.000000 0.352616 0.750000
#
# Coordination Sequence:
#
# PCOD8121672 Si02
#       4
#     4   4   4   4
#     4  12  24  45  77 105 144 196 253 302 374 444
#     4  10  22  47  72 104 149 186 243 314 368 439
#     4  10  23  46  76 105 144 194 242 307 379 434
#     4  10  23  47  75 111 154 194 247 311 371 443
#
# _framework density 25.930192000000002
#
# number of rings (size 3 to 8) (size 9 to 14) (size 15 to 20)
#    0.000    1.500    2.500    1.500    0.000    1.000 
#    9.000    1.250    5.500    0.000    0.000    0.000 
#    0.000    0.000    0.000    0.000    0.000    0.000 
#
# Total GULP energy -198250.110882 kJ/mol
# GULP energy per Si atom -12390.631930 kJ/mol
# Density = 2.587117 g / cm^3
# Si number density = 25.930192 Si / 1000 Ang^3
#
#
#
# Elastic Constant Matrix: (Units=GPa)
#
#
# Indices 1 2 3 4 5 6 
#
# 1 105.8193 82.3844 45.8436 0.0000 3.7266 0.0000
# 2 82.3844 119.9404 57.1614 0.0000 9.4458 0.0000
# 3 45.8436 57.1614 127.1808 0.0000 -5.1652 0.0000
# 4 0.0000 0.0000 0.0000 54.7338 0.0000 1.0716
# 5 3.7266 9.4458 -5.1652 0.0000 49.9542 0.0000
# 6 0.0000 0.0000 0.0000 1.0716 0.0000 54.3414
#
#
#
# Elastic Compliance Matrix: (Units=1/GPa)
#
#
# Indices 1 2 3 4 5 6 
#
# 1 0.020532 -0.013572 -0.001265 0.000000 0.000904 0.000000
# 2 -0.013572 0.019904 -0.004183 0.000000 -0.003184 0.000000
# 3 -0.001265 -0.004183 0.010278 0.000000 0.001948 0.000000
# 4 0.000000 0.000000 0.000000 0.018277 0.000000 -0.000360
# 5 0.000904 -0.003184 0.001948 0.000000 0.020754 0.000000
# 6 0.000000 0.000000 0.000000 -0.000360 0.000000 0.018409
#
#
# Mechanical properties :
#
#
# Convention : Reuss Voigt Hill
#
# Bulk Modulus (GPa) = 78.89317 80.41327 79.65322
# Shear Modulus (GPa) = 33.24073 42.97595 38.10834
#
# Velocity S-wave (km/s) = 3.58429 4.07550 3.83776
# Velocity P-wave (km/s) = 6.90078 7.29555 7.10091
#
# Compressibility (1/GPa) = 0.01267537
#
# Stress axis : x y z
#
# Youngs Moduli (GPa) = 48.70435 50.24182 97.29687
#
# Poissons Ratio (x) = 0.68186 0.12304
# Poissons Ratio (y) = 0.66099 0.40700
# Poissons Ratio (z) = 0.06159 0.21016
#
# Static dielectric constant tensor:
#      x y z
#    x 3.423310 0.000000 -0.642800 
#    y 0.000000 5.079960 0.000000 
#    z -0.642800 0.000000 4.363140 
# 
# 
# High freq. dielectric constant tensor:
#      x y z
#    x 2.047320 0.000000 -0.004440 
#    y 0.000000 2.007930 0.000000 
#    z -0.004440 0.000000 2.054120 
# 
# From -- ./inp_files/62525.got.cif
#   From: 2010.06.25/outbox.cif.g09.slc.cpg/sg13_32_cif.got.tgz:62525.got - 2010.06.28 04:50:58.
