data_PCOD8121791
_publ_section_title
;
Structure prediction by ZEFSAII (Michael W. Deem and Ramdas Pophale) SiO2 
 PCOD8121791
Probable space group: P 2/C
;
_chemical_formula_sum "Si O2"
_cell_formula_units_Z 22
_cell_length_a 17.633129
_cell_length_b 7.020468
_cell_length_c 15.240627
_cell_angle_alpha 90.000000
_cell_angle_beta 141.800008
_cell_angle_gamma 90.000000
_cell_volume 1166.738645
_symmetry_space_group_name_H-M "P 2/C"
_symmetry_group_IT_number 13
_symmetry_cell_setting 'monoclinic'
loop_
_space_group_symop_operation_xyz
x,y,z
-x,y,1/2-z
-x,-y,-z
x,-y,1/2+z
loop_
_atom_site_type_symbol
_atom_site_label
_atom_site_fract_x
_atom_site_fract_y
_atom_site_fract_z
Si Si1 0.255979 0.357643 0.575321
Si Si2 0.948836 0.805982 0.994289
Si Si3 0.500000 0.486899 0.250000
Si Si4 0.135887 0.027171 0.908297
Si Si5 0.278168 0.651190 0.457559
Si Si6 0.831580 0.464418 0.813068
O O1 0.404689 0.375744 0.715234
O O2 0.213845 0.158190 0.499008
O O3 0.205627 0.514351 0.460334
O O4 0.203623 0.385724 0.624137
O O5 0.862947 0.690699 0.846891
O O6 0.054126 0.658388 0.118073
O O7 0.869939 0.850892 0.008170
O O8 0.000000 0.000000 0.000000
O O9 0.576679 0.348737 0.385679
O O10 0.000000 0.976697 0.750000
O O11 0.214169 0.142438 0.906638
O O12 0.273369 0.568073 0.354468
#
# Coordination Sequence:
#
# PCOD8121791 Si02
#       6
#     4   4   2   4   4   4
#     4  10  23  42  59  91 123 161 208 261 296 372
#     4  11  22  35  55  94 129 160 199 248 314 383
#     4   8  22  46  60  86 120 170 212 256 296 360
#     4  12  23  37  65  93 129 160 202 255 323 366
#     4  10  23  42  62  90 122 168 208 250 312 362
#     4  11  22  37  63  88 129 162 204 256 311 374
#
# _framework density 18.855979999999999
#
# number of rings (size 3 to 8) (size 9 to 14) (size 15 to 20)
#    1.091    0.364    5.455    0.000    2.545    2.182 
#    0.000    0.000    0.000    3.273    0.000    0.000 
#    0.000    0.000    0.000    0.000    0.000    0.000 
#
# Total GULP energy -272631.586293 kJ/mol
# GULP energy per Si atom -12392.344832 kJ/mol
# Density = 1.881306 g / cm^3
# Si number density = 18.855980 Si / 1000 Ang^3
#
#
#
# Elastic Constant Matrix: (Units=GPa)
#
#
# Indices 1 2 3 4 5 6 
#
# 1 51.3032 33.7147 22.4291 0.0000 3.9245 0.0000
# 2 33.7147 113.0088 37.3994 0.0000 2.3593 0.0000
# 3 22.4291 37.3994 111.4002 0.0000 -0.7202 0.0000
# 4 0.0000 0.0000 0.0000 23.2056 0.0000 3.1813
# 5 3.9245 2.3593 -0.7202 0.0000 39.4081 0.0000
# 6 0.0000 0.0000 0.0000 3.1813 0.0000 21.7304
#
#
#
# Elastic Compliance Matrix: (Units=1/GPa)
#
#
# Indices 1 2 3 4 5 6 
#
# 1 0.025208 -0.006515 -0.002902 0.000000 -0.002173 0.000000
# 2 -0.006515 0.011656 -0.002602 0.000000 -0.000097 0.000000
# 3 -0.002902 -0.002602 0.010439 0.000000 0.000636 0.000000
# 4 0.000000 0.000000 0.000000 0.043976 0.000000 -0.006438
# 5 -0.002173 -0.000097 0.000636 0.000000 0.025609 0.000000
# 6 0.000000 0.000000 0.000000 -0.006438 0.000000 0.046961
#
#
# Mechanical properties :
#
#
# Convention : Reuss Voigt Hill
#
# Bulk Modulus (GPa) = 42.98395 51.42207 47.20301
# Shear Modulus (GPa) = 25.55699 29.01342 27.28520
#
# Velocity S-wave (km/s) = 3.68554 3.92686 3.80811
# Velocity P-wave (km/s) = 6.39972 6.92030 6.66509
#
# Compressibility (1/GPa) = 0.02326450
#
# Stress axis : x y z
#
# Youngs Moduli (GPa) = 39.66952 85.79599 95.79783
#
# Poissons Ratio (x) = 0.55893 0.27804
# Poissons Ratio (y) = 0.25843 0.24926
# Poissons Ratio (z) = 0.11513 0.22324
#
# Static dielectric constant tensor:
#      x y z
#    x 3.292690 0.000000 -0.060980 
#    y 0.000000 3.468030 0.000000 
#    z -0.060980 0.000000 3.396670 
# 
# 
# High freq. dielectric constant tensor:
#      x y z
#    x 1.721480 0.000000 -0.009710 
#    y 0.000000 1.734140 0.000000 
#    z -0.009710 0.000000 1.724440 
# 
# From -- ./inp_files/56625.got.cif
#   From: 2010.06.25/outbox.cif.g09.slc.cpg/sg13_29_cif.got.tgz:56625.got - 2010.06.28 04:50:58.
