data_PCOD8121584
_publ_section_title
;
Structure prediction by ZEFSAII (Michael W. Deem and Ramdas Pophale) SiO2 
 PCOD8121584
Probable space group: P 2/C
;
_chemical_formula_sum "Si O2"
_cell_formula_units_Z 32
_cell_length_a 11.175957
_cell_length_b 9.317983
_cell_length_c 14.781913
_cell_angle_alpha 90.000000
_cell_angle_beta 92.972206
_cell_angle_gamma 90.000000
_cell_volume 1537.278927
_symmetry_space_group_name_H-M "P 2/C"
_symmetry_group_IT_number 13
_symmetry_cell_setting 'monoclinic'
loop_
_space_group_symop_operation_xyz
x,y,z
-x,y,1/2-z
-x,-y,-z
x,-y,1/2+z
loop_
_atom_site_type_symbol
_atom_site_label
_atom_site_fract_x
_atom_site_fract_y
_atom_site_fract_z
Si Si1 0.870993 0.201009 0.288893
Si Si2 0.041408 0.837457 0.513109
Si Si3 0.826064 0.639684 0.473069
Si Si4 0.867826 0.535059 0.273344
Si Si5 0.623725 0.871211 0.064349
Si Si6 0.646540 0.117973 0.944667
Si Si7 0.204535 0.643473 0.411951
Si Si8 0.363310 0.982866 0.747325
O O1 0.875213 0.171878 0.395657
O O2 0.846168 0.366458 0.269657
O O3 0.749588 0.125443 0.246455
O O4 0.000000 0.151285 0.250000
O O5 0.109049 0.771843 0.428284
O O6 0.926904 0.736525 0.523321
O O7 0.000000 0.000000 0.500000
O O8 0.847110 0.601504 0.370119
O O9 0.705832 0.731867 0.473349
O O10 0.823258 0.496448 0.531260
O O11 0.785246 0.608318 0.193939
O O12 0.000000 0.575899 0.250000
O O13 0.488211 0.864278 0.026587
O O14 0.669260 0.709094 0.052104
O O15 0.640367 0.911513 0.168851
O O16 0.698669 0.983717 0.004676
O O17 0.659132 0.083448 0.839838
O O18 0.500000 0.912077 0.750000
#
# Coordination Sequence:
#
# PCOD8121584 Si02
#       8
#     4   4   4   4   4   4   4   4
#     4  11  24  40  64 100 132 169 219 274 330 399
#     4  12  25  42  66  95 133 169 215 271 331 391
#     4  12  23  42  66  94 131 172 210 272 328 392
#     4  11  23  42  62  91 134 175 210 261 336 393
#     4  10  23  43  66  94 126 171 217 273 325 392
#     4  10  23  43  67  91 130 170 219 268 331 390
#     4  12  24  40  67  93 132 167 219 267 329 393
#     4  10  22  44  67  92 133 175 219 274 329 388
#
# _framework density 20.816001
#
# number of rings (size 3 to 8) (size 9 to 14) (size 15 to 20)
#    0.000    1.000    2.500    4.875    5.250    0.500 
#    0.000    1.250    0.000    0.000    0.000    0.000 
#    0.000    0.000    0.000    0.000    0.000    0.000 
#
# Total GULP energy -396643.604595 kJ/mol
# GULP energy per Si atom -12395.112644 kJ/mol
# Density = 2.076862 g / cm^3
# Si number density = 20.816001 Si / 1000 Ang^3
#
#
#
# Elastic Constant Matrix: (Units=GPa)
#
#
# Indices 1 2 3 4 5 6 
#
# 1 94.3932 44.5098 5.2583 0.0000 6.1285 0.0000
# 2 44.5098 119.1143 27.1752 0.0000 8.5146 0.0000
# 3 5.2583 27.1752 88.2015 0.0000 5.4044 0.0000
# 4 0.0000 0.0000 0.0000 38.1948 0.0000 -4.8493
# 5 6.1285 8.5146 5.4044 0.0000 24.2364 0.0000
# 6 0.0000 0.0000 0.0000 -4.8493 0.0000 38.5345
#
#
#
# Elastic Compliance Matrix: (Units=1/GPa)
#
#
# Indices 1 2 3 4 5 6 
#
# 1 0.012979 -0.004919 0.000849 0.000000 -0.001743 0.000000
# 2 -0.004919 0.011057 -0.002993 0.000000 -0.001973 0.000000
# 3 0.000849 -0.002993 0.012326 0.000000 -0.001912 0.000000
# 4 0.000000 0.000000 0.000000 0.026607 0.000000 0.003348
# 5 -0.001743 -0.001973 -0.001912 0.000000 0.042821 0.000000
# 6 0.000000 0.000000 0.000000 0.003348 0.000000 0.026372
#
#
# Mechanical properties :
#
#
# Convention : Reuss Voigt Hill
#
# Bulk Modulus (GPa) = 44.97059 50.62174 47.79616
# Shear Modulus (GPa) = 32.53078 35.17752 33.85415
#
# Velocity S-wave (km/s) = 3.95749 4.11533 4.03718
# Velocity P-wave (km/s) = 6.52173 6.85221 6.68901
#
# Compressibility (1/GPa) = 0.02223676
#
# Stress axis : x y z
#
# Youngs Moduli (GPa) = 77.04525 90.43869 81.12762
#
# Poissons Ratio (x) = 0.44487 -0.06884
# Poissons Ratio (y) = 0.37899 0.24278
# Poissons Ratio (z) = -0.06538 0.27065
#
# Static dielectric constant tensor:
#      x y z
#    x 4.026880 0.000000 -0.090950 
#    y 0.000000 3.777800 0.000000 
#    z -0.090950 0.000000 3.559210 
# 
# 
# High freq. dielectric constant tensor:
#      x y z
#    x 1.815750 0.000000 0.000710 
#    y 0.000000 1.814460 0.000000 
#    z 0.000710 0.000000 1.828280 
# 
# From -- ./inp_files/50353.got.cif
#   From: 2010.06.25/outbox.cif.g09.slc.cpg/sg13_26_cif.got.tgz:50353.got - 2010.06.28 04:50:58.
