data_PCOD8121189
_publ_section_title
;
Structure prediction by ZEFSAII (Michael W. Deem and Ramdas Pophale) SiO2 
 PCOD8121189
Probable space group: P 2/C
;
_chemical_formula_sum "Si O2"
_cell_formula_units_Z 28
_cell_length_a 12.628786
_cell_length_b 22.303524
_cell_length_c 5.051401
_cell_angle_alpha 90.000000
_cell_angle_beta 73.650407
_cell_angle_gamma 90.000000
_cell_volume 1365.274497
_symmetry_space_group_name_H-M "P 2/C"
_symmetry_group_IT_number 13
_symmetry_cell_setting 'monoclinic'
loop_
_space_group_symop_operation_xyz
x,y,z
-x,y,1/2-z
-x,-y,-z
x,-y,1/2+z
loop_
_atom_site_type_symbol
_atom_site_label
_atom_site_fract_x
_atom_site_fract_y
_atom_site_fract_z
Si Si1 0.570136 0.822816 0.459758
Si Si2 0.871452 0.538899 0.853236
Si Si3 0.396012 0.317539 0.483677
Si Si4 0.876251 0.225913 0.366683
Si Si5 0.122170 0.024156 0.828279
Si Si6 0.266575 0.341152 0.070319
Si Si7 0.816789 0.847922 0.389604
O O1 0.500000 0.839110 0.250000
O O2 0.584843 0.751869 0.474448
O O3 0.689435 0.853968 0.386759
O O4 0.500000 0.848910 0.750000
O O5 0.836944 0.495876 0.639998
O O6 0.806363 0.600259 0.891085
O O7 0.000000 0.554955 0.750000
O O8 0.500000 0.345666 0.250000
O O9 0.295717 0.329822 0.355347
O O10 0.369526 0.347548 0.789534
O O11 0.799426 0.282686 0.470287
O O12 0.881738 0.192660 0.639932
O O13 0.000000 0.249570 0.250000
O O14 0.830719 0.181076 0.171037
O O15 0.124323 0.087798 0.678502
O O16 0.181867 0.978552 0.573271
O O17 0.000000 0.000000 0.000000
#
# Coordination Sequence:
#
# PCOD8121189 Si02
#       7
#     4   4   4   4   4   4   4
#     4  11  21  38  63  91 126 161 209 261 319 380
#     4  10  22  40  64  91 121 172 225 264 307 376
#     4  11  22  37  62  92 127 165 212 258 321 395
#     4  12  25  37  59  95 132 168 191 258 335 381
#     4  10  23  40  62  85 117 169 216 246 292 370
#     4  12  21  41  61  92 131 164 211 259 329 384
#     4  12  24  41  62  93 130 162 209 262 313 376
#
# _framework density 20.508693999999998
#
# number of rings (size 3 to 8) (size 9 to 14) (size 15 to 20)
#    0.000    0.857    2.857    5.571    6.000    0.000 
#    0.000    4.286    0.000   11.143    0.000    0.000 
#    0.000    0.000    0.000    0.000    0.000    0.000 
#
# Total GULP energy -346956.515840 kJ/mol
# GULP energy per Si atom -12391.304137 kJ/mol
# Density = 2.046202 g / cm^3
# Si number density = 20.508694 Si / 1000 Ang^3
#
#
#
# Elastic Constant Matrix: (Units=GPa)
#
#
# Indices 1 2 3 4 5 6 
#
# 1 75.5331 7.1902 10.1236 0.0000 -1.4178 0.0000
# 2 7.1902 114.9979 55.4323 0.0000 -4.0732 0.0000
# 3 10.1236 55.4323 158.3621 0.0000 8.9506 0.0000
# 4 0.0000 0.0000 0.0000 6.7477 0.0000 -1.1880
# 5 -1.4178 -4.0732 8.9506 0.0000 35.6317 0.0000
# 6 0.0000 0.0000 0.0000 -1.1880 0.0000 29.2217
#
#
#
# Elastic Compliance Matrix: (Units=1/GPa)
#
#
# Indices 1 2 3 4 5 6 
#
# 1 0.013394 -0.000461 -0.000732 0.000000 0.000664 0.000000
# 2 -0.000461 0.010641 -0.003817 0.000000 0.002157 0.000000
# 3 -0.000732 -0.003817 0.007835 0.000000 -0.002434 0.000000
# 4 0.000000 0.000000 0.000000 0.149267 0.000000 0.006069
# 5 0.000664 0.002157 -0.002434 0.000000 0.028949 0.000000
# 6 0.000000 0.000000 0.000000 0.006069 0.000000 0.034468
#
#
# Mechanical properties :
#
#
# Convention : Reuss Voigt Hill
#
# Bulk Modulus (GPa) = 45.76878 54.93170 50.35024
# Shear Modulus (GPa) = 19.09430 32.73001 25.91216
#
# Velocity S-wave (km/s) = 3.05460 3.99922 3.55839
# Velocity P-wave (km/s) = 5.89966 6.94030 6.44103
#
# Compressibility (1/GPa) = 0.02184896
#
# Stress axis : x y z
#
# Youngs Moduli (GPa) = 74.66174 93.97599 127.62971
#
# Poissons Ratio (x) = 0.04331 0.09348
# Poissons Ratio (y) = 0.03441 0.48719
# Poissons Ratio (z) = 0.05469 0.35872
#
# Static dielectric constant tensor:
#      x y z
#    x 0.000000 0.000000 0.000000 
#    y 0.000000 0.000000 0.000000 
#    z 0.000000 0.000000 0.000000 
# 
# 
# High freq. dielectric constant tensor:
#      x y z
#    x 1.795310 0.000000 0.009900 
#    y 0.000000 1.773650 0.000000 
#    z 0.009900 0.000000 1.837090 
# 
# From -- ./inp_files/4100.got.cif
#   From: 2010.06.25/outbox.cif.g09.slc.cpg/sg13_3_cif.got.tgz:4100.got - 2010.06.28 04:50:58.
