data_PCOD8121337
_publ_section_title
;
Structure prediction by ZEFSAII (Michael W. Deem and Ramdas Pophale) SiO2 
 PCOD8121337
Probable space group: P 2/C
;
_chemical_formula_sum "Si O2"
_cell_formula_units_Z 28
_cell_length_a 20.060105
_cell_length_b 11.353533
_cell_length_c 17.274690
_cell_angle_alpha 90.000000
_cell_angle_beta 160.178016
_cell_angle_gamma 90.000000
_cell_volume 1334.138381
_symmetry_space_group_name_H-M "P 2/C"
_symmetry_group_IT_number 13
_symmetry_cell_setting 'monoclinic'
loop_
_space_group_symop_operation_xyz
x,y,z
-x,y,1/2-z
-x,-y,-z
x,-y,1/2+z
loop_
_atom_site_type_symbol
_atom_site_label
_atom_site_fract_x
_atom_site_fract_y
_atom_site_fract_z
Si Si1 0.266188 0.184083 0.335643
Si Si2 0.909819 0.187143 0.828603
Si Si3 0.036859 0.419634 0.702784
Si Si4 0.346826 0.542965 0.269346
Si Si5 0.626296 0.402270 0.954649
Si Si6 0.318982 0.183414 0.774077
Si Si7 0.021261 0.045934 0.181849
O O1 0.292940 0.317290 0.391396
O O2 0.463571 0.137952 0.509755
O O3 0.211603 0.110641 0.353071
O O4 0.097026 0.181761 0.088212
O O5 0.877523 0.311295 0.751968
O O6 0.720055 0.164887 0.676449
O O7 0.944567 0.090636 0.800381
O O8 0.849202 0.465034 0.449268
O O9 0.000000 0.377644 0.750000
O O10 0.195182 0.522974 0.883370
O O11 0.500000 0.500000 0.500000
O O12 0.459944 0.517308 0.312825
O O13 0.286329 0.679709 0.215667
O O14 0.500000 0.335198 0.750000
O O15 0.173474 0.100083 0.567806
O O16 0.000000 0.064375 0.250000
#
# Coordination Sequence:
#
# PCOD8121337 Si02
#       7
#     4   4   4   4   4   4   4
#     4  10  23  41  69  91 124 161 212 268 319 374
#     4  11  24  43  61  92 127 171 217 255 309 389
#     4  12  23  39  64  90 134 178 203 260 330 376
#     4  11  23  40  64  98 128 162 213 261 319 392
#     4  11  23  39  62  97 126 159 213 269 319 386
#     4  10  22  41  67  91 121 164 210 265 313 371
#     4  11  25  41  64  94 127 162 212 266 316 378
#
# _framework density 20.987328000000002
#
# number of rings (size 3 to 8) (size 9 to 14) (size 15 to 20)
#    0.000    1.143    1.429    6.429    4.000    5.143 
#    0.000    0.000    0.000    0.000    0.000    0.000 
#    0.000    0.000    0.000    0.000    0.000    0.000 
#
# Total GULP energy -347079.174097 kJ/mol
# GULP energy per Si atom -12395.684789 kJ/mol
# Density = 2.093956 g / cm^3
# Si number density = 20.987328 Si / 1000 Ang^3
#
#
#
# Elastic Constant Matrix: (Units=GPa)
#
#
# Indices 1 2 3 4 5 6 
#
# 1 135.9737 13.8426 39.7824 0.0000 13.6262 0.0000
# 2 13.8426 58.0714 22.0557 0.0000 6.6235 0.0000
# 3 39.7824 22.0557 85.2521 0.0000 14.9472 0.0000
# 4 0.0000 0.0000 0.0000 18.8135 0.0000 -1.2640
# 5 13.6262 6.6235 14.9472 0.0000 36.1678 0.0000
# 6 0.0000 0.0000 0.0000 -1.2640 0.0000 40.6014
#
#
#
# Elastic Compliance Matrix: (Units=1/GPa)
#
#
# Indices 1 2 3 4 5 6 
#
# 1 0.008627 -0.000497 -0.003604 0.000000 -0.001670 0.000000
# 2 -0.000497 0.019208 -0.004478 0.000000 -0.001480 0.000000
# 3 -0.003604 -0.004478 0.015297 0.000000 -0.004144 0.000000
# 4 0.000000 0.000000 0.000000 0.053265 0.000000 0.001658
# 5 -0.001670 -0.001480 -0.004144 0.000000 0.030261 0.000000
# 6 0.000000 0.000000 0.000000 0.001658 0.000000 0.024681
#
#
# Mechanical properties :
#
#
# Convention : Reuss Voigt Hill
#
# Bulk Modulus (GPa) = 38.50128 47.85096 43.17612
# Shear Modulus (GPa) = 28.22374 32.69098 30.45736
#
# Velocity S-wave (km/s) = 3.67113 3.95099 3.81363
# Velocity P-wave (km/s) = 6.02946 6.60782 6.32525
#
# Compressibility (1/GPa) = 0.02597316
#
# Stress axis : x y z
#
# Youngs Moduli (GPa) = 115.91780 52.06112 65.37274
#
# Poissons Ratio (x) = 0.02588 0.23563
# Poissons Ratio (y) = 0.05761 0.29274
# Poissons Ratio (z) = 0.41781 0.23313
#
# Static dielectric constant tensor:
#      x y z
#    x 4.531130 0.000000 -0.143070 
#    y 0.000000 3.754050 0.000000 
#    z -0.143070 0.000000 4.506570 
# 
# 
# High freq. dielectric constant tensor:
#      x y z
#    x 1.843760 0.000000 0.010620 
#    y 0.000000 1.814740 0.000000 
#    z 0.010620 0.000000 1.820240 
# 
# From -- ./inp_files/70735.got.cif
#   From: 2010.06.25/outbox.cif.g09.slc.cpg/sg13_36_cif.got.tgz:70735.got - 2010.06.28 04:50:58.
