data_PCOD8121093
_publ_section_title
;
Structure prediction by ZEFSAII (Michael W. Deem and Ramdas Pophale) SiO2 
 PCOD8121093
Probable space group: P 2/C
;
_chemical_formula_sum "Si O2"
_cell_formula_units_Z 24
_cell_length_a 27.902760
_cell_length_b 5.150066
_cell_length_c 26.266215
_cell_angle_alpha 90.000000
_cell_angle_beta 161.976311
_cell_angle_gamma 90.000000
_cell_volume 1167.863422
_symmetry_space_group_name_H-M "P 2/C"
_symmetry_group_IT_number 13
_symmetry_cell_setting 'monoclinic'
loop_
_space_group_symop_operation_xyz
x,y,z
-x,y,1/2-z
-x,-y,-z
x,-y,1/2+z
loop_
_atom_site_type_symbol
_atom_site_label
_atom_site_fract_x
_atom_site_fract_y
_atom_site_fract_z
Si Si1 0.499144 0.546972 0.870359
Si Si2 0.176908 0.990074 0.943317
Si Si3 0.721483 0.504095 0.009334
Si Si4 0.293920 0.046119 0.672321
Si Si5 0.998538 0.972874 0.558442
Si Si6 0.836494 0.525886 0.232088
O O1 0.398718 0.793864 0.782535
O O2 0.403726 0.292274 0.786224
O O3 0.551786 0.548676 0.863655
O O4 0.653995 0.551318 0.061844
O O5 0.239674 0.271863 0.991403
O O6 0.000000 0.949973 0.750000
O O7 0.280187 0.772886 0.019926
O O8 0.191043 0.957694 0.017749
O O9 0.851666 0.501818 0.185822
O O10 0.178662 0.058715 0.603469
O O11 0.097498 0.724599 0.673770
O O12 0.000000 0.000000 0.500000
O O13 0.070369 0.223876 0.657021
#
# Coordination Sequence:
#
# PCOD8121093 Si02
#       6
#     4   4   4   4   4   4
#     4  10  24  42  66  93 135 173 203 264 324 367
#     4  12  23  36  61  98 130 172 212 254 309 373
#     4  10  22  39  63  87 134 171 204 238 332 367
#     4  12  24  41  64  98 131 160 230 267 299 384
#     4  12  25  45  70  94 123 170 214 272 329 376
#     4  10  22  45  66  91 131 170 206 257 326 386
#
# _framework density 20.550350000000002
#
# number of rings (size 3 to 8) (size 9 to 14) (size 15 to 20)
#    1.000    0.000    0.000    8.000    0.000    4.000 
#    0.000    5.000    0.000    0.000    0.000    0.000 
#    0.000    0.000    0.000    0.000    0.000    0.000 
#
# Total GULP energy -297654.307757 kJ/mol
# GULP energy per Si atom -12402.262823 kJ/mol
# Density = 2.050358 g / cm^3
# Si number density = 20.550350 Si / 1000 Ang^3
#
#
#
# Elastic Constant Matrix: (Units=GPa)
#
#
# Indices 1 2 3 4 5 6 
#
# 1 108.4437 11.5727 22.8669 0.0000 11.5489 0.0000
# 2 11.5727 129.5376 33.2667 0.0000 7.8530 0.0000
# 3 22.8669 33.2667 79.4515 0.0000 34.1117 0.0000
# 4 0.0000 0.0000 0.0000 46.0874 0.0000 9.1544
# 5 11.5489 7.8530 34.1117 0.0000 34.3123 0.0000
# 6 0.0000 0.0000 0.0000 9.1544 0.0000 8.2898
#
#
#
# Elastic Compliance Matrix: (Units=1/GPa)
#
#
# Indices 1 2 3 4 5 6 
#
# 1 0.009837 -0.000222 -0.002335 0.000000 -0.000939 0.000000
# 2 -0.000222 0.008815 -0.004873 0.000000 0.002901 0.000000
# 3 -0.002335 -0.004873 0.025267 0.000000 -0.023218 0.000000
# 4 0.000000 0.000000 0.000000 0.027795 0.000000 -0.030694
# 5 -0.000939 0.002901 -0.023218 0.000000 0.051878 0.000000
# 6 0.000000 0.000000 0.000000 -0.030694 0.000000 0.154526
#
#
# Mechanical properties :
#
#
# Convention : Reuss Voigt Hill
#
# Bulk Modulus (GPa) = 34.41245 50.31616 42.36430
# Shear Modulus (GPa) = 16.51990 34.38633 25.45311
#
# Velocity S-wave (km/s) = 2.83834 4.09500 3.52315
# Velocity P-wave (km/s) = 5.24627 6.84808 6.09998
#
# Compressibility (1/GPa) = 0.02905925
#
# Stress axis : x y z
#
# Youngs Moduli (GPa) = 101.65201 113.44196 39.57720
#
# Poissons Ratio (x) = 0.02521 0.09242
# Poissons Ratio (y) = 0.02259 0.19285
# Poissons Ratio (z) = 0.23738 0.55277
#
# Static dielectric constant tensor:
#      x y z
#    x 3.686440 0.000000 0.044390 
#    y 0.000000 3.668430 0.000000 
#    z 0.044390 0.000000 3.797260 
# 
# 
# High freq. dielectric constant tensor:
#      x y z
#    x 1.789080 0.000000 0.009860 
#    y 0.000000 1.824330 0.000000 
#    z 0.009860 0.000000 1.810340 
# 
# From -- ./inp_files/89362.got.cif
#   From: 2010.06.25/outbox.cif.g09.slc.cpg/sg13_45_cif.got.tgz:89362.got - 2010.06.28 04:50:58.
