data_PCOD8121948
_publ_section_title
;
Structure prediction by ZEFSAII (Michael W. Deem and Ramdas Pophale) SiO2 
 PCOD8121948
Probable space group: P 2/C
;
_chemical_formula_sum "Si O2"
_cell_formula_units_Z 16
_cell_length_a 8.734847
_cell_length_b 17.669891
_cell_length_c 5.215939
_cell_angle_alpha 90.000000
_cell_angle_beta 56.376842
_cell_angle_gamma 90.000000
_cell_volume 670.361305
_symmetry_space_group_name_H-M "P 2/C"
_symmetry_group_IT_number 13
_symmetry_cell_setting 'monoclinic'
loop_
_space_group_symop_operation_xyz
x,y,z
-x,y,1/2-z
-x,-y,-z
x,-y,1/2+z
loop_
_atom_site_type_symbol
_atom_site_label
_atom_site_fract_x
_atom_site_fract_y
_atom_site_fract_z
Si Si1 0.809320 0.347991 0.277102
Si Si2 0.623770 0.811794 0.885497
Si Si3 0.000000 0.447310 0.750000
Si Si4 0.793272 0.967128 0.697968
Si Si5 0.500000 0.550925 0.250000
O O1 0.727020 0.267266 0.291073
O O2 0.679652 0.396470 0.585133
O O3 0.000000 0.339356 0.250000
O O4 0.831587 0.390757 0.979190
O O5 0.500000 0.817333 0.750000
O O6 0.781472 0.876365 0.730825
O O7 0.500000 0.822157 0.250000
O O8 0.000000 0.500000 0.500000
O O9 0.690516 0.994934 0.535868
O O10 0.000000 0.000000 0.500000
O O11 0.500000 0.500000 0.500000
#
# Coordination Sequence:
#
# PCOD8121948 Si02
#       5
#     4   4   2   4   2
#     4  12  30  51  82 116 158 213 269 323 405 479
#     4  12  29  50  77 114 162 203 261 329 401 472
#     4  12  26  46  76 114 152 196 266 332 386 462
#     4  10  23  45  76 110 148 196 259 309 391 457
#     4  12  30  50  80 112 158 202 262 332 398 468
#
# _framework density 23.867723999999999
#
# number of rings (size 3 to 8) (size 9 to 14) (size 15 to 20)
#    0.000    0.500    2.500    3.000   12.250    5.000 
#    0.000    0.000    0.000    0.000    0.000    0.000 
#    0.000    0.000    0.000    0.000    0.000    0.000 
#
# Total GULP energy -198256.672350 kJ/mol
# GULP energy per Si atom -12391.042022 kJ/mol
# Density = 2.381340 g / cm^3
# Si number density = 23.867724 Si / 1000 Ang^3
#
#
#
# Elastic Constant Matrix: (Units=GPa)
#
#
# Indices 1 2 3 4 5 6 
#
# 1 100.9771 67.1284 82.5026 0.0000 2.8437 0.0000
# 2 67.1284 251.0830 112.9168 0.0000 -1.4067 0.0000
# 3 82.5026 112.9168 194.8398 0.0000 29.2166 0.0000
# 4 0.0000 0.0000 0.0000 47.2958 0.0000 -25.4620
# 5 2.8437 -1.4067 29.2166 0.0000 57.5622 0.0000
# 6 0.0000 0.0000 0.0000 -25.4620 0.0000 24.3727
#
#
#
# Elastic Compliance Matrix: (Units=1/GPa)
#
#
# Indices 1 2 3 4 5 6 
#
# 1 0.015898 -0.001421 -0.006262 0.000000 0.002358 0.000000
# 2 -0.001421 0.005704 -0.002960 0.000000 0.001712 0.000000
# 3 -0.006262 -0.002960 0.010244 0.000000 -0.004962 0.000000
# 4 0.000000 0.000000 0.000000 0.048319 0.000000 0.050479
# 5 0.002358 0.001712 -0.004962 0.000000 0.019817 0.000000
# 6 0.000000 0.000000 0.000000 0.050479 0.000000 0.093764
#
#
# Mechanical properties :
#
#
# Convention : Reuss Voigt Hill
#
# Bulk Modulus (GPa) = 94.71111 119.11060 106.91085
# Shear Modulus (GPa) = 22.87797 44.80294 33.84046
#
# Velocity S-wave (km/s) = 3.09938 4.33729 3.76950
# Velocity P-wave (km/s) = 7.25093 8.66577 7.98973
#
# Compressibility (1/GPa) = 0.01055842
#
# Stress axis : x y z
#
# Youngs Moduli (GPa) = 62.90258 175.32577 97.62121
#
# Poissons Ratio (x) = 0.24916 0.61127
# Poissons Ratio (y) = 0.08939 0.28901
# Poissons Ratio (z) = 0.39387 0.51905
#
# Static dielectric constant tensor:
#      x y z
#    x 3.628730 0.000000 -1.173970 
#    y 0.000000 4.753530 0.000000 
#    z -1.173970 0.000000 2.738550 
# 
# 
# High freq. dielectric constant tensor:
#      x y z
#    x 1.936000 0.000000 0.010120 
#    y 0.000000 1.966620 0.000000 
#    z 0.010120 0.000000 1.979360 
# 
# From -- ./inp_files/1498.got.cif
#   From: 2010.06.25/outbox.cif.g09.slc.cpg/sg13_1_cif.got.tgz:1498.got - 2010.06.28 04:50:58.
