data_PCOD8121441
_publ_section_title
;
Structure prediction by ZEFSAII (Michael W. Deem and Ramdas Pophale) SiO2 
 PCOD8121441
Probable space group: P 2/C
;
_chemical_formula_sum "Si O2"
_cell_formula_units_Z 22
_cell_length_a 15.892947
_cell_length_b 5.212514
_cell_length_c 25.186541
_cell_angle_alpha 90.000000
_cell_angle_beta 26.639702
_cell_angle_gamma 90.000000
_cell_volume 935.545775
_symmetry_space_group_name_H-M "P 2/C"
_symmetry_group_IT_number 13
_symmetry_cell_setting 'monoclinic'
loop_
_space_group_symop_operation_xyz
x,y,z
-x,y,1/2-z
-x,-y,-z
x,-y,1/2+z
loop_
_atom_site_type_symbol
_atom_site_label
_atom_site_fract_x
_atom_site_fract_y
_atom_site_fract_z
Si Si1 0.899597 0.013641 0.501051
Si Si2 0.045909 0.484310 0.862825
Si Si3 0.625637 0.928665 0.978673
Si Si4 0.500000 0.148612 0.750000
Si Si5 0.213695 0.565353 0.079510
Si Si6 0.546915 0.629407 0.335963
O O1 0.936427 0.289757 0.454325
O O2 0.675931 0.974547 0.633519
O O3 0.979591 0.792539 0.419588
O O4 0.000000 0.000000 0.500000
O O5 0.267587 0.511405 0.746251
O O6 0.989991 0.488862 0.831828
O O7 0.739303 0.661707 0.904606
O O8 0.494957 0.887639 0.105176
O O9 0.778296 0.154931 0.898893
O O10 0.500000 0.000000 0.000000
O O11 0.430448 0.318372 0.739287
O O12 0.372134 0.562815 0.943419
#
# Coordination Sequence:
#
# PCOD8121441 Si02
#       6
#     4   4   4   2   4   4
#     4  12  26  39  63  92 136 184 222 278 317 407
#     4  12  24  43  63  99 136 175 229 270 340 392
#     4  10  22  46  72  96 129 178 225 279 345 395
#     4  12  22  48  60 104 132 184 226 266 348 394
#     4  10  22  42  67  97 129 174 214 284 333 394
#     4  10  25  38  71  95 137 177 225 272 334 405
#
# _framework density 23.515684
#
# number of rings (size 3 to 8) (size 9 to 14) (size 15 to 20)
#    1.091    0.000    3.636    3.273    2.545    2.182 
#    0.000    0.909    0.000    0.000    0.000    0.000 
#    0.000    0.000    0.000    0.000    0.000    0.000 
#
# Total GULP energy -272667.463826 kJ/mol
# GULP energy per Si atom -12393.975628 kJ/mol
# Density = 2.346216 g / cm^3
# Si number density = 23.515684 Si / 1000 Ang^3
#
#
#
# Elastic Constant Matrix: (Units=GPa)
#
#
# Indices 1 2 3 4 5 6 
#
# 1 133.7512 36.6462 5.0793 0.0000 -20.3621 0.0000
# 2 36.6462 120.2094 8.2069 0.0000 -3.9200 0.0000
# 3 5.0793 8.2069 79.6179 0.0000 -16.8934 0.0000
# 4 0.0000 0.0000 0.0000 8.3517 0.0000 -6.8572
# 5 -20.3621 -3.9200 -16.8934 0.0000 33.8666 0.0000
# 6 0.0000 0.0000 0.0000 -6.8572 0.0000 37.6115
#
#
#
# Elastic Compliance Matrix: (Units=1/GPa)
#
#
# Indices 1 2 3 4 5 6 
#
# 1 0.009007 -0.002625 0.000873 0.000000 0.005547 0.000000
# 2 -0.002625 0.009154 -0.000991 0.000000 -0.001013 0.000000
# 3 0.000873 -0.000991 0.014196 0.000000 0.007491 0.000000
# 4 0.000000 0.000000 0.000000 0.140815 0.000000 0.025673
# 5 0.005547 -0.001013 0.007491 0.000000 0.036482 0.000000
# 6 0.000000 0.000000 0.000000 0.025673 0.000000 0.031268
#
#
# Mechanical properties :
#
#
# Convention : Reuss Voigt Hill
#
# Bulk Modulus (GPa) = 37.21450 48.16037 42.68743
# Shear Modulus (GPa) = 19.57987 34.87569 27.22778
#
# Velocity S-wave (km/s) = 2.88866 3.85526 3.40642
# Velocity P-wave (km/s) = 5.19477 6.35153 5.80205
#
# Compressibility (1/GPa) = 0.02687125
#
# Stress axis : x y z
#
# Youngs Moduli (GPa) = 111.02513 109.24737 70.44250
#
# Poissons Ratio (x) = 0.28672 -0.06149
# Poissons Ratio (y) = 0.29139 0.06981
# Poissons Ratio (z) = -0.09691 0.10826
#
# Static dielectric constant tensor:
#      x y z
#    x 4.431190 0.000000 -0.253010 
#    y 0.000000 3.854760 0.000000 
#    z -0.253010 0.000000 4.130540 
# 
# 
# High freq. dielectric constant tensor:
#      x y z
#    x 1.943020 0.000000 -0.019600 
#    y 0.000000 1.924900 0.000000 
#    z -0.019600 0.000000 1.917860 
# 
# From -- ./inp_files/92546.got.cif
#   From: 2010.06.25/outbox.cif.g09.slc.cpg/sg13_47_cif.got.tgz:92546.got - 2010.06.28 04:50:58.
