data_PCOD8121853
_publ_section_title
;
Structure prediction by ZEFSAII (Michael W. Deem and Ramdas Pophale) SiO2 
 PCOD8121853
Probable space group: P 2/C
;
_chemical_formula_sum "Si O2"
_cell_formula_units_Z 24
_cell_length_a 9.121012
_cell_length_b 10.805422
_cell_length_c 11.333377
_cell_angle_alpha 90.000000
_cell_angle_beta 88.893744
_cell_angle_gamma 90.000000
_cell_volume 1116.768459
_symmetry_space_group_name_H-M "P 2/C"
_symmetry_group_IT_number 13
_symmetry_cell_setting 'monoclinic'
loop_
_space_group_symop_operation_xyz
x,y,z
-x,y,1/2-z
-x,-y,-z
x,-y,1/2+z
loop_
_atom_site_type_symbol
_atom_site_label
_atom_site_fract_x
_atom_site_fract_y
_atom_site_fract_z
Si Si1 0.409101 0.606101 0.860399
Si Si2 0.500000 0.120153 0.750000
Si Si3 0.120770 0.256665 0.337063
Si Si4 0.000000 0.131076 0.750000
Si Si5 0.595166 0.332133 0.573957
Si Si6 0.127341 0.216943 0.979847
Si Si7 0.765417 0.043971 0.329421
O O1 0.500000 0.662855 0.750000
O O2 0.238213 0.637327 0.857304
O O3 0.425751 0.458449 0.854304
O O4 0.471800 0.670649 0.975635
O O5 0.577712 0.209505 0.653972
O O6 0.386166 0.028554 0.686802
O O7 0.201787 0.136445 0.281245
O O8 0.000000 0.310631 0.250000
O O9 0.032006 0.230434 0.458566
O O10 0.898209 0.205165 0.660165
O O11 0.897424 0.051507 0.835852
O O12 0.759526 0.332911 0.514438
O O13 0.224556 0.109993 0.043025
#
# Coordination Sequence:
#
# PCOD8121853 Si02
#       7
#     4   2   4   2   4   4   4
#     4  11  24  46  72  91 135 180 221 283 337 388
#     4  12  26  44  66 108 134 172 228 272 336 410
#     4  10  23  43  68 101 131 172 225 274 336 406
#     4  12  22  40  64  92 142 188 202 280 332 396
#     4  11  26  45  67  98 134 177 228 280 328 402
#     4  11  24  43  64 101 136 174 229 270 337 399
#     4  11  24  41  68  98 137 174 218 274 338 405
#
# _framework density 21.490577999999999
#
# number of rings (size 3 to 8) (size 9 to 14) (size 15 to 20)
#    0.000    1.000    5.000    2.500    5.833    1.333 
#    1.500    0.000    0.000    0.000    0.000    0.000 
#    0.000    0.000    0.000    0.000    0.000    0.000 
#
# Total GULP energy -297438.357928 kJ/mol
# GULP energy per Si atom -12393.264914 kJ/mol
# Density = 2.144166 g / cm^3
# Si number density = 21.490578 Si / 1000 Ang^3
#
#
#
# Elastic Constant Matrix: (Units=GPa)
#
#
# Indices 1 2 3 4 5 6 
#
# 1 134.9531 53.6653 45.8312 0.0000 15.5322 0.0000
# 2 53.6653 44.9060 54.2302 0.0000 13.0673 0.0000
# 3 45.8312 54.2302 110.5732 0.0000 9.2271 0.0000
# 4 0.0000 0.0000 0.0000 12.1142 0.0000 -13.1252
# 5 15.5322 13.0673 9.2271 0.0000 34.3711 0.0000
# 6 0.0000 0.0000 0.0000 -13.1252 0.0000 37.9258
#
#
#
# Elastic Compliance Matrix: (Units=1/GPa)
#
#
# Indices 1 2 3 4 5 6 
#
# 1 0.015985 -0.027944 0.006952 0.000000 0.001534 0.000000
# 2 -0.027944 0.110819 -0.041230 0.000000 -0.018435 0.000000
# 3 0.006952 -0.041230 0.025918 0.000000 0.005576 0.000000
# 4 0.000000 0.000000 0.000000 0.132068 0.000000 0.045706
# 5 0.001534 -0.018435 0.005576 0.000000 0.033913 0.000000
# 6 0.000000 0.000000 0.000000 0.045706 0.000000 0.042185
#
#
# Mechanical properties :
#
#
# Convention : Reuss Voigt Hill
#
# Bulk Modulus (GPa) = 35.36442 66.43176 50.89809
# Shear Modulus (GPa) = 10.10592 25.99592 18.05092
#
# Velocity S-wave (km/s) = 2.17088 3.48176 2.90133
# Velocity P-wave (km/s) = 4.77233 6.86606 5.91261
#
# Compressibility (1/GPa) = 0.02827701
#
# Stress axis : x y z
#
# Youngs Moduli (GPa) = 62.55905 9.02370 38.58294
#
# Poissons Ratio (x) = 0.25216 -0.26822
# Poissons Ratio (y) = 1.74818 1.59077
# Poissons Ratio (z) = -0.43489 0.37205
#
# Static dielectric constant tensor:
#      x y z
#    x 4.113300 0.000000 0.019780 
#    y 0.000000 3.652250 0.000000 
#    z 0.019780 0.000000 3.865930 
# 
# 
# High freq. dielectric constant tensor:
#      x y z
#    x 1.861660 0.000000 0.002100 
#    y 0.000000 1.820900 0.000000 
#    z 0.002100 0.000000 1.848530 
# 
# From -- ./inp_files/29490.got.cif
#   From: 2010.06.25/outbox.cif.g09.slc.cpg/sg13_15_cif.got.tgz:29490.got - 2010.06.28 04:50:58.
