data_PCOD8121903
_publ_section_title
;
Structure prediction by ZEFSAII (Michael W. Deem and Ramdas Pophale) SiO2 
 PCOD8121903
Probable space group: P 2/C
;
_chemical_formula_sum "Si O2"
_cell_formula_units_Z 24
_cell_length_a 22.230211
_cell_length_b 6.199972
_cell_length_c 17.427839
_cell_angle_alpha 90.000000
_cell_angle_beta 154.602629
_cell_angle_gamma 90.000000
_cell_volume 1030.211759
_symmetry_space_group_name_H-M "P 2/C"
_symmetry_group_IT_number 13
_symmetry_cell_setting 'monoclinic'
loop_
_space_group_symop_operation_xyz
x,y,z
-x,y,1/2-z
-x,-y,-z
x,-y,1/2+z
loop_
_atom_site_type_symbol
_atom_site_label
_atom_site_fract_x
_atom_site_fract_y
_atom_site_fract_z
Si Si1 0.192046 0.808625 0.822436
Si Si2 0.316953 0.750240 0.719328
Si Si3 0.121893 0.123172 0.532392
Si Si4 0.270256 0.467696 0.801131
Si Si5 0.157892 0.431022 0.436141
Si Si6 0.434819 0.160963 0.091471
O O1 0.178857 0.656845 0.733268
O O2 0.216990 0.657340 0.924606
O O3 0.043575 0.932763 0.655609
O O4 0.321162 0.972118 0.963304
O O5 0.357393 0.569320 0.829673
O O6 0.252680 0.631274 0.570964
O O7 0.445744 0.893770 0.835080
O O8 0.204672 0.900546 0.632440
O O9 0.167678 0.276390 0.655378
O O10 0.162164 0.232656 0.499152
O O11 0.371687 0.382923 0.985431
O O12 0.000000 0.521969 0.250000
O O13 0.500000 0.201559 0.250000
#
# Coordination Sequence:
#
# PCOD8121903 Si02
#       6
#     4   4   4   4   4   4
#     4  11  24  43  69 101 134 170 221 276 330 387
#     4  11  24  44  68  95 133 177 221 267 327 393
#     4  10  23  44  70  99 128 171 224 277 328 384
#     4  11  25  43  67  96 134 176 220 268 324 392
#     4   9  21  41  68  97 129 172 222 274 329 387
#     4  12  27  43  66  98 133 174 219 271 329 391
#
# _framework density 23.296182999999999
#
# number of rings (size 3 to 8) (size 9 to 14) (size 15 to 20)
#    0.000    1.333    0.000    4.000    0.000   17.333 
#    0.000    0.000    0.000    0.000    0.000    0.000 
#    0.000    0.000    0.000    0.000    0.000    0.000 
#
# Total GULP energy -297580.237237 kJ/mol
# GULP energy per Si atom -12399.176552 kJ/mol
# Density = 2.324316 g / cm^3
# Si number density = 23.296183 Si / 1000 Ang^3
#
#
#
# Elastic Constant Matrix: (Units=GPa)
#
#
# Indices 1 2 3 4 5 6 
#
# 1 137.1896 75.4122 73.1629 0.0000 3.0303 0.0000
# 2 75.4122 97.6522 60.9292 0.0000 15.9334 0.0000
# 3 73.1629 60.9292 124.0457 0.0000 3.7373 0.0000
# 4 0.0000 0.0000 0.0000 24.8066 0.0000 6.7834
# 5 3.0303 15.9334 3.7373 0.0000 44.3181 0.0000
# 6 0.0000 0.0000 0.0000 6.7834 0.0000 28.4302
#
#
#
# Elastic Compliance Matrix: (Units=1/GPa)
#
#
# Indices 1 2 3 4 5 6 
#
# 1 0.014346 -0.008897 -0.004169 0.000000 0.002569 0.000000
# 2 -0.008897 0.021333 -0.005031 0.000000 -0.006637 0.000000
# 3 -0.004169 -0.005031 0.012961 0.000000 0.001001 0.000000
# 4 0.000000 0.000000 0.000000 0.043126 0.000000 -0.010290
# 5 0.002569 -0.006637 0.001001 0.000000 0.024690 0.000000
# 6 0.000000 0.000000 0.000000 -0.010290 0.000000 0.037629
#
#
# Mechanical properties :
#
#
# Convention : Reuss Voigt Hill
#
# Bulk Modulus (GPa) = 80.34056 86.43289 83.38673
# Shear Modulus (GPa) = 25.71634 29.46984 27.59309
#
# Velocity S-wave (km/s) = 3.32608 3.56055 3.44531
# Velocity P-wave (km/s) = 7.02224 7.35430 7.19019
#
# Compressibility (1/GPa) = 0.01244701
#
# Stress axis : x y z
#
# Youngs Moduli (GPa) = 69.70410 46.87516 77.15239
#
# Poissons Ratio (x) = 0.41705 0.32164
# Poissons Ratio (y) = 0.62017 0.38815
# Poissons Ratio (z) = 0.29059 0.23583
#
# Static dielectric constant tensor:
#      x y z
#    x 4.284510 0.000000 -0.125260 
#    y 0.000000 3.922930 0.000000 
#    z -0.125260 0.000000 4.321820 
# 
# 
# High freq. dielectric constant tensor:
#      x y z
#    x 1.938540 0.000000 -0.010920 
#    y 0.000000 1.912440 0.000000 
#    z -0.010920 0.000000 1.924070 
# 
# From -- ./inp_files/70961.got.cif
#   From: 2010.06.25/outbox.cif.g09.slc.cpg/sg13_36_cif.got.tgz:70961.got - 2010.06.28 04:50:58.
