data_PCOD8121031
_publ_section_title
;
Structure prediction by ZEFSAII (Michael W. Deem and Ramdas Pophale) SiO2 
 PCOD8121031
Probable space group: P 2/C
;
_chemical_formula_sum "Si O2"
_cell_formula_units_Z 24
_cell_length_a 15.625346
_cell_length_b 9.017858
_cell_length_c 8.134610
_cell_angle_alpha 90.000000
_cell_angle_beta 74.623625
_cell_angle_gamma 90.000000
_cell_volume 1105.195403
_symmetry_space_group_name_H-M "P 2/C"
_symmetry_group_IT_number 13
_symmetry_cell_setting 'monoclinic'
loop_
_space_group_symop_operation_xyz
x,y,z
-x,y,1/2-z
-x,-y,-z
x,-y,1/2+z
loop_
_atom_site_type_symbol
_atom_site_label
_atom_site_fract_x
_atom_site_fract_y
_atom_site_fract_z
Si Si1 0.329169 0.530964 0.410736
Si Si2 0.500000 0.663988 0.750000
Si Si3 0.289489 0.036771 0.433143
Si Si4 0.000000 0.074131 0.250000
Si Si5 0.625506 0.193717 0.410719
Si Si6 0.882388 0.135250 0.593908
Si Si7 0.244264 0.311072 0.659821
O O1 0.418954 0.435751 0.352683
O O2 0.336302 0.648108 0.554235
O O3 0.246463 0.421162 0.500892
O O4 0.314198 0.617867 0.250260
O O5 0.472297 0.773518 0.613231
O O6 0.311001 0.134553 0.265028
O O7 0.274989 0.145845 0.595361
O O8 0.370751 0.925532 0.442456
O O9 0.201766 0.940938 0.449155
O O10 0.952831 0.175109 0.413479
O O11 0.925822 0.972073 0.204762
O O12 0.851487 0.287512 0.702252
#
# Coordination Sequence:
#
# PCOD8121031 Si02
#       7
#     4   2   4   2   4   4   4
#     4  12  25  44  67  92 130 187 228 270 332 391
#     4  12  26  42  66  90 136 174 240 278 334 386
#     4  12  22  42  68 102 129 170 227 278 326 395
#     4  10  22  38  68 110 134 168 190 280 346 384
#     4  12  24  42  65  95 133 175 227 280 337 381
#     4  11  21  40  69 104 135 160 215 264 329 404
#     4  12  23  43  69  98 129 179 228 265 325 406
#
# _framework density 21.715617000000002
#
# number of rings (size 3 to 8) (size 9 to 14) (size 15 to 20)
#    0.000    0.333    8.333    0.500    0.000    0.667 
#    0.000    1.667    0.000    3.000    0.000    0.000 
#    0.000    0.000    0.000    0.000    0.000    0.000 
#
# Total GULP energy -297438.736232 kJ/mol
# GULP energy per Si atom -12393.280676 kJ/mol
# Density = 2.166619 g / cm^3
# Si number density = 21.715617 Si / 1000 Ang^3
#
#
#
# Elastic Constant Matrix: (Units=GPa)
#
#
# Indices 1 2 3 4 5 6 
#
# 1 70.1082 37.9668 28.0447 0.0000 6.9298 0.0000
# 2 37.9668 88.6842 36.0798 0.0000 2.6507 0.0000
# 3 28.0447 36.0798 94.8491 0.0000 -12.8997 0.0000
# 4 0.0000 0.0000 0.0000 54.8402 0.0000 -26.7720
# 5 6.9298 2.6507 -12.8997 0.0000 41.3090 0.0000
# 6 0.0000 0.0000 0.0000 -26.7720 0.0000 78.5437
#
#
#
# Elastic Compliance Matrix: (Units=1/GPa)
#
#
# Indices 1 2 3 4 5 6 
#
# 1 0.019909 -0.006837 -0.003844 0.000000 -0.004101 0.000000
# 2 -0.006837 0.015950 -0.004208 0.000000 -0.001191 0.000000
# 3 -0.003844 -0.004208 0.013999 0.000000 0.005286 0.000000
# 4 0.000000 0.000000 0.000000 0.021875 0.000000 0.007456
# 5 -0.004101 -0.001191 0.005286 0.000000 0.026623 0.000000
# 6 0.000000 0.000000 0.000000 0.007456 0.000000 0.015273
#
#
# Mechanical properties :
#
#
# Convention : Reuss Voigt Hill
#
# Bulk Modulus (GPa) = 49.79668 50.86936 50.33302
# Shear Modulus (GPa) = 33.31096 45.04192 39.17644
#
# Velocity S-wave (km/s) = 3.92083 4.55925 4.25204
# Velocity P-wave (km/s) = 6.59381 7.15484 6.88005
#
# Compressibility (1/GPa) = 0.02008166
#
# Stress axis : x y z
#
# Youngs Moduli (GPa) = 50.22807 62.69422 71.43296
#
# Poissons Ratio (x) = 0.42864 0.27457
# Poissons Ratio (y) = 0.34341 0.30057
# Poissons Ratio (z) = 0.19306 0.26380
#
# Static dielectric constant tensor:
#      x y z
#    x 3.838810 0.000000 0.117630 
#    y 0.000000 4.145420 0.000000 
#    z 0.117630 0.000000 4.306490 
# 
# 
# High freq. dielectric constant tensor:
#      x y z
#    x 1.823680 0.000000 0.011550 
#    y 0.000000 1.847790 0.000000 
#    z 0.011550 0.000000 1.879990 
# 
# From -- ./inp_files/18071.got.cif
#   From: 2010.06.25/outbox.cif.g09.slc.cpg/sg13_10_cif.got.tgz:18071.got - 2010.06.28 04:50:58.
