data_PCOD8121389
_publ_section_title
;
Structure prediction by ZEFSAII (Michael W. Deem and Ramdas Pophale) SiO2 
 PCOD8121389
Probable space group: P 2/C
;
_chemical_formula_sum "Si O2"
_cell_formula_units_Z 28
_cell_length_a 14.928930
_cell_length_b 11.846422
_cell_length_c 9.285731
_cell_angle_alpha 90.000000
_cell_angle_beta 57.727195
_cell_angle_gamma 90.000000
_cell_volume 1388.524295
_symmetry_space_group_name_H-M "P 2/C"
_symmetry_group_IT_number 13
_symmetry_cell_setting 'monoclinic'
loop_
_space_group_symop_operation_xyz
x,y,z
-x,y,1/2-z
-x,-y,-z
x,-y,1/2+z
loop_
_atom_site_type_symbol
_atom_site_label
_atom_site_fract_x
_atom_site_fract_y
_atom_site_fract_z
Si Si1 0.228037 0.195174 0.839804
Si Si2 0.926621 0.013583 0.428999
Si Si3 0.456843 0.127257 0.551448
Si Si4 0.500000 0.283713 0.750000
Si Si5 0.715525 0.379296 0.174542
Si Si6 0.879127 0.233485 0.866103
Si Si7 0.500000 0.270752 0.250000
Si Si8 0.286828 0.609061 0.478107
O O1 0.343488 0.140999 0.722623
O O2 0.178944 0.247009 0.737057
O O3 0.215926 0.290556 0.973295
O O4 0.172340 0.086483 0.947711
O O5 0.883947 0.896969 0.402223
O O6 0.000000 0.076883 0.250000
O O7 0.000000 0.000000 0.500000
O O8 0.533104 0.202870 0.587105
O O9 0.447358 0.186011 0.406968
O O10 0.500000 0.000000 0.500000
O O11 0.597321 0.367807 0.688173
O O12 0.595503 0.345131 0.233217
O O13 0.748867 0.491301 0.059896
O O14 0.719312 0.396614 0.343518
O O15 0.807252 0.291576 0.050637
O O16 0.000000 0.282790 0.750000
#
# Coordination Sequence:
#
# PCOD8121389 Si02
#       8
#     4   4   4   2   4   4   2   4
#     4  11  24  43  67  97 140 174 224 278 331 395
#     4  11  23  42  69  99 131 177 222 271 329 394
#     4  11  24  40  62 102 143 177 211 266 338 403
#     4  10  22  42  62  96 136 175 219 268 322 404
#     4  12  26  45  70  99 129 177 226 279 341 394
#     4  11  24  45  68  99 137 177 225 277 329 395
#     4  12  24  42  70  96 136 179 223 266 332 406
#     4  11  26  43  69  97 131 172 227 278 336 402
#
# _framework density 20.165292000000001
#
# number of rings (size 3 to 8) (size 9 to 14) (size 15 to 20)
#    0.000    0.857    5.714    1.714    6.000    3.429 
#    0.000    3.571    0.000    0.000    0.000    0.000 
#    0.000    0.000    0.000    0.000    0.000    0.000 
#
# Total GULP energy -347034.861503 kJ/mol
# GULP energy per Si atom -12394.102197 kJ/mol
# Density = 2.011939 g / cm^3
# Si number density = 20.165292 Si / 1000 Ang^3
#
#
#
# Elastic Constant Matrix: (Units=GPa)
#
#
# Indices 1 2 3 4 5 6 
#
# 1 94.1627 32.9824 37.1346 0.0000 12.0349 0.0000
# 2 32.9824 94.4991 49.0799 0.0000 3.4526 0.0000
# 3 37.1346 49.0799 129.4277 0.0000 16.1875 0.0000
# 4 0.0000 0.0000 0.0000 37.5653 0.0000 9.0994
# 5 12.0349 3.4526 16.1875 0.0000 47.4922 0.0000
# 6 0.0000 0.0000 0.0000 9.0994 0.0000 1.8735
#
#
#
# Elastic Compliance Matrix: (Units=1/GPa)
#
#
# Indices 1 2 3 4 5 6 
#
# 1 0.012925 -0.003300 -0.002170 0.000000 -0.002296 0.000000
# 2 -0.003300 0.014048 -0.004551 0.000000 0.001366 0.000000
# 3 -0.002170 -0.004551 0.010408 0.000000 -0.002667 0.000000
# 4 0.000000 0.000000 0.000000 -0.150836 0.000000 0.732597
# 5 -0.002296 0.001366 -0.002667 0.000000 0.022448 0.000000
# 6 0.000000 0.000000 0.000000 0.732597 0.000000 -3.024390
#
#
# Mechanical properties :
#
#
# Convention : Reuss Voigt Hill
#
# Bulk Modulus (GPa) = 57.67401 61.83146 59.75273
# Shear Modulus (GPa) = -1.61834 30.64571 14.51368
#
# Velocity S-wave (km/s) = -0.89682 3.90260 2.68570
# Velocity P-wave (km/s) = 5.25265 7.14394 6.27002
#
# Compressibility (1/GPa) = 0.01733883
#
# Stress axis : x y z
#
# Youngs Moduli (GPa) = 77.36927 71.18588 96.07872
#
# Poissons Ratio (x) = 0.23494 0.20846
# Poissons Ratio (y) = 0.25535 0.43725
# Poissons Ratio (z) = 0.16787 0.32396
#
# Static dielectric constant tensor:
#      x y z
#    x 4.150120 0.000000 -0.184710 
#    y 0.000000 3.502600 0.000000 
#    z -0.184710 0.000000 4.170630 
# 
# 
# High freq. dielectric constant tensor:
#      x y z
#    x 1.792560 0.000000 0.008800 
#    y 0.000000 1.786820 0.000000 
#    z 0.008800 0.000000 1.802670 
# 
# From -- ./inp_files/18720.got.cif
#   From: 2010.06.25/outbox.cif.g09.slc.cpg/sg13_10_cif.got.tgz:18720.got - 2010.06.28 04:50:58.
