data_PCOD8121735
_publ_section_title
;
Structure prediction by ZEFSAII (Michael W. Deem and Ramdas Pophale) SiO2 
 PCOD8121735
Probable space group: P 2/C
;
_chemical_formula_sum "Si O2"
_cell_formula_units_Z 32
_cell_length_a 8.767596
_cell_length_b 11.404763
_cell_length_c 15.264999
_cell_angle_alpha 90.000000
_cell_angle_beta 90.769242
_cell_angle_gamma 90.000000
_cell_volume 1526.245626
_symmetry_space_group_name_H-M "P 2/C"
_symmetry_group_IT_number 13
_symmetry_cell_setting 'monoclinic'
loop_
_space_group_symop_operation_xyz
x,y,z
-x,y,1/2-z
-x,-y,-z
x,-y,1/2+z
loop_
_atom_site_type_symbol
_atom_site_label
_atom_site_fract_x
_atom_site_fract_y
_atom_site_fract_z
Si Si1 0.362863 0.963242 0.062622
Si Si2 0.893793 0.351711 0.833562
Si Si3 0.419804 0.247065 0.663231
Si Si4 0.118240 0.225947 0.494494
Si Si5 0.800822 0.196471 0.414994
Si Si6 0.831600 0.602937 0.780600
Si Si7 0.600571 0.357297 0.512489
Si Si8 0.325127 0.412710 0.401884
O O1 0.443115 0.890082 0.141066
O O2 0.278377 0.072965 0.106255
O O3 0.234928 0.879577 0.017075
O O4 0.500000 0.000000 0.000000
O O5 0.753983 0.267225 0.815420
O O6 0.843641 0.487932 0.843096
O O7 0.000000 0.337706 0.750000
O O8 0.958837 0.298388 0.925021
O O9 0.500000 0.288574 0.750000
O O10 0.472684 0.327262 0.583254
O O11 0.209754 0.316093 0.435743
O O12 0.978317 0.174124 0.437399
O O13 0.773648 0.285575 0.334704
O O14 0.714977 0.249874 0.498938
O O15 0.711581 0.574883 0.701683
O O16 0.000000 0.634805 0.750000
O O17 0.503965 0.382797 0.422185
O O18 0.703867 0.464973 0.547446
#
# Coordination Sequence:
#
# PCOD8121735 Si02
#       8
#     4   4   4   4   4   4   4   4
#     4  11  23  48  66  93 128 176 230 277 330 389
#     4  10  23  40  65  98 133 169 211 271 333 395
#     4  11  23  44  65  97 133 168 224 281 324 390
#     4  11  23  43  70  94 130 174 230 276 319 409
#     4  12  25  42  67  98 127 182 225 268 341 387
#     4  11  24  41  63 100 143 169 210 276 337 406
#     4  11  24  41  70  96 131 178 222 269 337 406
#     4  11  22  43  66  99 134 175 215 271 338 398
#
# _framework density 20.966483
#
# number of rings (size 3 to 8) (size 9 to 14) (size 15 to 20)
#    0.000    1.000    5.000    1.875    7.000    1.500 
#    4.500    2.500    0.000    0.000    0.000    0.000 
#    0.000    0.000    0.000    0.000    0.000    0.000 
#
# Total GULP energy -396596.343262 kJ/mol
# GULP energy per Si atom -12393.635727 kJ/mol
# Density = 2.091876 g / cm^3
# Si number density = 20.966483 Si / 1000 Ang^3
#
#
#
# Elastic Constant Matrix: (Units=GPa)
#
#
# Indices 1 2 3 4 5 6 
#
# 1 79.1320 31.9173 29.5114 0.0000 2.0481 0.0000
# 2 31.9173 126.3754 27.3531 0.0000 -16.5033 0.0000
# 3 29.5114 27.3531 79.2857 0.0000 8.6104 0.0000
# 4 0.0000 0.0000 0.0000 25.6652 0.0000 -11.3969
# 5 2.0481 -16.5033 8.6104 0.0000 31.6038 0.0000
# 6 0.0000 0.0000 0.0000 -11.3969 0.0000 42.0664
#
#
#
# Elastic Compliance Matrix: (Units=1/GPa)
#
#
# Indices 1 2 3 4 5 6 
#
# 1 0.015653 -0.003144 -0.004589 0.000000 -0.001406 0.000000
# 2 -0.003144 0.010194 -0.003037 0.000000 0.006354 0.000000
# 3 -0.004589 -0.003037 0.015981 0.000000 -0.005643 0.000000
# 4 0.000000 0.000000 0.000000 0.044292 0.000000 0.012000
# 5 -0.001406 0.006354 -0.005643 0.000000 0.036588 0.000000
# 6 0.000000 0.000000 0.000000 0.012000 0.000000 0.027023
#
#
# Mechanical properties :
#
#
# Convention : Reuss Voigt Hill
#
# Bulk Modulus (GPa) = 49.28766 51.37297 50.33032
# Shear Modulus (GPa) = 28.08461 32.93450 30.50956
#
# Velocity S-wave (km/s) = 3.66389 3.96765 3.81879
# Velocity P-wave (km/s) = 6.43876 6.74873 6.59557
#
# Compressibility (1/GPa) = 0.02028906
#
# Stress axis : x y z
#
# Youngs Moduli (GPa) = 63.88602 98.09692 62.57349
#
# Poissons Ratio (x) = 0.30838 0.28715
# Poissons Ratio (y) = 0.20083 0.19003
# Poissons Ratio (z) = 0.29318 0.29791
#
# Static dielectric constant tensor:
#      x y z
#    x 3.877090 0.000000 0.066380 
#    y 0.000000 3.941440 0.000000 
#    z 0.066380 0.000000 3.760110 
# 
# 
# High freq. dielectric constant tensor:
#      x y z
#    x 1.831700 0.000000 -0.000350 
#    y 0.000000 1.824040 0.000000 
#    z -0.000350 0.000000 1.809700 
# 
# From -- ./inp_files/47244.got.cif
#   From: 2010.06.25/outbox.cif.g09.slc.cpg/sg13_24_cif.got.tgz:47244.got - 2010.06.28 04:50:58.
