data_PCOD8121063
_publ_section_title
;
Structure prediction by ZEFSAII (Michael W. Deem and Ramdas Pophale) SiO2 
 PCOD8121063
Probable space group: P 2/C
;
_chemical_formula_sum "Si O2"
_cell_formula_units_Z 28
_cell_length_a 14.144784
_cell_length_b 12.145984
_cell_length_c 8.650778
_cell_angle_alpha 90.000000
_cell_angle_beta 104.149491
_cell_angle_gamma 90.000000
_cell_volume 1441.133522
_symmetry_space_group_name_H-M "P 2/C"
_symmetry_group_IT_number 13
_symmetry_cell_setting 'monoclinic'
loop_
_space_group_symop_operation_xyz
x,y,z
-x,y,1/2-z
-x,-y,-z
x,-y,1/2+z
loop_
_atom_site_type_symbol
_atom_site_label
_atom_site_fract_x
_atom_site_fract_y
_atom_site_fract_z
Si Si1 0.098338 0.129034 0.224729
Si Si2 0.300947 0.832447 0.291943
Si Si3 0.714340 0.228048 0.064090
Si Si4 0.379365 0.582783 0.830149
Si Si5 0.404044 0.362622 0.999453
Si Si6 0.574035 0.048891 0.146820
Si Si7 0.100583 0.887600 0.359011
O O1 0.185076 0.204780 0.312716
O O2 0.000000 0.184920 0.250000
O O3 0.110543 0.012247 0.310695
O O4 0.095873 0.116860 0.040629
O O5 0.374679 0.757050 0.421360
O O6 0.197795 0.827458 0.339014
O O7 0.345523 0.954579 0.282868
O O8 0.281173 0.784622 0.116340
O O9 0.697907 0.356272 0.092265
O O10 0.629162 0.155118 0.106296
O O11 0.481762 0.634241 0.924104
O O12 0.352494 0.608164 0.641293
O O13 0.374856 0.452281 0.857779
O O14 0.500000 0.087702 0.250000
O O15 0.500000 0.000000 0.000000
O O16 0.000000 0.835557 0.250000
#
# Coordination Sequence:
#
# PCOD8121063 Si02
#       7
#     4   4   4   4   4   4   4
#     4  11  22  38  59  85 116 154 197 244 295 353
#     4  12  24  39  59  87 118 161 197 244 295 355
#     4  12  24  38  61  85 120 157 201 241 298 351
#     4  10  22  39  60  86 115 159 200 250 290 348
#     4  10  22  39  61  84 119 154 205 245 295 344
#     4  12  26  38  53  82 123 160 196 237 291 349
#     4  11  22  38  59  84 118 153 197 244 295 352
#
# _framework density 19.429151000000001
#
# number of rings (size 3 to 8) (size 9 to 14) (size 15 to 20)
#    0.000    0.857    2.857    6.000    6.000    1.143 
#    0.000    0.000    0.000    0.857    0.000    6.000 
#    0.000    0.000    0.000    0.000    0.000    0.000 
#
# Total GULP energy -347134.183399 kJ/mol
# GULP energy per Si atom -12397.649407 kJ/mol
# Density = 1.938493 g / cm^3
# Si number density = 19.429151 Si / 1000 Ang^3
#
#
#
# Elastic Constant Matrix: (Units=GPa)
#
#
# Indices 1 2 3 4 5 6 
#
# 1 119.5017 20.0683 33.7650 0.0000 -11.3857 0.0000
# 2 20.0683 56.1563 4.2423 0.0000 -2.2753 0.0000
# 3 33.7650 4.2423 115.6793 0.0000 -16.6322 0.0000
# 4 0.0000 0.0000 0.0000 27.9620 0.0000 -3.5076
# 5 -11.3857 -2.2753 -16.6322 0.0000 38.5476 0.0000
# 6 0.0000 0.0000 0.0000 -3.5076 0.0000 21.0065
#
#
#
# Elastic Compliance Matrix: (Units=1/GPa)
#
#
# Indices 1 2 3 4 5 6 
#
# 1 0.009773 -0.003238 -0.002501 0.000000 0.001616 0.000000
# 2 -0.003238 0.018954 0.000291 0.000000 0.000288 0.000000
# 3 -0.002501 0.000291 0.009873 0.000000 0.003538 0.000000
# 4 0.000000 0.000000 0.000000 0.036528 0.000000 0.006099
# 5 0.001616 0.000288 0.003538 0.000000 0.027963 0.000000
# 6 0.000000 0.000000 0.000000 0.006099 0.000000 0.048623
#
#
# Mechanical properties :
#
#
# Convention : Reuss Voigt Hill
#
# Bulk Modulus (GPa) = 36.09616 45.27652 40.68634
# Shear Modulus (GPa) = 29.09625 33.05401 31.07513
#
# Velocity S-wave (km/s) = 3.87403 4.12911 4.00360
# Velocity P-wave (km/s) = 6.21526 6.78872 6.50831
#
# Compressibility (1/GPa) = 0.02770377
#
# Stress axis : x y z
#
# Youngs Moduli (GPa) = 102.32721 52.75869 101.28919
#
# Poissons Ratio (x) = 0.17083 0.25336
# Poissons Ratio (y) = 0.33133 -0.02952
# Poissons Ratio (z) = 0.25596 -0.01537
#
# Static dielectric constant tensor:
#      x y z
#    x 3.978440 0.000000 -0.045950 
#    y 0.000000 4.024820 0.000000 
#    z -0.045950 0.000000 3.698000 
# 
# 
# High freq. dielectric constant tensor:
#      x y z
#    x 1.758310 0.000000 -0.008310 
#    y 0.000000 1.732600 0.000000 
#    z -0.008310 0.000000 1.777540 
# 
# From -- ./inp_files/18847.got.cif
#   From: 2010.06.25/outbox.cif.g09.slc.cpg/sg13_10_cif.got.tgz:18847.got - 2010.06.28 04:50:58.
