data_PCOD8121217
_publ_section_title
;
Structure prediction by ZEFSAII (Michael W. Deem and Ramdas Pophale) SiO2 
 PCOD8121217
Probable space group: P 2/C
;
_chemical_formula_sum "Si O2"
_cell_formula_units_Z 30
_cell_length_a 5.076743
_cell_length_b 15.439636
_cell_length_c 18.351171
_cell_angle_alpha 90.000000
_cell_angle_beta 60.536619
_cell_angle_gamma 90.000000
_cell_volume 1252.390362
_symmetry_space_group_name_H-M "P 2/C"
_symmetry_group_IT_number 13
_symmetry_cell_setting 'monoclinic'
loop_
_space_group_symop_operation_xyz
x,y,z
-x,y,1/2-z
-x,-y,-z
x,-y,1/2+z
loop_
_atom_site_type_symbol
_atom_site_label
_atom_site_fract_x
_atom_site_fract_y
_atom_site_fract_z
Si Si1 0.409693 0.270035 0.565337
Si Si2 0.203333 0.066731 0.156527
Si Si3 0.784069 0.534694 0.659315
Si Si4 0.000000 0.648122 0.750000
Si Si5 0.240878 0.660196 0.346019
Si Si6 0.706396 0.919925 0.444282
Si Si7 0.141435 0.138486 0.428868
Si Si8 0.426006 0.316084 0.402273
O O1 0.624880 0.311247 0.595716
O O2 0.475431 0.166745 0.553790
O O3 0.510978 0.314285 0.475759
O O4 0.054829 0.283657 0.633328
O O5 0.544055 0.090095 0.132697
O O6 0.000000 0.097920 0.250000
O O7 0.117464 0.118511 0.094258
O O8 0.141264 0.963859 0.147965
O O9 0.500000 0.527024 0.750000
O O10 0.024294 0.587532 0.674736
O O11 0.885815 0.437648 0.626906
O O12 0.712317 0.589426 0.596396
O O13 0.700382 0.705428 0.806629
O O14 0.500000 0.671008 0.250000
O O15 0.942315 0.893928 0.477110
O O16 0.500000 0.000000 0.500000
O O17 0.176260 0.242060 0.422430
#
# Coordination Sequence:
#
# PCOD8121217 Si02
#       8
#     4   4   4   2   4   4   4   4
#     4  11  26  44  72 103 131 176 235 281 338 408
#     4  11  23  37  61  93 124 163 217 271 323 391
#     4   9  22  40  64  95 136 186 224 273 345 403
#     4  10  22  40  66  94 136 188 230 270 354 404
#     4  11  26  46  70  99 139 181 227 283 341 396
#     4   9  22  46  68  92 131 176 213 269 343 402
#     4  10  23  40  62  90 130 170 212 263 333 394
#     4  10  24  40  65  99 137 176 230 280 335 412
#
# _framework density 23.954194000000001
#
# number of rings (size 3 to 8) (size 9 to 14) (size 15 to 20)
#    0.000    1.867    0.000    1.200   10.267   11.733 
#    0.000    0.000    0.000    0.000    0.000    0.000 
#    0.000    0.000    0.000    0.000    0.000    0.000 
#
# Total GULP energy -371723.816887 kJ/mol
# GULP energy per Si atom -12390.793896 kJ/mol
# Density = 2.389967 g / cm^3
# Si number density = 23.954194 Si / 1000 Ang^3
#
#
#
# Elastic Constant Matrix: (Units=GPa)
#
#
# Indices 1 2 3 4 5 6 
#
# 1 57.7029 17.1328 3.9016 0.0000 6.8112 0.0000
# 2 17.1328 131.2903 36.3304 0.0000 10.4372 0.0000
# 3 3.9016 36.3304 75.1933 0.0000 5.0498 0.0000
# 4 0.0000 0.0000 0.0000 26.4748 0.0000 -4.4634
# 5 6.8112 10.4372 5.0498 0.0000 37.2690 0.0000
# 6 0.0000 0.0000 0.0000 -4.4634 0.0000 16.8417
#
#
#
# Elastic Compliance Matrix: (Units=1/GPa)
#
#
# Indices 1 2 3 4 5 6 
#
# 1 0.018304 -0.002260 0.000327 0.000000 -0.002757 0.000000
# 2 -0.002260 0.009207 -0.004224 0.000000 -0.001593 0.000000
# 3 0.000327 -0.004224 0.015388 0.000000 -0.000962 0.000000
# 4 0.000000 0.000000 0.000000 0.039538 0.000000 0.010478
# 5 -0.002757 -0.001593 -0.000962 0.000000 0.027912 0.000000
# 6 0.000000 0.000000 0.000000 0.010478 0.000000 0.062153
#
#
# Mechanical properties :
#
#
# Convention : Reuss Voigt Hill
#
# Bulk Modulus (GPa) = 32.69550 42.10181 37.39865
# Shear Modulus (GPa) = 25.63939 29.90521 27.77230
#
# Velocity S-wave (km/s) = 3.27517 3.53715 3.40868
# Velocity P-wave (km/s) = 5.28972 5.85628 5.58020
#
# Compressibility (1/GPa) = 0.03058525
#
# Stress axis : x y z
#
# Youngs Moduli (GPa) = 54.63151 108.61030 64.98699
#
# Poissons Ratio (x) = 0.24547 -0.02127
# Poissons Ratio (y) = 0.12347 0.27453
# Poissons Ratio (z) = -0.01788 0.45880
#
# Static dielectric constant tensor:
#      x y z
#    x 4.302410 0.000000 0.085040 
#    y 0.000000 4.927610 0.000000 
#    z 0.085040 0.000000 4.675410 
# 
# 
# High freq. dielectric constant tensor:
#      x y z
#    x 1.946000 0.000000 0.004430 
#    y 0.000000 1.957120 0.000000 
#    z 0.004430 0.000000 1.943700 
# 
# From -- ./inp_files/61584.got.cif
#   From: 2010.06.25/outbox.cif.g09.slc.cpg/sg13_31_cif.got.tgz:61584.got - 2010.06.28 04:50:58.
