data_PCOD8121946
_publ_section_title
;
Structure prediction by ZEFSAII (Michael W. Deem and Ramdas Pophale) SiO2 
 PCOD8121946
Probable space group: P 2/C
;
_chemical_formula_sum "Si O2"
_cell_formula_units_Z 20
_cell_length_a 10.568114
_cell_length_b 7.671701
_cell_length_c 11.634314
_cell_angle_alpha 90.000000
_cell_angle_beta 73.782278
_cell_angle_gamma 90.000000
_cell_volume 905.722095
_symmetry_space_group_name_H-M "P 2/C"
_symmetry_group_IT_number 13
_symmetry_cell_setting 'monoclinic'
loop_
_space_group_symop_operation_xyz
x,y,z
-x,y,1/2-z
-x,-y,-z
x,-y,1/2+z
loop_
_atom_site_type_symbol
_atom_site_label
_atom_site_fract_x
_atom_site_fract_y
_atom_site_fract_z
Si Si1 0.356326 0.933130 0.503456
Si Si2 0.854981 0.206842 0.280437
Si Si3 0.852086 0.596707 0.311111
Si Si4 0.358980 0.381501 0.836052
Si Si5 0.256175 0.265484 0.430316
O O1 0.257717 0.921493 0.639488
O O2 0.344672 0.745321 0.448007
O O3 0.500000 0.000000 0.500000
O O4 0.318064 0.074770 0.418478
O O5 0.848407 0.392875 0.347105
O O6 0.843070 0.256666 0.149986
O O7 0.000000 0.119188 0.250000
O O8 0.756080 0.645226 0.228939
O O9 0.814179 0.705734 0.431688
O O10 0.000000 0.657609 0.250000
O O11 0.500000 0.337069 0.750000
O O12 0.361701 0.580118 0.881947
#
# Coordination Sequence:
#
# PCOD8121946 Si02
#       5
#     4   4   4   4   4
#     4  12  28  44  70 103 143 181 240 290 348 416
#     4  10  25  46  71 105 141 183 235 290 351 422
#     4  10  23  45  75 104 140 185 233 287 356 420
#     4  11  26  45  70 100 143 185 235 290 351 416
#     4  11  26  44  73 100 138 186 230 287 351 419
#
# _framework density 22.08183
#
# number of rings (size 3 to 8) (size 9 to 14) (size 15 to 20)
#    0.000    1.200    2.000    1.200   14.000    5.600 
#    0.000    0.000    0.000    0.000    0.000    0.000 
#    0.000    0.000    0.000    0.000    0.000    0.000 
#
# Total GULP energy -247896.589962 kJ/mol
# GULP energy per Si atom -12394.829498 kJ/mol
# Density = 2.203157 g / cm^3
# Si number density = 22.081830 Si / 1000 Ang^3
#
#
#
# Elastic Constant Matrix: (Units=GPa)
#
#
# Indices 1 2 3 4 5 6 
#
# 1 161.6025 27.2670 49.1241 0.0000 -12.9949 0.0000
# 2 27.2670 86.4763 25.7236 0.0000 9.1704 0.0000
# 3 49.1241 25.7236 105.3224 0.0000 -2.3683 0.0000
# 4 0.0000 0.0000 0.0000 36.0913 0.0000 4.9528
# 5 -12.9949 9.1704 -2.3683 0.0000 28.6082 0.0000
# 6 0.0000 0.0000 0.0000 4.9528 0.0000 8.5399
#
#
#
# Elastic Compliance Matrix: (Units=1/GPa)
#
#
# Indices 1 2 3 4 5 6 
#
# 1 0.007759 -0.001951 -0.003055 0.000000 0.003897 0.000000
# 2 -0.001951 0.013500 -0.002509 0.000000 -0.005422 0.000000
# 3 -0.003055 -0.002509 0.011541 0.000000 0.000372 0.000000
# 4 0.000000 0.000000 0.000000 0.030103 0.000000 -0.017459
# 5 0.003897 -0.005422 0.000372 0.000000 0.038494 0.000000
# 6 0.000000 0.000000 0.000000 -0.017459 0.000000 0.127223
#
#
# Mechanical properties :
#
#
# Convention : Reuss Voigt Hill
#
# Bulk Modulus (GPa) = 56.27463 61.95896 59.11679
# Shear Modulus (GPa) = 20.03413 31.40031 25.71722
#
# Velocity S-wave (km/s) = 3.01536 3.77503 3.41637
# Velocity P-wave (km/s) = 6.13702 6.86446 6.51091
#
# Compressibility (1/GPa) = 0.01777000
#
# Stress axis : x y z
#
# Youngs Moduli (GPa) = 128.87883 74.07194 86.64996
#
# Poissons Ratio (x) = 0.14452 0.26470
# Poissons Ratio (y) = 0.25146 0.21742
# Poissons Ratio (z) = 0.39371 0.18586
#
# Static dielectric constant tensor:
#      x y z
#    x 4.058220 0.000000 0.044190 
#    y 0.000000 5.238620 0.000000 
#    z 0.044190 0.000000 4.016130 
# 
# 
# High freq. dielectric constant tensor:
#      x y z
#    x 1.868000 0.000000 0.000560 
#    y 0.000000 1.876400 0.000000 
#    z 0.000560 0.000000 1.875080 
# 
# From -- ./inp_files/28119.got.cif
#   From: 2010.06.25/outbox.cif.g09.slc.cpg/sg13_15_cif.got.tgz:28119.got - 2010.06.28 04:50:58.
