data_PCOD8121033
_publ_section_title
;
Structure prediction by ZEFSAII (Michael W. Deem and Ramdas Pophale) SiO2 
 PCOD8121033
Probable space group: P 2/C
;
_chemical_formula_sum "Si O2"
_cell_formula_units_Z 28
_cell_length_a 9.978778
_cell_length_b 7.920058
_cell_length_c 28.259019
_cell_angle_alpha 90.000000
_cell_angle_beta 141.321358
_cell_angle_gamma 90.000000
_cell_volume 1395.755198
_symmetry_space_group_name_H-M "P 2/C"
_symmetry_group_IT_number 13
_symmetry_cell_setting 'monoclinic'
loop_
_space_group_symop_operation_xyz
x,y,z
-x,y,1/2-z
-x,-y,-z
x,-y,1/2+z
loop_
_atom_site_type_symbol
_atom_site_label
_atom_site_fract_x
_atom_site_fract_y
_atom_site_fract_z
Si Si1 0.928094 0.176527 0.150758
Si Si2 0.363691 0.305872 0.843294
Si Si3 0.955107 0.530773 0.933053
Si Si4 0.655779 0.232758 0.837132
Si Si5 0.000000 0.431870 0.250000
Si Si6 0.000000 0.064656 0.750000
Si Si7 0.624637 0.362452 0.004328
Si Si8 0.267842 0.140054 0.165324
O O1 0.012481 0.334450 0.203981
O O2 0.709686 0.216784 0.062713
O O3 0.111206 0.112719 0.166162
O O4 0.878734 0.034026 0.175322
O O5 0.544135 0.307935 0.853101
O O6 0.227472 0.475068 0.811691
O O7 0.191905 0.167784 0.779509
O O8 0.474654 0.271759 0.924398
O O9 0.848468 0.363456 0.880846
O O10 0.811380 0.701327 0.888140
O O11 0.175983 0.547799 0.966030
O O12 0.000000 0.500000 0.000000
O O13 0.500000 0.239870 0.750000
O O14 0.731914 0.036790 0.864616
O O15 0.500000 0.500000 0.000000
O O16 0.500000 0.184314 0.250000
#
# Coordination Sequence:
#
# PCOD8121033 Si02
#       8
#     4   4   4   4   2   2   4   4
#     4  10  22  41  63  94 130 169 212 271 332 392
#     4  11  23  41  65  95 130 170 223 268 327 397
#     4  11  24  42  65  94 131 175 216 268 334 391
#     4  11  24  42  67  98 128 172 223 273 331 392
#     4  10  22  38  68  90 128 172 222 270 316 410
#     4  10  22  40  64  94 128 166 216 266 324 386
#     4  11  23  42  63  97 132 171 220 267 332 400
#     4  10  23  41  65  96 129 165 220 271 324 390
#
# _framework density 20.060824
#
# number of rings (size 3 to 8) (size 9 to 14) (size 15 to 20)
#    0.000    1.429    2.857    2.143    6.000    2.286 
#    2.571    0.000    0.000    0.000    0.000    0.000 
#    0.000    0.000    0.000    0.000    0.000    0.000 
#
# Total GULP energy -347090.082683 kJ/mol
# GULP energy per Si atom -12396.074382 kJ/mol
# Density = 2.001516 g / cm^3
# Si number density = 20.060824 Si / 1000 Ang^3
#
#
#
# Elastic Constant Matrix: (Units=GPa)
#
#
# Indices 1 2 3 4 5 6 
#
# 1 83.6438 25.2992 21.4338 0.0000 2.0644 0.0000
# 2 25.2992 112.9334 48.7375 0.0000 2.6209 0.0000
# 3 21.4338 48.7375 110.6454 0.0000 -8.2668 0.0000
# 4 0.0000 0.0000 0.0000 -2.7570 0.0000 -2.3341
# 5 2.0644 2.6209 -8.2668 0.0000 39.8010 0.0000
# 6 0.0000 0.0000 0.0000 -2.3341 0.0000 -3.8565
#
#
#
# Elastic Compliance Matrix: (Units=1/GPa)
#
#
# Indices 1 2 3 4 5 6 
#
# 1 0.013060 -0.002205 -0.001624 0.000000 -0.000869 0.000000
# 2 -0.002205 0.011426 -0.004727 0.000000 -0.001620 0.000000
# 3 -0.001624 -0.004727 0.011645 0.000000 0.002814 0.000000
# 4 0.000000 0.000000 0.000000 -0.743842 0.000000 0.450199
# 5 -0.000869 -0.001620 0.002814 0.000000 0.025861 0.000000
# 6 0.000000 0.000000 0.000000 0.450199 0.000000 -0.531781
#
#
# Mechanical properties :
#
#
# Convention : Reuss Voigt Hill
#
# Bulk Modulus (GPa) = 52.57618 55.35151 53.96385
# Shear Modulus (GPa) = -4.20105 20.75430 8.27663
#
# Velocity S-wave (km/s) = -1.44869 3.21996 2.03340
# Velocity P-wave (km/s) = 4.84428 6.44018 5.69837
#
# Compressibility (1/GPa) = 0.01902002
#
# Stress axis : x y z
#
# Youngs Moduli (GPa) = 76.57057 87.51774 85.87483
#
# Poissons Ratio (x) = 0.19295 0.13944
# Poissons Ratio (y) = 0.16882 0.40593
# Poissons Ratio (z) = 0.12433 0.41370
#
# Static dielectric constant tensor:
#      x y z
#    x 3.730730 0.000000 0.018300 
#    y 0.000000 3.835870 0.000000 
#    z 0.018300 0.000000 3.830480 
# 
# 
# High freq. dielectric constant tensor:
#      x y z
#    x 1.788670 0.000000 -0.001550 
#    y 0.000000 1.782970 0.000000 
#    z -0.001550 0.000000 1.794950 
# 
# From -- ./inp_files/63839.got.cif
#   From: 2010.06.25/outbox.cif.g09.slc.cpg/sg13_32_cif.got.tgz:63839.got - 2010.06.28 04:50:58.
