data_PCOD8121838
_publ_section_title
;
Structure prediction by ZEFSAII (Michael W. Deem and Ramdas Pophale) SiO2 
 PCOD8121838
Probable space group: P 2/C
;
_chemical_formula_sum "Si O2"
_cell_formula_units_Z 14
_cell_length_a 5.283410
_cell_length_b 17.156750
_cell_length_c 9.181276
_cell_angle_alpha 90.000000
_cell_angle_beta 55.993958
_cell_angle_gamma 90.000000
_cell_volume 689.915177
_symmetry_space_group_name_H-M "P 2/C"
_symmetry_group_IT_number 13
_symmetry_cell_setting 'monoclinic'
loop_
_space_group_symop_operation_xyz
x,y,z
-x,y,1/2-z
-x,-y,-z
x,-y,1/2+z
loop_
_atom_site_type_symbol
_atom_site_label
_atom_site_fract_x
_atom_site_fract_y
_atom_site_fract_z
Si Si1 0.164125 0.675495 0.335764
Si Si2 0.000000 0.825338 0.250000
Si Si3 0.703070 0.951718 0.544910
Si Si4 0.860648 0.430734 0.137490
O O1 0.500000 0.640099 0.250000
O O2 0.192422 0.768819 0.296631
O O3 0.000000 0.634300 0.250000
O O4 0.961155 0.653645 0.540880
O O5 0.791999 0.875635 0.424827
O O6 0.500000 0.928015 0.750000
O O7 0.500000 0.000000 0.500000
O O8 0.000000 0.000000 0.500000
O O9 0.500000 0.436411 0.250000
O O10 0.000000 0.437390 0.250000
O O11 0.000000 0.500000 0.000000
#
# Coordination Sequence:
#
# PCOD8121838 Si02
#       4
#     4   2   4   4
#     4  10  23  43  65  91 136 171 216 272 341 381
#     4  10  26  42  72  92 146 166 232 282 346 394
#     4  12  24  43  69  97 130 176 227 279 344 405
#     4  12  24  42  70 100 134 176 226 272 331 398
#
# _framework density 20.292349999999999
#
# number of rings (size 3 to 8) (size 9 to 14) (size 15 to 20)
#    0.857    0.000    2.857    4.286    4.000    1.143 
#    0.000    0.000    0.000    0.000    0.000    0.000 
#    0.000    0.000    0.000    0.000    0.000    0.000 
#
# Total GULP energy -173486.071534 kJ/mol
# GULP energy per Si atom -12391.862252 kJ/mol
# Density = 2.024616 g / cm^3
# Si number density = 20.292350 Si / 1000 Ang^3
#
#
#
# Elastic Constant Matrix: (Units=GPa)
#
#
# Indices 1 2 3 4 5 6 
#
# 1 207.8239 50.3562 83.0146 0.0000 -1.6718 0.0000
# 2 50.3562 107.6451 82.0081 0.0000 2.2794 0.0000
# 3 83.0146 82.0081 201.4777 0.0000 -2.8797 0.0000
# 4 0.0000 0.0000 0.0000 57.8965 0.0000 -0.4273
# 5 -1.6718 2.2794 -2.8797 0.0000 46.5315 0.0000
# 6 0.0000 0.0000 0.0000 -0.4273 0.0000 10.9822
#
#
#
# Elastic Compliance Matrix: (Units=1/GPa)
#
#
# Indices 1 2 3 4 5 6 
#
# 1 0.005886 -0.001320 -0.001886 0.000000 0.000159 0.000000
# 2 -0.001320 0.013808 -0.005091 0.000000 -0.001039 0.000000
# 3 -0.001886 -0.005091 0.007822 0.000000 0.000666 0.000000
# 4 0.000000 0.000000 0.000000 0.017277 0.000000 0.000672
# 5 0.000159 -0.001039 0.000666 0.000000 0.021589 0.000000
# 6 0.000000 0.000000 0.000000 0.000672 0.000000 0.091083
#
#
# Mechanical properties :
#
#
# Convention : Reuss Voigt Hill
#
# Bulk Modulus (GPa) = 91.55801 105.30050 98.42925
# Shear Modulus (GPa) = 28.13738 43.18658 35.66198
#
# Velocity S-wave (km/s) = 3.72775 4.61827 4.19670
# Velocity P-wave (km/s) = 7.98408 8.96896 8.49081
#
# Compressibility (1/GPa) = 0.01092204
#
# Stress axis : x y z
#
# Youngs Moduli (GPa) = 169.88997 72.42119 127.84460
#
# Poissons Ratio (x) = 0.09563 0.24105
# Poissons Ratio (y) = 0.22433 0.65088
# Poissons Ratio (z) = 0.32033 0.36871
#
# Static dielectric constant tensor:
#      x y z
#    x 3.391910 0.000000 0.758480 
#    y 0.000000 3.805080 0.000000 
#    z 0.758480 0.000000 2.862680 
# 
# 
# High freq. dielectric constant tensor:
#      x y z
#    x 1.811280 0.000000 0.004700 
#    y 0.000000 1.786890 0.000000 
#    z 0.004700 0.000000 1.804960 
# 
# From -- ./inp_files/9070.got.cif
#   From: 2010.06.25/outbox.cif.g09.slc.cpg/sg13_5_cif.got.tgz:9070.got - 2010.06.28 04:50:58.
