data_PCOD8121385
_publ_section_title
;
Structure prediction by ZEFSAII (Michael W. Deem and Ramdas Pophale) SiO2 
 PCOD8121385
Probable space group: P 2/C
;
_chemical_formula_sum "Si O2"
_cell_formula_units_Z 20
_cell_length_a 15.450759
_cell_length_b 5.194849
_cell_length_c 22.184520
_cell_angle_alpha 90.000000
_cell_angle_beta 150.100602
_cell_angle_gamma 90.000000
_cell_volume 887.604160
_symmetry_space_group_name_H-M "P 2/C"
_symmetry_group_IT_number 13
_symmetry_cell_setting 'monoclinic'
loop_
_space_group_symop_operation_xyz
x,y,z
-x,y,1/2-z
-x,-y,-z
x,-y,1/2+z
loop_
_atom_site_type_symbol
_atom_site_label
_atom_site_fract_x
_atom_site_fract_y
_atom_site_fract_z
Si Si1 0.256897 0.042521 0.256063
Si Si2 0.961619 0.814117 0.661927
Si Si3 0.381455 0.933323 0.559371
Si Si4 0.190020 0.459022 0.638674
Si Si5 0.690221 0.580527 0.419511
O O1 0.138503 0.056859 0.244144
O O2 0.463939 0.031830 0.396967
O O3 0.242628 0.300495 0.209558
O O4 0.194542 0.801510 0.179519
O O5 0.000000 0.682100 0.750000
O O6 0.886482 0.612171 0.566968
O O7 0.812540 0.031888 0.585033
O O8 0.400485 0.662264 0.604280
O O9 0.417791 0.163076 0.629360
O O10 0.313945 0.446659 0.654834
O O11 0.000000 0.500000 0.500000
#
# Coordination Sequence:
#
# PCOD8121385 Si02
#       5
#     4   4   4   4   4
#     4  12  25  40  69  97 129 175 211 265 329 378
#     4  10  25  46  67  91 132 172 218 271 317 376
#     4  10  23  43  62 101 128 165 222 256 324 389
#     4  12  22  40  67  98 134 168 213 263 322 397
#     4  10  22  42  62  94 133 164 212 264 318 377
#
# _framework density 22.532565999999999
#
# number of rings (size 3 to 8) (size 9 to 14) (size 15 to 20)
#    1.200    0.000    2.000    4.200    0.000    6.400 
#    0.000    1.000    0.000    0.000    0.000    0.000 
#    0.000    0.000    0.000    0.000    0.000    0.000 
#
# Total GULP energy -247793.424777 kJ/mol
# GULP energy per Si atom -12389.671239 kJ/mol
# Density = 2.248128 g / cm^3
# Si number density = 22.532566 Si / 1000 Ang^3
#
#
#
# Elastic Constant Matrix: (Units=GPa)
#
#
# Indices 1 2 3 4 5 6 
#
# 1 127.8620 27.7233 65.2649 0.0000 19.0443 0.0000
# 2 27.7233 143.7580 9.0801 0.0000 -1.0243 0.0000
# 3 65.2649 9.0801 68.6679 0.0000 32.6889 0.0000
# 4 0.0000 0.0000 0.0000 12.3055 0.0000 4.5228
# 5 19.0443 -1.0243 32.6889 0.0000 57.4322 0.0000
# 6 0.0000 0.0000 0.0000 4.5228 0.0000 21.8821
#
#
#
# Elastic Compliance Matrix: (Units=1/GPa)
#
#
# Indices 1 2 3 4 5 6 
#
# 1 0.016610 -0.002056 -0.017661 0.000000 0.004508 0.000000
# 2 -0.002056 0.007303 0.000825 0.000000 0.000342 0.000000
# 3 -0.017661 0.000825 0.039016 0.000000 -0.016336 0.000000
# 4 0.000000 0.000000 0.000000 0.087945 0.000000 -0.018177
# 5 0.004508 0.000342 -0.016336 0.000000 0.025221 0.000000
# 6 0.000000 0.000000 0.000000 -0.018177 0.000000 0.049457
#
#
# Mechanical properties :
#
#
# Convention : Reuss Voigt Hill
#
# Bulk Modulus (GPa) = 39.76753 60.49164 50.12958
# Shear Modulus (GPa) = 18.40157 34.20525 26.30341
#
# Velocity S-wave (km/s) = 2.86084 3.90043 3.42036
# Velocity P-wave (km/s) = 5.34787 6.86943 6.15584
#
# Compressibility (1/GPa) = 0.02514615
#
# Stress axis : x y z
#
# Youngs Moduli (GPa) = 60.20524 136.93253 25.63065
#
# Poissons Ratio (x) = 0.28147 0.45266
# Poissons Ratio (y) = 0.12375 -0.02115
# Poissons Ratio (z) = 1.06327 -0.11298
#
# Static dielectric constant tensor:
#      x y z
#    x 4.059420 0.000000 0.506230 
#    y 0.000000 3.981320 0.000000 
#    z 0.506230 0.000000 4.518920 
# 
# 
# High freq. dielectric constant tensor:
#      x y z
#    x 1.877310 0.000000 0.032600 
#    y 0.000000 1.884900 0.000000 
#    z 0.032600 0.000000 1.894270 
# 
# From -- ./inp_files/86899.got.cif
#   From: 2010.06.25/outbox.cif.g09.slc.cpg/sg13_44_cif.got.tgz:86899.got - 2010.06.28 04:50:58.
