data_PCOD8121065
_publ_section_title
;
Structure prediction by ZEFSAII (Michael W. Deem and Ramdas Pophale) SiO2 
 PCOD8121065
Probable space group: P 2/C
;
_chemical_formula_sum "Si O2"
_cell_formula_units_Z 28
_cell_length_a 27.988869
_cell_length_b 8.678046
_cell_length_c 28.245956
_cell_angle_alpha 90.000000
_cell_angle_beta 169.047087
_cell_angle_gamma 90.000000
_cell_volume 1303.533574
_symmetry_space_group_name_H-M "P 2/C"
_symmetry_group_IT_number 13
_symmetry_cell_setting 'monoclinic'
loop_
_space_group_symop_operation_xyz
x,y,z
-x,y,1/2-z
-x,-y,-z
x,-y,1/2+z
loop_
_atom_site_type_symbol
_atom_site_label
_atom_site_fract_x
_atom_site_fract_y
_atom_site_fract_z
Si Si1 0.575463 0.161381 0.216392
Si Si2 0.922130 0.125585 0.386308
Si Si3 0.559214 0.694468 0.600294
Si Si4 0.212882 0.610260 0.189967
Si Si5 0.542590 0.517835 0.736310
Si Si6 0.042015 0.659489 0.735515
Si Si7 0.088283 0.977786 0.726813
O O1 0.590605 0.198800 0.175721
O O2 0.566131 0.314316 0.237555
O O3 0.823055 0.067029 0.472158
O O4 0.316389 0.069589 0.973735
O O5 0.722095 0.238769 0.215461
O O6 0.145467 0.247336 0.589527
O O7 0.829469 0.048567 0.247761
O O8 0.000000 0.000000 0.500000
O O9 0.286508 0.695362 0.311182
O O10 0.595953 0.510753 0.648482
O O11 0.000000 0.500000 0.000000
O O12 0.500000 0.539553 0.750000
O O13 0.303088 0.431253 0.480223
O O14 0.805164 0.430072 0.982326
O O15 0.000000 0.688875 0.750000
O O16 0.058567 0.821380 0.725987
#
# Coordination Sequence:
#
# PCOD8121065 Si02
#       7
#     4   4   4   4   4   4   4
#     4  12  26  42  65  98 136 171 219 269 328 397
#     4  11  22  39  60  85 133 171 221 262 325 385
#     4  10  22  39  60  86 125 171 220 273 312 377
#     4   9  21  37  57  85 114 165 219 267 317 365
#     4  10  23  45  73  98 129 173 215 272 334 395
#     4  10  23  46  72 100 131 167 219 273 329 398
#     4  12  27  41  66 102 132 180 215 271 339 382
#
# _framework density 21.480076
#
# number of rings (size 3 to 8) (size 9 to 14) (size 15 to 20)
#    0.000    1.429    1.429    2.571    6.000    5.714 
#    0.000    0.000    0.000    0.000    0.000    0.000 
#    0.000    0.000    0.000    0.000    0.000    0.000 
#
# Total GULP energy -346919.287245 kJ/mol
# GULP energy per Si atom -12389.974544 kJ/mol
# Density = 2.143119 g / cm^3
# Si number density = 21.480076 Si / 1000 Ang^3
#
#
#
# Elastic Constant Matrix: (Units=GPa)
#
#
# Indices 1 2 3 4 5 6 
#
# 1 32.0721 50.7313 34.0379 0.0000 1.0470 0.0000
# 2 50.7313 171.8658 88.3835 0.0000 -1.8631 0.0000
# 3 34.0379 88.3835 172.0435 0.0000 0.2845 0.0000
# 4 0.0000 0.0000 0.0000 45.3776 0.0000 -3.0881
# 5 1.0470 -1.8631 0.2845 0.0000 16.6712 0.0000
# 6 0.0000 0.0000 0.0000 -3.0881 0.0000 38.6336
#
#
#
# Elastic Compliance Matrix: (Units=1/GPa)
#
#
# Indices 1 2 3 4 5 6 
#
# 1 0.060755 -0.016060 -0.003760 0.000000 -0.005546 0.000000
# 2 -0.016060 0.012168 -0.003078 0.000000 0.002421 0.000000
# 3 -0.003760 -0.003078 0.008138 0.000000 -0.000247 0.000000
# 4 0.000000 0.000000 0.000000 0.022158 0.000000 0.001771
# 5 -0.005546 0.002421 -0.000247 0.000000 0.060607 0.000000
# 6 0.000000 0.000000 0.000000 0.001771 0.000000 0.026026
#
#
# Mechanical properties :
#
#
# Convention : Reuss Voigt Hill
#
# Bulk Modulus (GPa) = 28.35675 80.25410 54.30542
# Shear Modulus (GPa) = 20.20996 33.65841 26.93418
#
# Velocity S-wave (km/s) = 3.07069 3.96278 3.54491
# Velocity P-wave (km/s) = 5.07959 7.64077 6.48782
#
# Compressibility (1/GPa) = 0.03526497
#
# Stress axis : x y z
#
# Youngs Moduli (GPa) = 16.45948 82.18243 122.88069
#
# Poissons Ratio (x) = 1.31985 0.46209
# Poissons Ratio (y) = 0.26434 0.37819
# Poissons Ratio (z) = 0.06190 0.25293
#
# Static dielectric constant tensor:
#      x y z
#    x 3.717800 0.000000 0.124490 
#    y 0.000000 10.954340 0.000000 
#    z 0.124490 0.000000 5.003630 
# 
# 
# High freq. dielectric constant tensor:
#      x y z
#    x 1.817930 0.000000 -0.008120 
#    y 0.000000 1.870340 0.000000 
#    z -0.008120 0.000000 1.861390 
# 
# From -- ./inp_files/98112.got.cif
#   From: 2010.06.25/outbox.cif.g09.slc.cpg/sg13_50_cif.got.tgz:98112.got - 2010.06.28 04:50:58.
