data_PCOD8121870
_publ_section_title
;
Structure prediction by ZEFSAII (Michael W. Deem and Ramdas Pophale) SiO2 
 PCOD8121870
Probable space group: P 2/C
;
_chemical_formula_sum "Si O2"
_cell_formula_units_Z 18
_cell_length_a 11.404067
_cell_length_b 10.982247
_cell_length_c 10.851201
_cell_angle_alpha 90.000000
_cell_angle_beta 144.516415
_cell_angle_gamma 90.000000
_cell_volume 788.875237
_symmetry_space_group_name_H-M "P 2/C"
_symmetry_group_IT_number 13
_symmetry_cell_setting 'monoclinic'
loop_
_space_group_symop_operation_xyz
x,y,z
-x,y,1/2-z
-x,-y,-z
x,-y,1/2+z
loop_
_atom_site_type_symbol
_atom_site_label
_atom_site_fract_x
_atom_site_fract_y
_atom_site_fract_z
Si Si1 0.884660 0.010016 0.031330
Si Si2 0.613396 0.667570 0.041597
Si Si3 0.768236 0.413457 0.162697
Si Si4 0.500000 0.140227 0.250000
Si Si5 0.812128 0.713946 0.461645
O O1 0.000000 0.952680 0.250000
O O2 0.860620 0.150394 0.044334
O O3 0.668864 0.943592 0.829685
O O4 0.000000 0.000000 0.000000
O O5 0.765542 0.558702 0.134126
O O6 0.677561 0.722705 0.226363
O O7 0.385347 0.615591 0.857247
O O8 0.617658 0.775860 0.947951
O O9 0.987752 0.367152 0.391510
O O10 0.694161 0.347758 0.974172
#
# Coordination Sequence:
#
# PCOD8121870 Si02
#       5
#     4   4   4   2   4
#     4  12  27  50  75 107 149 197 252 303 363 439
#     4  11  25  43  68 104 146 181 238 296 360 436
#     4  10  23  43  71 101 136 184 237 295 365 424
#     4  12  30  44  72 112 150 196 240 304 366 430
#     4  11  23  45  73 101 136 190 239 294 362 432
#
# _framework density 22.817295000000001
#
# number of rings (size 3 to 8) (size 9 to 14) (size 15 to 20)
#    0.000    0.889    2.222    4.000    9.333    1.778 
#   12.000    0.000    0.000    0.000    0.000    0.000 
#    0.000    0.000    0.000    0.000    0.000    0.000 
#
# Total GULP energy -223197.228307 kJ/mol
# GULP energy per Si atom -12399.846017 kJ/mol
# Density = 2.276536 g / cm^3
# Si number density = 22.817295 Si / 1000 Ang^3
#
#
#
# Elastic Constant Matrix: (Units=GPa)
#
#
# Indices 1 2 3 4 5 6 
#
# 1 112.3254 44.2129 32.7248 0.0000 -1.3631 0.0000
# 2 44.2129 131.2846 25.7603 0.0000 18.4433 0.0000
# 3 32.7248 25.7603 92.8585 0.0000 -6.9492 0.0000
# 4 0.0000 0.0000 0.0000 21.7935 0.0000 5.6169
# 5 -1.3631 18.4433 -6.9492 0.0000 45.5867 0.0000
# 6 0.0000 0.0000 0.0000 5.6169 0.0000 27.8936
#
#
#
# Elastic Compliance Matrix: (Units=1/GPa)
#
#
# Indices 1 2 3 4 5 6 
#
# 1 0.011071 -0.003337 -0.002883 0.000000 0.001242 0.000000
# 2 -0.003337 0.009707 -0.001839 0.000000 -0.004307 0.000000
# 3 -0.002883 -0.001839 0.012487 0.000000 0.002561 0.000000
# 4 0.000000 0.000000 0.000000 0.048397 0.000000 -0.009746
# 5 0.001242 -0.004307 0.002561 0.000000 0.024106 0.000000
# 6 0.000000 0.000000 0.000000 -0.009746 0.000000 0.037813
#
#
# Mechanical properties :
#
#
# Convention : Reuss Voigt Hill
#
# Bulk Modulus (GPa) = 58.32084 60.20718 59.26401
# Shear Modulus (GPa) = 30.22689 34.63947 32.43318
#
# Velocity S-wave (km/s) = 3.64364 3.90054 3.77428
# Velocity P-wave (km/s) = 6.58156 6.83590 6.70993
#
# Compressibility (1/GPa) = 0.01714653
#
# Stress axis : x y z
#
# Youngs Moduli (GPa) = 90.32371 103.01957 80.08367
#
# Poissons Ratio (x) = 0.34380 0.23088
# Poissons Ratio (y) = 0.30143 0.14728
# Poissons Ratio (z) = 0.26040 0.18946
#
# Static dielectric constant tensor:
#      x y z
#    x 4.209880 0.000000 0.048490 
#    y 0.000000 4.171660 0.000000 
#    z 0.048490 0.000000 4.002380 
# 
# 
# High freq. dielectric constant tensor:
#      x y z
#    x 1.899730 0.000000 -0.001350 
#    y 0.000000 1.909800 0.000000 
#    z -0.001350 0.000000 1.905350 
# 
# From -- ./inp_files/32962.got.cif
#   From: 2010.06.25/outbox.cif.g09.slc.cpg/sg13_17_cif.got.tgz:32962.got - 2010.06.28 04:50:58.
