data_PCOD8121294
_publ_section_title
;
Structure prediction by ZEFSAII (Michael W. Deem and Ramdas Pophale) SiO2 
 PCOD8121294
Probable space group: P 2/C
;
_chemical_formula_sum "Si O2"
_cell_formula_units_Z 32
_cell_length_a 12.794487
_cell_length_b 11.217598
_cell_length_c 11.070277
_cell_angle_alpha 90.000000
_cell_angle_beta 95.245809
_cell_angle_gamma 90.000000
_cell_volume 1582.189239
_symmetry_space_group_name_H-M "P 2/C"
_symmetry_group_IT_number 13
_symmetry_cell_setting 'monoclinic'
loop_
_space_group_symop_operation_xyz
x,y,z
-x,y,1/2-z
-x,-y,-z
x,-y,1/2+z
loop_
_atom_site_type_symbol
_atom_site_label
_atom_site_fract_x
_atom_site_fract_y
_atom_site_fract_z
Si Si1 0.697382 0.834785 0.854036
Si Si2 0.613407 0.555138 0.225098
Si Si3 0.063851 0.124498 0.133445
Si Si4 0.423187 0.070886 0.639643
Si Si5 0.731331 0.727845 0.388871
Si Si6 0.444352 0.256036 0.975697
Si Si7 0.052423 0.845741 0.126662
Si Si8 0.355611 0.686199 0.874307
O O1 0.820722 0.820874 0.845847
O O2 0.641685 0.788598 0.726916
O O3 0.656397 0.963303 0.896545
O O4 0.663010 0.751164 0.960644
O O5 0.500000 0.503238 0.250000
O O6 0.690891 0.598519 0.340284
O O7 0.589280 0.672219 0.144704
O O8 0.677492 0.445711 0.173294
O O9 0.000000 0.157688 0.250000
O O10 0.082667 0.983748 0.127442
O O11 0.013684 0.176876 0.004036
O O12 0.500000 0.023277 0.750000
O O13 0.348657 0.176945 0.677943
O O14 0.498668 0.126139 0.542225
O O15 0.848613 0.758291 0.362776
O O16 0.726649 0.730783 0.533706
O O17 0.528428 0.331709 0.059508
O O18 0.000000 0.814920 0.250000
#
# Coordination Sequence:
#
# PCOD8121294 Si02
#       8
#     4   4   4   4   4   4   4   4
#     4  12  24  37  62  95 130 165 203 258 323 381
#     4  12  22  41  64  88 125 171 222 250 297 374
#     4  10  22  41  64  93 129 165 214 267 319 387
#     4  11  20  38  56  94 133 167 193 245 318 387
#     4  11  22  42  63  91 124 168 206 263 319 365
#     4  11  22  38  58  94 128 173 205 252 306 370
#     4  10  22  41  66  94 122 166 217 265 323 386
#     4  11  25  39  63  92 130 170 208 259 300 376
#
# _framework density 20.225141000000001
#
# number of rings (size 3 to 8) (size 9 to 14) (size 15 to 20)
#    0.000    1.000    5.000    3.375    3.500    1.000 
#    2.250    0.000    0.000    3.750    0.000    0.000 
#    0.000    0.000    0.000    0.000    0.000    0.000 
#
# Total GULP energy -396507.876894 kJ/mol
# GULP energy per Si atom -12390.871153 kJ/mol
# Density = 2.017911 g / cm^3
# Si number density = 20.225141 Si / 1000 Ang^3
#
#
#
# Elastic Constant Matrix: (Units=GPa)
#
#
# Indices 1 2 3 4 5 6 
#
# 1 115.2392 26.3676 43.7876 0.0000 -21.7387 0.0000
# 2 26.3676 65.7413 31.4836 0.0000 -8.8454 0.0000
# 3 43.7876 31.4836 113.3493 0.0000 -12.0961 0.0000
# 4 0.0000 0.0000 0.0000 1.0297 0.0000 1.0403
# 5 -21.7387 -8.8454 -12.0961 0.0000 31.1547 0.0000
# 6 0.0000 0.0000 0.0000 1.0403 0.0000 10.7366
#
#
#
# Elastic Compliance Matrix: (Units=1/GPa)
#
#
# Indices 1 2 3 4 5 6 
#
# 1 0.011576 -0.002289 -0.003175 0.000000 0.006195 0.000000
# 2 -0.002289 0.018313 -0.003983 0.000000 0.002056 0.000000
# 3 -0.003175 -0.003983 0.011265 0.000000 0.001027 0.000000
# 4 0.000000 0.000000 0.000000 1.076519 0.000000 -0.104309
# 5 0.006195 0.002056 0.001027 0.000000 0.037403 0.000000
# 6 0.000000 0.000000 0.000000 -0.104309 0.000000 0.103246
#
#
# Mechanical properties :
#
#
# Convention : Reuss Voigt Hill
#
# Bulk Modulus (GPa) = 44.92321 55.28971 50.10646
# Shear Modulus (GPa) = 3.89215 21.43026 12.66121
#
# Velocity S-wave (km/s) = 1.38874 3.25866 2.50474
# Velocity P-wave (km/s) = 4.98310 6.44631 5.76134
#
# Compressibility (1/GPa) = 0.02226021
#
# Stress axis : x y z
#
# Youngs Moduli (GPa) = 86.38249 54.60511 88.77191
#
# Poissons Ratio (x) = 0.12499 0.28187
# Poissons Ratio (y) = 0.19773 0.35358
# Poissons Ratio (z) = 0.27428 0.21749
#
# Static dielectric constant tensor:
#      x y z
#    x 3.525440 0.000000 -0.099590 
#    y 0.000000 3.449160 0.000000 
#    z -0.099590 0.000000 3.841140 
# 
# 
# High freq. dielectric constant tensor:
#      x y z
#    x 1.771840 0.000000 -0.008070 
#    y 0.000000 1.775160 0.000000 
#    z -0.008070 0.000000 1.802290 
# 
# From -- ./inp_files/33850.got.cif
#   From: 2010.06.25/outbox.cif.g09.slc.cpg/sg13_17_cif.got.tgz:33850.got - 2010.06.28 04:50:58.
