data_PCOD8121619
_publ_section_title
;
Structure prediction by ZEFSAII (Michael W. Deem and Ramdas Pophale) SiO2 
 PCOD8121619
Probable space group: P 2/C
;
_chemical_formula_sum "Si O2"
_cell_formula_units_Z 18
_cell_length_a 7.468566
_cell_length_b 9.352988
_cell_length_c 11.721830
_cell_angle_alpha 90.000000
_cell_angle_beta 70.961250
_cell_angle_gamma 90.000000
_cell_volume 774.019385
_symmetry_space_group_name_H-M "P 2/C"
_symmetry_group_IT_number 13
_symmetry_cell_setting 'monoclinic'
loop_
_space_group_symop_operation_xyz
x,y,z
-x,y,1/2-z
-x,-y,-z
x,-y,1/2+z
loop_
_atom_site_type_symbol
_atom_site_label
_atom_site_fract_x
_atom_site_fract_y
_atom_site_fract_z
Si Si1 0.661633 0.290934 0.469738
Si Si2 0.286079 0.903318 0.332692
Si Si3 0.000000 0.723032 0.250000
Si Si4 0.749652 0.609213 0.493898
Si Si5 0.276536 0.223471 0.290755
O O1 0.726408 0.162214 0.538176
O O2 0.710872 0.442011 0.516635
O O3 0.434676 0.295097 0.498984
O O4 0.778318 0.260289 0.328620
O O5 0.500000 0.893897 0.250000
O O6 0.163659 0.818977 0.267615
O O7 0.214035 0.066377 0.345487
O O8 0.089137 0.624513 0.134005
O O9 0.824355 0.665414 0.601416
O O10 0.500000 0.245121 0.250000
#
# Coordination Sequence:
#
# PCOD8121619 Si02
#       5
#     4   4   2   4   4
#     4  10  22  44  72  96 136 182 221 278 337 393
#     4  11  24  43  71  97 139 180 220 278 338 393
#     4  12  26  42  68 106 132 176 232 276 326 414
#     4  10  23  42  69 100 137 175 228 276 333 399
#     4   9  22  41  69 102 134 178 230 272 332 404
#
# _framework density 23.255234000000002
#
# number of rings (size 3 to 8) (size 9 to 14) (size 15 to 20)
#    0.000    1.778    2.222    0.000    6.222    5.333 
#    0.000    0.000    0.000    0.000    0.000    0.000 
#    0.000    0.000    0.000    0.000    0.000    0.000 
#
# Total GULP energy -223220.789914 kJ/mol
# GULP energy per Si atom -12401.154995 kJ/mol
# Density = 2.320230 g / cm^3
# Si number density = 23.255234 Si / 1000 Ang^3
#
#
#
# Elastic Constant Matrix: (Units=GPa)
#
#
# Indices 1 2 3 4 5 6 
#
# 1 32.2785 20.5280 10.4160 0.0000 9.9602 0.0000
# 2 20.5280 119.8716 67.2155 0.0000 19.3531 0.0000
# 3 10.4160 67.2155 177.7964 0.0000 19.0344 0.0000
# 4 0.0000 0.0000 0.0000 42.7735 0.0000 81.2376
# 5 9.9602 19.3531 19.0344 0.0000 38.7299 0.0000
# 6 0.0000 0.0000 0.0000 81.2376 0.0000 873.5718
#
#
#
# Elastic Compliance Matrix: (Units=1/GPa)
#
#
# Indices 1 2 3 4 5 6 
#
# 1 0.036400 -0.005498 0.000690 0.000000 -0.006953 0.000000
# 2 -0.005498 0.011888 -0.003892 0.000000 -0.002614 0.000000
# 3 0.000690 -0.003892 0.007248 0.000000 -0.001794 0.000000
# 4 0.000000 0.000000 0.000000 0.028394 0.000000 -0.002640
# 5 -0.006953 -0.002614 -0.001794 0.000000 0.029796 0.000000
# 6 0.000000 0.000000 0.000000 -0.002640 0.000000 0.001390
#
#
# Mechanical properties :
#
#
# Convention : Reuss Voigt Hill
#
# Bulk Modulus (GPa) = 26.22231 58.47395 42.34813
# Shear Modulus (GPa) = 34.42871 206.46748 120.44810
#
# Velocity S-wave (km/s) = 3.85186 9.43271 7.20461
# Velocity P-wave (km/s) = 5.57520 11.99307 9.35191
#
# Compressibility (1/GPa) = 0.03813546
#
# Stress axis : x y z
#
# Youngs Moduli (GPa) = 27.47283 84.11573 137.97644
#
# Poissons Ratio (x) = 0.46247 -0.09527
# Poissons Ratio (y) = 0.15105 0.53707
# Poissons Ratio (z) = -0.01897 0.32742
#
# Static dielectric constant tensor:
#      x y z
#    x 4.220610 0.000000 0.192460 
#    y 0.000000 4.133190 0.000000 
#    z 0.192460 0.000000 4.384990 
# 
# 
# High freq. dielectric constant tensor:
#      x y z
#    x 1.912240 0.000000 0.007540 
#    y 0.000000 1.919090 0.000000 
#    z 0.007540 0.000000 1.929730 
# 
# From -- ./inp_files/27808.got.cif
#   From: 2010.06.25/outbox.cif.g09.slc.cpg/sg13_14_cif.got.tgz:27808.got - 2010.06.28 04:50:58.
