data_PCOD8121129
_publ_section_title
;
Structure prediction by ZEFSAII (Michael W. Deem and Ramdas Pophale) SiO2 
 PCOD8121129
Probable space group: P 2/C
;
_chemical_formula_sum "Si O2"
_cell_formula_units_Z 30
_cell_length_a 21.032992
_cell_length_b 6.458441
_cell_length_c 18.396688
_cell_angle_alpha 90.000000
_cell_angle_beta 31.931854
_cell_angle_gamma 90.000000
_cell_volume 1321.753215
_symmetry_space_group_name_H-M "P 2/C"
_symmetry_group_IT_number 13
_symmetry_cell_setting 'monoclinic'
loop_
_space_group_symop_operation_xyz
x,y,z
-x,y,1/2-z
-x,-y,-z
x,-y,1/2+z
loop_
_atom_site_type_symbol
_atom_site_label
_atom_site_fract_x
_atom_site_fract_y
_atom_site_fract_z
Si Si1 0.786152 0.597299 0.338880
Si Si2 0.427304 0.346167 0.967820
Si Si3 0.061789 0.535471 0.093286
Si Si4 0.634419 0.096712 0.721582
Si Si5 0.202811 0.119933 0.549222
Si Si6 0.776980 0.602576 0.180539
Si Si7 0.000000 0.177830 0.250000
Si Si8 0.431941 0.720562 0.619814
O O1 0.711521 0.379382 0.423303
O O2 0.730183 0.768087 0.448083
O O3 0.793261 0.668265 0.248246
O O4 0.921395 0.581534 0.236857
O O5 0.522370 0.258983 0.816007
O O6 0.453177 0.582794 0.969313
O O7 0.441697 0.202896 0.026179
O O8 0.143151 0.715900 0.050201
O O9 0.075519 0.315551 0.120090
O O10 0.100285 0.490398 0.972788
O O11 0.734419 0.197413 0.676758
O O12 0.694454 0.018479 0.589197
O O13 0.572642 0.907073 0.821162
O O14 0.102195 0.973158 0.683411
O O15 0.684879 0.418678 0.259082
#
# Coordination Sequence:
#
# PCOD8121129 Si02
#       8
#     4   4   4   4   4   4   2   4
#     4  11  23  44  64 101 145 167 217 297 337 385
#     4   9  21  39  64  97 130 169 217 275 338 389
#     4  12  22  44  69  94 138 179 223 276 342 419
#     4  11  21  40  73  93 126 181 228 261 331 426
#     4  12  24  43  70  97 133 184 227 273 343 413
#     4  10  22  39  69 103 130 171 226 279 339 400
#     4  12  22  44  68  92 126 184 226 260 338 420
#     4   9  18  39  67  92 130 171 216 270 330 403
#
# _framework density 22.697127999999999
#
# number of rings (size 3 to 8) (size 9 to 14) (size 15 to 20)
#    0.000    1.333    5.333    1.600    0.000    0.000 
#    7.200    2.000    2.933    0.000    0.000    0.000 
#    0.000    0.000    0.000    0.000    0.000    0.000 
#
# Total GULP energy -371710.517077 kJ/mol
# GULP energy per Si atom -12390.350569 kJ/mol
# Density = 2.264547 g / cm^3
# Si number density = 22.697128 Si / 1000 Ang^3
#
#
#
# Elastic Constant Matrix: (Units=GPa)
#
#
# Indices 1 2 3 4 5 6 
#
# 1 73.4952 21.1729 33.1265 0.0000 16.6402 0.0000
# 2 21.1729 63.5891 30.1505 0.0000 11.2134 0.0000
# 3 33.1265 30.1505 125.8560 0.0000 17.6059 0.0000
# 4 0.0000 0.0000 0.0000 46.7896 0.0000 7.5267
# 5 16.6402 11.2134 17.6059 0.0000 30.0127 0.0000
# 6 0.0000 0.0000 0.0000 7.5267 0.0000 25.1858
#
#
#
# Elastic Compliance Matrix: (Units=1/GPa)
#
#
# Indices 1 2 3 4 5 6 
#
# 1 0.017348 -0.003238 -0.002848 0.000000 -0.006738 0.000000
# 2 -0.003238 0.018923 -0.003206 0.000000 -0.003394 0.000000
# 3 -0.002848 -0.003206 0.009886 0.000000 -0.003022 0.000000
# 4 0.000000 0.000000 0.000000 0.022452 0.000000 -0.006710
# 5 -0.006738 -0.003394 -0.003022 0.000000 0.040096 0.000000
# 6 0.000000 0.000000 0.000000 -0.006710 0.000000 0.041710
#
#
# Mechanical properties :
#
#
# Convention : Reuss Voigt Hill
#
# Bulk Modulus (GPa) = 36.26705 47.98223 42.12464
# Shear Modulus (GPa) = 28.05991 32.29697 30.17844
#
# Velocity S-wave (km/s) = 3.51989 3.77630 3.65034
# Velocity P-wave (km/s) = 5.70376 6.34035 6.03046
#
# Compressibility (1/GPa) = 0.02757324
#
# Stress axis : x y z
#
# Youngs Moduli (GPa) = 57.64224 52.84647 101.15215
#
# Poissons Ratio (x) = 0.17111 0.28808
# Poissons Ratio (y) = 0.18663 0.32431
# Poissons Ratio (z) = 0.16416 0.16944
#
# Static dielectric constant tensor:
#      x y z
#    x 3.839620 0.000000 0.039880 
#    y 0.000000 4.213260 0.000000 
#    z 0.039880 0.000000 4.395080 
# 
# 
# High freq. dielectric constant tensor:
#      x y z
#    x 1.866920 0.000000 0.001710 
#    y 0.000000 1.890840 0.000000 
#    z 0.001710 0.000000 1.917720 
# 
# From -- ./inp_files/81990.got.cif
#   From: 2010.06.25/outbox.cif.g09.slc.cpg/sg13_41_cif.got.tgz:81990.got - 2010.06.28 04:50:58.
