data_PCOD8121297
_publ_section_title
;
Structure prediction by ZEFSAII (Michael W. Deem and Ramdas Pophale) SiO2 
 PCOD8121297
Probable space group: P 2/C
;
_chemical_formula_sum "Si O2"
_cell_formula_units_Z 24
_cell_length_a 11.861912
_cell_length_b 12.986325
_cell_length_c 19.577250
_cell_angle_alpha 90.000000
_cell_angle_beta 157.190933
_cell_angle_gamma 90.000000
_cell_volume 1169.082838
_symmetry_space_group_name_H-M "P 2/C"
_symmetry_group_IT_number 13
_symmetry_cell_setting 'monoclinic'
loop_
_space_group_symop_operation_xyz
x,y,z
-x,y,1/2-z
-x,-y,-z
x,-y,1/2+z
loop_
_atom_site_type_symbol
_atom_site_label
_atom_site_fract_x
_atom_site_fract_y
_atom_site_fract_z
Si Si1 0.173953 0.163891 0.759173
Si Si2 0.414817 0.589230 0.780927
Si Si3 0.917518 0.071111 0.279052
Si Si4 0.395639 0.816785 0.115999
Si Si5 0.759028 0.597336 0.448884
Si Si6 0.572051 0.776684 0.960878
O O1 0.313798 0.191331 0.765762
O O2 0.836482 0.187494 0.561063
O O3 0.204655 0.043920 0.795714
O O4 0.319515 0.233459 0.900040
O O5 0.500000 0.622136 0.750000
O O6 0.625878 0.494000 0.921938
O O7 0.459658 0.671951 0.865291
O O8 0.069473 0.562695 0.590598
O O9 0.674202 0.137829 0.180085
O O10 0.000000 0.113461 0.250000
O O11 0.204552 0.085292 0.485752
O O12 0.500000 0.838143 0.250000
O O13 0.213737 0.710499 0.001953
O O14 0.500000 0.610351 0.250000
#
# Coordination Sequence:
#
# PCOD8121297 Si02
#       6
#     4   4   4   4   4   4
#     4  11  24  41  67  92 131 176 221 271 322 401
#     4  11  23  40  68  97 131 171 219 271 326 399
#     4  12  21  44  69  93 130 181 227 260 333 402
#     4  11  25  41  66  97 137 175 216 278 332 383
#     4  10  22  41  64  96 130 177 213 262 339 393
#     4  11  23  38  66 100 122 171 225 269 324 388
#
# _framework density 20.528912999999999
#
# number of rings (size 3 to 8) (size 9 to 14) (size 15 to 20)
#    0.000    1.000    5.000    3.500    7.000    0.667 
#    0.000    2.500    3.667    0.000    0.000    0.000 
#    0.000    0.000    0.000    0.000    0.000    0.000 
#
# Total GULP energy -297403.664985 kJ/mol
# GULP energy per Si atom -12391.819374 kJ/mol
# Density = 2.048219 g / cm^3
# Si number density = 20.528913 Si / 1000 Ang^3
#
#
#
# Elastic Constant Matrix: (Units=GPa)
#
#
# Indices 1 2 3 4 5 6 
#
# 1 130.3657 29.0543 63.2906 0.0000 12.3478 0.0000
# 2 29.0543 84.6203 32.8177 0.0000 -10.1803 0.0000
# 3 63.2906 32.8177 114.0659 0.0000 19.5458 0.0000
# 4 0.0000 0.0000 0.0000 33.5724 0.0000 3.0273
# 5 12.3478 -10.1803 19.5458 0.0000 43.5937 0.0000
# 6 0.0000 0.0000 0.0000 3.0273 0.0000 33.0188
#
#
#
# Elastic Compliance Matrix: (Units=1/GPa)
#
#
# Indices 1 2 3 4 5 6 
#
# 1 0.010719 -0.001777 -0.005248 0.000000 -0.001098 0.000000
# 2 -0.001777 0.014793 -0.004277 0.000000 0.005876 0.000000
# 3 -0.005248 -0.004277 0.013893 0.000000 -0.005741 0.000000
# 4 0.000000 0.000000 0.000000 0.030035 0.000000 -0.002754
# 5 -0.001098 0.005876 -0.005741 0.000000 0.027196 0.000000
# 6 0.000000 0.000000 0.000000 -0.002754 0.000000 0.030538
#
#
# Mechanical properties :
#
#
# Convention : Reuss Voigt Hill
#
# Bulk Modulus (GPa) = 59.51996 64.37524 61.94760
# Shear Modulus (GPa) = 32.17955 35.62959 33.90457
#
# Velocity S-wave (km/s) = 3.96349 4.17055 4.06834
# Velocity P-wave (km/s) = 7.07120 7.39038 7.23255
#
# Compressibility (1/GPa) = 0.01680109
#
# Stress axis : x y z
#
# Youngs Moduli (GPa) = 93.29637 67.59857 71.97864
#
# Poissons Ratio (x) = 0.12013 0.37773
# Poissons Ratio (y) = 0.16579 0.30785
# Poissons Ratio (z) = 0.48960 0.28911
#
# Static dielectric constant tensor:
#      x y z
#    x 3.630400 0.000000 0.343360 
#    y 0.000000 4.160520 0.000000 
#    z 0.343360 0.000000 3.881080 
# 
# 
# High freq. dielectric constant tensor:
#      x y z
#    x 1.791570 0.000000 0.025850 
#    y 0.000000 1.797890 0.000000 
#    z 0.025850 0.000000 1.818830 
# 
# From -- ./inp_files/78741.got.cif
#   From: 2010.06.25/outbox.cif.g09.slc.cpg/sg13_40_cif.got.tgz:78741.got - 2010.06.28 04:50:58.
