data_PCOD8121099
_publ_section_title
;
Structure prediction by ZEFSAII (Michael W. Deem and Ramdas Pophale) SiO2 
 PCOD8121099
Probable space group: P 2/C
;
_chemical_formula_sum "Si O2"
_cell_formula_units_Z 22
_cell_length_a 20.993017
_cell_length_b 6.439559
_cell_length_c 20.132530
_cell_angle_alpha 90.000000
_cell_angle_beta 21.670447
_cell_angle_gamma 90.000000
_cell_volume 1005.010000
_symmetry_space_group_name_H-M "P 2/C"
_symmetry_group_IT_number 13
_symmetry_cell_setting 'monoclinic'
loop_
_space_group_symop_operation_xyz
x,y,z
-x,y,1/2-z
-x,-y,-z
x,-y,1/2+z
loop_
_atom_site_type_symbol
_atom_site_label
_atom_site_fract_x
_atom_site_fract_y
_atom_site_fract_z
Si Si1 0.090626 0.368173 0.508636
Si Si2 0.702302 0.978196 0.633743
Si Si3 0.758658 0.519020 0.774622
Si Si4 0.187640 0.376294 0.035531
Si Si5 0.466949 0.188975 0.579257
Si Si6 0.500000 0.346758 0.250000
O O1 0.127233 0.140202 0.504084
O O2 0.153159 0.361319 0.372134
O O3 0.184549 0.541896 0.462475
O O4 0.889006 0.425328 0.702781
O O5 0.561300 0.805461 0.749649
O O6 0.762090 0.131370 0.515879
O O7 0.615906 0.121568 0.772064
O O8 0.656860 0.329396 0.843685
O O9 0.640688 0.684117 0.927955
O O10 0.000000 0.411585 0.250000
O O11 0.337181 0.507195 0.929382
O O12 0.500000 0.000000 0.500000
#
# Coordination Sequence:
#
# PCOD8121099 Si02
#       6
#     4   4   4   4   4   2
#     4  10  22  41  64  92 133 168 212 269 324 390
#     4  11  23  43  69  97 131 171 227 272 326 403
#     4  10  22  39  63  97 132 171 206 265 329 388
#     4  11  25  46  68  96 132 177 225 277 334 393
#     4  11  22  38  64  98 133 170 216 261 332 398
#     4  10  26  46  70  92 134 176 224 282 334 386
#
# _framework density 21.890331
#
# number of rings (size 3 to 8) (size 9 to 14) (size 15 to 20)
#    0.000    1.455    3.636    0.545    0.000    9.455 
#    0.000    0.000    0.000    0.000    0.000    0.000 
#    0.000    0.000    0.000    0.000    0.000    0.000 
#
# Total GULP energy -272718.241009 kJ/mol
# GULP energy per Si atom -12396.283682 kJ/mol
# Density = 2.184051 g / cm^3
# Si number density = 21.890331 Si / 1000 Ang^3
#
#
#
# Elastic Constant Matrix: (Units=GPa)
#
#
# Indices 1 2 3 4 5 6 
#
# 1 55.0792 45.3293 43.5865 0.0000 -13.3261 0.0000
# 2 45.3293 160.6729 79.5433 0.0000 -17.8085 0.0000
# 3 43.5865 79.5433 127.8941 0.0000 -33.3582 0.0000
# 4 0.0000 0.0000 0.0000 0.2651 0.0000 17.8926
# 5 -13.3261 -17.8085 -33.3582 0.0000 31.0204 0.0000
# 6 0.0000 0.0000 0.0000 17.8926 0.0000 20.1485
#
#
#
# Elastic Compliance Matrix: (Units=1/GPa)
#
#
# Indices 1 2 3 4 5 6 
#
# 1 0.027048 -0.004510 -0.005639 0.000000 0.002966 0.000000
# 2 -0.004510 0.009776 -0.004982 0.000000 -0.001683 0.000000
# 3 -0.005639 -0.004982 0.015929 0.000000 0.011847 0.000000
# 4 0.000000 0.000000 0.000000 -0.064003 0.000000 0.056837
# 5 0.002966 -0.001683 0.011847 0.000000 0.045285 0.000000
# 6 0.000000 0.000000 0.000000 0.056837 0.000000 -0.000842
#
#
# Mechanical properties :
#
#
# Convention : Reuss Voigt Hill
#
# Bulk Modulus (GPa) = 44.46337 75.61828 60.04082
# Shear Modulus (GPa) = 70.46930 21.96593 46.21762
#
# Velocity S-wave (km/s) = 5.67995 3.17117 4.59990
# Velocity P-wave (km/s) = 7.96064 6.93019 7.46322
#
# Compressibility (1/GPa) = 0.02249042
#
# Stress axis : x y z
#
# Youngs Moduli (GPa) = 36.97185 102.28918 62.77676
#
# Poissons Ratio (x) = 0.46135 0.35400
# Poissons Ratio (y) = 0.16675 0.31276
# Poissons Ratio (z) = 0.20849 0.50961
#
# Static dielectric constant tensor:
#      x y z
#    x 3.937700 0.000000 -0.137950 
#    y 0.000000 4.166330 0.000000 
#    z -0.137950 0.000000 4.164440 
# 
# 
# High freq. dielectric constant tensor:
#      x y z
#    x 1.849960 0.000000 -0.013850 
#    y 0.000000 1.875940 0.000000 
#    z -0.013850 0.000000 1.857850 
# 
# From -- ./inp_files/88713.got.cif
#   From: 2010.06.25/outbox.cif.g09.slc.cpg/sg13_45_cif.got.tgz:88713.got - 2010.06.28 04:50:58.
