data_PCOD8121100
_publ_section_title
;
Structure prediction by ZEFSAII (Michael W. Deem and Ramdas Pophale) SiO2 
 PCOD8121100
Probable space group: P 2/C
;
_chemical_formula_sum "Si O2"
_cell_formula_units_Z 22
_cell_length_a 6.365139
_cell_length_b 10.855113
_cell_length_c 14.536877
_cell_angle_alpha 90.000000
_cell_angle_beta 96.769193
_cell_angle_gamma 90.000000
_cell_volume 997.413635
_symmetry_space_group_name_H-M "P 2/C"
_symmetry_group_IT_number 13
_symmetry_cell_setting 'monoclinic'
loop_
_space_group_symop_operation_xyz
x,y,z
-x,y,1/2-z
-x,-y,-z
x,-y,1/2+z
loop_
_atom_site_type_symbol
_atom_site_label
_atom_site_fract_x
_atom_site_fract_y
_atom_site_fract_z
Si Si1 0.781491 0.601273 0.088249
Si Si2 0.321665 0.806658 0.668276
Si Si3 0.320944 0.914313 0.170933
Si Si4 0.000000 0.750888 0.250000
Si Si5 0.045622 0.657702 0.921828
Si Si6 0.554196 0.776682 0.496064
O O1 0.814349 0.456280 0.109827
O O2 0.542117 0.647703 0.051569
O O3 0.836546 0.667754 0.186017
O O4 0.938462 0.630376 0.013293
O O5 0.500000 0.760533 0.750000
O O6 0.399889 0.819482 0.568110
O O7 0.125925 0.709578 0.661087
O O8 0.249647 0.945293 0.686689
O O9 0.500000 0.873667 0.250000
O O10 0.115364 0.832133 0.178675
O O11 0.421601 0.886147 0.076459
O O12 0.215592 0.763009 0.948316
#
# Coordination Sequence:
#
# PCOD8121100 Si02
#       6
#     4   4   4   2   4   4
#     4  10  22  39  63  98 127 165 214 266 318 393
#     4  10  25  42  62  94 131 173 217 267 326 389
#     4  11  23  41  64  96 132 165 219 271 320 394
#     4  12  22  40  66  94 126 170 218 264 330 378
#     4  10  22  42  64  92 132 167 214 264 329 390
#     4  11  21  41  67  94 130 168 214 267 333 381
#
# _framework density 22.057047000000001
#
# number of rings (size 3 to 8) (size 9 to 14) (size 15 to 20)
#    0.000    1.455    3.636    1.091    0.000    5.818 
#    0.000    0.909    0.000    0.000    0.000    0.000 
#    0.000    0.000    0.000    0.000    0.000    0.000 
#
# Total GULP energy -272686.911645 kJ/mol
# GULP energy per Si atom -12394.859620 kJ/mol
# Density = 2.200684 g / cm^3
# Si number density = 22.057047 Si / 1000 Ang^3
#
#
#
# Elastic Constant Matrix: (Units=GPa)
#
#
# Indices 1 2 3 4 5 6 
#
# 1 73.2946 19.7006 27.7272 0.0000 23.1656 0.0000
# 2 19.7006 81.4174 31.7026 0.0000 18.4160 0.0000
# 3 27.7272 31.7026 95.2967 0.0000 20.3287 0.0000
# 4 0.0000 0.0000 0.0000 28.4622 0.0000 -4.5714
# 5 23.1656 18.4160 20.3287 0.0000 42.0950 0.0000
# 6 0.0000 0.0000 0.0000 -4.5714 0.0000 9.8402
#
#
#
# Elastic Compliance Matrix: (Units=1/GPa)
#
#
# Indices 1 2 3 4 5 6 
#
# 1 0.017559 -0.001345 -0.003039 0.000000 -0.007607 0.000000
# 2 -0.001345 0.014968 -0.003734 0.000000 -0.004005 0.000000
# 3 -0.003039 -0.003734 0.013283 0.000000 -0.003109 0.000000
# 4 0.000000 0.000000 0.000000 0.037967 0.000000 0.017638
# 5 -0.007607 -0.004005 -0.003109 0.000000 0.031196 0.000000
# 6 0.000000 0.000000 0.000000 0.017638 0.000000 0.109818
#
#
# Mechanical properties :
#
#
# Convention : Reuss Voigt Hill
#
# Bulk Modulus (GPa) = 33.81240 45.36328 39.58784
# Shear Modulus (GPa) = 19.92962 27.47138 23.70050
#
# Velocity S-wave (km/s) = 3.00917 3.53295 3.28153
# Velocity P-wave (km/s) = 5.23796 6.10355 5.68725
#
# Compressibility (1/GPa) = 0.02957495
#
# Stress axis : x y z
#
# Youngs Moduli (GPa) = 56.95112 66.81136 75.28431
#
# Poissons Ratio (x) = 0.08985 0.22877
# Poissons Ratio (y) = 0.07659 0.28109
# Poissons Ratio (z) = 0.17306 0.24945
#
# Static dielectric constant tensor:
#      x y z
#    x 3.922530 0.000000 0.122750 
#    y 0.000000 3.951090 0.000000 
#    z 0.122750 0.000000 3.936870 
# 
# 
# High freq. dielectric constant tensor:
#      x y z
#    x 1.861970 0.000000 0.008110 
#    y 0.000000 1.861050 0.000000 
#    z 0.008110 0.000000 1.871210 
# 
# From -- ./inp_files/43764.got.cif
#   From: 2010.06.25/outbox.cif.g09.slc.cpg/sg13_22_cif.got.tgz:43764.got - 2010.06.28 04:50:58.
