data_PCOD8121412
_publ_section_title
;
Structure prediction by ZEFSAII (Michael W. Deem and Ramdas Pophale) SiO2 
 PCOD8121412
Probable space group: P 2/C
;
_chemical_formula_sum "Si O2"
_cell_formula_units_Z 20
_cell_length_a 9.033639
_cell_length_b 9.226923
_cell_length_c 11.121886
_cell_angle_alpha 90.000000
_cell_angle_beta 93.357884
_cell_angle_gamma 90.000000
_cell_volume 925.447547
_symmetry_space_group_name_H-M "P 2/C"
_symmetry_group_IT_number 13
_symmetry_cell_setting 'monoclinic'
loop_
_space_group_symop_operation_xyz
x,y,z
-x,y,1/2-z
-x,-y,-z
x,-y,1/2+z
loop_
_atom_site_type_symbol
_atom_site_label
_atom_site_fract_x
_atom_site_fract_y
_atom_site_fract_z
Si Si1 0.863001 0.659351 0.406036
Si Si2 0.306830 0.870487 0.523996
Si Si3 0.074560 0.344722 0.135240
Si Si4 0.042811 0.930686 0.373193
Si Si5 0.578950 0.166247 0.881336
O O1 0.865213 0.506414 0.336242
O O2 0.691447 0.702403 0.405859
O O3 0.935691 0.644204 0.539716
O O4 0.954618 0.782630 0.341904
O O5 0.210405 0.755159 0.595465
O O6 0.218701 0.906655 0.395105
O O7 0.464332 0.811454 0.486452
O O8 0.332621 0.013683 0.605402
O O9 0.000000 0.277660 0.250000
O O10 0.000000 0.024109 0.250000
O O11 0.000000 0.000000 0.500000
O O12 0.500000 0.176923 0.750000
#
# Coordination Sequence:
#
# PCOD8121412 Si02
#       5
#     4   4   4   4   4
#     4  10  22  42  64  97 125 171 222 268 332 398
#     4  10  24  40  60  99 128 173 220 272 329 397
#     4  10  23  43  68  94 131 168 222 282 324 393
#     4  11  21  37  64  94 128 171 221 276 331 389
#     4  11  23  42  63  91 135 173 214 270 332 405
#
# _framework density 21.611165
#
# number of rings (size 3 to 8) (size 9 to 14) (size 15 to 20)
#    0.000    1.600    2.000    1.800    0.000   10.400 
#    0.000    1.000    0.000    0.000    0.000    0.000 
#    0.000    0.000    0.000    0.000    0.000    0.000 
#
# Total GULP energy -247809.870634 kJ/mol
# GULP energy per Si atom -12390.493532 kJ/mol
# Density = 2.156198 g / cm^3
# Si number density = 21.611165 Si / 1000 Ang^3
#
#
#
# Elastic Constant Matrix: (Units=GPa)
#
#
# Indices 1 2 3 4 5 6 
#
# 1 142.5865 69.9663 50.7354 0.0000 8.4732 0.0000
# 2 69.9663 127.2469 36.6327 0.0000 -5.1832 0.0000
# 3 50.7354 36.6327 122.5863 0.0000 -10.1846 0.0000
# 4 0.0000 0.0000 0.0000 12.2074 0.0000 2.9827
# 5 8.4732 -5.1832 -10.1846 0.0000 28.0101 0.0000
# 6 0.0000 0.0000 0.0000 2.9827 0.0000 42.1035
#
#
#
# Elastic Compliance Matrix: (Units=1/GPa)
#
#
# Indices 1 2 3 4 5 6 
#
# 1 0.011255 -0.005409 -0.003514 0.000000 -0.005683 0.000000
# 2 -0.005409 0.011210 -0.000828 0.000000 0.003409 0.000000
# 3 -0.003514 -0.000828 0.010245 0.000000 0.004635 0.000000
# 4 0.000000 0.000000 0.000000 0.083361 0.000000 -0.005905
# 5 -0.005683 0.003409 0.004635 0.000000 0.039737 0.000000
# 6 0.000000 0.000000 0.000000 -0.005905 0.000000 0.024169
#
#
# Mechanical properties :
#
#
# Convention : Reuss Voigt Hill
#
# Bulk Modulus (GPa) = 75.71237 78.56539 77.13888
# Shear Modulus (GPa) = 24.52410 32.13656 28.33033
#
# Velocity S-wave (km/s) = 3.37232 3.86039 3.62458
# Velocity P-wave (km/s) = 7.09037 7.50354 7.29988
#
# Compressibility (1/GPa) = 0.01320788
#
# Stress axis : x y z
#
# Youngs Moduli (GPa) = 88.84608 89.20684 97.61302
#
# Poissons Ratio (x) = 0.48248 0.34304
# Poissons Ratio (y) = 0.48053 0.08084
# Poissons Ratio (z) = 0.31223 0.07388
#
# Static dielectric constant tensor:
#      x y z
#    x 3.753370 0.000000 -0.042390 
#    y 0.000000 4.098670 0.000000 
#    z -0.042390 0.000000 3.769180 
# 
# 
# High freq. dielectric constant tensor:
#      x y z
#    x 1.857690 0.000000 -0.000380 
#    y 0.000000 1.844540 0.000000 
#    z -0.000380 0.000000 1.852500 
# 
# From -- ./inp_files/28244.got.cif
#   From: 2010.06.25/outbox.cif.g09.slc.cpg/sg13_15_cif.got.tgz:28244.got - 2010.06.28 04:50:58.
