data_PCOD8121403
_publ_section_title
;
Structure prediction by ZEFSAII (Michael W. Deem and Ramdas Pophale) SiO2 
 PCOD8121403
Probable space group: P 2/C
;
_chemical_formula_sum "Si O2"
_cell_formula_units_Z 22
_cell_length_a 23.141421
_cell_length_b 9.309110
_cell_length_c 13.799814
_cell_angle_alpha 90.000000
_cell_angle_beta 19.593913
_cell_angle_gamma 90.000000
_cell_volume 996.946040
_symmetry_space_group_name_H-M "P 2/C"
_symmetry_group_IT_number 13
_symmetry_cell_setting 'monoclinic'
loop_
_space_group_symop_operation_xyz
x,y,z
-x,y,1/2-z
-x,-y,-z
x,-y,1/2+z
loop_
_atom_site_type_symbol
_atom_site_label
_atom_site_fract_x
_atom_site_fract_y
_atom_site_fract_z
Si Si1 0.560255 0.863194 0.788409
Si Si2 0.256891 0.722522 0.170562
Si Si3 0.874517 0.326526 0.302078
Si Si4 0.000000 0.442735 0.750000
Si Si5 0.728041 0.609719 0.824368
Si Si6 0.466207 0.182397 0.645712
O O1 0.698156 0.766368 0.511689
O O2 0.572006 0.031210 0.741547
O O3 0.365880 0.822342 0.068545
O O4 0.587360 0.838363 0.860112
O O5 0.313669 0.559610 0.106403
O O6 0.057387 0.755427 0.508135
O O7 0.821457 0.358325 0.276616
O O8 0.721752 0.236398 0.591887
O O9 0.897291 0.466231 0.331642
O O10 0.140925 0.349317 0.469956
O O11 0.555441 0.703439 0.078410
#
# Coordination Sequence:
#
# PCOD8121403 Si02
#       6
#     4   4   4   2   4   4
#     4  10  25  44  66  93 135 178 219 267 334 393
#     4  10  23  44  67  93 130 170 221 272 332 385
#     4  11  24  41  69  98 130 172 220 274 325 394
#     4  10  22  42  64 102 134 170 222 278 330 388
#     4  11  25  40  70 101 132 171 221 277 326 393
#     4  11  25  44  65  98 135 175 222 269 328 397
#
# _framework density 22.067394
#
# number of rings (size 3 to 8) (size 9 to 14) (size 15 to 20)
#    0.000    1.455    0.000    4.909   15.273    2.182 
#    0.000    0.000    0.000    0.000    0.000    0.000 
#    0.000    0.000    0.000    0.000    0.000    0.000 
#
# Total GULP energy -272687.635307 kJ/mol
# GULP energy per Si atom -12394.892514 kJ/mol
# Density = 2.201717 g / cm^3
# Si number density = 22.067394 Si / 1000 Ang^3
#
#
#
# Elastic Constant Matrix: (Units=GPa)
#
#
# Indices 1 2 3 4 5 6 
#
# 1 76.2575 4.2348 13.9751 0.0000 7.2194 0.0000
# 2 4.2348 91.9589 30.1160 0.0000 -8.1917 0.0000
# 3 13.9751 30.1160 107.8818 0.0000 -3.0005 0.0000
# 4 0.0000 0.0000 0.0000 22.0407 0.0000 3.8832
# 5 7.2194 -8.1917 -3.0005 0.0000 48.9877 0.0000
# 6 0.0000 0.0000 0.0000 3.8832 0.0000 24.8348
#
#
#
# Elastic Compliance Matrix: (Units=1/GPa)
#
#
# Indices 1 2 3 4 5 6 
#
# 1 0.013654 -0.000245 -0.001761 0.000000 -0.002161 0.000000
# 2 -0.000245 0.012134 -0.003304 0.000000 0.001863 0.000000
# 3 -0.001761 -0.003304 0.010429 0.000000 0.000346 0.000000
# 4 0.000000 0.000000 0.000000 0.046656 0.000000 -0.007295
# 5 -0.002161 0.001863 0.000346 0.000000 0.021064 0.000000
# 6 0.000000 0.000000 0.000000 -0.007295 0.000000 0.041407
#
#
# Mechanical properties :
#
#
# Convention : Reuss Voigt Hill
#
# Bulk Modulus (GPa) = 39.06366 41.41670 40.24018
# Shear Modulus (GPa) = 30.39602 34.35747 32.37675
#
# Velocity S-wave (km/s) = 3.71538 3.95008 3.83453
# Velocity P-wave (km/s) = 6.01214 6.29390 6.15463
#
# Compressibility (1/GPa) = 0.02559924
#
# Stress axis : x y z
#
# Youngs Moduli (GPa) = 73.23708 82.41614 95.88344
#
# Poissons Ratio (x) = 0.02017 0.16881
# Poissons Ratio (y) = 0.01792 0.31677
# Poissons Ratio (z) = 0.12894 0.27228
#
# Static dielectric constant tensor:
#      x y z
#    x 4.052000 0.000000 0.204460 
#    y 0.000000 3.913930 0.000000 
#    z 0.204460 0.000000 4.273940 
# 
# 
# High freq. dielectric constant tensor:
#      x y z
#    x 1.886330 0.000000 0.013230 
#    y 0.000000 1.844870 0.000000 
#    z 0.013230 0.000000 1.876130 
# 
# From -- ./inp_files/58644.got.cif
#   From: 2010.06.25/outbox.cif.g09.slc.cpg/sg13_30_cif.got.tgz:58644.got - 2010.06.28 04:50:58.
