data_PCOD8121846
_publ_section_title
;
Structure prediction by ZEFSAII (Michael W. Deem and Ramdas Pophale) SiO2 
 PCOD8121846
Probable space group: P 2/C
;
_chemical_formula_sum "Si O2"
_cell_formula_units_Z 14
_cell_length_a 5.738564
_cell_length_b 8.883065
_cell_length_c 12.310783
_cell_angle_alpha 90.000000
_cell_angle_beta 67.829960
_cell_angle_gamma 90.000000
_cell_volume 581.158559
_symmetry_space_group_name_H-M "P 2/C"
_symmetry_group_IT_number 13
_symmetry_cell_setting 'monoclinic'
loop_
_space_group_symop_operation_xyz
x,y,z
-x,y,1/2-z
-x,-y,-z
x,-y,1/2+z
loop_
_atom_site_type_symbol
_atom_site_label
_atom_site_fract_x
_atom_site_fract_y
_atom_site_fract_z
Si Si1 0.649059 0.222165 0.433465
Si Si2 0.858665 0.083777 0.929824
Si Si3 0.000000 0.567999 0.750000
Si Si4 0.227628 0.682769 0.348002
O O1 0.346377 0.208590 0.492098
O O2 0.754092 0.331902 0.321888
O O3 0.759139 0.293684 0.525060
O O4 0.733180 0.051983 0.384797
O O5 0.064460 0.179220 0.826608
O O6 0.000000 0.000000 0.000000
O O7 0.088047 0.470806 0.838363
O O8 0.500000 0.692912 0.250000
#
# Coordination Sequence:
#
# PCOD8121846 Si02
#       4
#     4   4   2   4
#     4  10  23  43  66  95 128 169 221 274 330 389
#     4   9  21  43  68  93 125 166 219 276 329 392
#     4  12  26  40  64  96 136 178 216 268 330 398
#     4  11  24  41  64  94 132 174 218 272 330 392
#
# _framework density 24.089811000000001
#
# number of rings (size 3 to 8) (size 9 to 14) (size 15 to 20)
#    0.000    1.714    0.000    2.571    0.000   17.143 
#    0.000    0.000    0.000    0.000    0.000    0.000 
#    0.000    0.000    0.000    0.000    0.000    0.000 
#
# Total GULP energy -173449.650002 kJ/mol
# GULP energy per Si atom -12389.260714 kJ/mol
# Density = 2.403498 g / cm^3
# Si number density = 24.089811 Si / 1000 Ang^3
#
#
#
# Elastic Constant Matrix: (Units=GPa)
#
#
# Indices 1 2 3 4 5 6 
#
# 1 115.3376 56.0894 19.9210 0.0000 -22.7327 0.0000
# 2 56.0894 153.4859 56.2484 0.0000 -22.9184 0.0000
# 3 19.9210 56.2484 42.5909 0.0000 -4.5267 0.0000
# 4 0.0000 0.0000 0.0000 55.7010 0.0000 -13.0152
# 5 -22.7327 -22.9184 -4.5267 0.0000 42.4903 0.0000
# 6 0.0000 0.0000 0.0000 -13.0152 0.0000 28.0260
#
#
#
# Elastic Compliance Matrix: (Units=1/GPa)
#
#
# Indices 1 2 3 4 5 6 
#
# 1 0.011169 -0.003313 -0.000408 0.000000 0.004145 0.000000
# 2 -0.003313 0.014801 -0.017536 0.000000 0.004343 0.000000
# 3 -0.000408 -0.017536 0.046325 0.000000 -0.004741 0.000000
# 4 0.000000 0.000000 0.000000 0.020138 0.000000 0.009352
# 5 0.004145 0.004343 -0.004741 0.000000 0.027590 0.000000
# 6 0.000000 0.000000 0.000000 0.009352 0.000000 0.040024
#
#
# Mechanical properties :
#
#
# Convention : Reuss Voigt Hill
#
# Bulk Modulus (GPa) = 33.57850 63.99245 48.78547
# Shear Modulus (GPa) = 23.53082 37.18716 30.35899
#
# Velocity S-wave (km/s) = 3.12876 3.93324 3.55384
# Velocity P-wave (km/s) = 5.19821 6.87379 6.09386
#
# Compressibility (1/GPa) = 0.02978096
#
# Stress axis : x y z
#
# Youngs Moduli (GPa) = 89.53535 67.56410 21.58660
#
# Poissons Ratio (x) = 0.22384 0.00881
# Poissons Ratio (y) = 0.29663 0.37854
# Poissons Ratio (z) = 0.03653 1.18479
#
# Static dielectric constant tensor:
#      x y z
#    x 4.643440 0.000000 -0.280400 
#    y 0.000000 5.008240 0.000000 
#    z -0.280400 0.000000 4.248170 
# 
# 
# High freq. dielectric constant tensor:
#      x y z
#    x 1.964720 0.000000 -0.019330 
#    y 0.000000 1.969750 0.000000 
#    z -0.019330 0.000000 1.936550 
# 
# From -- ./inp_files/25303.got.cif
#   From: 2010.06.25/outbox.cif.g09.slc.cpg/sg13_13_cif.got.tgz:25303.got - 2010.06.28 04:50:58.
