data_PCOD8121495
_publ_section_title
;
Structure prediction by ZEFSAII (Michael W. Deem and Ramdas Pophale) SiO2 
 PCOD8121495
Probable space group: P 2/C
;
_chemical_formula_sum "Si O2"
_cell_formula_units_Z 30
_cell_length_a 14.507812
_cell_length_b 6.794866
_cell_length_c 16.459573
_cell_angle_alpha 90.000000
_cell_angle_beta 59.730436
_cell_angle_gamma 90.000000
_cell_volume 1401.347732
_symmetry_space_group_name_H-M "P 2/C"
_symmetry_group_IT_number 13
_symmetry_cell_setting 'monoclinic'
loop_
_space_group_symop_operation_xyz
x,y,z
-x,y,1/2-z
-x,-y,-z
x,-y,1/2+z
loop_
_atom_site_type_symbol
_atom_site_label
_atom_site_fract_x
_atom_site_fract_y
_atom_site_fract_z
Si Si1 0.500000 0.857235 0.750000
Si Si2 0.795824 0.352149 0.490383
Si Si3 0.377480 0.755983 0.554524
Si Si4 0.437029 0.901736 0.133168
Si Si5 0.889036 0.036021 0.005231
Si Si6 0.271787 0.340547 0.351961
Si Si7 0.105241 0.681004 0.150270
Si Si8 0.286037 0.420349 0.693237
O O1 0.605689 0.726430 0.710782
O O2 0.487581 0.997797 0.833473
O O3 0.717601 0.231596 0.467135
O O4 0.729582 0.506350 0.573602
O O5 0.886743 0.473995 0.401399
O O6 0.849718 0.187343 0.520479
O O7 0.492363 0.781148 0.462308
O O8 0.369748 0.548890 0.603943
O O9 0.363143 0.934745 0.623460
O O10 0.354409 0.747189 0.209040
O O11 0.808438 0.160306 0.097331
O O12 0.897030 0.136887 0.912448
O O13 0.000000 0.000000 0.000000
O O14 0.231445 0.445387 0.286840
O O15 0.203767 0.687860 0.169404
O O16 0.000000 0.686741 0.250000
#
# Coordination Sequence:
#
# PCOD8121495 Si02
#       8
#     2   4   4   4   4   4   4   4
#     4  12  26  44  64 108 144 176 238 276 338 422
#     4  10  24  44  70  92 139 182 221 280 348 399
#     4  10  22  43  64  95 131 178 230 271 333 406
#     4  11  24  39  66  95 136 178 225 278 334 400
#     4  11  26  47  73 103 138 183 230 289 351 411
#     4  11  27  43  67 104 142 181 234 280 335 422
#     4  10  25  45  70 104 132 170 233 287 339 420
#     4  11  24  42  68  97 137 179 226 279 344 399
#
# _framework density 21.407964
#
# number of rings (size 3 to 8) (size 9 to 14) (size 15 to 20)
#    0.000    1.333    1.333    2.000    9.333    6.933 
#    2.400    0.000    0.000    0.000    0.000    0.000 
#    0.000    0.000    0.000    0.000    0.000    0.000 
#
# Total GULP energy -371941.676487 kJ/mol
# GULP energy per Si atom -12398.055883 kJ/mol
# Density = 2.135924 g / cm^3
# Si number density = 21.407964 Si / 1000 Ang^3
#
#
#
# Elastic Constant Matrix: (Units=GPa)
#
#
# Indices 1 2 3 4 5 6 
#
# 1 104.0893 53.6119 38.1745 0.0000 1.6962 0.0000
# 2 53.6119 96.3051 38.9450 0.0000 -10.1310 0.0000
# 3 38.1745 38.9450 99.5336 0.0000 -0.0725 0.0000
# 4 0.0000 0.0000 0.0000 20.5868 0.0000 5.5006
# 5 1.6962 -10.1310 -0.0725 0.0000 34.6010 0.0000
# 6 0.0000 0.0000 0.0000 5.5006 0.0000 35.8743
#
#
#
# Elastic Compliance Matrix: (Units=1/GPa)
#
#
# Indices 1 2 3 4 5 6 
#
# 1 0.014345 -0.007194 -0.002689 0.000000 -0.002815 0.000000
# 2 -0.007194 0.016409 -0.003658 0.000000 0.005150 0.000000
# 3 -0.002689 -0.003658 0.012509 0.000000 -0.000913 0.000000
# 4 0.000000 0.000000 0.000000 0.050650 0.000000 -0.007766
# 5 -0.002815 0.005150 -0.000913 0.000000 0.030545 0.000000
# 6 0.000000 0.000000 0.000000 -0.007766 0.000000 0.029066
#
#
# Mechanical properties :
#
#
# Convention : Reuss Voigt Hill
#
# Bulk Modulus (GPa) = 61.79970 62.37676 62.08823
# Shear Modulus (GPa) = 26.88198 29.49219 28.18708
#
# Velocity S-wave (km/s) = 3.54743 3.71567 3.63252
# Velocity P-wave (km/s) = 6.76087 6.89990 6.83074
#
# Compressibility (1/GPa) = 0.01618131
#
# Stress axis : x y z
#
# Youngs Moduli (GPa) = 69.71279 60.94045 79.94543
#
# Poissons Ratio (x) = 0.43842 0.21495
# Poissons Ratio (y) = 0.50153 0.29241
# Poissons Ratio (z) = 0.18744 0.22290
#
# Static dielectric constant tensor:
#      x y z
#    x 3.862800 0.000000 0.154980 
#    y 0.000000 4.065600 0.000000 
#    z 0.154980 0.000000 3.939470 
# 
# 
# High freq. dielectric constant tensor:
#      x y z
#    x 1.835780 0.000000 0.009500 
#    y 0.000000 1.855040 0.000000 
#    z 0.009500 0.000000 1.842950 
# 
# From -- ./inp_files/67519.got.cif
#   From: 2010.06.25/outbox.cif.g09.slc.cpg/sg13_34_cif.got.tgz:67519.got - 2010.06.28 04:50:58.
