data_PCOD8121525
_publ_section_title
;
Structure prediction by ZEFSAII (Michael W. Deem and Ramdas Pophale) SiO2 
 PCOD8121525
Probable space group: P 2/C
;
_chemical_formula_sum "Si O2"
_cell_formula_units_Z 28
_cell_length_a 8.273618
_cell_length_b 11.191827
_cell_length_c 14.714768
_cell_angle_alpha 90.000000
_cell_angle_beta 115.042020
_cell_angle_gamma 90.000000
_cell_volume 1234.459710
_symmetry_space_group_name_H-M "P 2/C"
_symmetry_group_IT_number 13
_symmetry_cell_setting 'monoclinic'
loop_
_space_group_symop_operation_xyz
x,y,z
-x,y,1/2-z
-x,-y,-z
x,-y,1/2+z
loop_
_atom_site_type_symbol
_atom_site_label
_atom_site_fract_x
_atom_site_fract_y
_atom_site_fract_z
Si Si1 0.344517 0.328967 0.519669
Si Si2 0.500000 0.352425 0.250000
Si Si3 0.702836 0.966190 0.275001
Si Si4 0.746028 0.184980 0.399051
Si Si5 0.924448 0.249806 0.899169
Si Si6 0.000000 0.607071 0.250000
Si Si7 0.354784 0.489990 0.866343
Si Si8 0.414369 0.895526 0.923283
O O1 0.223130 0.326706 0.581396
O O2 0.550008 0.360308 0.595192
O O3 0.295630 0.441750 0.444343
O O4 0.312537 0.199431 0.463928
O O5 0.684529 0.275398 0.303679
O O6 0.513275 0.430559 0.162450
O O7 0.500000 0.928374 0.250000
O O8 0.830033 0.852301 0.315110
O O9 0.778088 0.053647 0.368980
O O10 0.712601 0.037086 0.180615
O O11 0.569726 0.185802 0.418987
O O12 0.928437 0.212606 0.492707
O O13 0.036428 0.321484 0.851167
O O14 0.826333 0.529871 0.231427
O O15 0.500000 0.000000 0.000000
#
# Coordination Sequence:
#
# PCOD8121525 Si02
#       8
#     4   2   4   4   4   2   4   4
#     4  11  24  47  71 106 138 191 230 298 355 427
#     4  12  22  48  76 102 142 190 234 302 364 436
#     4  10  22  43  69 104 139 191 232 282 361 429
#     4  11  22  45  70 104 139 184 237 292 357 431
#     4  12  28  43  70 101 149 182 245 297 353 431
#     4  12  30  46  66 104 140 194 238 308 350 424
#     4  11  26  45  74 102 143 184 245 287 363 425
#     4  11  22  42  76 100 142 184 234 287 359 434
#
# _framework density 22.681985999999998
#
# number of rings (size 3 to 8) (size 9 to 14) (size 15 to 20)
#    0.000    0.857    3.571    3.857   10.000    0.571 
#    0.000    0.000    0.000    0.000    0.000    0.000 
#    0.000    0.000    0.000    0.000    0.000    0.000 
#
# Total GULP energy -346997.994156 kJ/mol
# GULP energy per Si atom -12392.785506 kJ/mol
# Density = 2.263036 g / cm^3
# Si number density = 22.681986 Si / 1000 Ang^3
#
#
#
# Elastic Constant Matrix: (Units=GPa)
#
#
# Indices 1 2 3 4 5 6 
#
# 1 71.8412 32.1913 44.0618 0.0000 1.1886 0.0000
# 2 32.1913 84.4322 35.0272 0.0000 6.4205 0.0000
# 3 44.0618 35.0272 106.6230 0.0000 20.0716 0.0000
# 4 0.0000 0.0000 0.0000 32.4292 0.0000 -4.3363
# 5 1.1886 6.4205 20.0716 0.0000 50.4238 0.0000
# 6 0.0000 0.0000 0.0000 -4.3363 0.0000 23.0298
#
#
#
# Elastic Compliance Matrix: (Units=1/GPa)
#
#
# Indices 1 2 3 4 5 6 
#
# 1 0.020722 -0.005027 -0.007503 0.000000 0.003138 0.000000
# 2 -0.005027 0.014932 -0.002694 0.000000 -0.000710 0.000000
# 3 -0.007503 -0.002694 0.014341 0.000000 -0.005189 0.000000
# 4 0.000000 0.000000 0.000000 0.031633 0.000000 0.005956
# 5 0.003138 -0.000710 -0.005189 0.000000 0.021914 0.000000
# 6 0.000000 0.000000 0.000000 0.005956 0.000000 0.044544
#
#
# Mechanical properties :
#
#
# Convention : Reuss Voigt Hill
#
# Bulk Modulus (GPa) = 51.15724 53.93967 52.54846
# Shear Modulus (GPa) = 27.02000 31.28430 29.15215
#
# Velocity S-wave (km/s) = 3.45520 3.71786 3.58894
# Velocity P-wave (km/s) = 6.20653 6.50096 6.35545
#
# Compressibility (1/GPa) = 0.01954757
#
# Stress axis : x y z
#
# Youngs Moduli (GPa) = 48.25905 66.96968 69.72919
#
# Poissons Ratio (x) = 0.33663 0.52315
# Poissons Ratio (y) = 0.24258 0.18788
# Poissons Ratio (z) = 0.36207 0.18045
#
# Static dielectric constant tensor:
#      x y z
#    x 3.849270 0.000000 -0.187440 
#    y 0.000000 3.948110 0.000000 
#    z -0.187440 0.000000 4.073780 
# 
# 
# High freq. dielectric constant tensor:
#      x y z
#    x 1.873900 0.000000 -0.006440 
#    y 0.000000 1.900410 0.000000 
#    z -0.006440 0.000000 1.910580 
# 
# From -- ./inp_files/47362.got.cif
#   From: 2010.06.25/outbox.cif.g09.slc.cpg/sg13_24_cif.got.tgz:47362.got - 2010.06.28 04:50:58.
