data_PCOD8121043
_publ_section_title
;
Structure prediction by ZEFSAII (Michael W. Deem and Ramdas Pophale) SiO2 
 PCOD8121043
Probable space group: P 2/C
;
_chemical_formula_sum "Si O2"
_cell_formula_units_Z 22
_cell_length_a 8.825840
_cell_length_b 5.103961
_cell_length_c 20.355930
_cell_angle_alpha 90.000000
_cell_angle_beta 81.282887
_cell_angle_gamma 90.000000
_cell_volume 906.376141
_symmetry_space_group_name_H-M "P 2/C"
_symmetry_group_IT_number 13
_symmetry_cell_setting 'monoclinic'
loop_
_space_group_symop_operation_xyz
x,y,z
-x,y,1/2-z
-x,-y,-z
x,-y,1/2+z
loop_
_atom_site_type_symbol
_atom_site_label
_atom_site_fract_x
_atom_site_fract_y
_atom_site_fract_z
Si Si1 0.480175 0.749589 0.045829
Si Si2 0.858165 0.245612 0.877993
Si Si3 0.500000 0.281921 0.250000
Si Si4 0.960674 0.270936 0.124848
Si Si5 0.802992 0.570313 0.239352
Si Si6 0.312330 0.045209 0.860240
O O1 0.316540 0.734736 0.090500
O O2 0.613021 0.758779 0.092255
O O3 0.500000 0.500000 0.000000
O O4 0.500000 0.000000 0.000000
O O5 0.880231 0.314693 0.799520
O O6 0.962898 0.462465 0.910218
O O7 0.909090 0.949601 0.886688
O O8 0.550457 0.104886 0.185341
O O9 0.634385 0.465437 0.268680
O O10 0.902810 0.330831 0.203238
O O11 0.806785 0.163076 0.097569
O O12 0.792224 0.791929 0.183710
#
# Coordination Sequence:
#
# PCOD8121043 Si02
#       6
#     4   4   2   4   4   4
#     4  12  30  52  76  98 138 197 261 307 342 415
#     4  12  26  46  72 112 147 188 238 291 370 428
#     4  10  22  38  72 110 144 188 222 302 358 450
#     4  11  26  42  73 111 150 183 222 298 370 452
#     4  11  24  40  75 110 153 183 226 287 377 453
#     4  11  25  47  69 108 146 190 241 294 373 425
#
# _framework density 24.272485
#
# number of rings (size 3 to 8) (size 9 to 14) (size 15 to 20)
#    0.000    0.727    1.818    4.364   17.818    0.000 
#    0.000    5.455    0.000    0.000    0.000    0.000 
#    0.000    0.000    0.000    0.000    0.000    0.000 
#
# Total GULP energy -272768.491009 kJ/mol
# GULP energy per Si atom -12398.567773 kJ/mol
# Density = 2.421724 g / cm^3
# Si number density = 24.272485 Si / 1000 Ang^3
#
#
#
# Elastic Constant Matrix: (Units=GPa)
#
#
# Indices 1 2 3 4 5 6 
#
# 1 106.4087 35.4954 14.8431 0.0000 -10.2371 0.0000
# 2 35.4954 145.4121 16.6772 0.0000 -5.6493 0.0000
# 3 14.8431 16.6772 39.7361 0.0000 -4.9966 0.0000
# 4 0.0000 0.0000 0.0000 34.4466 0.0000 -7.0404
# 5 -10.2371 -5.6493 -4.9966 0.0000 28.3501 0.0000
# 6 0.0000 0.0000 0.0000 -7.0404 0.0000 59.8517
#
#
#
# Elastic Compliance Matrix: (Units=1/GPa)
#
#
# Indices 1 2 3 4 5 6 
#
# 1 0.010802 -0.002208 -0.002734 0.000000 0.002979 0.000000
# 2 -0.002208 0.007700 -0.002367 0.000000 0.000320 0.000000
# 3 -0.002734 -0.002367 0.027609 0.000000 0.003407 0.000000
# 4 0.000000 0.000000 0.000000 0.029746 0.000000 0.003499
# 5 0.002979 0.000320 0.003407 0.000000 0.037013 0.000000
# 6 0.000000 0.000000 0.000000 0.003499 0.000000 0.017120
#
#
# Mechanical properties :
#
#
# Convention : Reuss Voigt Hill
#
# Bulk Modulus (GPa) = 31.75165 47.28757 39.51961
# Shear Modulus (GPa) = 32.23650 39.49910 35.86780
#
# Velocity S-wave (km/s) = 3.64828 4.03838 3.84828
# Velocity P-wave (km/s) = 5.55484 6.42409 6.00522
#
# Compressibility (1/GPa) = 0.03149443
#
# Stress axis : x y z
#
# Youngs Moduli (GPa) = 92.57504 129.87453 36.22006
#
# Poissons Ratio (x) = 0.28670 0.09902
# Poissons Ratio (y) = 0.20436 0.08572
# Poissons Ratio (z) = 0.25309 0.30738
#
# Static dielectric constant tensor:
#      x y z
#    x 4.794120 0.000000 -0.140040 
#    y 0.000000 4.764480 0.000000 
#    z -0.140040 0.000000 4.029670 
# 
# 
# High freq. dielectric constant tensor:
#      x y z
#    x 1.995000 0.000000 -0.021910 
#    y 0.000000 1.984420 0.000000 
#    z -0.021910 0.000000 1.919480 
# 
# From -- ./inp_files/74534.got.cif
#   From: 2010.06.25/outbox.cif.g09.slc.cpg/sg13_38_cif.got.tgz:74534.got - 2010.06.28 04:50:58.
