data_PCOD8121966
_publ_section_title
;
Structure prediction by ZEFSAII (Michael W. Deem and Ramdas Pophale) SiO2 
 PCOD8121966
Probable space group: P 2/C
;
_chemical_formula_sum "Si O2"
_cell_formula_units_Z 28
_cell_length_a 18.329383
_cell_length_b 5.779251
_cell_length_c 13.554949
_cell_angle_alpha 90.000000
_cell_angle_beta 57.540630
_cell_angle_gamma 90.000000
_cell_volume 1211.553308
_symmetry_space_group_name_H-M "P 2/C"
_symmetry_group_IT_number 13
_symmetry_cell_setting 'monoclinic'
loop_
_space_group_symop_operation_xyz
x,y,z
-x,y,1/2-z
-x,-y,-z
x,-y,1/2+z
loop_
_atom_site_type_symbol
_atom_site_label
_atom_site_fract_x
_atom_site_fract_y
_atom_site_fract_z
Si Si1 0.794591 0.904252 0.754762
Si Si2 0.247544 0.618737 0.894478
Si Si3 0.891557 0.702584 0.074124
Si Si4 0.963622 0.344283 0.170338
Si Si5 0.678195 0.078002 0.009377
Si Si6 0.549103 0.249539 0.959083
Si Si7 0.404507 0.293845 0.791252
O O1 0.748263 0.718570 0.718691
O O2 0.880918 0.816239 0.745081
O O3 0.821536 0.117652 0.665476
O O4 0.724382 0.940080 0.889093
O O5 0.161464 0.465381 0.961588
O O6 0.243952 0.811527 0.982814
O O7 0.336556 0.495496 0.857267
O O8 0.936735 0.578374 0.133868
O O9 0.967193 0.799271 0.947558
O O10 0.000000 0.413509 0.250000
O O11 0.618782 0.920259 0.121943
O O12 0.615448 0.263963 0.002349
O O13 0.600855 0.225499 0.819351
O O14 0.500000 0.500000 0.000000
O O15 0.500000 0.000000 0.000000
O O16 0.500000 0.383904 0.750000
#
# Coordination Sequence:
#
# PCOD8121966 Si02
#       7
#     4   4   4   4   4   4   4
#     4  11  26  47  71 107 149 188 245 309 382 455
#     4  11  26  44  73 101 148 191 245 307 381 457
#     4  10  23  47  69 105 145 187 242 306 372 461
#     4  10  24  42  75 104 144 187 243 298 378 455
#     4  12  27  45  75 109 144 199 250 315 387 457
#     4  12  28  51  79 111 154 199 259 324 389 458
#     4  12  27  48  74 105 147 195 257 313 378 460
#
# _framework density 23.110825999999999
#
# number of rings (size 3 to 8) (size 9 to 14) (size 15 to 20)
#    0.000    0.857    1.429    3.857   10.000    2.286 
#    0.000    0.000    0.000    0.000    0.000    0.000 
#    0.000    0.000    0.000    0.000    0.000    0.000 
#
# Total GULP energy -347074.334638 kJ/mol
# GULP energy per Si atom -12395.511951 kJ/mol
# Density = 2.305822 g / cm^3
# Si number density = 23.110826 Si / 1000 Ang^3
#
#
#
# Elastic Constant Matrix: (Units=GPa)
#
#
# Indices 1 2 3 4 5 6 
#
# 1 161.8610 36.3338 35.6920 0.0000 17.0065 0.0000
# 2 36.3338 81.2568 22.9634 0.0000 3.6565 0.0000
# 3 35.6920 22.9634 113.2892 0.0000 7.5167 0.0000
# 4 0.0000 0.0000 0.0000 22.9084 0.0000 0.2572
# 5 17.0065 3.6565 7.5167 0.0000 28.0842 0.0000
# 6 0.0000 0.0000 0.0000 0.2572 0.0000 21.9625
#
#
#
# Elastic Compliance Matrix: (Units=1/GPa)
#
#
# Indices 1 2 3 4 5 6 
#
# 1 0.007541 -0.002759 -0.001565 0.000000 -0.003788 0.000000
# 2 -0.002759 0.014092 -0.002012 0.000000 0.000374 0.000000
# 3 -0.001565 -0.002012 0.009822 0.000000 -0.001419 0.000000
# 4 0.000000 0.000000 0.000000 0.043658 0.000000 -0.000511
# 5 -0.003788 0.000374 -0.001419 0.000000 0.038232 0.000000
# 6 0.000000 0.000000 0.000000 -0.000511 0.000000 0.045538
#
#
# Mechanical properties :
#
#
# Convention : Reuss Voigt Hill
#
# Bulk Modulus (GPa) = 53.24115 60.70949 56.97532
# Shear Modulus (GPa) = 28.11895 32.01888 30.06891
#
# Velocity S-wave (km/s) = 3.49191 3.72620 3.61095
# Velocity P-wave (km/s) = 6.27258 6.69617 6.48783
#
# Compressibility (1/GPa) = 0.01878246
#
# Stress axis : x y z
#
# Youngs Moduli (GPa) = 132.61540 70.96170 101.81174
#
# Poissons Ratio (x) = 0.19578 0.15935
# Poissons Ratio (y) = 0.36589 0.20485
# Poissons Ratio (z) = 0.20756 0.14278
#
# Static dielectric constant tensor:
#      x y z
#    x 4.490800 0.000000 0.088560 
#    y 0.000000 4.107170 0.000000 
#    z 0.088560 0.000000 4.131850 
# 
# 
# High freq. dielectric constant tensor:
#      x y z
#    x 1.938270 0.000000 0.007700 
#    y 0.000000 1.901860 0.000000 
#    z 0.007700 0.000000 1.920280 
# 
# From -- ./inp_files/54588.got.cif
#   From: 2010.06.25/outbox.cif.g09.slc.cpg/sg13_28_cif.got.tgz:54588.got - 2010.06.28 04:50:58.
