data_PCOD8121822
_publ_section_title
;
Structure prediction by ZEFSAII (Michael W. Deem and Ramdas Pophale) SiO2 
 PCOD8121822
Probable space group: P 2/C
;
_chemical_formula_sum "Si O2"
_cell_formula_units_Z 32
_cell_length_a 14.204405
_cell_length_b 8.274951
_cell_length_c 14.069374
_cell_angle_alpha 90.000000
_cell_angle_beta 118.958215
_cell_angle_gamma 90.000000
_cell_volume 1446.964656
_symmetry_space_group_name_H-M "P 2/C"
_symmetry_group_IT_number 13
_symmetry_cell_setting 'monoclinic'
loop_
_space_group_symop_operation_xyz
x,y,z
-x,y,1/2-z
-x,-y,-z
x,-y,1/2+z
loop_
_atom_site_type_symbol
_atom_site_label
_atom_site_fract_x
_atom_site_fract_y
_atom_site_fract_z
Si Si1 0.235357 0.079795 0.270647
Si Si2 0.877919 0.398447 0.348777
Si Si3 0.804879 0.906318 0.430264
Si Si4 0.121199 0.426053 0.463941
Si Si5 0.206346 0.377986 0.841837
Si Si6 0.436011 0.981289 0.124789
Si Si7 0.403436 0.150464 0.919201
Si Si8 0.103498 0.060251 0.856672
O O1 0.209753 0.258670 0.219099
O O2 0.177444 0.951056 0.171481
O O3 0.357138 0.015862 0.345206
O O4 0.192879 0.058863 0.356589
O O5 0.882473 0.422654 0.464742
O O6 0.836104 0.562586 0.280097
O O7 0.000799 0.369755 0.372686
O O8 0.823402 0.718773 0.453337
O O9 0.684530 0.947030 0.402658
O O10 0.892507 0.017162 0.529986
O O11 0.197037 0.472515 0.411411
O O12 0.324959 0.305462 0.880897
O O13 0.126618 0.246683 0.848042
O O14 0.500000 0.037792 0.250000
O O15 0.492238 0.824609 0.098839
O O16 0.434412 0.122832 0.044205
O O17 0.000000 0.003470 0.750000
#
# Coordination Sequence:
#
# PCOD8121822 Si02
#       8
#     4   4   4   4   4   4   4   4
#     4  11  22  39  63  93 125 167 222 267 315 384
#     4  11  24  38  60  92 133 178 208 257 320 396
#     4  12  23  40  66  95 123 171 218 275 319 384
#     4  11  24  39  59  92 135 172 213 256 328 386
#     4  11  22  41  62  91 131 168 206 263 327 388
#     4  11  22  41  72  96 124 165 221 277 330 374
#     4  10  23  42  68  99 121 165 224 271 330 392
#     4  11  22  37  61  91 124 166 216 262 313 382
#
# _framework density 22.115259999999999
#
# number of rings (size 3 to 8) (size 9 to 14) (size 15 to 20)
#    0.000    1.000    3.750    4.875    0.000    4.000 
#    0.000    0.625    0.000    0.750    0.000    0.000 
#    0.000    0.000    0.000    0.000    0.000    0.000 
#
# Total GULP energy -396432.888818 kJ/mol
# GULP energy per Si atom -12388.527776 kJ/mol
# Density = 2.206492 g / cm^3
# Si number density = 22.115260 Si / 1000 Ang^3
#
#
#
# Elastic Constant Matrix: (Units=GPa)
#
#
# Indices 1 2 3 4 5 6 
#
# 1 31.2857 -0.2041 12.0154 0.0000 -0.1357 0.0000
# 2 -0.2041 74.1216 18.9809 0.0000 8.3040 0.0000
# 3 12.0154 18.9809 125.8089 0.0000 4.2132 0.0000
# 4 0.0000 0.0000 0.0000 37.6796 0.0000 3.8985
# 5 -0.1357 8.3040 4.2132 0.0000 29.7153 0.0000
# 6 0.0000 0.0000 0.0000 3.8985 0.0000 8.2948
#
#
#
# Elastic Compliance Matrix: (Units=1/GPa)
#
#
# Indices 1 2 3 4 5 6 
#
# 1 0.033247 0.000901 -0.003324 0.000000 0.000371 0.000000
# 2 0.000901 0.014461 -0.002143 0.000000 -0.003733 0.000000
# 3 -0.003324 -0.002143 0.008611 0.000000 -0.000637 0.000000
# 4 0.000000 0.000000 0.000000 0.027896 0.000000 -0.013111
# 5 0.000371 -0.003733 -0.000637 0.000000 0.034788 0.000000
# 6 0.000000 0.000000 0.000000 -0.013111 0.000000 0.126720
#
#
# Mechanical properties :
#
#
# Convention : Reuss Voigt Hill
#
# Bulk Modulus (GPa) = 21.19175 32.53340 26.86258
# Shear Modulus (GPa) = 18.47861 28.49953 23.48907
#
# Velocity S-wave (km/s) = 2.89374 3.59372 3.26255
# Velocity P-wave (km/s) = 4.55721 5.65354 5.13472
#
# Compressibility (1/GPa) = 0.04718816
#
# Stress axis : x y z
#
# Youngs Moduli (GPa) = 30.07750 69.15255 116.13574
#
# Poissons Ratio (x) = -0.06231 0.38600
# Poissons Ratio (y) = -0.02710 0.24885
# Poissons Ratio (z) = 0.09997 0.14818
#
# Static dielectric constant tensor:
#      x y z
#    x 4.312700 0.000000 0.063070 
#    y 0.000000 3.661770 0.000000 
#    z 0.063070 0.000000 4.396510 
# 
# 
# High freq. dielectric constant tensor:
#      x y z
#    x 1.867050 0.000000 -0.010450 
#    y 0.000000 1.837410 0.000000 
#    z -0.010450 0.000000 1.897380 
# 
# From -- ./inp_files/53085.got.cif
#   From: 2010.06.25/outbox.cif.g09.slc.cpg/sg13_27_cif.got.tgz:53085.got - 2010.06.28 04:50:58.
