data_PCOD8121478
_publ_section_title
;
Structure prediction by ZEFSAII (Michael W. Deem and Ramdas Pophale) SiO2 
 PCOD8121478
Probable space group: P 2/C
;
_chemical_formula_sum "Si O2"
_cell_formula_units_Z 26
_cell_length_a 11.712357
_cell_length_b 5.282592
_cell_length_c 19.404102
_cell_angle_alpha 90.000000
_cell_angle_beta 62.484088
_cell_angle_gamma 90.000000
_cell_volume 1064.758305
_symmetry_space_group_name_H-M "P 2/C"
_symmetry_group_IT_number 13
_symmetry_cell_setting 'monoclinic'
loop_
_space_group_symop_operation_xyz
x,y,z
-x,y,1/2-z
-x,-y,-z
x,-y,1/2+z
loop_
_atom_site_type_symbol
_atom_site_label
_atom_site_fract_x
_atom_site_fract_y
_atom_site_fract_z
Si Si1 0.556510 0.437752 0.059310
Si Si2 0.000000 0.255257 0.750000
Si Si3 0.698978 0.914142 0.996843
Si Si4 0.257260 0.961199 0.667855
Si Si5 0.979594 0.758403 0.961606
Si Si6 0.151742 0.584884 0.801053
Si Si7 0.402055 0.351040 0.717627
O O1 0.451753 0.423863 0.150962
O O2 0.500000 0.500000 0.000000
O O3 0.625582 0.701324 0.060831
O O4 0.654613 0.196241 0.034001
O O5 0.873969 0.111008 0.811514
O O6 0.964848 0.407057 0.690610
O O7 0.844688 0.817785 0.963658
O O8 0.667278 0.897803 0.923843
O O9 0.361352 0.107350 0.684868
O O10 0.207253 0.709921 0.717043
O O11 0.092897 0.772948 0.873274
O O12 0.000000 0.500000 0.000000
O O13 0.000000 0.000000 0.000000
O O14 0.275606 0.438131 0.796139
O O15 0.500000 0.272484 0.750000
#
# Coordination Sequence:
#
# PCOD8121478 Si02
#       7
#     4   2   4   4   4   4   4
#     4  12  26  49  74 115 151 205 264 321 384 472
#     4  10  22  42  72 104 140 176 258 312 384 440
#     4  12  27  46  82 108 154 199 262 324 388 461
#     4  11  24  45  76 109 139 203 254 323 388 462
#     4  12  30  49  74 111 155 202 253 317 403 470
#     4  11  26  46  73 105 147 192 252 316 383 464
#     4  11  28  46  74 105 157 202 257 319 395 469
#
# _framework density 24.418688
#
# number of rings (size 3 to 8) (size 9 to 14) (size 15 to 20)
#    0.000    0.615    1.538    4.615   17.231    0.615 
#    0.000    0.000    0.000    0.000    0.000    0.000 
#    0.000    0.000    0.000    0.000    0.000    0.000 
#
# Total GULP energy -322136.128272 kJ/mol
# GULP energy per Si atom -12389.851087 kJ/mol
# Density = 2.436311 g / cm^3
# Si number density = 24.418688 Si / 1000 Ang^3
#
#
#
# Elastic Constant Matrix: (Units=GPa)
#
#
# Indices 1 2 3 4 5 6 
#
# 1 153.1959 40.3446 33.4887 0.0000 -4.3943 0.0000
# 2 40.3446 134.6045 24.7190 0.0000 -9.8864 0.0000
# 3 33.4887 24.7190 101.5395 0.0000 -14.4138 0.0000
# 4 0.0000 0.0000 0.0000 38.4673 0.0000 5.9734
# 5 -4.3943 -9.8864 -14.4138 0.0000 32.0158 0.0000
# 6 0.0000 0.0000 0.0000 5.9734 0.0000 16.9474
#
#
#
# Elastic Compliance Matrix: (Units=1/GPa)
#
#
# Indices 1 2 3 4 5 6 
#
# 1 0.007465 -0.001893 -0.002071 0.000000 -0.000492 0.000000
# 2 -0.001893 0.008340 -0.001151 0.000000 0.001797 0.000000
# 3 -0.002071 -0.001151 0.011453 0.000000 0.004516 0.000000
# 4 0.000000 0.000000 0.000000 0.027501 0.000000 -0.009693
# 5 -0.000492 0.001797 0.004516 0.000000 0.033755 0.000000
# 6 0.000000 0.000000 0.000000 -0.009693 0.000000 0.062423
#
#
# Mechanical properties :
#
#
# Convention : Reuss Voigt Hill
#
# Bulk Modulus (GPa) = 58.72847 65.16051 61.94449
# Shear Modulus (GPa) = 29.96840 36.87196 33.42018
#
# Velocity S-wave (km/s) = 3.50705 3.89007 3.70352
# Velocity P-wave (km/s) = 6.36412 6.84978 6.61141
#
# Compressibility (1/GPa) = 0.01702752
#
# Stress axis : x y z
#
# Youngs Moduli (GPa) = 133.96262 119.90449 87.31589
#
# Poissons Ratio (x) = 0.22701 0.18083
# Poissons Ratio (y) = 0.25362 0.10048
# Poissons Ratio (z) = 0.27743 0.13798
#
# Static dielectric constant tensor:
#      x y z
#    x 4.701940 0.000000 -0.371540 
#    y 0.000000 4.554630 0.000000 
#    z -0.371540 0.000000 4.515010 
# 
# 
# High freq. dielectric constant tensor:
#      x y z
#    x 1.984880 0.000000 -0.018690 
#    y 0.000000 1.975730 0.000000 
#    z -0.018690 0.000000 1.976290 
# 
# From -- ./inp_files/77424.got.cif
#   From: 2010.06.25/outbox.cif.g09.slc.cpg/sg13_39_cif.got.tgz:77424.got - 2010.06.28 04:50:58.
