data_PCOD8121012
_publ_section_title
;
Structure prediction by ZEFSAII (Michael W. Deem and Ramdas Pophale) SiO2 
 PCOD8121012
Probable space group: P 2/C
;
_chemical_formula_sum "Si O2"
_cell_formula_units_Z 18
_cell_length_a 8.491314
_cell_length_b 5.003521
_cell_length_c 20.759869
_cell_angle_alpha 90.000000
_cell_angle_beta 48.496671
_cell_angle_gamma 90.000000
_cell_volume 660.555105
_symmetry_space_group_name_H-M "P 2/C"
_symmetry_group_IT_number 13
_symmetry_cell_setting 'monoclinic'
loop_
_space_group_symop_operation_xyz
x,y,z
-x,y,1/2-z
-x,-y,-z
x,-y,1/2+z
loop_
_atom_site_type_symbol
_atom_site_label
_atom_site_fract_x
_atom_site_fract_y
_atom_site_fract_z
Si Si1 0.414382 0.900055 0.090560
Si Si2 0.734210 0.401307 0.306424
Si Si3 0.500000 0.555743 0.250000
Si Si4 0.868912 0.109013 0.477465
Si Si5 0.039133 0.625236 0.365129
O O1 0.311503 0.605921 0.121512
O O2 0.253444 0.105778 0.167762
O O3 0.634339 0.874520 0.069205
O O4 0.500000 0.000000 0.000000
O O5 0.546295 0.388801 0.303272
O O6 0.949705 0.492067 0.210259
O O7 0.278883 0.718157 0.319870
O O8 0.949181 0.401010 0.436818
O O9 0.894248 0.893549 0.409899
O O10 0.000000 0.000000 0.500000
#
# Coordination Sequence:
#
# PCOD8121012 Si02
#       5
#     4   4   2   4   4
#     4  12  25  43  63  93 134 171 203 258 325 380
#     4  10  22  41  66  91 122 175 212 251 314 384
#     4   8  20  36  70  86 128 148 226 240 330 336
#     4  12  23  39  63  97 126 158 215 264 310 359
#     4  10  22  38  63  93 121 162 210 265 302 371
#
# _framework density 27.24981
#
# number of rings (size 3 to 8) (size 9 to 14) (size 15 to 20)
#    1.333    0.000    0.000    6.667    0.000    1.778 
#    0.000    6.667    0.000    0.000    0.000    0.000 
#    0.000    0.000    0.000    0.000    0.000    0.000 
#
# Total GULP energy -222988.785923 kJ/mol
# GULP energy per Si atom -12388.265885 kJ/mol
# Density = 2.718779 g / cm^3
# Si number density = 27.249810 Si / 1000 Ang^3
#
#
#
# Elastic Constant Matrix: (Units=GPa)
#
#
# Indices 1 2 3 4 5 6 
#
# 1 29.1320 19.2095 27.8946 0.0000 -21.8353 0.0000
# 2 19.2095 133.2677 42.7239 0.0000 -27.3535 0.0000
# 3 27.8946 42.7239 108.8451 0.0000 -14.5329 0.0000
# 4 0.0000 0.0000 0.0000 49.0136 0.0000 7.6231
# 5 -21.8353 -27.3535 -14.5329 0.0000 70.3167 0.0000
# 6 0.0000 0.0000 0.0000 7.6231 0.0000 26.1441
#
#
#
# Elastic Compliance Matrix: (Units=1/GPa)
#
#
# Indices 1 2 3 4 5 6 
#
# 1 0.058384 -0.001345 -0.012427 0.000000 0.015038 0.000000
# 2 -0.001345 0.009151 -0.002908 0.000000 0.002541 0.000000
# 3 -0.012427 -0.002908 0.013212 0.000000 -0.002259 0.000000
# 4 0.000000 0.000000 0.000000 0.021372 0.000000 -0.006232
# 5 0.015038 0.002541 -0.002259 0.000000 0.019413 0.000000
# 6 0.000000 0.000000 0.000000 -0.006232 0.000000 0.040067
#
#
# Mechanical properties :
#
#
# Convention : Reuss Voigt Hill
#
# Bulk Modulus (GPa) = 21.10261 50.10009 35.60135
# Shear Modulus (GPa) = 23.72437 41.18933 32.45685
#
# Velocity S-wave (km/s) = 2.95384 3.89208 3.45495
# Velocity P-wave (km/s) = 4.40392 6.21475 5.38598
#
# Compressibility (1/GPa) = 0.04738751
#
# Stress axis : x y z
#
# Youngs Moduli (GPa) = 17.12800 109.27193 75.68969
#
# Poissons Ratio (x) = 0.14699 0.94057
# Poissons Ratio (y) = 0.02304 0.22011
# Poissons Ratio (z) = 0.21284 0.31777
#
# Static dielectric constant tensor:
#      x y z
#    x 5.587270 0.000000 -1.881460 
#    y 0.000000 4.631970 0.000000 
#    z -1.881460 0.000000 -0.131980 
# 
# 
# High freq. dielectric constant tensor:
#      x y z
#    x 2.144040 0.000000 -0.003550 
#    y 0.000000 2.068860 0.000000 
#    z -0.003550 0.000000 2.107890 
# 
# From -- ./inp_files/85392.got.cif
#   From: 2010.06.25/outbox.cif.g09.slc.cpg/sg13_43_cif.got.tgz:85392.got - 2010.06.28 04:50:58.
