data_PCOD8121205
_publ_section_title
;
Structure prediction by ZEFSAII (Michael W. Deem and Ramdas Pophale) SiO2 
 PCOD8121205
Probable space group: P 2/C
;
_chemical_formula_sum "Si O2"
_cell_formula_units_Z 24
_cell_length_a 13.242166
_cell_length_b 9.958587
_cell_length_c 9.335274
_cell_angle_alpha 90.000000
_cell_angle_beta 79.391475
_cell_angle_gamma 90.000000
_cell_volume 1210.031496
_symmetry_space_group_name_H-M "P 2/C"
_symmetry_group_IT_number 13
_symmetry_cell_setting 'monoclinic'
loop_
_space_group_symop_operation_xyz
x,y,z
-x,y,1/2-z
-x,-y,-z
x,-y,1/2+z
loop_
_atom_site_type_symbol
_atom_site_label
_atom_site_fract_x
_atom_site_fract_y
_atom_site_fract_z
Si Si1 0.720666 0.740510 0.982096
Si Si2 0.693579 0.760062 0.657359
Si Si3 0.891870 0.142696 0.601017
Si Si4 0.575231 0.492059 0.609860
Si Si5 0.124049 0.132777 0.563667
Si Si6 0.573187 0.026227 0.611900
O O1 0.734454 0.741352 0.807918
O O2 0.829771 0.740273 0.035878
O O3 0.667014 0.607511 0.051804
O O4 0.662080 0.873235 0.046396
O O5 0.622246 0.635928 0.634858
O O6 0.792237 0.767320 0.526868
O O7 0.623562 0.891213 0.660600
O O8 0.852033 0.116758 0.773414
O O9 0.009827 0.191075 0.570600
O O10 0.871423 0.009931 0.514332
O O11 0.500000 0.434640 0.750000
O O12 0.500000 0.500000 0.500000
O O13 0.500000 0.092462 0.750000
O O14 0.500000 0.000000 0.500000
#
# Coordination Sequence:
#
# PCOD8121205 Si02
#       6
#     4   4   4   4   4   4
#     4  12  25  42  66  95 126 173 217 263 329 380
#     4  12  25  43  64  96 129 168 219 268 320 386
#     4  10  22  40  65  98 130 169 209 265 331 384
#     4  12  26  47  66  90 132 181 218 265 321 385
#     4  10  22  40  65  97 133 165 211 267 326 388
#     4  12  24  39  60  92 128 163 208 270 316 374
#
# _framework density 19.834194
#
# number of rings (size 3 to 8) (size 9 to 14) (size 15 to 20)
#    0.000    0.667    5.000    3.000    4.667    2.000 
#    0.000    0.833    0.000    0.000    0.000    0.000 
#    0.000    0.000    0.000    0.000    0.000    0.000 
#
# Total GULP energy -297612.263555 kJ/mol
# GULP energy per Si atom -12400.510981 kJ/mol
# Density = 1.978905 g / cm^3
# Si number density = 19.834194 Si / 1000 Ang^3
#
#
#
# Elastic Constant Matrix: (Units=GPa)
#
#
# Indices 1 2 3 4 5 6 
#
# 1 118.2224 29.2807 61.1434 0.0000 7.3281 0.0000
# 2 29.2807 77.4264 24.2178 0.0000 3.3480 0.0000
# 3 61.1434 24.2178 166.5769 0.0000 3.4096 0.0000
# 4 0.0000 0.0000 0.0000 28.1490 0.0000 -5.6829
# 5 7.3281 3.3480 3.4096 0.0000 43.8686 0.0000
# 6 0.0000 0.0000 0.0000 -5.6829 0.0000 45.6769
#
#
#
# Elastic Compliance Matrix: (Units=1/GPa)
#
#
# Indices 1 2 3 4 5 6 
#
# 1 0.011172 -0.003030 -0.003632 0.000000 -0.001353 0.000000
# 2 -0.003030 0.014387 -0.000969 0.000000 -0.000517 0.000000
# 3 -0.003632 -0.000969 0.007475 0.000000 0.000100 0.000000
# 4 0.000000 0.000000 0.000000 0.036441 0.000000 0.004534
# 5 -0.001353 -0.000517 0.000100 0.000000 0.023053 0.000000
# 6 0.000000 0.000000 0.000000 0.004534 0.000000 0.022457
#
#
# Mechanical properties :
#
#
# Convention : Reuss Voigt Hill
#
# Bulk Modulus (GPa) = 56.27148 65.72327 60.99738
# Shear Modulus (GPa) = 36.71863 40.04449 38.38156
#
# Velocity S-wave (km/s) = 4.30732 4.49816 4.40377
# Velocity P-wave (km/s) = 7.29177 7.75798 7.52848
#
# Compressibility (1/GPa) = 0.01777099
#
# Stress axis : x y z
#
# Youngs Moduli (GPa) = 89.51257 69.50820 133.77315
#
# Poissons Ratio (x) = 0.21062 0.48592
# Poissons Ratio (y) = 0.27124 0.12960
# Poissons Ratio (z) = 0.32515 0.06734
#
# Static dielectric constant tensor:
#      x y z
#    x 3.457230 0.000000 0.043560 
#    y 0.000000 4.156800 0.000000 
#    z 0.043560 0.000000 3.926120 
# 
# 
# High freq. dielectric constant tensor:
#      x y z
#    x 1.791770 0.000000 0.003570 
#    y 0.000000 1.748010 0.000000 
#    z 0.003570 0.000000 1.798500 
# 
# From -- ./inp_files/18039.got.cif
#   From: 2010.06.25/outbox.cif.g09.slc.cpg/sg13_10_cif.got.tgz:18039.got - 2010.06.28 04:50:58.
