data_PCOD8121751
_publ_section_title
;
Structure prediction by ZEFSAII (Michael W. Deem and Ramdas Pophale) SiO2 
 PCOD8121751
Probable space group: P 2/C
;
_chemical_formula_sum "Si O2"
_cell_formula_units_Z 32
_cell_length_a 14.592111
_cell_length_b 6.900706
_cell_length_c 16.696651
_cell_angle_alpha 90.000000
_cell_angle_beta 87.575704
_cell_angle_gamma 90.000000
_cell_volume 1679.778987
_symmetry_space_group_name_H-M "P 2/C"
_symmetry_group_IT_number 13
_symmetry_cell_setting 'monoclinic'
loop_
_space_group_symop_operation_xyz
x,y,z
-x,y,1/2-z
-x,-y,-z
x,-y,1/2+z
loop_
_atom_site_type_symbol
_atom_site_label
_atom_site_fract_x
_atom_site_fract_y
_atom_site_fract_z
Si Si1 0.643861 0.657956 0.646908
Si Si2 0.646738 0.334297 0.336845
Si Si3 0.007207 0.564242 0.155125
Si Si4 0.920475 0.101758 0.953684
Si Si5 0.835086 0.565377 0.562097
Si Si6 0.505102 0.367414 0.842101
Si Si7 0.836070 0.293998 0.415656
Si Si8 0.502626 0.950178 0.592155
O O1 0.644877 0.689164 0.741733
O O2 0.745742 0.625031 0.613488
O O3 0.583130 0.476724 0.617675
O O4 0.598519 0.847492 0.609063
O O5 0.601099 0.537228 0.368084
O O6 0.750288 0.326942 0.361640
O O7 0.587149 0.166527 0.379433
O O8 0.909553 0.505901 0.122884
O O9 0.000000 0.581694 0.250000
O O10 0.038346 0.773591 0.120954
O O11 0.077049 0.395429 0.128239
O O12 0.853107 0.936180 0.922376
O O13 0.866299 0.244790 0.013773
O O14 0.000000 0.000000 0.000000
O O15 0.816144 0.387225 0.502900
O O16 0.500000 0.413862 0.750000
O O17 0.501278 0.143946 0.857438
O O18 0.500000 0.000000 0.500000
#
# Coordination Sequence:
#
# PCOD8121751 Si02
#       8
#     4   4   4   4   4   4   4   4
#     4  10  23  41  60  92 123 159 206 250 308 366
#     4  10  23  41  62  89 125 160 202 254 306 366
#     4  11  23  42  64  93 124 162 211 256 309 373
#     4  11  21  43  63  89 122 167 203 252 313 363
#     4  11  23  39  66  90 125 162 206 255 305 374
#     4   9  20  41  63  81 121 165 196 246 306 357
#     4  11  23  40  66  90 126 163 205 257 311 363
#     4  11  24  37  62  92 122 161 207 252 301 362
#
# _framework density 19.050125999999999
#
# number of rings (size 3 to 8) (size 9 to 14) (size 15 to 20)
#    0.000    1.500    2.500    3.375    5.250    2.500 
#    2.250    0.000    0.000    0.000    0.000    0.000 
#    0.000    0.000    0.000    0.000    0.000    0.000 
#
# Total GULP energy -396801.717860 kJ/mol
# GULP energy per Si atom -12400.053683 kJ/mol
# Density = 1.900677 g / cm^3
# Si number density = 19.050126 Si / 1000 Ang^3
#
#
#
# Elastic Constant Matrix: (Units=GPa)
#
#
# Indices 1 2 3 4 5 6 
#
# 1 114.7847 41.4475 43.2573 0.0000 6.8061 0.0000
# 2 41.4475 132.7420 32.0812 0.0000 -1.5480 0.0000
# 3 43.2573 32.0812 111.9914 0.0000 -5.0893 0.0000
# 4 0.0000 0.0000 0.0000 20.2716 0.0000 4.7862
# 5 6.8061 -1.5480 -5.0893 0.0000 38.8082 0.0000
# 6 0.0000 0.0000 0.0000 4.7862 0.0000 21.4968
#
#
#
# Elastic Compliance Matrix: (Units=1/GPa)
#
#
# Indices 1 2 3 4 5 6 
#
# 1 0.011206 -0.002637 -0.003689 0.000000 -0.002554 0.000000
# 2 -0.002637 0.008714 -0.001450 0.000000 0.000620 0.000000
# 3 -0.003689 -0.001450 0.010861 0.000000 0.002013 0.000000
# 4 0.000000 0.000000 0.000000 0.052067 0.000000 -0.011593
# 5 -0.002554 0.000620 0.002013 0.000000 0.026505 0.000000
# 6 0.000000 0.000000 0.000000 -0.011593 0.000000 0.049100
#
#
# Mechanical properties :
#
#
# Convention : Reuss Voigt Hill
#
# Bulk Modulus (GPa) = 65.66071 65.89891 65.77981
# Shear Modulus (GPa) = 27.92040 32.29745 30.10892
#
# Velocity S-wave (km/s) = 3.83251 4.12198 3.97988
# Velocity P-wave (km/s) = 7.35706 7.57112 7.46485
#
# Compressibility (1/GPa) = 0.01522981
#
# Stress axis : x y z
#
# Youngs Moduli (GPa) = 89.23890 114.75264 92.07358
#
# Poissons Ratio (x) = 0.30262 0.33966
# Poissons Ratio (y) = 0.23534 0.13346
# Poissons Ratio (z) = 0.32920 0.16634
#
# Static dielectric constant tensor:
#      x y z
#    x 3.582740 0.000000 0.066980 
#    y 0.000000 3.522260 0.000000 
#    z 0.066980 0.000000 3.480030 
# 
# 
# High freq. dielectric constant tensor:
#      x y z
#    x 1.750240 0.000000 0.002000 
#    y 0.000000 1.751660 0.000000 
#    z 0.002000 0.000000 1.745700 
# 
# From -- ./inp_files/67372.got.cif
#   From: 2010.06.25/outbox.cif.g09.slc.cpg/sg13_34_cif.got.tgz:67372.got - 2010.06.28 04:50:58.
