data_PCOD8121760
_publ_section_title
;
Structure prediction by ZEFSAII (Michael W. Deem and Ramdas Pophale) SiO2 
 PCOD8121760
Probable space group: P 2/C
;
_chemical_formula_sum "Si O2"
_cell_formula_units_Z 28
_cell_length_a 13.913803
_cell_length_b 8.490137
_cell_length_c 13.662136
_cell_angle_alpha 90.000000
_cell_angle_beta 123.121728
_cell_angle_gamma 90.000000
_cell_volume 1351.667785
_symmetry_space_group_name_H-M "P 2/C"
_symmetry_group_IT_number 13
_symmetry_cell_setting 'monoclinic'
loop_
_space_group_symop_operation_xyz
x,y,z
-x,y,1/2-z
-x,-y,-z
x,-y,1/2+z
loop_
_atom_site_type_symbol
_atom_site_label
_atom_site_fract_x
_atom_site_fract_y
_atom_site_fract_z
Si Si1 0.790340 0.831003 0.807365
Si Si2 0.377737 0.738318 0.214691
Si Si3 0.627971 0.046016 0.600691
Si Si4 0.733867 0.993967 0.960847
Si Si5 0.019507 0.984201 0.869406
Si Si6 0.984017 0.644156 0.130235
Si Si7 0.176177 0.496748 0.613222
O O1 0.735067 0.854580 0.882900
O O2 0.806985 0.645136 0.804130
O O3 0.699827 0.895143 0.678316
O O4 0.913862 0.922306 0.875980
O O5 0.500000 0.670412 0.250000
O O6 0.370530 0.811593 0.320523
O O7 0.294934 0.589788 0.158552
O O8 0.355063 0.873110 0.121842
O O9 0.696221 0.092691 0.540095
O O10 0.500000 0.000000 0.500000
O O11 0.856954 0.084881 0.031116
O O12 0.000000 0.921353 0.750000
O O13 0.038771 0.170921 0.882858
O O14 0.097229 0.623471 0.128535
O O15 0.000000 0.581362 0.250000
O O16 0.879840 0.549877 0.021086
#
# Coordination Sequence:
#
# PCOD8121760 Si02
#       7
#     4   4   4   4   4   4   4
#     4  11  24  39  65  99 127 167 215 265 330 380
#     4  11  25  45  66  91 129 173 213 269 324 380
#     4  11  23  45  69  93 118 166 229 269 313 368
#     4  11  22  40  69  93 123 164 219 273 311 372
#     4  11  21  39  67  98 127 164 217 273 312 379
#     4  10  23  41  63  93 132 174 207 257 328 385
#     4  11  25  41  61  95 138 170 204 260 328 401
#
# _framework density 20.715149
#
# number of rings (size 3 to 8) (size 9 to 14) (size 15 to 20)
#    0.000    1.143    4.286    2.143    6.000    1.714 
#    2.571    0.714    0.000    0.000    0.000    0.000 
#    0.000    0.000    0.000    0.000    0.000    0.000 
#
# Total GULP energy -347155.865355 kJ/mol
# GULP energy per Si atom -12398.423763 kJ/mol
# Density = 2.066800 g / cm^3
# Si number density = 20.715149 Si / 1000 Ang^3
#
#
#
# Elastic Constant Matrix: (Units=GPa)
#
#
# Indices 1 2 3 4 5 6 
#
# 1 136.0617 35.4253 60.9729 0.0000 4.8574 0.0000
# 2 35.4253 55.8813 22.8274 0.0000 3.5569 0.0000
# 3 60.9729 22.8274 104.4447 0.0000 2.0867 0.0000
# 4 0.0000 0.0000 0.0000 26.2156 0.0000 9.2285
# 5 4.8574 3.5569 2.0867 0.0000 50.9209 0.0000
# 6 0.0000 0.0000 0.0000 9.2285 0.0000 25.2556
#
#
#
# Elastic Compliance Matrix: (Units=1/GPa)
#
#
# Indices 1 2 3 4 5 6 
#
# 1 0.011017 -0.004754 -0.005383 0.000000 -0.000498 0.000000
# 2 -0.004754 0.021774 -0.001964 0.000000 -0.000987 0.000000
# 3 -0.005383 -0.001964 0.013144 0.000000 0.000112 0.000000
# 4 0.000000 0.000000 0.000000 0.043776 0.000000 -0.015996
# 5 -0.000498 -0.000987 0.000112 0.000000 0.019750 0.000000
# 6 0.000000 0.000000 0.000000 -0.015996 0.000000 0.045440
#
#
# Mechanical properties :
#
#
# Convention : Reuss Voigt Hill
#
# Bulk Modulus (GPa) = 46.01110 59.42655 52.71883
# Shear Modulus (GPa) = 26.83170 32.28924 29.56047
#
# Velocity S-wave (km/s) = 3.60289 3.95235 3.78166
# Velocity P-wave (km/s) = 6.29025 7.04116 6.67627
#
# Compressibility (1/GPa) = 0.02173388
#
# Stress axis : x y z
#
# Youngs Moduli (GPa) = 90.76698 45.92685 76.08149
#
# Poissons Ratio (x) = 0.21832 0.40953
# Poissons Ratio (y) = 0.43148 0.14943
# Poissons Ratio (z) = 0.48857 0.09020
#
# Static dielectric constant tensor:
#      x y z
#    x 3.810200 0.000000 -0.026570 
#    y 0.000000 3.427260 0.000000 
#    z -0.026570 0.000000 4.095020 
# 
# 
# High freq. dielectric constant tensor:
#      x y z
#    x 1.819260 0.000000 -0.001570 
#    y 0.000000 1.784510 0.000000 
#    z -0.001570 0.000000 1.827680 
# 
# From -- ./inp_files/50445.got.cif
#   From: 2010.06.25/outbox.cif.g09.slc.cpg/sg13_26_cif.got.tgz:50445.got - 2010.06.28 04:50:58.
