data_PCOD8121721
_publ_section_title
;
Structure prediction by ZEFSAII (Michael W. Deem and Ramdas Pophale) SiO2 
 PCOD8121721
Probable space group: P 2/C
;
_chemical_formula_sum "Si O2"
_cell_formula_units_Z 28
_cell_length_a 8.288431
_cell_length_b 21.902062
_cell_length_c 9.071059
_cell_angle_alpha 90.000000
_cell_angle_beta 122.123621
_cell_angle_gamma 90.000000
_cell_volume 1394.597482
_symmetry_space_group_name_H-M "P 2/C"
_symmetry_group_IT_number 13
_symmetry_cell_setting 'monoclinic'
loop_
_space_group_symop_operation_xyz
x,y,z
-x,y,1/2-z
-x,-y,-z
x,-y,1/2+z
loop_
_atom_site_type_symbol
_atom_site_label
_atom_site_fract_x
_atom_site_fract_y
_atom_site_fract_z
Si Si1 0.500000 0.175536 0.750000
Si Si2 0.223948 0.068914 0.690920
Si Si3 0.489381 0.751929 0.963469
Si Si4 0.497543 0.434098 0.926869
Si Si5 0.500000 0.142876 0.250000
Si Si6 0.200271 0.650417 0.766788
Si Si7 0.221056 0.949377 0.518494
Si Si8 0.200212 0.651108 0.424413
O O1 0.314100 0.133375 0.685220
O O2 0.548441 0.226938 0.891662
O O3 0.997389 0.069780 0.581271
O O4 0.280778 0.016274 0.603890
O O5 0.300748 0.053695 0.891129
O O6 0.680226 0.713008 0.032680
O O7 0.514919 0.816240 0.899358
O O8 0.307270 0.715206 0.815661
O O9 0.500000 0.436612 0.750000
O O10 0.303088 0.402713 0.885063
O O11 0.500000 0.500000 0.000000
O O12 0.678247 0.397917 0.079735
O O13 0.683986 0.100004 0.328776
O O14 0.176168 0.630665 0.584032
O O15 0.000000 0.657717 0.750000
O O16 0.000000 0.663310 0.250000
#
# Coordination Sequence:
#
# PCOD8121721 Si02
#       8
#     2   4   4   4   2   4   4   4
#     4  12  25  38  64  90 119 156 212 250 312 374
#     4  10  23  42  58  88 113 156 195 256 307 385
#     4  11  25  41  61  90 128 160 212 258 309 368
#     4  11  23  43  70 100 135 171 216 266 313 367
#     4  12  21  42  62  88 115 168 194 262 308 372
#     4  11  24  43  66  96 132 171 215 259 316 373
#     4  10  23  40  63  81 120 150 200 248 321 369
#     4  11  24  43  67  94 132 174 212 260 318 369
#
# _framework density 20.077476000000001
#
# number of rings (size 3 to 8) (size 9 to 14) (size 15 to 20)
#    0.000    1.143    2.857    3.429    8.000    4.000 
#    0.000    2.857    0.000    0.000    0.000    0.000 
#    0.000    0.000    0.000    0.000    0.000    0.000 
#
# Total GULP energy -347110.369574 kJ/mol
# GULP energy per Si atom -12396.798913 kJ/mol
# Density = 2.003178 g / cm^3
# Si number density = 20.077476 Si / 1000 Ang^3
#
#
#
# Elastic Constant Matrix: (Units=GPa)
#
#
# Indices 1 2 3 4 5 6 
#
# 1 110.9303 33.3871 59.5604 0.0000 -6.9558 0.0000
# 2 33.3871 93.2819 50.9387 0.0000 -0.8228 0.0000
# 3 59.5604 50.9387 129.9309 0.0000 -14.7857 0.0000
# 4 0.0000 0.0000 0.0000 33.1276 0.0000 -19.0224
# 5 -6.9558 -0.8228 -14.7857 0.0000 43.7931 0.0000
# 6 0.0000 0.0000 0.0000 -19.0224 0.0000 32.4163
#
#
#
# Elastic Compliance Matrix: (Units=1/GPa)
#
#
# Indices 1 2 3 4 5 6 
#
# 1 0.012160 -0.001682 -0.004886 0.000000 0.000250 0.000000
# 2 -0.001682 0.013983 -0.004900 0.000000 -0.001659 0.000000
# 3 -0.004886 -0.004900 0.012228 0.000000 0.003260 0.000000
# 4 0.000000 0.000000 0.000000 0.045527 0.000000 0.026716
# 5 0.000250 -0.001659 0.003260 0.000000 0.023944 0.000000
# 6 0.000000 0.000000 0.000000 0.026716 0.000000 0.046526
#
#
# Mechanical properties :
#
#
# Convention : Reuss Voigt Hill
#
# Bulk Modulus (GPa) = 64.78559 69.10171 66.94365
# Shear Modulus (GPa) = 27.40475 34.55119 30.97797
#
# Velocity S-wave (km/s) = 3.69853 4.15287 3.93227
# Velocity P-wave (km/s) = 7.11173 7.58204 7.35065
#
# Compressibility (1/GPa) = 0.01543553
#
# Stress axis : x y z
#
# Youngs Moduli (GPa) = 82.23598 71.51450 81.77731
#
# Poissons Ratio (x) = 0.12027 0.39960
# Poissons Ratio (y) = 0.13830 0.40070
# Poissons Ratio (z) = 0.40184 0.35041
#
# Static dielectric constant tensor:
#      x y z
#    x 3.681980 0.000000 -0.120740 
#    y 0.000000 3.676960 0.000000 
#    z -0.120740 0.000000 3.878030 
# 
# 
# High freq. dielectric constant tensor:
#      x y z
#    x 1.788500 0.000000 -0.007950 
#    y 0.000000 1.788880 0.000000 
#    z -0.007950 0.000000 1.802500 
# 
# From -- ./inp_files/13703.got.cif
#   From: 2010.06.25/outbox.cif.g09.slc.cpg/sg13_7_cif.got.tgz:13703.got - 2010.06.28 04:50:58.
