data_PCOD8121807
_publ_section_title
;
Structure prediction by ZEFSAII (Michael W. Deem and Ramdas Pophale) SiO2 
 PCOD8121807
Probable space group: P 2/C
;
_chemical_formula_sum "Si O2"
_cell_formula_units_Z 20
_cell_length_a 19.930694
_cell_length_b 6.477431
_cell_length_c 13.461483
_cell_angle_alpha 90.000000
_cell_angle_beta 149.446569
_cell_angle_gamma 90.000000
_cell_volume 883.433410
_symmetry_space_group_name_H-M "P 2/C"
_symmetry_group_IT_number 13
_symmetry_cell_setting 'monoclinic'
loop_
_space_group_symop_operation_xyz
x,y,z
-x,y,1/2-z
-x,-y,-z
x,-y,1/2+z
loop_
_atom_site_type_symbol
_atom_site_label
_atom_site_fract_x
_atom_site_fract_y
_atom_site_fract_z
Si Si1 0.346000 0.317848 0.444098
Si Si2 0.775821 0.982217 0.345679
Si Si3 0.645731 0.334940 0.816706
Si Si4 0.859350 0.330211 0.591895
Si Si5 0.129263 0.359263 0.667914
O O1 0.493371 0.397325 0.609108
O O2 0.324264 0.269324 0.532242
O O3 0.251784 0.502169 0.288526
O O4 0.312734 0.108018 0.344826
O O5 0.673657 0.858653 0.282926
O O6 0.878368 0.834241 0.417034
O O7 0.862368 0.127137 0.527226
O O8 0.738004 0.526665 0.903299
O O9 0.846233 0.271875 0.690632
O O10 0.000000 0.444105 0.750000
O O11 0.000000 0.500000 0.500000
#
# Coordination Sequence:
#
# PCOD8121807 Si02
#       5
#     4   4   4   4   4
#     4  10  23  42  65  94 129 171 213 262 323 384
#     4  12  23  39  67  96 127 166 215 267 319 380
#     4  10  23  43  64  92 131 169 213 265 320 383
#     4  11  25  43  65  94 126 168 215 262 321 384
#     4  11  25  45  66  93 131 170 211 264 323 383
#
# _framework density 22.638945
#
# number of rings (size 3 to 8) (size 9 to 14) (size 15 to 20)
#    0.000    1.200    0.000    5.400    0.000   12.000 
#    0.000    4.000    0.000    0.000    0.000    0.000 
#    0.000    0.000    0.000    0.000    0.000    0.000 
#
# Total GULP energy -248092.861096 kJ/mol
# GULP energy per Si atom -12404.643055 kJ/mol
# Density = 2.258742 g / cm^3
# Si number density = 22.638945 Si / 1000 Ang^3
#
#
#
# Elastic Constant Matrix: (Units=GPa)
#
#
# Indices 1 2 3 4 5 6 
#
# 1 128.5819 81.5986 62.4581 0.0000 4.1132 0.0000
# 2 81.5986 138.8567 76.0255 0.0000 -0.6799 0.0000
# 3 62.4581 76.0255 141.2767 0.0000 21.5705 0.0000
# 4 0.0000 0.0000 0.0000 37.3012 0.0000 -5.7911
# 5 4.1132 -0.6799 21.5705 0.0000 47.2575 0.0000
# 6 0.0000 0.0000 0.0000 -5.7911 0.0000 57.3216
#
#
#
# Elastic Compliance Matrix: (Units=1/GPa)
#
#
# Indices 1 2 3 4 5 6 
#
# 1 0.012912 -0.006349 -0.002264 0.000000 -0.000182 0.000000
# 2 -0.006349 0.013703 -0.005032 0.000000 0.003047 0.000000
# 3 -0.002264 -0.005032 0.011575 0.000000 -0.005159 0.000000
# 4 0.000000 0.000000 0.000000 0.027236 0.000000 0.002752
# 5 -0.000182 0.003047 -0.005159 0.000000 0.023575 0.000000
# 6 0.000000 0.000000 0.000000 0.002752 0.000000 0.017723
#
#
# Mechanical properties :
#
#
# Convention : Reuss Voigt Hill
#
# Bulk Modulus (GPa) = 91.75028 94.31996 93.03512
# Shear Modulus (GPa) = 36.32494 40.95161 38.63827
#
# Velocity S-wave (km/s) = 4.01001 4.25773 4.13572
# Velocity P-wave (km/s) = 7.87755 8.11937 7.99938
#
# Compressibility (1/GPa) = 0.01089915
#
# Stress axis : x y z
#
# Youngs Moduli (GPa) = 77.44927 72.97862 86.39450
#
# Poissons Ratio (x) = 0.46333 0.19559
# Poissons Ratio (y) = 0.49171 0.43475
# Poissons Ratio (z) = 0.17534 0.36724
#
# Static dielectric constant tensor:
#      x y z
#    x 4.407900 0.000000 -0.092020 
#    y 0.000000 3.943770 0.000000 
#    z -0.092020 0.000000 4.090910 
# 
# 
# High freq. dielectric constant tensor:
#      x y z
#    x 1.923880 0.000000 -0.009770 
#    y 0.000000 1.878200 0.000000 
#    z -0.009770 0.000000 1.896830 
# 
# From -- ./inp_files/56707.got.cif
#   From: 2010.06.25/outbox.cif.g09.slc.cpg/sg13_29_cif.got.tgz:56707.got - 2010.06.28 04:50:58.
