data_PCOD8121762
_publ_section_title
;
Structure prediction by ZEFSAII (Michael W. Deem and Ramdas Pophale) SiO2 
 PCOD8121762
Probable space group: P 2/C
;
_chemical_formula_sum "Si O2"
_cell_formula_units_Z 22
_cell_length_a 28.303644
_cell_length_b 5.517905
_cell_length_c 14.857512
_cell_angle_alpha 90.000000
_cell_angle_beta 154.070847
_cell_angle_gamma 90.000000
_cell_volume 1014.616352
_symmetry_space_group_name_H-M "P 2/C"
_symmetry_group_IT_number 13
_symmetry_cell_setting 'monoclinic'
loop_
_space_group_symop_operation_xyz
x,y,z
-x,y,1/2-z
-x,-y,-z
x,-y,1/2+z
loop_
_atom_site_type_symbol
_atom_site_label
_atom_site_fract_x
_atom_site_fract_y
_atom_site_fract_z
Si Si1 0.225449 0.799862 0.758523
Si Si2 0.818767 0.109098 0.512210
Si Si3 0.000000 0.762675 0.750000
Si Si4 0.596147 0.459095 0.845073
Si Si5 0.658123 0.965023 0.893912
Si Si6 0.006048 0.405770 0.910452
O O1 0.246990 0.805624 0.688458
O O2 0.096902 0.803189 0.560022
O O3 0.274070 0.031291 0.895780
O O4 0.288409 0.562947 0.905129
O O5 0.734946 0.002896 0.439681
O O6 0.887198 0.323874 0.675501
O O7 0.901784 0.907569 0.623222
O O8 0.049793 0.605944 0.916222
O O9 0.500000 0.482923 0.750000
O O10 0.596704 0.705080 0.785377
O O11 0.580514 0.207088 0.760134
O O12 0.000000 0.500000 0.000000
#
# Coordination Sequence:
#
# PCOD8121762 Si02
#       6
#     4   4   2   4   4   4
#     4  10  23  41  63  97 130 177 223 268 334 392
#     4  12  24  41  60 103 133 178 222 269 328 408
#     4  12  24  38  64  92 150 174 226 262 324 394
#     4  10  23  47  70  94 130 174 224 287 345 392
#     4  10  25  41  70  97 130 173 221 276 341 399
#     4  12  24  39  63  94 136 180 220 269 327 401
#
# _framework density 21.683073
#
# number of rings (size 3 to 8) (size 9 to 14) (size 15 to 20)
#    1.091    0.000    3.636    2.727    7.636    1.455 
#    0.000    1.818    0.000    0.000    0.000    0.000 
#    0.000    0.000    0.000    0.000    0.000    0.000 
#
# Total GULP energy -272594.338082 kJ/mol
# GULP energy per Si atom -12390.651731 kJ/mol
# Density = 2.163372 g / cm^3
# Si number density = 21.683073 Si / 1000 Ang^3
#
#
#
# Elastic Constant Matrix: (Units=GPa)
#
#
# Indices 1 2 3 4 5 6 
#
# 1 165.6169 45.6596 17.0368 0.0000 4.3087 0.0000
# 2 45.6596 130.2290 -1.3849 0.0000 8.9788 0.0000
# 3 17.0368 -1.3849 19.6719 0.0000 -3.4616 0.0000
# 4 0.0000 0.0000 0.0000 18.2810 0.0000 -23.5311
# 5 4.3087 8.9788 -3.4616 0.0000 47.6527 0.0000
# 6 0.0000 0.0000 0.0000 -23.5311 0.0000-3085.7357
#
#
#
# Elastic Compliance Matrix: (Units=1/GPa)
#
#
# Indices 1 2 3 4 5 6 
#
# 1 0.007484 -0.002650 -0.006786 0.000000 -0.000670 0.000000
# 2 -0.002650 0.008720 0.002696 0.000000 -0.001208 0.000000
# 3 -0.006786 0.002696 0.057656 0.000000 0.004294 0.000000
# 4 0.000000 0.000000 0.000000 0.054170 0.000000 -0.000413
# 5 -0.000670 -0.001208 0.004294 0.000000 0.021585 0.000000
# 6 0.000000 0.000000 0.000000 -0.000413 0.000000 -0.000321
#
#
# Mechanical properties :
#
#
# Convention : Reuss Voigt Hill
#
# Bulk Modulus (GPa) = 16.56152 48.68232 32.62192
# Shear Modulus (GPa) = 27.33720 -587.01332 -279.83806
#
# Velocity S-wave (km/s) = 3.55457 -16.47155 -11.37271
# Velocity P-wave (km/s) = 4.94987 18.41871 12.54487
#
# Compressibility (1/GPa) = 0.06038092
#
# Stress axis : x y z
#
# Youngs Moduli (GPa) = 133.61611 114.68138 17.34412
#
# Poissons Ratio (x) = 0.30390 0.11770
# Poissons Ratio (y) = 0.35408 -0.04677
# Poissons Ratio (z) = 0.90674 -0.30922
#
# Static dielectric constant tensor:
#      x y z
#    x 3.903660 0.000000 -0.110940 
#    y 0.000000 3.996820 0.000000 
#    z -0.110940 0.000000 3.735770 
# 
# 
# High freq. dielectric constant tensor:
#      x y z
#    x 1.861880 0.000000 -0.000140 
#    y 0.000000 1.849980 0.000000 
#    z -0.000140 0.000000 1.822280 
# 
# From -- ./inp_files/54246.got.cif
#   From: 2010.06.25/outbox.cif.g09.slc.cpg/sg13_28_cif.got.tgz:54246.got - 2010.06.28 04:50:58.
