data_PCOD8121108
_publ_section_title
;
Structure prediction by ZEFSAII (Michael W. Deem and Ramdas Pophale) SiO2 
 PCOD8121108
Probable space group: P 2/C
;
_chemical_formula_sum "Si O2"
_cell_formula_units_Z 26
_cell_length_a 9.476779
_cell_length_b 7.750759
_cell_length_c 26.121478
_cell_angle_alpha 90.000000
_cell_angle_beta 143.899278
_cell_angle_gamma 90.000000
_cell_volume 1130.499281
_symmetry_space_group_name_H-M "P 2/C"
_symmetry_group_IT_number 13
_symmetry_cell_setting 'monoclinic'
loop_
_space_group_symop_operation_xyz
x,y,z
-x,y,1/2-z
-x,-y,-z
x,-y,1/2+z
loop_
_atom_site_type_symbol
_atom_site_label
_atom_site_fract_x
_atom_site_fract_y
_atom_site_fract_z
Si Si1 0.253288 0.248827 0.236526
Si Si2 0.514630 0.678114 0.975632
Si Si3 0.227714 0.861676 0.623329
Si Si4 0.472176 0.147858 0.918283
Si Si5 0.271364 0.510297 0.320728
Si Si6 0.000000 0.949167 0.750000
Si Si7 0.133948 0.866884 0.485448
O O1 0.487129 0.128057 0.300239
O O2 0.150224 0.262571 0.148246
O O3 0.311241 0.441939 0.274380
O O4 0.067265 0.165531 0.220807
O O5 0.325227 0.658802 0.873331
O O6 0.776017 0.720796 0.027550
O O7 0.500000 0.500000 0.000000
O O8 0.464483 0.827469 0.002463
O O9 0.113846 0.789428 0.537093
O O10 0.122729 0.053478 0.605463
O O11 0.458264 0.335785 0.886613
O O12 0.214805 0.063949 0.834470
O O13 0.675946 0.026335 0.954978
O O14 0.000000 0.573612 0.250000
#
# Coordination Sequence:
#
# PCOD8121108 Si02
#       7
#     4   4   4   4   4   2   4
#     4  11  22  40  66  94 125 177 220 266 343 404
#     4  10  22  39  64  97 130 169 216 276 334 396
#     4  10  23  39  68  92 131 175 224 269 337 417
#     4  11  23  37  63  98 129 161 224 276 340 383
#     4  11  22  39  61  92 134 161 215 279 332 400
#     4  12  20  38  64  98 122 170 220 288 318 398
#     4  11  21  42  65  96 133 174 222 277 333 414
#
# _framework density 22.998687
#
# number of rings (size 3 to 8) (size 9 to 14) (size 15 to 20)
#    0.000    1.231    4.615    1.385    2.154    0.000 
#    0.000    0.769    6.769    0.000    0.000    0.000 
#    0.000    0.000    0.000    0.000    0.000    0.000 
#
# Total GULP energy -322121.073786 kJ/mol
# GULP energy per Si atom -12389.272069 kJ/mol
# Density = 2.294634 g / cm^3
# Si number density = 22.998687 Si / 1000 Ang^3
#
#
#
# Elastic Constant Matrix: (Units=GPa)
#
#
# Indices 1 2 3 4 5 6 
#
# 1 142.0446 49.1969 31.4919 0.0000 -17.3404 0.0000
# 2 49.1969 95.5193 20.4595 0.0000 -4.5471 0.0000
# 3 31.4919 20.4595 53.7069 0.0000 -2.8113 0.0000
# 4 0.0000 0.0000 0.0000 26.1463 0.0000 0.5170
# 5 -17.3404 -4.5471 -2.8113 0.0000 50.8781 0.0000
# 6 0.0000 0.0000 0.0000 0.5170 0.0000 30.0706
#
#
#
# Elastic Compliance Matrix: (Units=1/GPa)
#
#
# Indices 1 2 3 4 5 6 
#
# 1 0.009633 -0.003978 -0.003992 0.000000 0.002707 0.000000
# 2 -0.003978 0.013073 -0.002665 0.000000 -0.000335 0.000000
# 3 -0.003992 -0.002665 0.021955 0.000000 -0.000385 0.000000
# 4 0.000000 0.000000 0.000000 0.038259 0.000000 -0.000658
# 5 0.002707 -0.000335 -0.000385 0.000000 0.020526 0.000000
# 6 0.000000 0.000000 0.000000 -0.000658 0.000000 0.033266
#
#
# Mechanical properties :
#
#
# Convention : Reuss Voigt Hill
#
# Bulk Modulus (GPa) = 42.74916 54.84082 48.79499
# Shear Modulus (GPa) = 30.16058 34.09381 32.12720
#
# Velocity S-wave (km/s) = 3.62526 3.85440 3.74159
# Velocity P-wave (km/s) = 6.01260 6.61102 6.31890
#
# Compressibility (1/GPa) = 0.02339227
#
# Stress axis : x y z
#
# Youngs Moduli (GPa) = 103.80847 76.49522 45.54730
#
# Poissons Ratio (x) = 0.30427 0.18180
# Poissons Ratio (y) = 0.41292 0.12139
# Poissons Ratio (z) = 0.41436 0.20387
#
# Static dielectric constant tensor:
#      x y z
#    x 4.500510 0.000000 -0.525290 
#    y 0.000000 4.013230 0.000000 
#    z -0.525290 0.000000 4.908340 
# 
# 
# High freq. dielectric constant tensor:
#      x y z
#    x 1.915070 0.000000 -0.014960 
#    y 0.000000 1.881630 0.000000 
#    z -0.014960 0.000000 1.911880 
# 
# From -- ./inp_files/91326.got.cif
#   From: 2010.06.25/outbox.cif.g09.slc.cpg/sg13_46_cif.got.tgz:91326.got - 2010.06.28 04:50:58.
