data_PCOD8121956
_publ_section_title
;
Structure prediction by ZEFSAII (Michael W. Deem and Ramdas Pophale) SiO2 
 PCOD8121956
Probable space group: P 2/C
;
_chemical_formula_sum "Si O2"
_cell_formula_units_Z 18
_cell_length_a 11.072728
_cell_length_b 11.461347
_cell_length_c 11.289279
_cell_angle_alpha 90.000000
_cell_angle_beta 31.271701
_cell_angle_gamma 90.000000
_cell_volume 743.712424
_symmetry_space_group_name_H-M "P 2/C"
_symmetry_group_IT_number 13
_symmetry_cell_setting 'monoclinic'
loop_
_space_group_symop_operation_xyz
x,y,z
-x,y,1/2-z
-x,-y,-z
x,-y,1/2+z
loop_
_atom_site_type_symbol
_atom_site_label
_atom_site_fract_x
_atom_site_fract_y
_atom_site_fract_z
Si Si1 0.138462 0.433876 0.784634
Si Si2 0.500000 0.831089 0.250000
Si Si3 0.258566 0.729300 0.896053
Si Si4 0.872887 0.008043 0.980969
Si Si5 0.618171 0.342204 0.461606
O O1 0.342852 0.356526 0.670056
O O2 0.260560 0.534727 0.601214
O O3 0.000000 0.500000 0.000000
O O4 0.953580 0.349119 0.872808
O O5 0.347085 0.749901 0.463759
O O6 0.327677 0.915072 0.323954
O O7 0.500000 0.682885 0.750000
O O8 0.259071 0.714089 0.754932
O O9 0.225154 0.863010 0.958835
O O10 0.000000 0.973867 0.750000
O O11 0.000000 0.000000 0.000000
#
# Coordination Sequence:
#
# PCOD8121956 Si02
#       5
#     4   2   4   4   4
#     4   9  21  46  68 100 145 191 250 301 372 442
#     4  12  26  46  74 110 152 188 248 306 380 450
#     4  11  24  42  72 106 142 191 246 306 365 447
#     4  12  28  47  76 109 147 200 250 311 373 446
#     4  10  23  46  70 102 144 194 241 307 373 442
#
# _framework density 24.202905000000001
#
# number of rings (size 3 to 8) (size 9 to 14) (size 15 to 20)
#    0.000    1.333    1.111    2.667    6.222    3.556 
#   22.000    0.000    0.000    0.000    0.000    0.000 
#    0.000    0.000    0.000    0.000    0.000    0.000 
#
# Total GULP energy -223096.105600 kJ/mol
# GULP energy per Si atom -12394.228089 kJ/mol
# Density = 2.414782 g / cm^3
# Si number density = 24.202905 Si / 1000 Ang^3
#
#
#
# Elastic Constant Matrix: (Units=GPa)
#
#
# Indices 1 2 3 4 5 6 
#
# 1 124.5768 52.8139 48.9564 0.0000 -5.0962 0.0000
# 2 52.8139 175.5938 54.1595 0.0000 -17.3099 0.0000
# 3 48.9564 54.1595 103.1279 0.0000 -6.7469 0.0000
# 4 0.0000 0.0000 0.0000 49.5439 0.0000 1.2857
# 5 -5.0962 -17.3099 -6.7469 0.0000 64.2529 0.0000
# 6 0.0000 0.0000 0.0000 1.2857 0.0000 32.6195
#
#
#
# Elastic Compliance Matrix: (Units=1/GPa)
#
#
# Indices 1 2 3 4 5 6 
#
# 1 0.010380 -0.001922 -0.003925 0.000000 -0.000107 0.000000
# 2 -0.001922 0.007292 -0.002818 0.000000 0.001516 0.000000
# 3 -0.003925 -0.002818 0.013060 0.000000 0.000301 0.000000
# 4 0.000000 0.000000 0.000000 0.020205 0.000000 -0.000796
# 5 -0.000107 0.001516 0.000301 0.000000 0.015995 0.000000
# 6 0.000000 0.000000 0.000000 -0.000796 0.000000 0.030688
#
#
# Mechanical properties :
#
#
# Convention : Reuss Voigt Hill
#
# Bulk Modulus (GPa) = 74.61895 79.46204 77.04049
# Shear Modulus (GPa) = 41.87041 45.77450 43.82245
#
# Velocity S-wave (km/s) = 4.16381 4.35360 4.25976
# Velocity P-wave (km/s) = 7.34942 7.62723 7.48961
#
# Compressibility (1/GPa) = 0.01340142
#
# Stress axis : x y z
#
# Youngs Moduli (GPa) = 96.33765 137.14476 76.57218
#
# Poissons Ratio (x) = 0.26358 0.30057
# Poissons Ratio (y) = 0.18515 0.21576
# Poissons Ratio (z) = 0.37815 0.38644
#
# Static dielectric constant tensor:
#      x y z
#    x 4.153430 0.000000 -0.255500 
#    y 0.000000 4.811270 0.000000 
#    z -0.255500 0.000000 4.938390 
# 
# 
# High freq. dielectric constant tensor:
#      x y z
#    x 1.951020 0.000000 0.000930 
#    y 0.000000 1.978250 0.000000 
#    z 0.000930 0.000000 1.976710 
# 
# From -- ./inp_files/33537.got.cif
#   From: 2010.06.25/outbox.cif.g09.slc.cpg/sg13_17_cif.got.tgz:33537.got - 2010.06.28 04:50:58.
