data_PCOD8121226
_publ_section_title
;
Structure prediction by ZEFSAII (Michael W. Deem and Ramdas Pophale) SiO2 
 PCOD8121226
Probable space group: P 2/C
;
_chemical_formula_sum "Si O2"
_cell_formula_units_Z 28
_cell_length_a 9.274499
_cell_length_b 15.044748
_cell_length_c 10.877932
_cell_angle_alpha 90.000000
_cell_angle_beta 58.085388
_cell_angle_gamma 90.000000
_cell_volume 1288.385901
_symmetry_space_group_name_H-M "P 2/C"
_symmetry_group_IT_number 13
_symmetry_cell_setting 'monoclinic'
loop_
_space_group_symop_operation_xyz
x,y,z
-x,y,1/2-z
-x,-y,-z
x,-y,1/2+z
loop_
_atom_site_type_symbol
_atom_site_label
_atom_site_fract_x
_atom_site_fract_y
_atom_site_fract_z
Si Si1 0.547404 0.053840 0.356721
Si Si2 0.160882 0.312346 0.755139
Si Si3 0.019391 0.760985 0.947127
Si Si4 0.500000 0.607667 0.750000
Si Si5 0.000000 0.620296 0.750000
Si Si6 0.359664 0.242109 0.448689
Si Si7 0.941177 0.050687 0.149225
Si Si8 0.824729 0.500174 0.659726
O O1 0.500000 0.003417 0.250000
O O2 0.453483 0.148369 0.401404
O O3 0.744944 0.066490 0.254906
O O4 0.500000 0.000000 0.500000
O O5 0.291432 0.256258 0.615941
O O6 0.237845 0.400884 0.781670
O O7 0.000000 0.346488 0.750000
O O8 0.105537 0.241038 0.881101
O O9 0.961553 0.680420 0.885739
O O10 0.212991 0.753965 0.909520
O O11 0.977738 0.851690 0.895451
O O12 0.508219 0.676672 0.631428
O O13 0.668418 0.547690 0.661959
O O14 0.151953 0.554576 0.722920
O O15 0.000000 0.002744 0.250000
O O16 0.000000 0.000000 0.000000
O O17 0.000000 0.500000 0.500000
#
# Coordination Sequence:
#
# PCOD8121226 Si02
#       8
#     4   4   4   2   2   4   4   4
#     4  12  26  48  74 104 143 185 233 301 365 433
#     4  10  22  40  68 101 140 187 236 292 345 418
#     4  11  22  42  71 102 136 186 233 284 357 427
#     4  12  24  42  72  98 140 196 244 286 360 436
#     4  12  22  40  74  98 142 188 236 298 352 420
#     4  11  23  45  69  99 138 188 237 283 364 431
#     4  12  27  45  72 105 136 178 237 289 358 439
#     4  12  24  43  67 104 144 189 245 302 356 414
#
# _framework density 21.732619
#
# number of rings (size 3 to 8) (size 9 to 14) (size 15 to 20)
#    0.000    0.571    6.429    1.714    2.000    1.143 
#    0.000    1.429    0.000    0.000    0.000    0.000 
#    0.000    0.000    0.000    0.000    0.000    0.000 
#
# Total GULP energy -346929.005152 kJ/mol
# GULP energy per Si atom -12390.321613 kJ/mol
# Density = 2.168315 g / cm^3
# Si number density = 21.732619 Si / 1000 Ang^3
#
#
#
# Elastic Constant Matrix: (Units=GPa)
#
#
# Indices 1 2 3 4 5 6 
#
# 1 89.3614 44.8852 62.7533 0.0000 5.4978 0.0000
# 2 44.8852 104.3871 63.2841 0.0000 1.0910 0.0000
# 3 62.7533 63.2841 180.8678 0.0000 4.4492 0.0000
# 4 0.0000 0.0000 0.0000 157.3194 0.0000 -59.7545
# 5 5.4978 1.0910 4.4492 0.0000 38.3705 0.0000
# 6 0.0000 0.0000 0.0000 -59.7545 0.0000 73.0471
#
#
#
# Elastic Compliance Matrix: (Units=1/GPa)
#
#
# Indices 1 2 3 4 5 6 
#
# 1 0.016458 -0.004598 -0.004058 0.000000 -0.001757 0.000000
# 2 -0.004598 0.013444 -0.003124 0.000000 0.000639 0.000000
# 3 -0.004058 -0.003124 0.008037 0.000000 -0.000262 0.000000
# 4 0.000000 0.000000 0.000000 0.009222 0.000000 0.007544
# 5 -0.001757 0.000639 -0.000262 0.000000 0.026326 0.000000
# 6 0.000000 0.000000 0.000000 0.007544 0.000000 0.019861
#
#
# Mechanical properties :
#
#
# Convention : Reuss Voigt Hill
#
# Bulk Modulus (GPa) = 69.55328 79.60685 74.58006
# Shear Modulus (GPa) = 41.08429 67.32697 54.20563
#
# Velocity S-wave (km/s) = 4.35264 5.57198 4.99962
# Velocity P-wave (km/s) = 7.57194 8.83774 8.22921
#
# Compressibility (1/GPa) = 0.01437747
#
# Stress axis : x y z
#
# Youngs Moduli (GPa) = 60.76069 74.38053 124.43159
#
# Poissons Ratio (x) = 0.34201 0.50496
# Poissons Ratio (y) = 0.27939 0.38878
# Poissons Ratio (z) = 0.24658 0.23240
#
# Static dielectric constant tensor:
#      x y z
#    x 3.960930 0.000000 0.056060 
#    y 0.000000 4.144810 0.000000 
#    z 0.056060 0.000000 3.608690 
# 
# 
# High freq. dielectric constant tensor:
#      x y z
#    x 1.832320 0.000000 0.008500 
#    y 0.000000 1.861410 0.000000 
#    z 0.008500 0.000000 1.869600 
# 
# From -- ./inp_files/30330.got.cif
#   From: 2010.06.25/outbox.cif.g09.slc.cpg/sg13_16_cif.got.tgz:30330.got - 2010.06.28 04:50:58.
