data_PCOD8121236
_publ_section_title
;
Structure prediction by ZEFSAII (Michael W. Deem and Ramdas Pophale) SiO2 
 PCOD8121236
Probable space group: P 2/C
;
_chemical_formula_sum "Si O2"
_cell_formula_units_Z 26
_cell_length_a 20.110559
_cell_length_b 6.961355
_cell_length_c 23.311056
_cell_angle_alpha 90.000000
_cell_angle_beta 158.488730
_cell_angle_gamma 90.000000
_cell_volume 1196.663670
_symmetry_space_group_name_H-M "P 2/C"
_symmetry_group_IT_number 13
_symmetry_cell_setting 'monoclinic'
loop_
_space_group_symop_operation_xyz
x,y,z
-x,y,1/2-z
-x,-y,-z
x,-y,1/2+z
loop_
_atom_site_type_symbol
_atom_site_label
_atom_site_fract_x
_atom_site_fract_y
_atom_site_fract_z
Si Si1 0.005717 0.493878 0.910664
Si Si2 0.224069 0.116267 0.879527
Si Si3 0.513117 0.212539 0.883313
Si Si4 0.639771 0.475999 0.562240
Si Si5 0.830425 0.196164 0.536501
Si Si6 0.889420 0.802131 0.414808
Si Si7 0.500000 0.065410 0.750000
O O1 0.833508 0.564795 0.735775
O O2 0.947617 0.329804 0.908802
O O3 0.152199 0.398000 0.984330
O O4 0.083920 0.682196 0.004653
O O5 0.341493 0.250050 0.932512
O O6 0.220845 0.227288 0.938182
O O7 0.024349 0.085640 0.692280
O O8 0.323945 0.915225 0.961633
O O9 0.322795 0.144785 0.757992
O O10 0.514759 0.204473 0.816092
O O11 0.560879 0.427035 0.941392
O O12 0.500000 0.500000 0.500000
O O13 0.677765 0.066623 0.383663
O O14 0.000000 0.000000 0.500000
#
# Coordination Sequence:
#
# PCOD8121236 Si02
#       7
#     4   4   4   4   4   4   2
#     4  10  23  42  63  90 133 170 214 269 317 388
#     4   9  22  41  67  91 126 163 212 267 321 382
#     4  11  24  40  64  94 126 171 211 262 327 378
#     4  11  23  41  63  95 127 166 222 261 312 388
#     4   9  19  43  65  92 125 167 207 267 327 375
#     4  11  24  39  61  93 129 173 214 263 324 383
#     4  10  22  40  68  98 128 164 218 268 320 398
#
# _framework density 21.727074000000002
#
# number of rings (size 3 to 8) (size 9 to 14) (size 15 to 20)
#    0.000    1.846    1.538    0.923    2.154    8.000 
#    0.000   11.538    0.000    0.000    0.000    0.000 
#    0.000    0.000    0.000    0.000    0.000    0.000 
#
# Total GULP energy -322353.907411 kJ/mol
# GULP energy per Si atom -12398.227208 kJ/mol
# Density = 2.167762 g / cm^3
# Si number density = 21.727074 Si / 1000 Ang^3
#
#
#
# Elastic Constant Matrix: (Units=GPa)
#
#
# Indices 1 2 3 4 5 6 
#
# 1 72.5882 33.7845 32.1920 0.0000 6.1304 0.0000
# 2 33.7845 80.2193 49.1864 0.0000 1.4971 0.0000
# 3 32.1920 49.1864 121.7966 0.0000 -0.0651 0.0000
# 4 0.0000 0.0000 0.0000 30.7580 0.0000 -4.6762
# 5 6.1304 1.4971 -0.0651 0.0000 36.8035 0.0000
# 6 0.0000 0.0000 0.0000 -4.6762 0.0000 39.7353
#
#
#
# Elastic Compliance Matrix: (Units=1/GPa)
#
#
# Indices 1 2 3 4 5 6 
#
# 1 0.017837 -0.006074 -0.002263 0.000000 -0.002728 0.000000
# 2 -0.006074 0.018654 -0.005928 0.000000 0.000242 0.000000
# 3 -0.002263 -0.005928 0.011203 0.000000 0.000638 0.000000
# 4 0.000000 0.000000 0.000000 0.033104 0.000000 0.003896
# 5 -0.002728 0.000242 0.000638 0.000000 0.027617 0.000000
# 6 0.000000 0.000000 0.000000 0.003896 0.000000 0.025625
#
#
# Mechanical properties :
#
#
# Convention : Reuss Voigt Hill
#
# Bulk Modulus (GPa) = 52.17912 56.10331 54.14121
# Shear Modulus (GPa) = 29.59326 32.08879 30.84103
#
# Velocity S-wave (km/s) = 3.69459 3.84722 3.77168
# Velocity P-wave (km/s) = 6.50138 6.75372 6.62875
#
# Compressibility (1/GPa) = 0.01916475
#
# Stress axis : x y z
#
# Youngs Moduli (GPa) = 56.06233 53.60841 89.26335
#
# Poissons Ratio (x) = 0.32560 0.20203
# Poissons Ratio (y) = 0.34050 0.52913
# Poissons Ratio (z) = 0.12688 0.31778
#
# Static dielectric constant tensor:
#      x y z
#    x 4.026380 0.000000 -0.044100 
#    y 0.000000 3.586100 0.000000 
#    z -0.044100 0.000000 4.183310 
# 
# 
# High freq. dielectric constant tensor:
#      x y z
#    x 1.862910 0.000000 -0.001930 
#    y 0.000000 1.831640 0.000000 
#    z -0.001930 0.000000 1.868540 
# 
# From -- ./inp_files/93764.got.cif
#   From: 2010.06.25/outbox.cif.g09.slc.cpg/sg13_47_cif.got.tgz:93764.got - 2010.06.28 04:50:58.
