data_PCOD8121087
_publ_section_title
;
Structure prediction by ZEFSAII (Michael W. Deem and Ramdas Pophale) SiO2 
 PCOD8121087
Probable space group: P 2/C
;
_chemical_formula_sum "Si O2"
_cell_formula_units_Z 32
_cell_length_a 8.843805
_cell_length_b 6.628608
_cell_length_c 27.767534
_cell_angle_alpha 90.000000
_cell_angle_beta 96.231847
_cell_angle_gamma 90.000000
_cell_volume 1618.172637
_symmetry_space_group_name_H-M "P 2/C"
_symmetry_group_IT_number 13
_symmetry_cell_setting 'monoclinic'
loop_
_space_group_symop_operation_xyz
x,y,z
-x,y,1/2-z
-x,-y,-z
x,-y,1/2+z
loop_
_atom_site_type_symbol
_atom_site_label
_atom_site_fract_x
_atom_site_fract_y
_atom_site_fract_z
Si Si1 0.619286 0.314189 0.291587
Si Si2 0.170446 0.989328 0.060298
Si Si3 0.293851 0.089743 0.662806
Si Si4 0.179846 0.642125 0.245076
Si Si5 0.074788 0.693249 0.977701
Si Si6 0.580907 0.648665 0.165027
Si Si7 0.575238 0.802593 0.981381
Si Si8 0.333143 0.490558 0.936188
O O1 0.500000 0.214647 0.250000
O O2 0.759788 0.424659 0.269904
O O3 0.521670 0.466416 0.320098
O O4 0.695086 0.146782 0.326915
O O5 0.182916 0.885607 0.113020
O O6 0.315454 0.130035 0.057538
O O7 0.171324 0.806333 0.022202
O O8 0.028517 0.138423 0.050881
O O9 0.211975 0.196561 0.704527
O O10 0.464748 0.164644 0.657041
O O11 0.279366 0.706356 0.295049
O O12 0.000000 0.633323 0.250000
O O13 0.177807 0.613658 0.937561
O O14 0.000000 0.500000 0.000000
O O15 0.655612 0.594829 0.116857
O O16 0.467988 0.641950 0.952624
O O17 0.668993 0.698476 0.027633
O O18 0.500000 0.000000 0.000000
#
# Coordination Sequence:
#
# PCOD8121087 Si02
#       8
#     4   4   4   4   4   4   4   4
#     4   9  19  39  64  87 118 158 204 254 303 369
#     4  11  24  40  62  90 124 165 213 261 312 385
#     4  11  22  40  66  91 120 164 207 259 317 368
#     4  10  23  42  61  92 130 159 205 258 312 380
#     4  11  24  43  58  85 129 167 206 258 319 377
#     4  10  22  39  62  93 121 162 212 258 313 375
#     4  11  21  38  60  92 126 156 216 269 302 371
#     4  11  23  37  64  90 124 170 205 260 325 368
#
# _framework density 19.775393000000001
#
# number of rings (size 3 to 8) (size 9 to 14) (size 15 to 20)
#    0.000    1.500    2.500    3.375    1.750    4.500 
#    0.000    1.250    0.000    0.000    0.000    0.000 
#    0.000    0.000    0.000    0.000    0.000    0.000 
#
# Total GULP energy -396760.771789 kJ/mol
# GULP energy per Si atom -12398.774118 kJ/mol
# Density = 1.973038 g / cm^3
# Si number density = 19.775393 Si / 1000 Ang^3
#
#
#
# Elastic Constant Matrix: (Units=GPa)
#
#
# Indices 1 2 3 4 5 6 
#
# 1 121.2416 37.3980 58.8634 0.0000 -7.6467 0.0000
# 2 37.3980 88.9430 41.7101 0.0000 4.1755 0.0000
# 3 58.8634 41.7101 146.0806 0.0000 1.0688 0.0000
# 4 0.0000 0.0000 0.0000 28.7245 0.0000 -1.4745
# 5 -7.6467 4.1755 1.0688 0.0000 32.0631 0.0000
# 6 0.0000 0.0000 0.0000 -1.4745 0.0000 24.6194
#
#
#
# Elastic Compliance Matrix: (Units=1/GPa)
#
#
# Indices 1 2 3 4 5 6 
#
# 1 0.011184 -0.003150 -0.003631 0.000000 0.003199 0.000000
# 2 -0.003150 0.013948 -0.002695 0.000000 -0.002478 0.000000
# 3 -0.003631 -0.002695 0.009084 0.000000 -0.000818 0.000000
# 4 0.000000 0.000000 0.000000 0.034921 0.000000 0.002091
# 5 0.003199 -0.002478 -0.000818 0.000000 0.032301 0.000000
# 6 0.000000 0.000000 0.000000 0.002091 0.000000 0.040744
#
#
# Mechanical properties :
#
#
# Convention : Reuss Voigt Hill
#
# Bulk Modulus (GPa) = 65.51194 70.24535 67.87864
# Shear Modulus (GPa) = 30.08037 31.63432 30.85734
#
# Velocity S-wave (km/s) = 3.90436 4.00394 3.95446
# Velocity P-wave (km/s) = 7.31610 7.54812 7.43301
#
# Compressibility (1/GPa) = 0.01526439
#
# Stress axis : x y z
#
# Youngs Moduli (GPa) = 89.41273 71.69547 110.08402
#
# Poissons Ratio (x) = 0.22585 0.39967
# Poissons Ratio (y) = 0.28167 0.29668
# Poissons Ratio (z) = 0.32462 0.19322
#
# Static dielectric constant tensor:
#      x y z
#    x 3.807190 0.000000 0.151300 
#    y 0.000000 3.777780 0.000000 
#    z 0.151300 0.000000 3.715170 
# 
# 
# High freq. dielectric constant tensor:
#      x y z
#    x 1.768830 0.000000 -0.001100 
#    y 0.000000 1.781500 0.000000 
#    z -0.001100 0.000000 1.773230 
# 
# From -- ./inp_files/95664.got.cif
#   From: 2010.06.25/outbox.cif.g09.slc.cpg/sg13_48_cif.got.tgz:95664.got - 2010.06.28 04:50:58.
