data_PCOD8121568
_publ_section_title
;
Structure prediction by ZEFSAII (Michael W. Deem and Ramdas Pophale) SiO2 
 PCOD8121568
Probable space group: P 2/C
;
_chemical_formula_sum "Si O2"
_cell_formula_units_Z 28
_cell_length_a 6.820151
_cell_length_b 6.717637
_cell_length_c 30.677849
_cell_angle_alpha 90.000000
_cell_angle_beta 103.220568
_cell_angle_gamma 90.000000
_cell_volume 1368.264269
_symmetry_space_group_name_H-M "P 2/C"
_symmetry_group_IT_number 13
_symmetry_cell_setting 'monoclinic'
loop_
_space_group_symop_operation_xyz
x,y,z
-x,y,1/2-z
-x,-y,-z
x,-y,1/2+z
loop_
_atom_site_type_symbol
_atom_site_label
_atom_site_fract_x
_atom_site_fract_y
_atom_site_fract_z
Si Si1 0.700533 0.557732 0.806410
Si Si2 0.500000 0.783419 0.250000
Si Si3 0.310314 0.652498 0.443253
Si Si4 0.368937 0.895724 0.803125
Si Si5 0.000000 0.690856 0.750000
Si Si6 0.560750 0.951530 0.399390
Si Si7 0.645955 0.342854 0.454933
Si Si8 0.858864 0.393341 0.900373
O O1 0.593187 0.348125 0.793109
O O2 0.542193 0.739069 0.797120
O O3 0.800922 0.545154 0.858748
O O4 0.860425 0.566147 0.775354
O O5 0.654270 0.926349 0.232720
O O6 0.430714 0.830252 0.427297
O O7 0.423159 0.441153 0.442522
O O8 0.285203 0.704110 0.492689
O O9 0.095376 0.642400 0.409339
O O10 0.144636 0.807740 0.790889
O O11 0.416354 0.977068 0.853306
O O12 0.743504 0.817320 0.390319
O O13 0.653415 0.140677 0.428307
O O14 0.804167 0.499114 0.442849
#
# Coordination Sequence:
#
# PCOD8121568 Si02
#       8
#     4   2   4   4   2   4   4   4
#     4  12  25  44  64  96 130 164 214 268 321 380
#     4  12  22  46  68  84 134 166 200 274 318 376
#     4  10  24  41  64 103 127 170 224 258 321 387
#     4  12  25  45  64  98 130 166 215 266 326 379
#     4  12  26  42  70  94 124 174 212 260 330 382
#     4  11  24  40  68  93 131 171 211 273 315 376
#     4  10  22  44  65  92 141 170 206 276 322 371
#     4  11  24  40  68  95 126 175 217 262 322 385
#
# _framework density 20.463884
#
# number of rings (size 3 to 8) (size 9 to 14) (size 15 to 20)
#    0.000    0.857    5.714    0.857    2.000    5.714 
#    0.000    0.000    0.000    0.000    0.000    0.000 
#    0.000    0.000    0.000    0.000    0.000    0.000 
#
# Total GULP energy -347205.404848 kJ/mol
# GULP energy per Si atom -12400.193030 kJ/mol
# Density = 2.041731 g / cm^3
# Si number density = 20.463884 Si / 1000 Ang^3
#
#
#
# Elastic Constant Matrix: (Units=GPa)
#
#
# Indices 1 2 3 4 5 6 
#
# 1 77.6377 18.1529 6.3101 0.0000 13.5188 0.0000
# 2 18.1529 97.5320 27.6521 0.0000 5.0009 0.0000
# 3 6.3101 27.6521 89.3808 0.0000 3.2211 0.0000
# 4 0.0000 0.0000 0.0000 43.9766 0.0000 -3.2682
# 5 13.5188 5.0009 3.2211 0.0000 33.1562 0.0000
# 6 0.0000 0.0000 0.0000 -3.2682 0.0000 10.9125
#
#
#
# Elastic Compliance Matrix: (Units=1/GPa)
#
#
# Indices 1 2 3 4 5 6 
#
# 1 0.014401 -0.002374 -0.000084 0.000000 -0.005505 0.000000
# 2 -0.002374 0.011692 -0.003433 0.000000 -0.000462 0.000000
# 3 -0.000084 -0.003433 0.012279 0.000000 -0.000641 0.000000
# 4 0.000000 0.000000 0.000000 0.023257 0.000000 0.006965
# 5 -0.005505 -0.000462 -0.000641 0.000000 0.032537 0.000000
# 6 0.000000 0.000000 0.000000 0.006965 0.000000 0.093724
#
#
# Mechanical properties :
#
#
# Convention : Reuss Voigt Hill
#
# Bulk Modulus (GPa) = 37.60794 40.97564 39.29179
# Shear Modulus (GPa) = 23.97675 31.77141 27.87408
#
# Velocity S-wave (km/s) = 3.42667 3.94453 3.69468
# Velocity P-wave (km/s) = 5.83727 6.38847 6.11908
#
# Compressibility (1/GPa) = 0.02659013
#
# Stress axis : x y z
#
# Youngs Moduli (GPa) = 69.43985 85.52907 81.43888
#
# Poissons Ratio (x) = 0.20307 0.00682
# Poissons Ratio (y) = 0.16487 0.27957
# Poissons Ratio (z) = 0.00581 0.29361
#
# Static dielectric constant tensor:
#      x y z
#    x 3.557460 0.000000 -0.019850 
#    y 0.000000 3.751860 0.000000 
#    z -0.019850 0.000000 3.859060 
# 
# 
# High freq. dielectric constant tensor:
#      x y z
#    x 1.790360 0.000000 -0.003200 
#    y 0.000000 1.806180 0.000000 
#    z -0.003200 0.000000 1.818360 
# 
# From -- ./inp_files/90895.got.cif
#   From: 2010.06.25/outbox.cif.g09.slc.cpg/sg13_46_cif.got.tgz:90895.got - 2010.06.28 04:50:58.
