data_PCOD8121608
_publ_section_title
;
Structure prediction by ZEFSAII (Michael W. Deem and Ramdas Pophale) SiO2 
 PCOD8121608
Probable space group: P 2/C
;
_chemical_formula_sum "Si O2"
_cell_formula_units_Z 26
_cell_length_a 19.352572
_cell_length_b 8.979460
_cell_length_c 13.403773
_cell_angle_alpha 90.000000
_cell_angle_beta 150.165319
_cell_angle_gamma 90.000000
_cell_volume 1158.799499
_symmetry_space_group_name_H-M "P 2/C"
_symmetry_group_IT_number 13
_symmetry_cell_setting 'monoclinic'
loop_
_space_group_symop_operation_xyz
x,y,z
-x,y,1/2-z
-x,-y,-z
x,-y,1/2+z
loop_
_atom_site_type_symbol
_atom_site_label
_atom_site_fract_x
_atom_site_fract_y
_atom_site_fract_z
Si Si1 0.295742 0.406523 0.136456
Si Si2 0.000000 0.018417 0.750000
Si Si3 0.000000 0.471741 0.250000
Si Si4 0.095821 0.762533 0.730238
Si Si5 0.814032 0.817047 0.862233
Si Si6 0.437870 0.024737 0.527801
Si Si7 0.500000 0.233198 0.250000
Si Si8 0.392824 0.307123 0.688405
O O1 0.295498 0.310864 0.238277
O O2 0.377583 0.329184 0.147827
O O3 0.359726 0.573215 0.235344
O O4 0.132565 0.422128 0.905536
O O5 0.883898 0.118640 0.549928
O O6 0.934594 0.921030 0.756721
O O7 0.990914 0.362858 0.141758
O O8 0.075932 0.762698 0.584370
O O9 0.253239 0.721857 0.952861
O O10 0.723286 0.934391 0.686256
O O11 0.537883 0.150885 0.697826
O O12 0.500000 0.000000 0.500000
O O13 0.432893 0.872805 0.582927
O O14 0.500000 0.392105 0.750000
#
# Coordination Sequence:
#
# PCOD8121608 Si02
#       8
#     4   2   2   4   4   4   2   4
#     4  11  25  44  68 106 141 188 229 300 344 423
#     4  11  25  44  68 100 142 184 234 300 344 424
#     4   9  23  48  70  94 146 184 236 286 352 424
#     4  10  22  44  71  98 133 194 233 280 360 425
#     4  12  24  41  69 103 141 178 246 287 357 417
#     4  12  24  42  68 105 141 183 231 297 350 429
#     4  12  24  44  72 104 146 174 240 294 356 414
#     4  11  21  44  71  95 144 183 228 285 354 416
#
# _framework density 22.437014000000001
#
# number of rings (size 3 to 8) (size 9 to 14) (size 15 to 20)
#    0.000    0.923    4.615    1.846    2.154    1.231 
#    8.308    0.000    0.000    0.000    0.000    0.000 
#    0.000    0.000    0.000    0.000    0.000    0.000 
#
# Total GULP energy -322164.256852 kJ/mol
# GULP energy per Si atom -12390.932956 kJ/mol
# Density = 2.238595 g / cm^3
# Si number density = 22.437014 Si / 1000 Ang^3
#
#
#
# Elastic Constant Matrix: (Units=GPa)
#
#
# Indices 1 2 3 4 5 6 
#
# 1 168.6235 56.4588 19.6309 0.0000 4.8537 0.0000
# 2 56.4588 105.5150 34.8151 0.0000 9.2176 0.0000
# 3 19.6309 34.8151 75.5083 0.0000 11.0879 0.0000
# 4 0.0000 0.0000 0.0000 2.1031 0.0000 -10.2966
# 5 4.8537 9.2176 11.0879 0.0000 36.3819 0.0000
# 6 0.0000 0.0000 0.0000 -10.2966 0.0000 24.2714
#
#
#
# Elastic Compliance Matrix: (Units=1/GPa)
#
#
# Indices 1 2 3 4 5 6 
#
# 1 0.007226 -0.003831 -0.000118 0.000000 0.000043 0.000000
# 2 -0.003831 0.013270 -0.004924 0.000000 -0.001350 0.000000
# 3 -0.000118 -0.004924 0.016079 0.000000 -0.003637 0.000000
# 4 0.000000 0.000000 0.000000 -0.441489 0.000000 -0.187293
# 5 0.000043 -0.001350 -0.003637 0.000000 0.028931 0.000000
# 6 0.000000 0.000000 0.000000 -0.187293 0.000000 -0.038254
#
#
# Mechanical properties :
#
#
# Convention : Reuss Voigt Hill
#
# Bulk Modulus (GPa) = 53.11463 63.49517 58.30490
# Shear Modulus (GPa) = -12.81344 28.46740 7.82698
#
# Velocity S-wave (km/s) = -2.39233 3.56584 1.86976
# Velocity P-wave (km/s) = 4.01163 6.73160 5.54110
#
# Compressibility (1/GPa) = 0.01882720
#
# Stress axis : x y z
#
# Youngs Moduli (GPa) = 138.39673 75.35870 62.19350
#
# Poissons Ratio (x) = 0.28869 0.00737
# Poissons Ratio (y) = 0.53019 0.30625
# Poissons Ratio (z) = 0.01640 0.37108
#
# Static dielectric constant tensor:
#      x y z
#    x 4.453860 0.000000 0.176380 
#    y 0.000000 4.643250 0.000000 
#    z 0.176380 0.000000 3.708980 
# 
# 
# High freq. dielectric constant tensor:
#      x y z
#    x 1.903600 0.000000 0.017500 
#    y 0.000000 1.897900 0.000000 
#    z 0.017500 0.000000 1.858290 
# 
# From -- ./inp_files/57234.got.cif
#   From: 2010.06.25/outbox.cif.g09.slc.cpg/sg13_29_cif.got.tgz:57234.got - 2010.06.28 04:50:58.
