data_PCOD8121080
_publ_section_title
;
Structure prediction by ZEFSAII (Michael W. Deem and Ramdas Pophale) SiO2 
 PCOD8121080
Probable space group: P 2/C
;
_chemical_formula_sum "Si O2"
_cell_formula_units_Z 28
_cell_length_a 29.299579
_cell_length_b 8.265716
_cell_length_c 9.653820
_cell_angle_alpha 90.000000
_cell_angle_beta 35.836730
_cell_angle_gamma 90.000000
_cell_volume 1368.835508
_symmetry_space_group_name_H-M "P 2/C"
_symmetry_group_IT_number 13
_symmetry_cell_setting 'monoclinic'
loop_
_space_group_symop_operation_xyz
x,y,z
-x,y,1/2-z
-x,-y,-z
x,-y,1/2+z
loop_
_atom_site_type_symbol
_atom_site_label
_atom_site_fract_x
_atom_site_fract_y
_atom_site_fract_z
Si Si1 0.841335 0.697834 0.394627
Si Si2 0.260858 0.195374 0.590808
Si Si3 0.996246 0.663091 0.595110
Si Si4 0.410719 0.159566 0.815251
Si Si5 0.246340 0.819663 0.639721
Si Si6 0.172258 0.678186 0.557869
Si Si7 0.578314 0.160017 0.391102
O O1 0.780719 0.797437 0.454141
O O2 0.821147 0.736549 0.602939
O O3 0.833805 0.507342 0.379938
O O4 0.928111 0.763467 0.142027
O O5 0.349429 0.261150 0.350566
O O6 0.254836 0.009240 0.654512
O O7 0.220178 0.315469 0.797795
O O8 0.000000 0.628725 0.750000
O O9 0.000000 0.500000 0.500000
O O10 0.914672 0.750906 0.756480
O O11 0.494406 0.253303 0.587009
O O12 0.421522 0.002962 0.696010
O O13 0.333083 0.256667 0.955751
O O14 0.402461 0.114493 0.997059
O O15 0.219547 0.787222 0.549602
#
# Coordination Sequence:
#
# PCOD8121080 Si02
#       7
#     4   4   4   4   4   4   4
#     4  11  22  41  63  84 119 154 200 242 290 356
#     4  11  21  39  60  90 120 152 192 251 297 346
#     4  10  22  39  62  86 115 156 205 244 280 352
#     4   9  18  33  54  85 116 154 199 238 288 347
#     4  11  23  37  60  92 118 156 191 248 299 344
#     4  11  24  39  62  85 118 155 203 239 291 355
#     4   9  18  32  56  83 117 155 195 243 285 346
#
# _framework density 20.455342000000002
#
# number of rings (size 3 to 8) (size 9 to 14) (size 15 to 20)
#    0.000    1.714    2.857    1.714   12.000    0.000 
#    0.000    4.286    0.000    5.143    0.000    0.000 
#    0.000    0.000    0.000    0.000    0.000    0.000 
#
# Total GULP energy -346899.912319 kJ/mol
# GULP energy per Si atom -12389.282583 kJ/mol
# Density = 2.040878 g / cm^3
# Si number density = 20.455342 Si / 1000 Ang^3
#
#
#
# Elastic Constant Matrix: (Units=GPa)
#
#
# Indices 1 2 3 4 5 6 
#
# 1 124.3636 13.0592 62.6066 0.0000 -23.4096 0.0000
# 2 13.0592 28.5702 20.9707 0.0000 -6.1804 0.0000
# 3 62.6066 20.9707 172.7821 0.0000 -36.1216 0.0000
# 4 0.0000 0.0000 0.0000 23.0642 0.0000 11.2171
# 5 -23.4096 -6.1804 -36.1216 0.0000 46.3681 0.0000
# 6 0.0000 0.0000 0.0000 11.2171 0.0000 14.0212
#
#
#
# Elastic Compliance Matrix: (Units=1/GPa)
#
#
# Indices 1 2 3 4 5 6 
#
# 1 0.010206 -0.001960 -0.002912 0.000000 0.002623 0.000000
# 2 -0.001960 0.038924 -0.003746 0.000000 0.001280 0.000000
# 3 -0.002912 -0.003746 0.008225 0.000000 0.004438 0.000000
# 4 0.000000 0.000000 0.000000 0.070970 0.000000 -0.056777
# 5 0.002623 0.001280 0.004438 0.000000 0.026519 0.000000
# 6 0.000000 0.000000 0.000000 -0.056777 0.000000 0.116743
#
#
# Mechanical properties :
#
#
# Convention : Reuss Voigt Hill
#
# Bulk Modulus (GPa) = 24.92602 57.66542 41.29572
# Shear Modulus (GPa) = 16.54542 31.96267 24.25404
#
# Velocity S-wave (km/s) = 2.84712 3.95721 3.44715
# Velocity P-wave (km/s) = 4.79794 7.00938 6.00631
#
# Compressibility (1/GPa) = 0.04011873
#
# Stress axis : x y z
#
# Youngs Moduli (GPa) = 97.97705 25.69083 121.57630
#
# Poissons Ratio (x) = 0.05037 0.35402
# Poissons Ratio (y) = 0.19208 0.45546
# Poissons Ratio (z) = 0.28530 0.09625
#
# Static dielectric constant tensor:
#      x y z
#    x 4.155210 0.000000 -0.647310 
#    y 0.000000 3.123400 0.000000 
#    z -0.647310 0.000000 4.689700 
# 
# 
# High freq. dielectric constant tensor:
#      x y z
#    x 1.819000 0.000000 -0.009310 
#    y 0.000000 1.731290 0.000000 
#    z -0.009310 0.000000 1.832930 
# 
# From -- ./inp_files/24546.got.cif
#   From: 2010.06.25/outbox.cif.g09.slc.cpg/sg13_13_cif.got.tgz:24546.got - 2010.06.28 04:50:58.
