data_PCOD8121620
_publ_section_title
;
Structure prediction by ZEFSAII (Michael W. Deem and Ramdas Pophale) SiO2 
 PCOD8121620
Probable space group: P 2/C
;
_chemical_formula_sum "Si O2"
_cell_formula_units_Z 30
_cell_length_a 14.112105
_cell_length_b 12.219030
_cell_length_c 8.457117
_cell_angle_alpha 90.000000
_cell_angle_beta 106.157689
_cell_angle_gamma 90.000000
_cell_volume 1400.709226
_symmetry_space_group_name_H-M "P 2/C"
_symmetry_group_IT_number 13
_symmetry_cell_setting 'monoclinic'
loop_
_space_group_symop_operation_xyz
x,y,z
-x,y,1/2-z
-x,-y,-z
x,-y,1/2+z
loop_
_atom_site_type_symbol
_atom_site_label
_atom_site_fract_x
_atom_site_fract_y
_atom_site_fract_z
Si Si1 0.899050 0.761915 0.299739
Si Si2 0.500000 0.309207 0.250000
Si Si3 0.239717 0.138602 0.209408
Si Si4 0.273184 0.917518 0.385938
Si Si5 0.706421 0.624998 0.781952
Si Si6 0.982382 0.884118 0.918550
Si Si7 0.431790 0.243290 0.876852
Si Si8 0.256361 0.597739 0.350250
O O1 0.829222 0.857830 0.201673
O O2 0.935966 0.795422 0.490714
O O3 0.838434 0.649038 0.282665
O O4 0.000000 0.752027 0.250000
O O5 0.408577 0.390385 0.232226
O O6 0.512697 0.241488 0.423982
O O7 0.278751 0.255551 0.290495
O O8 0.127833 0.157014 0.103050
O O9 0.258587 0.046872 0.350922
O O10 0.299817 0.101596 0.081904
O O11 0.365178 0.866667 0.331400
O O12 0.742019 0.531739 0.679337
O O13 0.764631 0.618329 0.974505
O O14 0.000000 0.907952 0.750000
O O15 0.000000 0.000000 0.000000
O O16 0.500000 0.248870 0.750000
O O17 0.357977 0.347426 0.838148
#
# Coordination Sequence:
#
# PCOD8121620 Si02
#       8
#     4   2   4   4   4   4   4   4
#     4  11  20  43  69  92 139 178 217 285 340 407
#     4  10  22  44  72  96 140 180 230 300 348 414
#     4  12  23  44  64  98 140 174 224 286 340 421
#     4  11  23  42  67  99 138 179 223 284 357 404
#     4  11  24  44  67  97 136 178 229 286 352 408
#     4  12  23  36  63  98 127 175 229 272 339 415
#     4  10  23  45  70 106 135 183 242 286 359 427
#     4  10  24  43  69 100 135 176 228 291 346 405
#
# _framework density 21.417722999999999
#
# number of rings (size 3 to 8) (size 9 to 14) (size 15 to 20)
#    0.000    1.067    6.667    1.200    2.800    3.200 
#    1.200    4.667    0.000    0.000    0.000    0.000 
#    0.000    0.000    0.000    0.000    0.000    0.000 
#
# Total GULP energy -371789.428949 kJ/mol
# GULP energy per Si atom -12392.980965 kJ/mol
# Density = 2.136898 g / cm^3
# Si number density = 21.417723 Si / 1000 Ang^3
#
#
#
# Elastic Constant Matrix: (Units=GPa)
#
#
# Indices 1 2 3 4 5 6 
#
# 1 100.6365 43.2575 36.3135 0.0000 -1.6714 0.0000
# 2 43.2575 169.9953 39.6503 0.0000 4.4462 0.0000
# 3 36.3135 39.6503 101.5867 0.0000 -2.6639 0.0000
# 4 0.0000 0.0000 0.0000 30.9111 0.0000 -1.2730
# 5 -1.6714 4.4462 -2.6639 0.0000 31.1897 0.0000
# 6 0.0000 0.0000 0.0000 -1.2730 0.0000 27.3339
#
#
#
# Elastic Compliance Matrix: (Units=1/GPa)
#
#
# Indices 1 2 3 4 5 6 
#
# 1 0.012183 -0.002318 -0.003432 0.000000 0.000690 0.000000
# 2 -0.002318 0.006953 -0.001919 0.000000 -0.001279 0.000000
# 3 -0.003432 -0.001919 0.011849 0.000000 0.001102 0.000000
# 4 0.000000 0.000000 0.000000 0.032413 0.000000 0.001509
# 5 0.000690 -0.001279 0.001102 0.000000 0.032375 0.000000
# 6 0.000000 0.000000 0.000000 0.001509 0.000000 0.036655
#
#
# Mechanical properties :
#
#
# Convention : Reuss Voigt Hill
#
# Bulk Modulus (GPa) = 63.90982 67.85124 65.88053
# Shear Modulus (GPa) = 32.68367 34.75341 33.71854
#
# Velocity S-wave (km/s) = 3.91066 4.03258 3.97209
# Velocity P-wave (km/s) = 7.09193 7.30965 7.20161
#
# Compressibility (1/GPa) = 0.01564705
#
# Stress axis : x y z
#
# Youngs Moduli (GPa) = 82.08224 143.81614 84.39791
#
# Poissons Ratio (x) = 0.33331 0.28968
# Poissons Ratio (y) = 0.19023 0.16196
# Poissons Ratio (z) = 0.28173 0.27599
#
# Static dielectric constant tensor:
#      x y z
#    x 4.183720 0.000000 0.392700 
#    y 0.000000 3.790380 0.000000 
#    z 0.392700 0.000000 2.962610 
# 
# 
# High freq. dielectric constant tensor:
#      x y z
#    x 1.842900 0.000000 0.004750 
#    y 0.000000 1.824120 0.000000 
#    z 0.004750 0.000000 1.841950 
# 
# From -- ./inp_files/19061.got.cif
#   From: 2010.06.25/outbox.cif.g09.slc.cpg/sg13_10_cif.got.tgz:19061.got - 2010.06.28 04:50:58.
