data_PCOD8121907
_publ_section_title
;
Structure prediction by ZEFSAII (Michael W. Deem and Ramdas Pophale) SiO2 
 PCOD8121907
Probable space group: P 2/C
;
_chemical_formula_sum "Si O2"
_cell_formula_units_Z 16
_cell_length_a 6.671641
_cell_length_b 9.430693
_cell_length_c 11.713987
_cell_angle_alpha 90.000000
_cell_angle_beta 104.728469
_cell_angle_gamma 90.000000
_cell_volume 712.805520
_symmetry_space_group_name_H-M "P 2/C"
_symmetry_group_IT_number 13
_symmetry_cell_setting 'monoclinic'
loop_
_space_group_symop_operation_xyz
x,y,z
-x,y,1/2-z
-x,-y,-z
x,-y,1/2+z
loop_
_atom_site_type_symbol
_atom_site_label
_atom_site_fract_x
_atom_site_fract_y
_atom_site_fract_z
Si Si1 0.595292 0.533733 0.133703
Si Si2 0.500000 0.014913 0.250000
Si Si3 0.285860 0.773759 0.100586
Si Si4 0.230251 0.247361 0.323989
Si Si5 0.000000 0.693419 0.250000
O O1 0.415750 0.634416 0.162844
O O2 0.629647 0.380536 0.198011
O O3 0.820591 0.605722 0.159936
O O4 0.500000 0.500000 0.000000
O O5 0.419479 0.916276 0.135119
O O6 0.317335 0.107131 0.277752
O O7 0.092473 0.787080 0.159743
O O8 0.221553 0.764504 0.960111
O O9 0.000000 0.274131 0.250000
#
# Coordination Sequence:
#
# PCOD8121907 Si02
#       5
#     4   2   4   4   2
#     4  10  23  44  72 102 136 176 237 291 346 407
#     4  12  26  44  72  98 148 182 234 290 342 418
#     4  11  26  48  71 103 139 189 233 286 352 414
#     4  11  27  45  71 106 139 182 234 290 350 414
#     4  12  22  44  78  96 140 182 238 282 358 412
#
# _framework density 22.446515000000002
#
# number of rings (size 3 to 8) (size 9 to 14) (size 15 to 20)
#    0.000    1.000    3.750    0.750    5.250    9.000 
#    0.000    0.000    0.000    0.000    0.000    0.000 
#    0.000    0.000    0.000    0.000    0.000    0.000 
#
# Total GULP energy -198237.818275 kJ/mol
# GULP energy per Si atom -12389.863642 kJ/mol
# Density = 2.239543 g / cm^3
# Si number density = 22.446515 Si / 1000 Ang^3
#
#
#
# Elastic Constant Matrix: (Units=GPa)
#
#
# Indices 1 2 3 4 5 6 
#
# 1 124.5392 47.5218 56.2214 0.0000 0.0957 0.0000
# 2 47.5218 145.2656 37.6756 0.0000 0.7694 0.0000
# 3 56.2214 37.6756 148.8884 0.0000 13.3461 0.0000
# 4 0.0000 0.0000 0.0000 30.9515 0.0000 9.6445
# 5 0.0957 0.7694 13.3461 0.0000 44.1699 0.0000
# 6 0.0000 0.0000 0.0000 9.6445 0.0000 59.7730
#
#
#
# Elastic Compliance Matrix: (Units=1/GPa)
#
#
# Indices 1 2 3 4 5 6 
#
# 1 0.010558 -0.002570 -0.003432 0.000000 0.001059 0.000000
# 2 -0.002570 0.008001 -0.001071 0.000000 0.000190 0.000000
# 3 -0.003432 -0.001071 0.008512 0.000000 -0.002546 0.000000
# 4 0.000000 0.000000 0.000000 0.034019 0.000000 -0.005489
# 5 0.001059 0.000190 -0.002546 0.000000 0.023403 0.000000
# 6 0.000000 0.000000 0.000000 -0.005489 0.000000 0.017616
#
#
# Mechanical properties :
#
#
# Convention : Reuss Voigt Hill
#
# Bulk Modulus (GPa) = 77.36318 77.94786 77.65552
# Shear Modulus (GPa) = 41.47186 45.46385 43.46785
#
# Velocity S-wave (km/s) = 4.30302 4.50536 4.40535
# Velocity P-wave (km/s) = 7.69600 7.86548 7.78120
#
# Compressibility (1/GPa) = 0.01292605
#
# Stress axis : x y z
#
# Youngs Moduli (GPa) = 94.71061 124.97730 117.48730
#
# Poissons Ratio (x) = 0.32115 0.40317
# Poissons Ratio (y) = 0.24337 0.12588
# Poissons Ratio (z) = 0.32501 0.13390
#
# Static dielectric constant tensor:
#      x y z
#    x 4.352010 0.000000 -0.091650 
#    y 0.000000 4.530590 0.000000 
#    z -0.091650 0.000000 4.367100 
# 
# 
# High freq. dielectric constant tensor:
#      x y z
#    x 1.886790 0.000000 0.005310 
#    y 0.000000 1.890190 0.000000 
#    z 0.005310 0.000000 1.908410 
# 
# From -- ./inp_files/43305.got.cif
#   From: 2010.06.25/outbox.cif.g09.slc.cpg/sg13_22_cif.got.tgz:43305.got - 2010.06.28 04:50:58.
