data_PCOD8121029
_publ_section_title
;
Structure prediction by ZEFSAII (Michael W. Deem and Ramdas Pophale) SiO2 
 PCOD8121029
Probable space group: P 2/C
;
_chemical_formula_sum "Si O2"
_cell_formula_units_Z 24
_cell_length_a 18.231813
_cell_length_b 5.596338
_cell_length_c 18.587936
_cell_angle_alpha 90.000000
_cell_angle_beta 29.684096
_cell_angle_gamma 90.000000
_cell_volume 939.206260
_symmetry_space_group_name_H-M "P 2/C"
_symmetry_group_IT_number 13
_symmetry_cell_setting 'monoclinic'
loop_
_space_group_symop_operation_xyz
x,y,z
-x,y,1/2-z
-x,-y,-z
x,-y,1/2+z
loop_
_atom_site_type_symbol
_atom_site_label
_atom_site_fract_x
_atom_site_fract_y
_atom_site_fract_z
Si Si1 0.356034 0.772041 0.824176
Si Si2 0.842352 0.492609 0.845352
Si Si3 0.795554 0.623280 0.113287
Si Si4 0.637128 0.006653 0.330590
Si Si5 0.108982 0.306894 0.342586
Si Si6 0.824047 0.006902 0.414067
O O1 0.500000 0.773712 0.750000
O O2 0.276092 0.509742 0.895441
O O3 0.399243 0.813739 0.704154
O O4 0.239433 0.981489 0.949665
O O5 0.854444 0.494674 0.748951
O O6 0.757410 0.243657 0.937114
O O7 0.000000 0.489510 0.750000
O O8 0.759554 0.743921 0.937666
O O9 0.871473 0.412569 0.094920
O O10 0.668950 0.750706 0.267659
O O11 0.939868 0.786368 0.970558
O O12 0.779562 0.082513 0.257020
O O13 0.500000 0.000000 0.500000
O O14 0.000000 0.006494 0.250000
#
# Coordination Sequence:
#
# PCOD8121029 Si02
#       6
#     4   4   4   4   4   4
#     4  11  27  45  69 105 140 194 242 308 376 447
#     4  10  22  38  67 106 142 180 239 306 378 433
#     4  10  23  46  71  99 142 184 255 298 374 441
#     4  11  27  45  69 104 147 195 241 298 376 452
#     4  10  23  42  72 105 137 193 241 312 366 442
#     4  10  23  41  68 104 141 184 241 307 370 441
#
# _framework density 25.553493
#
# number of rings (size 3 to 8) (size 9 to 14) (size 15 to 20)
#    0.000    1.667    0.000    2.500   11.667    4.667 
#    0.000    0.000    0.000    0.000    0.000    0.000 
#    0.000    0.000    0.000    0.000    0.000    0.000 
#
# Total GULP energy -297347.049625 kJ/mol
# GULP energy per Si atom -12389.460401 kJ/mol
# Density = 2.549533 g / cm^3
# Si number density = 25.553493 Si / 1000 Ang^3
#
#
#
# Elastic Constant Matrix: (Units=GPa)
#
#
# Indices 1 2 3 4 5 6 
#
# 1 92.5699 15.0667 32.5472 0.0000 -14.0904 0.0000
# 2 15.0667 127.3295 28.3171 0.0000 -11.5370 0.0000
# 3 32.5472 28.3171 163.3342 0.0000 -8.2688 0.0000
# 4 0.0000 0.0000 0.0000 34.6052 0.0000 -1.4616
# 5 -14.0904 -11.5370 -8.2688 0.0000 40.2046 0.0000
# 6 0.0000 0.0000 0.0000 -1.4616 0.0000 -35.3837
#
#
#
# Elastic Compliance Matrix: (Units=1/GPa)
#
#
# Indices 1 2 3 4 5 6 
#
# 1 0.012215 -0.000638 -0.002138 0.000000 0.003658 0.000000
# 2 -0.000638 0.008377 -0.001227 0.000000 0.001928 0.000000
# 3 -0.002138 -0.001227 0.006776 0.000000 0.000292 0.000000
# 4 0.000000 0.000000 0.000000 0.028847 0.000000 -0.001192
# 5 0.003658 0.001928 0.000292 0.000000 0.026768 0.000000
# 6 0.000000 0.000000 0.000000 -0.001192 0.000000 -0.028212
#
#
# Mechanical properties :
#
#
# Convention : Reuss Voigt Hill
#
# Bulk Modulus (GPa) = 51.65339 59.45506 55.55422
# Shear Modulus (GPa) = 72.22070 28.37206 50.29638
#
# Velocity S-wave (km/s) = 5.32202 3.33573 4.44134
# Velocity P-wave (km/s) = 7.61728 6.17686 6.93457
#
# Compressibility (1/GPa) = 0.01935981
#
# Stress axis : x y z
#
# Youngs Moduli (GPa) = 81.86559 119.37707 147.57788
#
# Poissons Ratio (x) = 0.07621 0.31555
# Poissons Ratio (y) = 0.05227 0.18115
# Poissons Ratio (z) = 0.17505 0.14653
#
# Static dielectric constant tensor:
#      x y z
#    x 4.555960 0.000000 0.058640 
#    y 0.000000 5.386500 0.000000 
#    z 0.058640 0.000000 4.124200 
# 
# 
# High freq. dielectric constant tensor:
#      x y z
#    x 2.013610 0.000000 0.020450 
#    y 0.000000 2.024310 0.000000 
#    z 0.020450 0.000000 2.012990 
# 
# From -- ./inp_files/81218.got.cif
#   From: 2010.06.25/outbox.cif.g09.slc.cpg/sg13_41_cif.got.tgz:81218.got - 2010.06.28 04:50:58.
