data_PCOD8121835
_publ_section_title
;
Structure prediction by ZEFSAII (Michael W. Deem and Ramdas Pophale) SiO2 
 PCOD8121835
Probable space group: P 2/C
;
_chemical_formula_sum "Si O2"
_cell_formula_units_Z 24
_cell_length_a 8.652430
_cell_length_b 9.715991
_cell_length_c 30.262554
_cell_angle_alpha 90.000000
_cell_angle_beta 28.028588
_cell_angle_gamma 90.000000
_cell_volume 1195.493894
_symmetry_space_group_name_H-M "P 2/C"
_symmetry_group_IT_number 13
_symmetry_cell_setting 'monoclinic'
loop_
_space_group_symop_operation_xyz
x,y,z
-x,y,1/2-z
-x,-y,-z
x,-y,1/2+z
loop_
_atom_site_type_symbol
_atom_site_label
_atom_site_fract_x
_atom_site_fract_y
_atom_site_fract_z
Si Si1 0.802112 0.214110 0.845320
Si Si2 0.695100 0.022604 0.746122
Si Si3 0.782934 0.868144 0.061096
Si Si4 0.294238 0.484959 0.096333
Si Si5 0.675404 0.290978 0.252245
Si Si6 0.249082 0.622110 0.942573
O O1 0.420198 0.173857 0.932072
O O2 0.830524 0.365233 0.858364
O O3 0.000000 0.210179 0.750000
O O4 0.956450 0.104487 0.841403
O O5 0.500000 0.028656 0.750000
O O6 0.768686 0.865623 0.742297
O O7 0.471083 0.105489 0.836290
O O8 0.036500 0.751396 0.011297
O O9 0.000000 0.000000 0.000000
O O10 0.497673 0.413091 0.083309
O O11 0.989410 0.385344 0.165723
O O12 0.500000 0.500000 0.000000
O O13 0.500000 0.287292 0.250000
O O14 0.439379 0.353300 0.348915
O O15 0.000000 0.500000 0.000000
#
# Coordination Sequence:
#
# PCOD8121835 Si02
#       6
#     4   4   4   4   4   4
#     4  10  23  43  64  92 131 169 217 267 326 394
#     4  10  24  43  65  96 131 175 217 274 334 391
#     4  11  23  41  67  96 130 168 223 268 331 399
#     4  12  27  43  65  99 130 174 220 270 329 394
#     4  11  25  45  67  96 134 172 222 272 328 397
#     4  12  24  43  68  97 133 174 215 273 333 389
#
# _framework density 20.075384
#
# number of rings (size 3 to 8) (size 9 to 14) (size 15 to 20)
#    0.000    1.000    3.333    2.500    7.000    2.000 
#    0.000    1.667    0.000    0.000    0.000    0.000 
#    0.000    0.000    0.000    0.000    0.000    0.000 
#
# Total GULP energy -297601.071197 kJ/mol
# GULP energy per Si atom -12400.044633 kJ/mol
# Density = 2.002969 g / cm^3
# Si number density = 20.075384 Si / 1000 Ang^3
#
#
#
# Elastic Constant Matrix: (Units=GPa)
#
#
# Indices 1 2 3 4 5 6 
#
# 1 95.0897 56.4853 35.4711 0.0000 -4.3723 0.0000
# 2 56.4853 174.5699 61.8258 0.0000 -15.1837 0.0000
# 3 35.4711 61.8258 93.1585 0.0000 -5.2786 0.0000
# 4 0.0000 0.0000 0.0000 46.0358 0.0000 -12.3831
# 5 -4.3723 -15.1837 -5.2786 0.0000 34.3485 0.0000
# 6 0.0000 0.0000 0.0000 -12.3831 0.0000 41.8430
#
#
#
# Elastic Compliance Matrix: (Units=1/GPa)
#
#
# Indices 1 2 3 4 5 6 
#
# 1 0.013615 -0.003378 -0.002955 0.000000 -0.000214 0.000000
# 2 -0.003378 0.008558 -0.004241 0.000000 0.002701 0.000000
# 3 -0.002955 -0.004241 0.014674 0.000000 0.000004 0.000000
# 4 0.000000 0.000000 0.000000 0.023601 0.000000 0.006985
# 5 -0.000214 0.002701 0.000004 0.000000 0.030281 0.000000
# 6 0.000000 0.000000 0.000000 0.006985 0.000000 0.025966
#
#
# Mechanical properties :
#
#
# Convention : Reuss Voigt Hill
#
# Bulk Modulus (GPa) = 63.68801 74.48692 69.08747
# Shear Modulus (GPa) = 34.94689 38.38118 36.66404
#
# Velocity S-wave (km/s) = 4.17680 4.37722 4.27818
# Velocity P-wave (km/s) = 7.41985 7.92028 7.67414
#
# Compressibility (1/GPa) = 0.01570154
#
# Stress axis : x y z
#
# Youngs Moduli (GPa) = 73.44797 116.84908 68.14807
#
# Poissons Ratio (x) = 0.39467 0.20135
# Poissons Ratio (y) = 0.24808 0.28898
# Poissons Ratio (z) = 0.21701 0.49550
#
# Static dielectric constant tensor:
#      x y z
#    x 3.888130 0.000000 -0.431540 
#    y 0.000000 4.042480 0.000000 
#    z -0.431540 0.000000 3.624330 
# 
# 
# High freq. dielectric constant tensor:
#      x y z
#    x 1.793770 0.000000 -0.012340 
#    y 0.000000 1.807470 0.000000 
#    z -0.012340 0.000000 1.786350 
# 
# From -- ./inp_files/95897.got.cif
#   From: 2010.06.25/outbox.cif.g09.slc.cpg/sg13_48_cif.got.tgz:95897.got - 2010.06.28 04:50:58.
