data_PCOD8121357
_publ_section_title
;
Structure prediction by ZEFSAII (Michael W. Deem and Ramdas Pophale) SiO2 
 PCOD8121357
Probable space group: P 2/C
;
_chemical_formula_sum "Si O2"
_cell_formula_units_Z 26
_cell_length_a 10.023278
_cell_length_b 7.207480
_cell_length_c 20.097442
_cell_angle_alpha 90.000000
_cell_angle_beta 54.826636
_cell_angle_gamma 90.000000
_cell_volume 1186.794246
_symmetry_space_group_name_H-M "P 2/C"
_symmetry_group_IT_number 13
_symmetry_cell_setting 'monoclinic'
loop_
_space_group_symop_operation_xyz
x,y,z
-x,y,1/2-z
-x,-y,-z
x,-y,1/2+z
loop_
_atom_site_type_symbol
_atom_site_label
_atom_site_fract_x
_atom_site_fract_y
_atom_site_fract_z
Si Si1 0.243454 0.938574 0.742037
Si Si2 0.420338 0.130334 0.576918
Si Si3 0.406876 0.574643 0.712980
Si Si4 0.166966 0.697208 0.337594
Si Si5 0.820802 0.565111 0.403628
Si Si6 0.000000 0.679896 0.750000
Si Si7 0.330444 0.626875 0.430781
O O1 0.383442 0.794961 0.724193
O O2 0.082134 0.813236 0.781272
O O3 0.283904 0.024150 0.658619
O O4 0.225180 0.095330 0.803150
O O5 0.334248 0.306309 0.567111
O O6 0.569223 0.186124 0.582859
O O7 0.500000 0.000000 0.500000
O O8 0.500000 0.496513 0.750000
O O9 0.239901 0.451961 0.763133
O O10 0.528537 0.530563 0.617334
O O11 0.215234 0.653780 0.399676
O O12 0.972878 0.690132 0.383636
O O13 0.862057 0.443640 0.326291
O O14 0.781149 0.425796 0.474998
#
# Coordination Sequence:
#
# PCOD8121357 Si02
#       7
#     4   4   4   4   4   2   4
#     4  12  23  41  69 101 135 175 235 278 340 417
#     4  12  25  42  68 103 139 181 233 284 342 410
#     4  10  22  41  69  99 134 177 220 278 351 401
#     4  11  24  45  70 103 134 182 228 290 342 408
#     4  12  24  47  69  99 143 182 231 286 344 416
#     4  12  24  42  70 100 136 190 220 278 356 406
#     4  11  24  45  70  99 142 179 231 288 348 408
#
# _framework density 21.907757
#
# number of rings (size 3 to 8) (size 9 to 14) (size 15 to 20)
#    0.000    0.615    3.077    5.538    2.154    0.000 
#    0.000    1.538    0.000    0.000    0.000    0.000 
#    0.000    0.000    0.000    0.000    0.000    0.000 
#
# Total GULP energy -322418.405724 kJ/mol
# GULP energy per Si atom -12400.707912 kJ/mol
# Density = 2.185789 g / cm^3
# Si number density = 21.907757 Si / 1000 Ang^3
#
#
#
# Elastic Constant Matrix: (Units=GPa)
#
#
# Indices 1 2 3 4 5 6 
#
# 1 81.8140 25.9853 21.4729 0.0000 4.1527 0.0000
# 2 25.9853 130.2384 42.4541 0.0000 5.2919 0.0000
# 3 21.4729 42.4541 115.2695 0.0000 6.1005 0.0000
# 4 0.0000 0.0000 0.0000 49.9906 0.0000 -1.6005
# 5 4.1527 5.2919 6.1005 0.0000 27.2088 0.0000
# 6 0.0000 0.0000 0.0000 -1.6005 0.0000 37.2299
#
#
#
# Elastic Compliance Matrix: (Units=1/GPa)
#
#
# Indices 1 2 3 4 5 6 
#
# 1 0.013383 -0.002077 -0.001661 0.000000 -0.001266 0.000000
# 2 -0.002077 0.009075 -0.002913 0.000000 -0.000795 0.000000
# 3 -0.001661 -0.002913 0.010135 0.000000 -0.001452 0.000000
# 4 0.000000 0.000000 0.000000 0.020031 0.000000 0.000861
# 5 -0.001266 -0.000795 -0.001452 0.000000 0.037426 0.000000
# 6 0.000000 0.000000 0.000000 0.000861 0.000000 0.026897
#
#
# Mechanical properties :
#
#
# Convention : Reuss Voigt Hill
#
# Bulk Modulus (GPa) = 51.84261 56.34959 54.09610
# Shear Modulus (GPa) = 36.58203 38.71316 37.64760
#
# Velocity S-wave (km/s) = 4.09078 4.20825 4.14993
# Velocity P-wave (km/s) = 6.78440 7.02777 6.90716
#
# Compressibility (1/GPa) = 0.01928915
#
# Stress axis : x y z
#
# Youngs Moduli (GPa) = 74.72265 110.19772 98.67271
#
# Poissons Ratio (x) = 0.22891 0.16389
# Poissons Ratio (y) = 0.15522 0.28745
# Poissons Ratio (z) = 0.12411 0.32103
#
# Static dielectric constant tensor:
#      x y z
#    x 3.950520 0.000000 -0.074860 
#    y 0.000000 3.928470 0.000000 
#    z -0.074860 0.000000 3.961510 
# 
# 
# High freq. dielectric constant tensor:
#      x y z
#    x 1.873320 0.000000 -0.001670 
#    y 0.000000 1.863200 0.000000 
#    z -0.001670 0.000000 1.859780 
# 
# From -- ./inp_files/85776.got.cif
#   From: 2010.06.25/outbox.cif.g09.slc.cpg/sg13_43_cif.got.tgz:85776.got - 2010.06.28 04:50:58.
