data_PCOD8121977
_publ_section_title
;
Structure prediction by ZEFSAII (Michael W. Deem and Ramdas Pophale) SiO2 
 PCOD8121977
Probable space group: P 2/C
;
_chemical_formula_sum "Si O2"
_cell_formula_units_Z 28
_cell_length_a 7.862180
_cell_length_b 8.321420
_cell_length_c 31.625777
_cell_angle_alpha 90.000000
_cell_angle_beta 140.618207
_cell_angle_gamma 90.000000
_cell_volume 1312.813213
_symmetry_space_group_name_H-M "P 2/C"
_symmetry_group_IT_number 13
_symmetry_cell_setting 'monoclinic'
loop_
_space_group_symop_operation_xyz
x,y,z
-x,y,1/2-z
-x,-y,-z
x,-y,1/2+z
loop_
_atom_site_type_symbol
_atom_site_label
_atom_site_fract_x
_atom_site_fract_y
_atom_site_fract_z
Si Si1 0.000000 0.744086 0.750000
Si Si2 0.457883 0.993837 0.833727
Si Si3 0.500000 0.095042 0.250000
Si Si4 0.458492 0.596270 0.552578
Si Si5 0.611820 0.286017 0.907643
Si Si6 0.047653 0.649568 0.668453
Si Si7 0.953911 0.529916 0.407859
Si Si8 0.887671 0.219969 0.447918
O O1 0.936861 0.628421 0.777695
O O2 0.748040 0.856830 0.690554
O O3 0.394278 0.159554 0.846866
O O4 0.445762 0.016007 0.780566
O O5 0.760120 0.941667 0.904395
O O6 0.761329 0.204590 0.308517
O O7 0.518836 0.434192 0.592040
O O8 0.273736 0.562481 0.475692
O O9 0.287827 0.718638 0.547045
O O10 0.738615 0.681538 0.594642
O O11 0.772375 0.342039 0.896712
O O12 0.811070 0.190740 0.977590
O O13 0.121936 0.484892 0.656943
O O14 0.887263 0.353345 0.411843
#
# Coordination Sequence:
#
# PCOD8121977 Si02
#       8
#     2   4   2   4   4   4   4   4
#     4  10  24  34  58  78 102 158 196 222 246 332
#     4  11  19  40  55  77 111 148 190 220 271 320
#     4  10  24  34  58  78 102 158 196 222 246 332
#     4   9  18  34  59  88 111 137 179 235 280 322
#     4   9  20  33  59  89 114 137 171 234 295 318
#     4  11  19  37  55  80 107 146 196 222 261 321
#     4   9  18  34  59  88 111 137 179 235 280 322
#     4   9  16  34  61  85 107 145 186 218 268 343
#
# _framework density 21.328241999999999
#
# number of rings (size 3 to 8) (size 9 to 14) (size 15 to 20)
#    0.000    2.286    2.857    2.571    0.000    0.000 
#    0.000    7.143    0.000    3.429    0.000    0.000 
#    0.000    0.000    0.000    0.000    0.000    0.000 
#
# Total GULP energy -346867.964281 kJ/mol
# GULP energy per Si atom -12388.141581 kJ/mol
# Density = 2.127970 g / cm^3
# Si number density = 21.328242 Si / 1000 Ang^3
#
#
#
# Elastic Constant Matrix: (Units=GPa)
#
#
# Indices 1 2 3 4 5 6 
#
# 1 57.1512 7.9215 23.2962 0.0000 -0.6992 0.0000
# 2 7.9215 51.4206 41.4046 0.0000 -6.6157 0.0000
# 3 23.2962 41.4046 87.4952 0.0000 -15.9903 0.0000
# 4 0.0000 0.0000 0.0000 41.2594 0.0000 -4.6106
# 5 -0.6992 -6.6157 -15.9903 0.0000 38.7383 0.0000
# 6 0.0000 0.0000 0.0000 -4.6106 0.0000 12.2359
#
#
#
# Elastic Compliance Matrix: (Units=1/GPa)
#
#
# Indices 1 2 3 4 5 6 
#
# 1 0.019891 0.002000 -0.006613 0.000000 -0.002029 0.000000
# 2 0.002000 0.031646 -0.015698 0.000000 -0.001039 0.000000
# 3 -0.006613 -0.015698 0.021747 0.000000 0.006177 0.000000
# 4 0.000000 0.000000 0.000000 0.025302 0.000000 0.009534
# 5 -0.002029 -0.001039 0.006177 0.000000 0.028150 0.000000
# 6 0.000000 0.000000 0.000000 0.009534 0.000000 0.085320
#
#
# Mechanical properties :
#
#
# Convention : Reuss Voigt Hill
#
# Bulk Modulus (GPa) = 30.61700 37.92351 34.27025
# Shear Modulus (GPa) = 18.97055 26.67637 22.82346
#
# Velocity S-wave (km/s) = 2.98561 3.54044 3.27479
# Velocity P-wave (km/s) = 5.12557 5.87643 5.51380
#
# Compressibility (1/GPa) = 0.03266159
#
# Stress axis : x y z
#
# Youngs Moduli (GPa) = 50.27348 31.59971 45.98236
#
# Poissons Ratio (x) = -0.06319 0.30410
# Poissons Ratio (y) = -0.10054 0.72183
# Poissons Ratio (z) = 0.33248 0.49605
#
# Static dielectric constant tensor:
#      x y z
#    x 3.975000 0.000000 -0.048160 
#    y 0.000000 3.458820 0.000000 
#    z -0.048160 0.000000 4.036710 
# 
# 
# High freq. dielectric constant tensor:
#      x y z
#    x 1.833750 0.000000 -0.008390 
#    y 0.000000 1.791040 0.000000 
#    z -0.008390 0.000000 1.841650 
# 
# From -- ./inp_files/88492.got.cif
#   From: 2010.06.25/outbox.cif.g09.slc.cpg/sg13_45_cif.got.tgz:88492.got - 2010.06.28 04:50:58.
