data_PCOD8121862
_publ_section_title
;
Structure prediction by ZEFSAII (Michael W. Deem and Ramdas Pophale) SiO2 
 PCOD8121862
Probable space group: P 2/C
;
_chemical_formula_sum "Si O2"
_cell_formula_units_Z 26
_cell_length_a 8.633312
_cell_length_b 13.217831
_cell_length_c 13.551583
_cell_angle_alpha 90.000000
_cell_angle_beta 48.657566
_cell_angle_gamma 90.000000
_cell_volume 1161.014205
_symmetry_space_group_name_H-M "P 2/C"
_symmetry_group_IT_number 13
_symmetry_cell_setting 'monoclinic'
loop_
_space_group_symop_operation_xyz
x,y,z
-x,y,1/2-z
-x,-y,-z
x,-y,1/2+z
loop_
_atom_site_type_symbol
_atom_site_label
_atom_site_fract_x
_atom_site_fract_y
_atom_site_fract_z
Si Si1 0.619457 0.899939 0.371596
Si Si2 0.755967 0.886772 0.836748
Si Si3 0.888224 0.656200 0.056056
Si Si4 0.888212 0.534367 0.697608
Si Si5 0.500000 0.233601 0.750000
Si Si6 0.851381 0.253873 0.896885
Si Si7 0.446317 0.687935 0.658267
O O1 0.378809 0.899252 0.505940
O O2 0.635999 0.830047 0.269143
O O3 0.772850 0.857016 0.393330
O O4 0.699363 0.009745 0.302670
O O5 0.687143 0.788118 0.806522
O O6 0.000000 0.878804 0.750000
O O7 0.862577 0.563250 0.141491
O O8 0.663138 0.697508 0.122522
O O9 0.024742 0.744639 0.051376
O O10 0.988090 0.622451 0.911832
O O11 0.669970 0.583871 0.817052
O O12 0.000000 0.501819 0.750000
O O13 0.000000 0.301698 0.750000
O O14 0.646311 0.320171 0.003054
O O15 0.500000 0.691275 0.750000
#
# Coordination Sequence:
#
# PCOD8121862 Si02
#       7
#     4   4   4   4   2   4   4
#     4  10  24  42  67 100 136 177 226 275 341 409
#     4  10  23  43  69  97 134 180 224 278 340 405
#     4  11  26  44  68 101 135 180 232 273 348 412
#     4  11  26  45  70 100 137 180 228 284 342 405
#     4  12  26  40  66 100 140 172 234 280 336 414
#     4  11  21  43  68  95 136 185 217 278 340 405
#     4  11  24  41  70  99 137 174 232 284 341 400
#
# _framework density 22.394213000000001
#
# number of rings (size 3 to 8) (size 9 to 14) (size 15 to 20)
#    0.000    1.231    3.077    1.385    8.615    0.000 
#    0.000    3.077    0.000    0.000    0.000    0.000 
#    0.000    0.000    0.000    0.000    0.000    0.000 
#
# Total GULP energy -322269.405093 kJ/mol
# GULP energy per Si atom -12394.977119 kJ/mol
# Density = 2.234324 g / cm^3
# Si number density = 22.394213 Si / 1000 Ang^3
#
#
#
# Elastic Constant Matrix: (Units=GPa)
#
#
# Indices 1 2 3 4 5 6 
#
# 1 75.3997 40.6751 23.2730 0.0000 -13.1259 0.0000
# 2 40.6751 77.8917 27.1165 0.0000 -7.4783 0.0000
# 3 23.2730 27.1165 121.1537 0.0000 -26.0463 0.0000
# 4 0.0000 0.0000 0.0000 28.4529 0.0000 -1.7859
# 5 -13.1259 -7.4783 -26.0463 0.0000 40.0668 0.0000
# 6 0.0000 0.0000 0.0000 -1.7859 0.0000 25.5609
#
#
#
# Elastic Compliance Matrix: (Units=1/GPa)
#
#
# Indices 1 2 3 4 5 6 
#
# 1 0.019281 -0.009427 -0.000714 0.000000 0.004093 0.000000
# 2 -0.009427 0.018548 -0.002627 0.000000 -0.001334 0.000000
# 3 -0.000714 -0.002627 0.010257 0.000000 0.005943 0.000000
# 4 0.000000 0.000000 0.000000 0.035301 0.000000 0.002466
# 5 0.004093 -0.001334 0.005943 0.000000 0.029914 0.000000
# 6 0.000000 0.000000 0.000000 0.002466 0.000000 0.039295
#
#
# Mechanical properties :
#
#
# Convention : Reuss Voigt Hill
#
# Bulk Modulus (GPa) = 44.34779 50.73046 47.53913
# Shear Modulus (GPa) = 26.93272 31.04147 28.98710
#
# Velocity S-wave (km/s) = 3.47171 3.72713 3.60168
# Velocity P-wave (km/s) = 5.99304 6.42063 6.21052
#
# Compressibility (1/GPa) = 0.02254904
#
# Stress axis : x y z
#
# Youngs Moduli (GPa) = 51.86435 53.91502 97.49509
#
# Poissons Ratio (x) = 0.50826 0.06960
# Poissons Ratio (y) = 0.48893 0.25615
# Poissons Ratio (z) = 0.03703 0.14165
#
# Static dielectric constant tensor:
#      x y z
#    x 3.919420 0.000000 -0.205300 
#    y 0.000000 4.069360 0.000000 
#    z -0.205300 0.000000 4.239210 
# 
# 
# High freq. dielectric constant tensor:
#      x y z
#    x 1.871950 0.000000 -0.017000 
#    y 0.000000 1.880060 0.000000 
#    z -0.017000 0.000000 1.894320 
# 
# From -- ./inp_files/47863.got.cif
#   From: 2010.06.25/outbox.cif.g09.slc.cpg/sg13_24_cif.got.tgz:47863.got - 2010.06.28 04:50:58.
