data_PCOD8121674
_publ_section_title
;
Structure prediction by ZEFSAII (Michael W. Deem and Ramdas Pophale) SiO2 
 PCOD8121674
Probable space group: P 2/C
;
_chemical_formula_sum "Si O2"
_cell_formula_units_Z 26
_cell_length_a 11.134806
_cell_length_b 8.213090
_cell_length_c 17.986303
_cell_angle_alpha 90.000000
_cell_angle_beta 44.881216
_cell_angle_gamma 90.000000
_cell_volume 1160.683760
_symmetry_space_group_name_H-M "P 2/C"
_symmetry_group_IT_number 13
_symmetry_cell_setting 'monoclinic'
loop_
_space_group_symop_operation_xyz
x,y,z
-x,y,1/2-z
-x,-y,-z
x,-y,1/2+z
loop_
_atom_site_type_symbol
_atom_site_label
_atom_site_fract_x
_atom_site_fract_y
_atom_site_fract_z
Si Si1 0.765546 0.604783 0.414181
Si Si2 0.073757 0.944013 0.145065
Si Si3 0.336887 0.170023 0.955766
Si Si4 0.394245 0.682718 0.586471
Si Si5 0.211081 0.868672 0.791687
Si Si6 0.500000 0.009948 0.750000
Si Si7 0.950017 0.601672 0.951097
O O1 0.870042 0.767772 0.348512
O O2 0.583892 0.644246 0.533380
O O3 0.725161 0.481061 0.362614
O O4 0.898566 0.521740 0.410054
O O5 0.000000 0.040853 0.250000
O O6 0.911624 0.970983 0.160890
O O7 0.239235 0.018209 0.034685
O O8 0.479370 0.114342 0.834668
O O9 0.419868 0.264810 0.988651
O O10 0.209312 0.280543 0.963345
O O11 0.316365 0.827717 0.670032
O O12 0.109048 0.706401 0.854771
O O13 0.334879 0.899528 0.807353
O O14 0.000000 0.500000 0.000000
#
# Coordination Sequence:
#
# PCOD8121674 Si02
#       7
#     4   4   4   4   4   2   4
#     4  10  24  40  71  97 135 171 232 275 345 401
#     4  11  23  40  73 104 127 178 224 284 331 406
#     4  10  24  46  70  97 143 170 234 276 346 405
#     4  10  22  48  67 100 134 180 222 296 332 408
#     4  11  26  44  71  95 142 179 232 278 351 400
#     4  12  28  44  68 104 132 190 224 288 344 414
#     4  10  25  45  65  98 139 185 217 285 339 418
#
# _framework density 22.400590999999999
#
# number of rings (size 3 to 8) (size 9 to 14) (size 15 to 20)
#    0.000    1.538    1.538    0.923   10.769    2.462 
#    8.308    0.000    0.000    0.000    0.000    0.000 
#    0.000    0.000    0.000    0.000    0.000    0.000 
#
# Total GULP energy -322127.441105 kJ/mol
# GULP energy per Si atom -12389.516966 kJ/mol
# Density = 2.234961 g / cm^3
# Si number density = 22.400591 Si / 1000 Ang^3
#
#
#
# Elastic Constant Matrix: (Units=GPa)
#
#
# Indices 1 2 3 4 5 6 
#
# 1 106.1113 39.3743 18.7898 0.0000 -15.9774 0.0000
# 2 39.3743 98.0121 27.1467 0.0000 -4.1387 0.0000
# 3 18.7898 27.1467 87.6335 0.0000 3.3361 0.0000
# 4 0.0000 0.0000 0.0000 24.1802 0.0000 -6.7423
# 5 -15.9774 -4.1387 3.3361 0.0000 32.9840 0.0000
# 6 0.0000 0.0000 0.0000 -6.7423 0.0000 34.6478
#
#
#
# Elastic Compliance Matrix: (Units=1/GPa)
#
#
# Indices 1 2 3 4 5 6 
#
# 1 0.012073 -0.004205 -0.001494 0.000000 0.005472 0.000000
# 2 -0.004205 0.012727 -0.003036 0.000000 -0.000133 0.000000
# 3 -0.001494 -0.003036 0.012763 0.000000 -0.002396 0.000000
# 4 0.000000 0.000000 0.000000 0.043729 0.000000 0.008509
# 5 0.005472 -0.000133 -0.002396 0.000000 0.033194 0.000000
# 6 0.000000 0.000000 0.000000 0.008509 0.000000 0.030518
#
#
# Mechanical properties :
#
#
# Convention : Reuss Voigt Hill
#
# Bulk Modulus (GPa) = 49.76883 51.37538 50.57211
# Shear Modulus (GPa) = 29.55569 32.12549 30.84059
#
# Velocity S-wave (km/s) = 3.63632 3.79111 3.71452
# Velocity P-wave (km/s) = 6.31635 6.49215 6.40485
#
# Compressibility (1/GPa) = 0.02009290
#
# Stress axis : x y z
#
# Youngs Moduli (GPa) = 82.83006 78.57059 78.35024
#
# Poissons Ratio (x) = 0.33040 0.11707
# Poissons Ratio (y) = 0.34831 0.23787
# Poissons Ratio (z) = 0.12377 0.23854
#
# Static dielectric constant tensor:
#      x y z
#    x 4.056510 0.000000 -0.192260 
#    y 0.000000 4.052270 0.000000 
#    z -0.192260 0.000000 3.852550 
# 
# 
# High freq. dielectric constant tensor:
#      x y z
#    x 1.885480 0.000000 -0.021090 
#    y 0.000000 1.883760 0.000000 
#    z -0.021090 0.000000 1.871580 
# 
# From -- ./inp_files/78189.got.cif
#   From: 2010.06.25/outbox.cif.g09.slc.cpg/sg13_40_cif.got.tgz:78189.got - 2010.06.28 04:50:58.
