data_PCOD8121396
_publ_section_title
;
Structure prediction by ZEFSAII (Michael W. Deem and Ramdas Pophale) SiO2 
 PCOD8121396
Probable space group: P 2/C
;
_chemical_formula_sum "Si O2"
_cell_formula_units_Z 26
_cell_length_a 19.634890
_cell_length_b 8.991850
_cell_length_c 10.092604
_cell_angle_alpha 90.000000
_cell_angle_beta 46.038720
_cell_angle_gamma 90.000000
_cell_volume 1282.620215
_symmetry_space_group_name_H-M "P 2/C"
_symmetry_group_IT_number 13
_symmetry_cell_setting 'monoclinic'
loop_
_space_group_symop_operation_xyz
x,y,z
-x,y,1/2-z
-x,-y,-z
x,-y,1/2+z
loop_
_atom_site_type_symbol
_atom_site_label
_atom_site_fract_x
_atom_site_fract_y
_atom_site_fract_z
Si Si1 0.837598 0.367254 0.621312
Si Si2 0.439340 0.035033 0.952892
Si Si3 0.500000 0.426764 0.250000
Si Si4 0.851238 0.379870 0.301227
Si Si5 0.362367 0.309098 0.915761
Si Si6 0.992601 0.866058 0.909671
Si Si7 0.366465 0.250734 0.613228
O O1 0.856250 0.429730 0.448065
O O2 0.879100 0.481789 0.671644
O O3 0.891191 0.211663 0.567283
O O4 0.725882 0.346654 0.796429
O O5 0.500000 0.978562 0.750000
O O6 0.406535 0.206520 0.973973
O O7 0.352161 0.916948 0.075846
O O8 0.500000 0.000000 0.000000
O O9 0.588583 0.530906 0.168275
O O10 0.461552 0.326904 0.423984
O O11 0.747272 0.324603 0.402505
O O12 0.923940 0.249119 0.172759
O O13 0.379321 0.227955 0.753351
O O14 0.000000 0.927536 0.750000
O O15 0.000000 0.000000 0.000000
#
# Coordination Sequence:
#
# PCOD8121396 Si02
#       7
#     4   4   2   4   4   4   4
#     4  10  22  42  63  92 125 160 207 255 312 369
#     4  12  23  41  58  82 120 166 205 250 308 358
#     4  12  20  38  62  88 124 158 210 246 308 358
#     4  10  22  42  64  93 124 163 203 256 311 368
#     4  11  23  40  60  89 125 160 207 257 305 364
#     4  10  23  42  66  94 128 162 203 258 310 370
#     4  11  23  38  60  89 123 162 207 256 306 369
#
# _framework density 20.271003
#
# number of rings (size 3 to 8) (size 9 to 14) (size 15 to 20)
#    0.000    1.231    4.615    0.923    2.154    1.231 
#    2.769    0.000    0.000    0.000    0.000    0.000 
#    0.000    0.000    0.000    0.000    0.000    0.000 
#
# Total GULP energy -322287.208696 kJ/mol
# GULP energy per Si atom -12395.661873 kJ/mol
# Density = 2.022487 g / cm^3
# Si number density = 20.271003 Si / 1000 Ang^3
#
#
#
# Elastic Constant Matrix: (Units=GPa)
#
#
# Indices 1 2 3 4 5 6 
#
# 1 97.2767 39.5985 45.0499 0.0000 9.6203 0.0000
# 2 39.5985 108.4893 55.3889 0.0000 21.2283 0.0000
# 3 45.0499 55.3889 104.7871 0.0000 10.6964 0.0000
# 4 0.0000 0.0000 0.0000 28.4929 0.0000 11.4423
# 5 9.6203 21.2283 10.6964 0.0000 32.8946 0.0000
# 6 0.0000 0.0000 0.0000 11.4423 0.0000 35.5196
#
#
#
# Elastic Compliance Matrix: (Units=1/GPa)
#
#
# Indices 1 2 3 4 5 6 
#
# 1 0.013399 -0.002494 -0.004351 0.000000 -0.000894 0.000000
# 2 -0.002494 0.014434 -0.005876 0.000000 -0.006675 0.000000
# 3 -0.004351 -0.005876 0.014483 0.000000 0.000355 0.000000
# 4 0.000000 0.000000 0.000000 0.040311 0.000000 -0.012986
# 5 -0.000894 -0.006675 0.000355 0.000000 0.034854 0.000000
# 6 0.000000 0.000000 0.000000 -0.012986 0.000000 0.032337
#
#
# Mechanical properties :
#
#
# Convention : Reuss Voigt Hill
#
# Bulk Modulus (GPa) = 59.26215 65.62530 62.44373
# Shear Modulus (GPa) = 27.64209 30.74914 29.19562
#
# Velocity S-wave (km/s) = 3.69674 3.89897 3.79920
# Velocity P-wave (km/s) = 6.89344 7.26041 7.07930
#
# Compressibility (1/GPa) = 0.01687418
#
# Stress axis : x y z
#
# Youngs Moduli (GPa) = 74.63508 69.28148 69.04551
#
# Poissons Ratio (x) = 0.17281 0.30038
# Poissons Ratio (y) = 0.18617 0.40570
# Poissons Ratio (z) = 0.32470 0.40709
#
# Static dielectric constant tensor:
#      x y z
#    x 3.634750 0.000000 -0.095860 
#    y 0.000000 3.739470 0.000000 
#    z -0.095860 0.000000 3.857280 
# 
# 
# High freq. dielectric constant tensor:
#      x y z
#    x 1.788800 0.000000 -0.003500 
#    y 0.000000 1.790640 0.000000 
#    z -0.003500 0.000000 1.802210 
# 
# From -- ./inp_files/22966.got.cif
#   From: 2010.06.25/outbox.cif.g09.slc.cpg/sg13_12_cif.got.tgz:22966.got - 2010.06.28 04:50:58.
