data_PCOD8121815
_publ_section_title
;
Structure prediction by ZEFSAII (Michael W. Deem and Ramdas Pophale) SiO2 
 PCOD8121815
Probable space group: P 2/C
;
_chemical_formula_sum "Si O2"
_cell_formula_units_Z 26
_cell_length_a 23.390267
_cell_length_b 11.148201
_cell_length_c 8.750774
_cell_angle_alpha 90.000000
_cell_angle_beta 150.570372
_cell_angle_gamma 90.000000
_cell_volume 1121.194886
_symmetry_space_group_name_H-M "P 2/C"
_symmetry_group_IT_number 13
_symmetry_cell_setting 'monoclinic'
loop_
_space_group_symop_operation_xyz
x,y,z
-x,y,1/2-z
-x,-y,-z
x,-y,1/2+z
loop_
_atom_site_type_symbol
_atom_site_label
_atom_site_fract_x
_atom_site_fract_y
_atom_site_fract_z
Si Si1 0.654272 0.670855 0.112485
Si Si2 0.000000 0.836645 0.250000
Si Si3 0.000000 0.544111 0.750000
Si Si4 0.444588 0.237941 0.832830
Si Si5 0.752474 0.908296 0.775665
Si Si6 0.500000 0.550346 0.250000
Si Si7 0.329020 0.867271 0.588494
Si Si8 0.895320 0.352003 0.296415
O O1 0.557606 0.740845 0.989184
O O2 0.760282 0.677555 0.479274
O O3 0.615227 0.532596 0.002691
O O4 0.686358 0.736883 0.027980
O O5 0.114605 0.913201 0.475717
O O6 0.027215 0.756915 0.461788
O O7 0.072391 0.626332 0.804497
O O8 0.911170 0.466028 0.442860
O O9 0.322369 0.200215 0.471564
O O10 0.495969 0.362340 0.886528
O O11 0.540476 0.131831 0.034813
O O12 0.757695 0.890847 0.971217
O O13 0.691943 0.033190 0.589827
#
# Coordination Sequence:
#
# PCOD8121815 Si02
#       8
#     4   2   2   4   4   2   4   4
#     4  12  26  43  71 108 152 190 240 298 371 430
#     4  11  26  48  73 108 148 186 247 313 366 440
#     4   9  22  42  65  98 136 200 247 285 354 438
#     4  12  24  48  73 113 147 196 239 303 367 436
#     4  12  27  49  78 105 147 191 252 305 372 438
#     4  12  26  42  74 112 154 190 244 300 362 444
#     4  12  27  49  74 108 144 196 245 309 372 440
#     4  10  23  42  67 100 144 193 243 300 357 440
#
# _framework density 23.189546
#
# number of rings (size 3 to 8) (size 9 to 14) (size 15 to 20)
#    0.000    0.615    4.615    1.846    4.308    3.077 
#    0.000    0.000    0.000    0.000    0.000    0.000 
#    0.000    0.000    0.000    0.000    0.000    0.000 
#
# Total GULP energy -322329.765895 kJ/mol
# GULP energy per Si atom -12397.298688 kJ/mol
# Density = 2.313677 g / cm^3
# Si number density = 23.189546 Si / 1000 Ang^3
#
#
#
# Elastic Constant Matrix: (Units=GPa)
#
#
# Indices 1 2 3 4 5 6 
#
# 1 150.5500 50.1139 44.4179 0.0000 -13.3401 0.0000
# 2 50.1139 120.6916 48.4112 0.0000 2.0073 0.0000
# 3 44.4179 48.4112 113.0830 0.0000 1.0003 0.0000
# 4 0.0000 0.0000 0.0000 31.6348 0.0000 -0.6221
# 5 -13.3401 2.0073 1.0003 0.0000 36.1250 0.0000
# 6 0.0000 0.0000 0.0000 -0.6221 0.0000 28.9479
#
#
#
# Elastic Compliance Matrix: (Units=1/GPa)
#
#
# Indices 1 2 3 4 5 6 
#
# 1 0.008487 -0.002693 -0.002210 0.000000 0.003345 0.000000
# 2 -0.002693 0.010865 -0.003580 0.000000 -0.001499 0.000000
# 3 -0.002210 -0.003580 0.011252 0.000000 -0.000929 0.000000
# 4 0.000000 0.000000 0.000000 0.031624 0.000000 0.000680
# 5 0.003345 -0.001499 -0.000929 0.000000 0.029026 0.000000
# 6 0.000000 0.000000 0.000000 0.000680 0.000000 0.034559
#
#
# Mechanical properties :
#
#
# Convention : Reuss Voigt Hill
#
# Bulk Modulus (GPa) = 73.33022 74.46783 73.89902
# Shear Modulus (GPa) = 33.93814 35.43364 34.68589
#
# Velocity S-wave (km/s) = 3.82974 3.91321 3.87170
# Velocity P-wave (km/s) = 7.15867 7.25258 7.20578
#
# Compressibility (1/GPa) = 0.01363694
#
# Stress axis : x y z
#
# Youngs Moduli (GPa) = 117.82271 92.04007 88.87169
#
# Poissons Ratio (x) = 0.24788 0.19644
# Poissons Ratio (y) = 0.31731 0.31818
# Poissons Ratio (z) = 0.26043 0.32952
#
# Static dielectric constant tensor:
#      x y z
#    x 4.257910 0.000000 0.051940 
#    y 0.000000 3.939630 0.000000 
#    z 0.051940 0.000000 4.339740 
# 
# 
# High freq. dielectric constant tensor:
#      x y z
#    x 1.925110 0.000000 -0.012080 
#    y 0.000000 1.901380 0.000000 
#    z -0.012080 0.000000 1.928010 
# 
# From -- ./inp_files/24183.got.cif
#   From: 2010.06.25/outbox.cif.g09.slc.cpg/sg13_13_cif.got.tgz:24183.got - 2010.06.28 04:50:58.
