data_PCOD8121381
_publ_section_title
;
Structure prediction by ZEFSAII (Michael W. Deem and Ramdas Pophale) SiO2 
 PCOD8121381
Probable space group: P 2/C
;
_chemical_formula_sum "Si O2"
_cell_formula_units_Z 30
_cell_length_a 24.419019
_cell_length_b 11.428976
_cell_length_c 29.721596
_cell_angle_alpha 90.000000
_cell_angle_beta 169.628698
_cell_angle_gamma 90.000000
_cell_volume 1493.289605
_symmetry_space_group_name_H-M "P 2/C"
_symmetry_group_IT_number 13
_symmetry_cell_setting 'monoclinic'
loop_
_space_group_symop_operation_xyz
x,y,z
-x,y,1/2-z
-x,-y,-z
x,-y,1/2+z
loop_
_atom_site_type_symbol
_atom_site_label
_atom_site_fract_x
_atom_site_fract_y
_atom_site_fract_z
Si Si1 0.356457 0.553612 0.176562
Si Si2 0.622738 0.826108 0.614210
Si Si3 0.676338 0.674585 0.964545
Si Si4 0.696018 0.419285 0.127263
Si Si5 0.500000 0.855154 0.750000
Si Si6 0.212773 0.211347 0.154658
Si Si7 0.995704 0.945995 0.405109
Si Si8 0.239823 0.397218 0.682740
O O1 0.500000 0.627616 0.250000
O O2 0.578549 0.443251 0.360694
O O3 0.325958 0.618401 0.199843
O O4 0.021434 0.518142 0.888750
O O5 0.728604 0.708744 0.675273
O O6 0.602126 0.816462 0.651050
O O7 0.282898 0.856392 0.324959
O O8 0.875690 0.922421 0.806335
O O9 0.686924 0.778067 0.936808
O O10 0.414966 0.698951 0.789648
O O11 0.000000 0.661389 0.250000
O O12 0.500000 0.500000 0.000000
O O13 0.554925 0.417876 0.963470
O O14 0.246454 0.935465 0.568689
O O15 0.149653 0.090239 0.077044
O O16 0.896276 0.274434 0.910954
O O17 0.000000 0.500000 0.500000
#
# Coordination Sequence:
#
# PCOD8121381 Si02
#       8
#     4   4   4   4   2   4   4   4
#     4  12  27  40  59  97 132 171 217 267 335 396
#     4  11  22  40  65  96 128 165 224 266 324 385
#     4  11  23  37  62  94 129 164 210 276 334 385
#     4  12  24  41  69  94 133 178 217 270 322 403
#     4  10  22  42  62  90 128 164 212 268 346 374
#     4  11  20  39  64  95 125 164 220 271 319 394
#     4  10  23  40  65  96 125 169 215 278 323 395
#     4  12  22  40  63  93 128 173 216 264 330 396
#
# _framework density 20.089873999999998
#
# number of rings (size 3 to 8) (size 9 to 14) (size 15 to 20)
#    0.000    0.800    6.000    1.200    3.733    0.000 
#    1.200    0.000    0.000    0.000    0.000    0.000 
#    0.000    0.000    0.000    0.000    0.000    0.000 
#
# Total GULP energy -371955.737046 kJ/mol
# GULP energy per Si atom -12398.524568 kJ/mol
# Density = 2.004415 g / cm^3
# Si number density = 20.089874 Si / 1000 Ang^3
#
#
#
# Elastic Constant Matrix: (Units=GPa)
#
#
# Indices 1 2 3 4 5 6 
#
# 1 156.7249 29.0907 56.2190 0.0000 2.7933 0.0000
# 2 29.0907 80.9561 27.0098 0.0000 4.6694 0.0000
# 3 56.2190 27.0098 113.3903 0.0000 -11.8036 0.0000
# 4 0.0000 0.0000 0.0000 22.5127 0.0000 -4.8592
# 5 2.7933 4.6694 -11.8036 0.0000 44.8010 0.0000
# 6 0.0000 0.0000 0.0000 -4.8592 0.0000 17.6045
#
#
#
# Elastic Compliance Matrix: (Units=1/GPa)
#
#
# Indices 1 2 3 4 5 6 
#
# 1 0.008040 -0.001561 -0.003753 0.000000 -0.001327 0.000000
# 2 -0.001561 0.013957 -0.002768 0.000000 -0.002087 0.000000
# 3 -0.003753 -0.002768 0.011715 0.000000 0.003609 0.000000
# 4 0.000000 0.000000 0.000000 0.047233 0.000000 0.013037
# 5 -0.001327 -0.002087 0.003609 0.000000 0.023572 0.000000
# 6 0.000000 0.000000 0.000000 0.013037 0.000000 0.060402
#
#
# Mechanical properties :
#
#
# Convention : Reuss Voigt Hill
#
# Bulk Modulus (GPa) = 56.98285 63.96783 60.47534
# Shear Modulus (GPa) = 26.74770 32.90042 29.82406
#
# Velocity S-wave (km/s) = 3.65280 4.05119 3.85714
# Velocity P-wave (km/s) = 6.79824 7.33436 7.07138
#
# Compressibility (1/GPa) = 0.01754914
#
# Stress axis : x y z
#
# Youngs Moduli (GPa) = 124.37706 71.64853 85.36248
#
# Poissons Ratio (x) = 0.11181 0.32034
# Poissons Ratio (y) = 0.19409 0.23629
# Poissons Ratio (z) = 0.46675 0.19833
#
# Static dielectric constant tensor:
#      x y z
#    x 3.871800 0.000000 -0.208920 
#    y 0.000000 3.438620 0.000000 
#    z -0.208920 0.000000 3.563200 
# 
# 
# High freq. dielectric constant tensor:
#      x y z
#    x 1.803510 0.000000 -0.009530 
#    y 0.000000 1.758910 0.000000 
#    z -0.009530 0.000000 1.793130 
# 
# From -- ./inp_files/97748.got.cif
#   From: 2010.06.25/outbox.cif.g09.slc.cpg/sg13_49_cif.got.tgz:97748.got - 2010.06.28 04:50:58.
