data_PCOD8121709
_publ_section_title
;
Structure prediction by ZEFSAII (Michael W. Deem and Ramdas Pophale) SiO2 
 PCOD8121709
Probable space group: P 2/C
;
_chemical_formula_sum "Si O2"
_cell_formula_units_Z 20
_cell_length_a 8.823213
_cell_length_b 18.444678
_cell_length_c 5.463035
_cell_angle_alpha 90.000000
_cell_angle_beta 86.146602
_cell_angle_gamma 90.000000
_cell_volume 887.051613
_symmetry_space_group_name_H-M "P 2/C"
_symmetry_group_IT_number 13
_symmetry_cell_setting 'monoclinic'
loop_
_space_group_symop_operation_xyz
x,y,z
-x,y,1/2-z
-x,-y,-z
x,-y,1/2+z
loop_
_atom_site_type_symbol
_atom_site_label
_atom_site_fract_x
_atom_site_fract_y
_atom_site_fract_z
Si Si1 0.773993 0.687051 0.423187
Si Si2 0.000000 0.254341 0.250000
Si Si3 0.500000 0.278076 0.250000
Si Si4 0.822283 0.534420 0.250473
Si Si5 0.719454 0.194041 0.548571
Si Si6 0.328548 0.972330 0.479411
O O1 0.933580 0.691628 0.551006
O O2 0.632971 0.672417 0.621634
O O3 0.782940 0.619922 0.236006
O O4 0.752478 0.764474 0.296724
O O5 0.865418 0.202714 0.357986
O O6 0.567844 0.227076 0.451649
O O7 0.752198 0.501926 0.512455
O O8 0.000000 0.519463 0.250000
O O9 0.683957 0.110704 0.600187
O O10 0.500000 0.000000 0.500000
O O11 0.250194 0.014284 0.255245
#
# Coordination Sequence:
#
# PCOD8121709 Si02
#       6
#     4   2   2   4   4   4
#     4  11  24  42  68 100 134 179 230 285 335 409
#     4  10  24  40  68  98 134 172 238 278 338 394
#     4  10  24  38  68  96 132 172 236 274 340 402
#     4  10  23  40  67  99 136 181 229 282 342 404
#     4  11  23  42  69  97 135 178 228 280 340 406
#     4  10  23  39  65  96 132 170 220 278 335 401
#
# _framework density 22.546603000000001
#
# number of rings (size 3 to 8) (size 9 to 14) (size 15 to 20)
#    0.000    1.600    0.000    3.600   21.000    0.000 
#    0.000    2.000    0.000    0.000    0.000    0.000 
#    0.000    0.000    0.000    0.000    0.000    0.000 
#
# Total GULP energy -247933.485620 kJ/mol
# GULP energy per Si atom -12396.674281 kJ/mol
# Density = 2.249529 g / cm^3
# Si number density = 22.546603 Si / 1000 Ang^3
#
#
#
# Elastic Constant Matrix: (Units=GPa)
#
#
# Indices 1 2 3 4 5 6 
#
# 1 72.0471 23.8572 16.8517 0.0000 13.7799 0.0000
# 2 23.8572 138.3452 53.3606 0.0000 6.0766 0.0000
# 3 16.8517 53.3606 153.7353 0.0000 25.8792 0.0000
# 4 0.0000 0.0000 0.0000 40.1620 0.0000 3.7407
# 5 13.7799 6.0766 25.8792 0.0000 24.3416 0.0000
# 6 0.0000 0.0000 0.0000 3.7407 0.0000 16.0267
#
#
#
# Elastic Compliance Matrix: (Units=1/GPa)
#
#
# Indices 1 2 3 4 5 6 
#
# 1 0.016396 -0.002691 0.000714 0.000000 -0.009369 0.000000
# 2 -0.002691 0.008817 -0.003229 0.000000 0.002756 0.000000
# 3 0.000714 -0.003229 0.009110 0.000000 -0.009284 0.000000
# 4 0.000000 0.000000 0.000000 0.025452 0.000000 -0.005941
# 5 -0.009369 0.002756 -0.009284 0.000000 0.055568 0.000000
# 6 0.000000 0.000000 0.000000 -0.005941 0.000000 0.063783
#
#
# Mechanical properties :
#
#
# Convention : Reuss Voigt Hill
#
# Bulk Modulus (GPa) = 41.82355 61.36295 51.59325
# Shear Modulus (GPa) = 25.31536 34.10993 29.71265
#
# Velocity S-wave (km/s) = 3.35446 3.89377 3.63413
# Velocity P-wave (km/s) = 5.79597 6.89133 6.36725
#
# Compressibility (1/GPa) = 0.02390997
#
# Stress axis : x y z
#
# Youngs Moduli (GPa) = 60.99075 113.41889 109.76959
#
# Poissons Ratio (x) = 0.30525 -0.07838
# Poissons Ratio (y) = 0.16415 0.35446
# Poissons Ratio (z) = -0.04355 0.36625
#
# Static dielectric constant tensor:
#      x y z
#    x 3.888570 0.000000 0.331620 
#    y 0.000000 3.766900 0.000000 
#    z 0.331620 0.000000 7.618430 
# 
# 
# High freq. dielectric constant tensor:
#      x y z
#    x 1.861200 0.000000 0.000710 
#    y 0.000000 1.875600 0.000000 
#    z 0.000710 0.000000 1.912430 
# 
# From -- ./inp_files/1570.got.cif
#   From: 2010.06.25/outbox.cif.g09.slc.cpg/sg13_1_cif.got.tgz:1570.got - 2010.06.28 04:50:58.
