data_PCOD8121374
_publ_section_title
;
Structure prediction by ZEFSAII (Michael W. Deem and Ramdas Pophale) SiO2 
 PCOD8121374
Probable space group: P 2/C
;
_chemical_formula_sum "Si O2"
_cell_formula_units_Z 24
_cell_length_a 15.446656
_cell_length_b 5.346781
_cell_length_c 13.854511
_cell_angle_alpha 90.000000
_cell_angle_beta 78.737692
_cell_angle_gamma 90.000000
_cell_volume 1122.208217
_symmetry_space_group_name_H-M "P 2/C"
_symmetry_group_IT_number 13
_symmetry_cell_setting 'monoclinic'
loop_
_space_group_symop_operation_xyz
x,y,z
-x,y,1/2-z
-x,-y,-z
x,-y,1/2+z
loop_
_atom_site_type_symbol
_atom_site_label
_atom_site_fract_x
_atom_site_fract_y
_atom_site_fract_z
Si Si1 0.400507 0.121076 0.737592
Si Si2 0.677563 0.366570 0.306241
Si Si3 0.899117 0.773307 0.034647
Si Si4 0.207774 0.408992 0.560123
Si Si5 0.043250 0.123195 0.640361
Si Si6 0.742295 0.890549 0.615608
O O1 0.500000 0.120568 0.750000
O O2 0.380667 0.382273 0.688960
O O3 0.383731 0.882690 0.669219
O O4 0.336105 0.089785 0.844724
O O5 0.739299 0.393456 0.386775
O O6 0.738549 0.328650 0.198018
O O7 0.976583 0.699684 0.092851
O O8 0.837890 0.980461 0.099930
O O9 0.841680 0.534664 0.019638
O O10 0.940409 0.875128 0.925667
O O11 0.135793 0.264496 0.641247
O O12 0.272997 0.216964 0.489730
O O13 0.000000 0.042372 0.750000
#
# Coordination Sequence:
#
# PCOD8121374 Si02
#       6
#     4   4   4   4   4   4
#     4  10  22  44  68 100 135 172 217 271 332 397
#     4  10  24  40  72  97 128 177 217 265 336 395
#     4  10  22  42  59  91 134 168 228 266 333 381
#     4  11  23  40  64  95 129 170 227 269 330 393
#     4  10  24  36  62  91 129 176 219 275 324 383
#     4   9  23  38  69  89 132 171 213 270 325 391
#
# _framework density 21.386405
#
# number of rings (size 3 to 8) (size 9 to 14) (size 15 to 20)
#    1.000    1.000    0.000    2.000   11.667    0.667 
#    0.000    1.667    0.000    0.000    0.000    0.000 
#    0.000    0.000    0.000    0.000    0.000    0.000 
#
# Total GULP energy -297435.053316 kJ/mol
# GULP energy per Si atom -12393.127221 kJ/mol
# Density = 2.133773 g / cm^3
# Si number density = 21.386405 Si / 1000 Ang^3
#
#
#
# Elastic Constant Matrix: (Units=GPa)
#
#
# Indices 1 2 3 4 5 6 
#
# 1 81.9050 13.4906 24.2189 0.0000 3.4280 0.0000
# 2 13.4906 89.3146 3.5048 0.0000 1.7336 0.0000
# 3 24.2189 3.5048 65.0814 0.0000 -0.4227 0.0000
# 4 0.0000 0.0000 0.0000 16.7585 0.0000 9.6455
# 5 3.4280 1.7336 -0.4227 0.0000 17.4253 0.0000
# 6 0.0000 0.0000 0.0000 9.6455 0.0000 31.3322
#
#
#
# Elastic Compliance Matrix: (Units=1/GPa)
#
#
# Indices 1 2 3 4 5 6 
#
# 1 0.014168 -0.001883 -0.005189 0.000000 -0.002726 0.000000
# 2 -0.001883 0.011493 0.000077 0.000000 -0.000771 0.000000
# 3 -0.005189 0.000077 0.017301 0.000000 0.001433 0.000000
# 4 0.000000 0.000000 0.000000 0.072521 0.000000 -0.022325
# 5 -0.002726 -0.000771 0.001433 0.000000 0.058035 0.000000
# 6 0.000000 0.000000 0.000000 -0.022325 0.000000 0.038789
#
#
# Mechanical properties :
#
#
# Convention : Reuss Voigt Hill
#
# Bulk Modulus (GPa) = 34.51627 35.41440 34.96534
# Shear Modulus (GPa) = 21.19053 26.10898 23.64976
#
# Velocity S-wave (km/s) = 3.15118 3.49782 3.32901
# Velocity P-wave (km/s) = 5.42349 5.73657 5.58223
#
# Compressibility (1/GPa) = 0.02897184
#
# Stress axis : x y z
#
# Youngs Moduli (GPa) = 70.58260 87.01092 57.79890
#
# Poissons Ratio (x) = 0.16388 0.29989
# Poissons Ratio (y) = 0.13294 -0.00445
# Poissons Ratio (z) = 0.36622 -0.00670
#
# Static dielectric constant tensor:
#      x y z
#    x 3.696240 0.000000 -0.083470 
#    y 0.000000 3.802690 0.000000 
#    z -0.083470 0.000000 3.604650 
# 
# 
# High freq. dielectric constant tensor:
#      x y z
#    x 1.825600 0.000000 -0.005010 
#    y 0.000000 1.839690 0.000000 
#    z -0.005010 0.000000 1.823340 
# 
# From -- ./inp_files/52179.got.cif
#   From: 2010.06.25/outbox.cif.g09.slc.cpg/sg13_27_cif.got.tgz:52179.got - 2010.06.28 04:50:58.
