data_PCOD8121198
_publ_section_title
;
Structure prediction by ZEFSAII (Michael W. Deem and Ramdas Pophale) SiO2 
 PCOD8121198
Probable space group: P 2/C
;
_chemical_formula_sum "Si O2"
_cell_formula_units_Z 26
_cell_length_a 7.428979
_cell_length_b 12.415268
_cell_length_c 13.558599
_cell_angle_alpha 90.000000
_cell_angle_beta 66.436830
_cell_angle_gamma 90.000000
_cell_volume 1146.276321
_symmetry_space_group_name_H-M "P 2/C"
_symmetry_group_IT_number 13
_symmetry_cell_setting 'monoclinic'
loop_
_space_group_symop_operation_xyz
x,y,z
-x,y,1/2-z
-x,-y,-z
x,-y,1/2+z
loop_
_atom_site_type_symbol
_atom_site_label
_atom_site_fract_x
_atom_site_fract_y
_atom_site_fract_z
Si Si1 0.271805 0.980854 0.786085
Si Si2 0.947094 0.772387 0.653156
Si Si3 0.186762 0.426012 0.448403
Si Si4 0.304383 0.112130 0.600443
Si Si5 0.791994 0.348811 0.841449
Si Si6 0.255581 0.079090 0.979373
Si Si7 0.500000 0.553026 0.250000
O O1 0.500000 0.998508 0.750000
O O2 0.232569 0.854096 0.796612
O O3 0.204236 0.027705 0.697138
O O4 0.162666 0.057286 0.891326
O O5 0.885385 0.681368 0.590358
O O6 0.000000 0.723610 0.750000
O O7 0.127437 0.841860 0.572687
O O8 0.261362 0.407392 0.543908
O O9 0.359575 0.478273 0.346572
O O10 0.000000 0.500000 0.500000
O O11 0.190632 0.223956 0.632942
O O12 0.533157 0.136614 0.570996
O O13 0.281129 0.047381 0.504045
O O14 0.625043 0.371909 0.796424
O O15 0.000000 0.387365 0.750000
#
# Coordination Sequence:
#
# PCOD8121198 Si02
#       7
#     4   4   4   4   4   4   2
#     4  10  22  40  65 102 150 189 242 290 363 452
#     4  12  26  42  74 105 147 197 249 303 375 448
#     4  12  30  53  77 111 147 197 264 327 383 451
#     4  10  23  40  69 106 149 194 238 295 369 459
#     4  12  28  49  82 115 150 197 254 315 393 457
#     4  10  22  41  64 105 151 198 237 294 364 451
#     4  12  30  56  86 106 150 202 258 336 388 440
#
# _framework density 22.682141000000001
#
# number of rings (size 3 to 8) (size 9 to 14) (size 15 to 20)
#    0.000    0.923    3.077    1.846   12.923    1.231 
#    0.000    0.000    0.000    0.000    0.000    0.000 
#    0.000    0.000    0.000    0.000    0.000    0.000 
#
# Total GULP energy -322286.264783 kJ/mol
# GULP energy per Si atom -12395.625569 kJ/mol
# Density = 2.263052 g / cm^3
# Si number density = 22.682141 Si / 1000 Ang^3
#
#
#
# Elastic Constant Matrix: (Units=GPa)
#
#
# Indices 1 2 3 4 5 6 
#
# 1 72.6279 21.2950 38.2387 0.0000 2.9257 0.0000
# 2 21.2950 97.3599 43.2252 0.0000 -12.8095 0.0000
# 3 38.2387 43.2252 132.1560 0.0000 4.0196 0.0000
# 4 0.0000 0.0000 0.0000 43.2062 0.0000 1.7686
# 5 2.9257 -12.8095 4.0196 0.0000 32.9823 0.0000
# 6 0.0000 0.0000 0.0000 1.7686 0.0000 26.2505
#
#
#
# Elastic Compliance Matrix: (Units=1/GPa)
#
#
# Indices 1 2 3 4 5 6 
#
# 1 0.016587 -0.002052 -0.004074 0.000000 -0.001772 0.000000
# 2 -0.002052 0.013216 -0.003905 0.000000 0.005791 0.000000
# 3 -0.004074 -0.003905 0.010095 0.000000 -0.002385 0.000000
# 4 0.000000 0.000000 0.000000 0.023209 0.000000 -0.001564
# 5 -0.001772 0.005791 -0.002385 0.000000 0.033016 0.000000
# 6 0.000000 0.000000 0.000000 -0.001564 0.000000 0.038200
#
#
# Mechanical properties :
#
#
# Convention : Reuss Voigt Hill
#
# Bulk Modulus (GPa) = 50.41503 56.40683 53.41093
# Shear Modulus (GPa) = 31.05645 33.78012 32.41829
#
# Velocity S-wave (km/s) = 3.70429 3.86331 3.78463
# Velocity P-wave (km/s) = 6.36951 6.69497 6.53427
#
# Compressibility (1/GPa) = 0.01983535
#
# Stress axis : x y z
#
# Youngs Moduli (GPa) = 60.28813 75.66850 99.05495
#
# Poissons Ratio (x) = 0.15529 0.40357
# Poissons Ratio (y) = 0.12373 0.38679
# Poissons Ratio (z) = 0.24563 0.29547
#
# Static dielectric constant tensor:
#      x y z
#    x 4.034530 0.000000 0.203130 
#    y 0.000000 3.924000 0.000000 
#    z 0.203130 0.000000 3.392950 
# 
# 
# High freq. dielectric constant tensor:
#      x y z
#    x 1.899820 0.000000 0.004440 
#    y 0.000000 1.882690 0.000000 
#    z 0.004440 0.000000 1.924270 
# 
# From -- ./inp_files/46808.got.cif
#   From: 2010.06.25/outbox.cif.g09.slc.cpg/sg13_24_cif.got.tgz:46808.got - 2010.06.28 04:50:58.
