data_PCOD8121178
_publ_section_title
;
Structure prediction by ZEFSAII (Michael W. Deem and Ramdas Pophale) SiO2 
 PCOD8121178
Probable space group: P 2/C
;
_chemical_formula_sum "Si O2"
_cell_formula_units_Z 24
_cell_length_a 14.655633
_cell_length_b 5.150517
_cell_length_c 16.159748
_cell_angle_alpha 90.000000
_cell_angle_beta 56.213660
_cell_angle_gamma 90.000000
_cell_volume 1013.799783
_symmetry_space_group_name_H-M "P 2/C"
_symmetry_group_IT_number 13
_symmetry_cell_setting 'monoclinic'
loop_
_space_group_symop_operation_xyz
x,y,z
-x,y,1/2-z
-x,-y,-z
x,-y,1/2+z
loop_
_atom_site_type_symbol
_atom_site_label
_atom_site_fract_x
_atom_site_fract_y
_atom_site_fract_z
Si Si1 0.565779 0.235700 0.063598
Si Si2 0.878323 0.029271 0.347084
Si Si3 0.435227 0.265141 0.629933
Si Si4 0.121371 0.535406 0.225648
Si Si5 0.781553 0.132869 0.055155
Si Si6 0.219266 0.367085 0.838727
O O1 0.530000 0.526413 0.107160
O O2 0.669644 0.123813 0.060278
O O3 0.471323 0.026340 0.136123
O O4 0.590966 0.252585 0.953833
O O5 0.816767 0.294939 0.350616
O O6 0.000000 0.078436 0.250000
O O7 0.814083 0.796401 0.333683
O O8 0.878911 0.963136 0.444297
O O9 0.332272 0.378006 0.731827
O O10 0.122714 0.537717 0.324625
O O11 0.000000 0.575857 0.250000
O O12 0.792356 0.428106 0.080818
O O13 0.790201 0.928342 0.125471
#
# Coordination Sequence:
#
# PCOD8121178 Si02
#       6
#     4   4   4   4   4   4
#     4  10  22  40  63  91 127 175 220 253 301 381
#     4  10  22  44  68  89 120 170 217 260 319 392
#     4  10  22  40  63  91 127 175 220 253 301 381
#     4  10  22  44  68  89 120 170 217 260 319 392
#     4  12  25  40  64  99 134 166 211 273 333 381
#     4  12  25  40  64  99 134 166 211 273 333 381
#
# _framework density 23.673314999999999
#
# number of rings (size 3 to 8) (size 9 to 14) (size 15 to 20)
#    0.000    1.333    0.000    5.000    0.000    8.000 
#    0.000   20.000    0.000    0.000    0.000    0.000 
#    0.000    0.000    0.000    0.000    0.000    0.000 
#
# Total GULP energy -297324.955613 kJ/mol
# GULP energy per Si atom -12388.539817 kJ/mol
# Density = 2.361943 g / cm^3
# Si number density = 23.673315 Si / 1000 Ang^3
#
#
#
# Elastic Constant Matrix: (Units=GPa)
#
#
# Indices 1 2 3 4 5 6 
#
# 1 86.0711 9.5530 28.7890 0.0000 12.5670 0.0000
# 2 9.5530 157.9623 10.8354 0.0000 15.1207 0.0000
# 3 28.7890 10.8354 92.0104 0.0000 8.0578 0.0000
# 4 0.0000 0.0000 0.0000 45.9369 0.0000 20.9445
# 5 12.5670 15.1207 8.0578 0.0000 28.8690 0.0000
# 6 0.0000 0.0000 0.0000 20.9445 0.0000 18.0538
#
#
#
# Elastic Compliance Matrix: (Units=1/GPa)
#
#
# Indices 1 2 3 4 5 6 
#
# 1 0.013611 -0.000101 -0.003826 0.000000 -0.004804 0.000000
# 2 -0.000101 0.006687 -0.000464 0.000000 -0.003329 0.000000
# 3 -0.003826 -0.000464 0.012252 0.000000 -0.001511 0.000000
# 4 0.000000 0.000000 0.000000 0.046213 0.000000 -0.053613
# 5 -0.004804 -0.003329 -0.001511 0.000000 0.038896 0.000000
# 6 0.000000 0.000000 0.000000 -0.053613 0.000000 0.117587
#
#
# Mechanical properties :
#
#
# Convention : Reuss Voigt Hill
#
# Bulk Modulus (GPa) = 42.07358 48.26649 45.17003
# Shear Modulus (GPa) = 19.84508 37.69638 28.77073
#
# Velocity S-wave (km/s) = 2.89846 3.99476 3.48993
# Velocity P-wave (km/s) = 5.38634 6.45836 5.94655
#
# Compressibility (1/GPa) = 0.02376789
#
# Stress axis : x y z
#
# Youngs Moduli (GPa) = 73.47186 149.53844 81.61615
#
# Poissons Ratio (x) = 0.01507 0.31226
# Poissons Ratio (y) = 0.00741 0.03790
# Poissons Ratio (z) = 0.28110 0.06945
#
# Static dielectric constant tensor:
#      x y z
#    x 4.202370 0.000000 0.192330 
#    y 0.000000 5.676490 0.000000 
#    z 0.192330 0.000000 4.283560 
# 
# 
# High freq. dielectric constant tensor:
#      x y z
#    x 1.918160 0.000000 0.011700 
#    y 0.000000 1.971400 0.000000 
#    z 0.011700 0.000000 1.929490 
# 
# From -- ./inp_files/52071.got.cif
#   From: 2010.06.25/outbox.cif.g09.slc.cpg/sg13_27_cif.got.tgz:52071.got - 2010.06.28 04:50:58.
