data_PCOD8121138
_publ_section_title
;
Structure prediction by ZEFSAII (Michael W. Deem and Ramdas Pophale) SiO2 
 PCOD8121138
Probable space group: P 2/C
;
_chemical_formula_sum "Si O2"
_cell_formula_units_Z 22
_cell_length_a 14.497306
_cell_length_b 5.202462
_cell_length_c 15.137949
_cell_angle_alpha 90.000000
_cell_angle_beta 120.057547
_cell_angle_gamma 90.000000
_cell_volume 988.192971
_symmetry_space_group_name_H-M "P 2/C"
_symmetry_group_IT_number 13
_symmetry_cell_setting 'monoclinic'
loop_
_space_group_symop_operation_xyz
x,y,z
-x,y,1/2-z
-x,-y,-z
x,-y,1/2+z
loop_
_atom_site_type_symbol
_atom_site_label
_atom_site_fract_x
_atom_site_fract_y
_atom_site_fract_z
Si Si1 0.777924 0.346185 0.117971
Si Si2 0.587672 0.054234 0.969383
Si Si3 0.000000 0.899094 0.750000
Si Si4 0.912739 0.941939 0.386079
Si Si5 0.641933 0.451062 0.410342
Si Si6 0.222395 0.549690 0.687747
O O1 0.703470 0.090328 0.072346
O O2 0.749411 0.536752 0.023028
O O3 0.747162 0.487948 0.195091
O O4 0.902501 0.281816 0.173421
O O5 0.585460 0.819722 0.899731
O O6 0.436866 0.684705 0.098453
O O7 0.500000 0.000000 0.000000
O O8 0.965974 0.078405 0.814931
O O9 0.859310 0.670343 0.382486
O O10 0.826511 0.168053 0.347884
O O11 0.000000 0.000000 0.500000
O O12 0.672290 0.472231 0.321985
#
# Coordination Sequence:
#
# PCOD8121138 Si02
#       6
#     4   4   2   4   4   4
#     4   9  24  39  64  92 131 164 219 256 318 383
#     4  10  22  43  69  91 121 168 212 267 324 382
#     4  10  22  40  58  94 124 176 204 260 312 372
#     4  11  24  37  58  88 131 172 217 254 308 383
#     4  10  22  40  68  88 127 163 209 265 325 377
#     4  11  23  39  61  92 128 167 214 265 312 380
#
# _framework density 22.262858000000001
#
# number of rings (size 3 to 8) (size 9 to 14) (size 15 to 20)
#    1.091    0.727    0.000    3.273    7.636    4.364 
#    0.000    0.909    0.000    0.000    0.000    0.000 
#    0.000    0.000    0.000    0.000    0.000    0.000 
#
# Total GULP energy -272713.452454 kJ/mol
# GULP energy per Si atom -12396.066021 kJ/mol
# Density = 2.221219 g / cm^3
# Si number density = 22.262858 Si / 1000 Ang^3
#
#
#
# Elastic Constant Matrix: (Units=GPa)
#
#
# Indices 1 2 3 4 5 6 
#
# 1 100.0437 39.3982 4.7925 0.0000 -32.3636 0.0000
# 2 39.3982 129.2472 9.8496 0.0000 -17.4256 0.0000
# 3 4.7925 9.8496 50.2377 0.0000 -20.0975 0.0000
# 4 0.0000 0.0000 0.0000 18.8086 0.0000 -7.6563
# 5 -32.3636 -17.4256 -20.0975 0.0000 44.6544 0.0000
# 6 0.0000 0.0000 0.0000 -7.6563 0.0000 32.9490
#
#
#
# Elastic Compliance Matrix: (Units=1/GPa)
#
#
# Indices 1 2 3 4 5 6 
#
# 1 0.014662 -0.003265 0.003638 0.000000 0.010990 0.000000
# 2 -0.003265 0.008900 -0.001208 0.000000 0.000563 0.000000
# 3 0.003638 -0.001208 0.025198 0.000000 0.013506 0.000000
# 4 0.000000 0.000000 0.000000 0.058722 0.000000 0.013645
# 5 0.010990 0.000563 0.013506 0.000000 0.036657 0.000000
# 6 0.000000 0.000000 0.000000 0.013645 0.000000 0.033521
#
#
# Mechanical properties :
#
#
# Convention : Reuss Voigt Hill
#
# Bulk Modulus (GPa) = 21.23593 43.06769 32.15181
# Shear Modulus (GPa) = 25.63731 34.31495 29.97613
#
# Velocity S-wave (km/s) = 3.39717 3.93027 3.67340
# Velocity P-wave (km/s) = 4.99470 6.32322 5.69781
#
# Compressibility (1/GPa) = 0.04709001
#
# Stress axis : x y z
#
# Youngs Moduli (GPa) = 68.20209 112.35477 39.68527
#
# Poissons Ratio (x) = 0.36684 -0.14437
# Poissons Ratio (y) = 0.22268 0.04795
# Poissons Ratio (z) = -0.24811 0.13576
#
# Static dielectric constant tensor:
#      x y z
#    x 3.726960 0.000000 -0.645710 
#    y 0.000000 3.952730 0.000000 
#    z -0.645710 0.000000 3.296290 
# 
# 
# High freq. dielectric constant tensor:
#      x y z
#    x 1.866820 0.000000 -0.019890 
#    y 0.000000 1.875360 0.000000 
#    z -0.019890 0.000000 1.872010 
# 
# From -- ./inp_files/49008.got.cif
#   From: 2010.06.25/outbox.cif.g09.slc.cpg/sg13_25_cif.got.tgz:49008.got - 2010.06.28 04:50:58.
