data_PCOD8121665
_publ_section_title
;
Structure prediction by ZEFSAII (Michael W. Deem and Ramdas Pophale) SiO2 
 PCOD8121665
Probable space group: P 2/C
;
_chemical_formula_sum "Si O2"
_cell_formula_units_Z 18
_cell_length_a 5.538764
_cell_length_b 11.170191
_cell_length_c 11.646109
_cell_angle_alpha 90.000000
_cell_angle_beta 90.671391
_cell_angle_gamma 90.000000
_cell_volume 720.484253
_symmetry_space_group_name_H-M "P 2/C"
_symmetry_group_IT_number 13
_symmetry_cell_setting 'monoclinic'
loop_
_space_group_symop_operation_xyz
x,y,z
-x,y,1/2-z
-x,-y,-z
x,-y,1/2+z
loop_
_atom_site_type_symbol
_atom_site_label
_atom_site_fract_x
_atom_site_fract_y
_atom_site_fract_z
Si Si1 0.182994 0.594886 0.052461
Si Si2 0.800483 0.782820 0.071147
Si Si3 0.248383 0.032123 0.319676
Si Si4 0.500000 0.632076 0.250000
Si Si5 0.538433 0.731404 0.619787
O O1 0.314735 0.551028 0.171788
O O2 0.061302 0.721675 0.086043
O O3 0.366024 0.616173 0.948596
O O4 0.000000 0.500000 0.000000
O O5 0.623129 0.717711 0.158301
O O6 0.799637 0.923452 0.094483
O O7 0.716208 0.766680 0.939011
O O8 0.500000 0.014414 0.250000
O O9 0.279371 0.155475 0.390553
O O10 0.000000 0.044930 0.250000
O O11 0.500000 0.692574 0.750000
#
# Coordination Sequence:
#
# PCOD8121665 Si02
#       5
#     4   4   4   2   4
#     4  11  26  48  74 105 140 196 250 307 371 443
#     4  11  23  46  73 105 144 191 246 300 373 450
#     4  11  24  43  76 112 151 196 243 312 382 453
#     4  10  22  46  72 106 136 184 248 304 366 444
#     4  10  26  46  69 107 149 188 244 304 379 447
#
# _framework density 24.983196
#
# number of rings (size 3 to 8) (size 9 to 14) (size 15 to 20)
#    0.000    1.333    1.111    2.667    9.333    4.444 
#   12.000    0.000    0.000    0.000    0.000    0.000 
#    0.000    0.000    0.000    0.000    0.000    0.000 
#
# Total GULP energy -223099.552470 kJ/mol
# GULP energy per Si atom -12394.419582 kJ/mol
# Density = 2.492633 g / cm^3
# Si number density = 24.983196 Si / 1000 Ang^3
#
#
#
# Elastic Constant Matrix: (Units=GPa)
#
#
# Indices 1 2 3 4 5 6 
#
# 1 107.5669 20.5266 59.8506 0.0000 36.1374 0.0000
# 2 20.5266 82.6621 48.5123 0.0000 16.8134 0.0000
# 3 59.8506 48.5123 195.9114 0.0000 43.8403 0.0000
# 4 0.0000 0.0000 0.0000 32.1271 0.0000 7.8844
# 5 36.1374 16.8134 43.8403 0.0000 50.2505 0.0000
# 6 0.0000 0.0000 0.0000 7.8844 0.0000 32.1687
#
#
#
# Elastic Compliance Matrix: (Units=1/GPa)
#
#
# Indices 1 2 3 4 5 6 
#
# 1 0.013087 -0.000442 -0.002256 0.000000 -0.007295 0.000000
# 2 -0.000442 0.014347 -0.003000 0.000000 -0.001865 0.000000
# 3 -0.002256 -0.003000 0.007392 0.000000 -0.003823 0.000000
# 4 0.000000 0.000000 0.000000 0.033118 0.000000 -0.008117
# 5 -0.007295 -0.001865 -0.003823 0.000000 0.029106 0.000000
# 6 0.000000 0.000000 0.000000 -0.008117 0.000000 0.033076
#
#
# Mechanical properties :
#
#
# Convention : Reuss Voigt Hill
#
# Bulk Modulus (GPa) = 42.68096 71.54662 57.11379
# Shear Modulus (GPa) = 33.48228 40.05933 36.77080
#
# Velocity S-wave (km/s) = 3.66483 4.00866 3.84059
# Velocity P-wave (km/s) = 5.91853 7.07996 6.52514
#
# Compressibility (1/GPa) = 0.02342965
#
# Stress axis : x y z
#
# Youngs Moduli (GPa) = 76.41138 69.69911 135.28182
#
# Poissons Ratio (x) = 0.03079 0.30522
# Poissons Ratio (y) = 0.03376 0.40590
# Poissons Ratio (z) = 0.17240 0.20913
#
# Static dielectric constant tensor:
#      x y z
#    x 4.760650 0.000000 0.248650 
#    y 0.000000 4.553350 0.000000 
#    z 0.248650 0.000000 4.802280 
# 
# 
# High freq. dielectric constant tensor:
#      x y z
#    x 2.003260 0.000000 0.011940 
#    y 0.000000 1.994620 0.000000 
#    z 0.011940 0.000000 2.006420 
# 
# From -- ./inp_files/25721.got.cif
#   From: 2010.06.25/outbox.cif.g09.slc.cpg/sg13_13_cif.got.tgz:25721.got - 2010.06.28 04:50:58.
