data_PCOD8121996
_publ_section_title
;
Structure prediction by ZEFSAII (Michael W. Deem and Ramdas Pophale) SiO2 
 PCOD8121996
Probable space group: P 2/C
;
_chemical_formula_sum "Si O2"
_cell_formula_units_Z 28
_cell_length_a 9.445688
_cell_length_b 8.488389
_cell_length_c 30.265354
_cell_angle_alpha 90.000000
_cell_angle_beta 32.297405
_cell_angle_gamma 90.000000
_cell_volume 1296.585724
_symmetry_space_group_name_H-M "P 2/C"
_symmetry_group_IT_number 13
_symmetry_cell_setting 'monoclinic'
loop_
_space_group_symop_operation_xyz
x,y,z
-x,y,1/2-z
-x,-y,-z
x,-y,1/2+z
loop_
_atom_site_type_symbol
_atom_site_label
_atom_site_fract_x
_atom_site_fract_y
_atom_site_fract_z
Si Si1 0.695262 0.127118 0.614803
Si Si2 0.405002 0.694092 0.976828
Si Si3 0.783692 0.778753 0.565460
Si Si4 0.889458 0.778309 0.231891
Si Si5 0.964704 0.058665 0.893784
Si Si6 0.901262 0.487382 0.373405
Si Si7 0.779179 0.743450 0.661831
O O1 0.427946 0.228179 0.682551
O O2 0.810994 0.137704 0.634073
O O3 0.905433 0.203554 0.526209
O O4 0.645860 0.947645 0.611955
O O5 0.223093 0.570727 0.050998
O O6 0.323477 0.870551 0.015516
O O7 0.362409 0.686438 0.935354
O O8 0.708377 0.647622 0.904970
O O9 0.762480 0.678599 0.616093
O O10 0.978840 0.906295 0.172195
O O11 0.000000 0.832085 0.250000
O O12 0.014370 0.609014 0.186761
O O13 0.981965 0.871444 0.897228
O O14 0.165275 0.401862 0.320578
O O15 0.500000 0.821167 0.750000
#
# Coordination Sequence:
#
# PCOD8121996 Si02
#       7
#     4   4   4   4   4   4   4
#     4   9  18  36  62  92 116 144 197 254 300 343
#     4   9  20  41  62  85 121 159 200 243 294 350
#     4   9  19  36  63  90 113 147 200 256 290 346
#     4  11  23  38  59  86 120 161 200 238 291 362
#     4   9  19  39  64  87 117 154 196 252 297 346
#     4  10  24  40  55  85 129 164 191 241 298 354
#     4  11  23  38  59  90 123 154 197 250 305 358
#
# _framework density 21.595178000000001
#
# number of rings (size 3 to 8) (size 9 to 14) (size 15 to 20)
#    0.000    2.286    0.000    3.000    0.000   10.286 
#    0.000    0.714    0.000    0.000    0.000    0.000 
#    0.000    0.000    0.000    0.000    0.000    0.000 
#
# Total GULP energy -347111.130041 kJ/mol
# GULP energy per Si atom -12396.826073 kJ/mol
# Density = 2.154603 g / cm^3
# Si number density = 21.595178 Si / 1000 Ang^3
#
#
#
# Elastic Constant Matrix: (Units=GPa)
#
#
# Indices 1 2 3 4 5 6 
#
# 1 128.9276 35.2112 54.2088 0.0000 29.9584 0.0000
# 2 35.2112 47.9590 18.3867 0.0000 1.8745 0.0000
# 3 54.2088 18.3867 96.7145 0.0000 13.1313 0.0000
# 4 0.0000 0.0000 0.0000 23.2466 0.0000 -3.0656
# 5 29.9584 1.8745 13.1313 0.0000 39.8339 0.0000
# 6 0.0000 0.0000 0.0000 -3.0656 0.0000 38.1705
#
#
#
# Elastic Compliance Matrix: (Units=1/GPa)
#
#
# Indices 1 2 3 4 5 6 
#
# 1 0.014134 -0.008036 -0.005237 0.000000 -0.008525 0.000000
# 2 -0.008036 0.027065 -0.001349 0.000000 0.005215 0.000000
# 3 -0.005237 -0.001349 0.013597 0.000000 -0.000480 0.000000
# 4 0.000000 0.000000 0.000000 0.043478 0.000000 0.003492
# 5 -0.008525 0.005215 -0.000480 0.000000 0.031429 0.000000
# 6 0.000000 0.000000 0.000000 0.003492 0.000000 0.026479
#
#
# Mechanical properties :
#
#
# Convention : Reuss Voigt Hill
#
# Bulk Modulus (GPa) = 39.13730 54.35716 46.74723
# Shear Modulus (GPa) = 25.78100 31.30316 28.54208
#
# Velocity S-wave (km/s) = 3.45893 3.81142 3.63945
# Velocity P-wave (km/s) = 5.84079 6.67794 6.27334
#
# Compressibility (1/GPa) = 0.02555107
#
# Stress axis : x y z
#
# Youngs Moduli (GPa) = 70.75197 36.94868 73.54760
#
# Poissons Ratio (x) = 0.29692 0.38515
# Poissons Ratio (y) = 0.56857 0.09923
# Poissons Ratio (z) = 0.37051 0.04985
#
# Static dielectric constant tensor:
#      x y z
#    x 3.902730 0.000000 0.134230 
#    y 0.000000 3.639380 0.000000 
#    z 0.134230 0.000000 3.848990 
# 
# 
# High freq. dielectric constant tensor:
#      x y z
#    x 1.848220 0.000000 0.013500 
#    y 0.000000 1.824870 0.000000 
#    z 0.013500 0.000000 1.846920 
# 
# From -- ./inp_files/91426.got.cif
#   From: 2010.06.25/outbox.cif.g09.slc.cpg/sg13_46_cif.got.tgz:91426.got - 2010.06.28 04:50:58.
