data_PCOD8121539
_publ_section_title
;
Structure prediction by ZEFSAII (Michael W. Deem and Ramdas Pophale) SiO2 
 PCOD8121539
Probable space group: P 2/C
;
_chemical_formula_sum "Si O2"
_cell_formula_units_Z 22
_cell_length_a 9.802868
_cell_length_b 6.608584
_cell_length_c 21.916695
_cell_angle_alpha 90.000000
_cell_angle_beta 40.500978
_cell_angle_gamma 90.000000
_cell_volume 922.124856
_symmetry_space_group_name_H-M "P 2/C"
_symmetry_group_IT_number 13
_symmetry_cell_setting 'monoclinic'
loop_
_space_group_symop_operation_xyz
x,y,z
-x,y,1/2-z
-x,-y,-z
x,-y,1/2+z
loop_
_atom_site_type_symbol
_atom_site_label
_atom_site_fract_x
_atom_site_fract_y
_atom_site_fract_z
Si Si1 0.723228 0.875797 0.055949
Si Si2 0.577571 0.523417 0.349586
Si Si3 0.410146 0.186817 0.489453
Si Si4 0.838173 0.943394 0.637243
Si Si5 0.500000 0.367129 0.250000
Si Si6 0.018150 0.759961 0.309516
O O1 0.552934 0.722096 0.084633
O O2 0.716536 0.909716 0.130990
O O3 0.683389 0.094741 0.040359
O O4 0.962139 0.822174 0.957343
O O5 0.568233 0.357851 0.408017
O O6 0.450269 0.487054 0.329172
O O7 0.823108 0.568806 0.251641
O O8 0.218164 0.302906 0.589352
O O9 0.500000 0.000000 0.500000
O O10 0.883726 0.074236 0.680644
O O11 0.691775 0.764935 0.709053
O O12 0.000000 0.866340 0.250000
#
# Coordination Sequence:
#
# PCOD8121539 Si02
#       6
#     4   4   4   4   2   4
#     4  10  22  45  70 100 143 189 239 304 366 429
#     4  12  26  44  73 108 144 186 246 303 361 441
#     4  11  26  49  73 103 149 197 239 302 372 438
#     4  10  22  43  72 100 142 190 238 301 366 431
#     4  12  24  40  72 108 136 190 240 300 366 420
#     4  11  26  46  72 106 142 188 242 297 359 439
#
# _framework density 23.857938999999998
#
# number of rings (size 3 to 8) (size 9 to 14) (size 15 to 20)
#    0.000    1.091    1.818    3.273    5.091    3.636 
#    3.273    0.000    0.000    0.000    0.000    0.000 
#    0.000    0.000    0.000    0.000    0.000    0.000 
#
# Total GULP energy -272573.595557 kJ/mol
# GULP energy per Si atom -12389.708889 kJ/mol
# Density = 2.380364 g / cm^3
# Si number density = 23.857939 Si / 1000 Ang^3
#
#
#
# Elastic Constant Matrix: (Units=GPa)
#
#
# Indices 1 2 3 4 5 6 
#
# 1 105.4079 30.4640 48.2299 0.0000 9.4859 0.0000
# 2 30.4640 83.8579 59.5646 0.0000 -5.8890 0.0000
# 3 48.2299 59.5646 137.6891 0.0000 -2.7930 0.0000
# 4 0.0000 0.0000 0.0000 39.1988 0.0000 4.9858
# 5 9.4859 -5.8890 -2.7930 0.0000 55.2897 0.0000
# 6 0.0000 0.0000 0.0000 4.9858 0.0000 8.2089
#
#
#
# Elastic Compliance Matrix: (Units=1/GPa)
#
#
# Indices 1 2 3 4 5 6 
#
# 1 0.011817 -0.002148 -0.003259 0.000000 -0.002421 0.000000
# 2 -0.002148 0.017723 -0.006876 0.000000 0.001909 0.000000
# 3 -0.003259 -0.006876 0.011387 0.000000 0.000402 0.000000
# 4 0.000000 0.000000 0.000000 0.027647 0.000000 -0.016792
# 5 -0.002421 0.001909 0.000402 0.000000 0.018726 0.000000
# 6 0.000000 0.000000 0.000000 -0.016792 0.000000 0.132018
#
#
# Mechanical properties :
#
#
# Convention : Reuss Voigt Hill
#
# Bulk Modulus (GPa) = 61.12046 67.05241 64.08644
# Shear Modulus (GPa) = 20.05318 33.11924 26.58621
#
# Velocity S-wave (km/s) = 2.90233 3.72988 3.34182
# Velocity P-wave (km/s) = 6.07498 6.83485 6.46609
#
# Compressibility (1/GPa) = 0.01636113
#
# Stress axis : x y z
#
# Youngs Moduli (GPa) = 84.62534 56.42266 87.81844
#
# Poissons Ratio (x) = 0.12119 0.28621
# Poissons Ratio (y) = 0.18176 0.60385
# Poissons Ratio (z) = 0.27581 0.38797
#
# Static dielectric constant tensor:
#      x y z
#    x 4.371120 0.000000 0.014100 
#    y 0.000000 4.023190 0.000000 
#    z 0.014100 0.000000 4.714000 
# 
# 
# High freq. dielectric constant tensor:
#      x y z
#    x 1.959630 0.000000 0.010760 
#    y 0.000000 1.922980 0.000000 
#    z 0.010760 0.000000 1.960680 
# 
# From -- ./inp_files/85744.got.cif
#   From: 2010.06.25/outbox.cif.g09.slc.cpg/sg13_43_cif.got.tgz:85744.got - 2010.06.28 04:50:58.
