data_PCOD8121640
_publ_section_title
;
Structure prediction by ZEFSAII (Michael W. Deem and Ramdas Pophale) SiO2 
 PCOD8121640
Probable space group: P 2/C
;
_chemical_formula_sum "Si O2"
_cell_formula_units_Z 32
_cell_length_a 9.267068
_cell_length_b 22.603008
_cell_length_c 15.585819
_cell_angle_alpha 90.000000
_cell_angle_beta 150.866002
_cell_angle_gamma 90.000000
_cell_volume 1589.412980
_symmetry_space_group_name_H-M "P 2/C"
_symmetry_group_IT_number 13
_symmetry_cell_setting 'monoclinic'
loop_
_space_group_symop_operation_xyz
x,y,z
-x,y,1/2-z
-x,-y,-z
x,-y,1/2+z
loop_
_atom_site_type_symbol
_atom_site_label
_atom_site_fract_x
_atom_site_fract_y
_atom_site_fract_z
Si Si1 0.825213 0.764177 0.246510
Si Si2 0.177348 0.373662 0.756940
Si Si3 0.501776 0.974583 0.351700
Si Si4 0.339748 0.155462 0.576312
Si Si5 0.926846 0.070422 0.617778
Si Si6 0.695481 0.457314 0.047585
Si Si7 0.194626 0.543532 0.547040
Si Si8 0.153729 0.823942 0.557231
O O1 0.753443 0.695454 0.207217
O O2 0.515542 0.801779 0.100060
O O3 0.000000 0.783722 0.250000
O O4 0.035984 0.769507 0.439487
O O5 0.000000 0.392833 0.750000
O O6 0.984049 0.397696 0.576013
O O7 0.507860 0.399604 0.926072
O O8 0.500000 0.986980 0.250000
O O9 0.656372 0.911777 0.456932
O O10 0.171176 0.976203 0.214800
O O11 0.633775 0.031112 0.469348
O O12 0.500000 0.157950 0.750000
O O13 0.001681 0.173493 0.428215
O O14 0.000000 0.097511 0.750000
O O15 0.922754 0.120256 0.542922
O O16 0.000000 0.436179 0.250000
O O17 0.500000 0.500000 0.000000
O O18 0.748955 0.498181 0.996940
O O19 0.500000 0.565228 0.750000
O O20 0.000000 0.500000 0.500000
O O21 0.500000 0.817156 0.750000
#
# Coordination Sequence:
#
# PCOD8121640 Si02
#       8
#     4   4   4   4   4   4   4   4
#     4  10  22  45  70  88 122 170 218 266 321 376
#     4  11  23  41  66  95 126 174 213 257 327 398
#     4  11  21  38  62  91 125 166 205 254 322 383
#     4   9  19  41  64  86 123 165 206 254 318 382
#     4  12  24  38  60  96 131 161 206 262 319 383
#     4  12  20  39  65  87 130 175 206 251 317 391
#     4  12  22  36  58  97 132 162 207 263 318 363
#     4  11  23  42  67  91 123 170 211 261 323 385
#
# _framework density 20.133217999999999
#
# number of rings (size 3 to 8) (size 9 to 14) (size 15 to 20)
#    0.000    1.000    7.500    1.500    1.750    0.500 
#    6.750    3.125    0.000    0.000    0.000    0.000 
#    0.000    0.000    0.000    0.000    0.000    0.000 
#
# Total GULP energy -396421.409392 kJ/mol
# GULP energy per Si atom -12388.169044 kJ/mol
# Density = 2.008739 g / cm^3
# Si number density = 20.133218 Si / 1000 Ang^3
#
#
#
# Elastic Constant Matrix: (Units=GPa)
#
#
# Indices 1 2 3 4 5 6 
#
# 1 96.8859 20.2808 21.2280 0.0000 7.0921 0.0000
# 2 20.2808 88.5764 23.1631 0.0000 -2.4138 0.0000
# 3 21.2280 23.1631 119.5957 0.0000 12.4046 0.0000
# 4 0.0000 0.0000 0.0000 830.7417 0.0000 -458.6846
# 5 7.0921 -2.4138 12.4046 0.0000 30.4688 0.0000
# 6 0.0000 0.0000 0.0000 -458.6846 0.0000 294.0020
#
#
#
# Elastic Compliance Matrix: (Units=1/GPa)
#
#
# Indices 1 2 3 4 5 6 
#
# 1 0.011256 -0.002294 -0.001319 0.000000 -0.002265 0.000000
# 2 -0.002294 0.012473 -0.002262 0.000000 0.002443 0.000000
# 3 -0.001319 -0.002262 0.009418 0.000000 -0.003707 0.000000
# 4 0.000000 0.000000 0.000000 0.008686 0.000000 0.013551
# 5 -0.002265 0.002443 -0.003707 0.000000 0.035050 0.000000
# 6 0.000000 0.000000 0.000000 0.013551 0.000000 0.024543
#
#
# Mechanical properties :
#
#
# Convention : Reuss Voigt Hill
#
# Bulk Modulus (GPa) = 46.73362 48.26685 47.50023
# Shear Modulus (GPa) = 41.55957 247.06824 144.31390
#
# Velocity S-wave (km/s) = 4.54831 11.08978 8.47556
# Velocity P-wave (km/s) = 7.13060 13.71143 10.92814
#
# Compressibility (1/GPa) = 0.02139787
#
# Stress axis : x y z
#
# Youngs Moduli (GPa) = 88.83843 80.17282 106.17829
#
# Poissons Ratio (x) = 0.18393 0.14002
# Poissons Ratio (y) = 0.20381 0.24017
# Poissons Ratio (z) = 0.11715 0.18135
#
# Static dielectric constant tensor:
#      x y z
#    x 4.128490 0.000000 0.258300 
#    y 0.000000 3.660710 0.000000 
#    z 0.258300 0.000000 4.037030 
# 
# 
# High freq. dielectric constant tensor:
#      x y z
#    x 1.804830 0.000000 0.014610 
#    y 0.000000 1.777370 0.000000 
#    z 0.014610 0.000000 1.771710 
# 
# From -- ./inp_files/48311.got.cif
#   From: 2010.06.25/outbox.cif.g09.slc.cpg/sg13_25_cif.got.tgz:48311.got - 2010.06.28 04:50:58.
