data_PCOD8121048
_publ_section_title
;
Structure prediction by ZEFSAII (Michael W. Deem and Ramdas Pophale) SiO2 
 PCOD8121048
Probable space group: P 2/C
;
_chemical_formula_sum "Si O2"
_cell_formula_units_Z 24
_cell_length_a 8.748633
_cell_length_b 9.736993
_cell_length_c 17.931386
_cell_angle_alpha 90.000000
_cell_angle_beta 56.089226
_cell_angle_gamma 90.000000
_cell_volume 1267.676817
_symmetry_space_group_name_H-M "P 2/C"
_symmetry_group_IT_number 13
_symmetry_cell_setting 'monoclinic'
loop_
_space_group_symop_operation_xyz
x,y,z
-x,y,1/2-z
-x,-y,-z
x,-y,1/2+z
loop_
_atom_site_type_symbol
_atom_site_label
_atom_site_fract_x
_atom_site_fract_y
_atom_site_fract_z
Si Si1 0.095250 0.626994 0.436509
Si Si2 0.162034 0.788003 0.764831
Si Si3 0.177960 0.525815 0.252450
Si Si4 0.880783 0.871721 0.554489
Si Si5 0.493335 0.288370 0.840825
Si Si6 0.490097 0.019802 0.164803
O O1 0.123922 0.601292 0.342380
O O2 0.291286 0.661295 0.422502
O O3 0.000000 0.500000 0.500000
O O4 0.952274 0.749962 0.483692
O O5 0.237183 0.631998 0.750614
O O6 0.097095 0.837257 0.863902
O O7 0.318366 0.886634 0.688413
O O8 0.000000 0.796757 0.750000
O O9 0.351458 0.607524 0.169269
O O10 0.000000 0.534499 0.250000
O O11 0.672024 0.902871 0.587123
O O12 0.000000 0.000000 0.500000
O O13 0.500000 0.290273 0.750000
O O14 0.528211 0.134498 0.863387
O O15 0.500000 0.005090 0.250000
#
# Coordination Sequence:
#
# PCOD8121048 Si02
#       6
#     4   4   4   4   4   4
#     4  11  21  36  60  86 110 146 189 232 277 327
#     4  10  22  39  58  82 114 151 187 227 280 338
#     4  10  22  39  57  82 115 150 187 230 279 334
#     4  11  21  38  60  84 115 145 186 237 277 326
#     4   9  19  35  56  82 112 147 187 225 273 339
#     4   9  19  35  57  81 109 150 188 223 275 340
#
# _framework density 18.932272000000001
#
# number of rings (size 3 to 8) (size 9 to 14) (size 15 to 20)
#    0.000    2.000    3.333    0.000    4.667    2.667 
#    0.000    3.333    0.000    0.000    0.000    0.000 
#    0.000    0.000    0.000    0.000    0.000    0.000 
#
# Total GULP energy -297553.734380 kJ/mol
# GULP energy per Si atom -12398.072266 kJ/mol
# Density = 1.888918 g / cm^3
# Si number density = 18.932272 Si / 1000 Ang^3
#
#
#
# Elastic Constant Matrix: (Units=GPa)
#
#
# Indices 1 2 3 4 5 6 
#
# 1 76.7889 61.7152 36.5686 0.0000 -21.3331 0.0000
# 2 61.7152 189.8464 67.1159 0.0000 -30.8909 0.0000
# 3 36.5686 67.1159 85.1043 0.0000 -31.2696 0.0000
# 4 0.0000 0.0000 0.0000 37.8963 0.0000 -13.9496
# 5 -21.3331 -30.8909 -31.2696 0.0000 33.0167 0.0000
# 6 0.0000 0.0000 0.0000 -13.9496 0.0000 32.3207
#
#
#
# Elastic Compliance Matrix: (Units=1/GPa)
#
#
# Indices 1 2 3 4 5 6 
#
# 1 0.019511 -0.004417 -0.002740 0.000000 0.005879 0.000000
# 2 -0.004417 0.008401 -0.004429 0.000000 0.000811 0.000000
# 3 -0.002740 -0.004429 0.021852 0.000000 0.014781 0.000000
# 4 0.000000 0.000000 0.000000 0.031372 0.000000 0.013540
# 5 0.005879 0.000811 0.014781 0.000000 0.048844 0.000000
# 6 0.000000 0.000000 0.000000 0.013540 0.000000 0.036784
#
#
# Mechanical properties :
#
#
# Convention : Reuss Voigt Hill
#
# Bulk Modulus (GPa) = 37.60765 75.83766 56.72265
# Shear Modulus (GPa) = 25.15084 33.06938 29.11011
#
# Velocity S-wave (km/s) = 3.64876 4.18391 3.92547
# Velocity P-wave (km/s) = 6.13667 7.96771 7.11137
#
# Compressibility (1/GPa) = 0.02659034
#
# Stress axis : x y z
#
# Youngs Moduli (GPa) = 51.25304 119.02884 45.76316
#
# Poissons Ratio (x) = 0.52580 0.12539
# Poissons Ratio (y) = 0.22641 0.20270
# Poissons Ratio (z) = 0.14044 0.52722
#
# Static dielectric constant tensor:
#      x y z
#    x 3.441970 0.000000 -0.556940 
#    y 0.000000 3.856980 0.000000 
#    z -0.556940 0.000000 3.726910 
# 
# 
# High freq. dielectric constant tensor:
#      x y z
#    x 1.714080 0.000000 -0.029380 
#    y 0.000000 1.759930 0.000000 
#    z -0.029380 0.000000 1.729320 
# 
# From -- ./inp_files/68316.got.cif
#   From: 2010.06.25/outbox.cif.g09.slc.cpg/sg13_35_cif.got.tgz:68316.got - 2010.06.28 04:50:58.
