data_PCOD8121664
_publ_section_title
;
Structure prediction by ZEFSAII (Michael W. Deem and Ramdas Pophale) SiO2 
 PCOD8121664
Probable space group: P 2/C
;
_chemical_formula_sum "Si O2"
_cell_formula_units_Z 16
_cell_length_a 9.546122
_cell_length_b 11.542454
_cell_length_c 9.622094
_cell_angle_alpha 90.000000
_cell_angle_beta 137.114241
_cell_angle_gamma 90.000000
_cell_volume 721.518717
_symmetry_space_group_name_H-M "P 2/C"
_symmetry_group_IT_number 13
_symmetry_cell_setting 'monoclinic'
loop_
_space_group_symop_operation_xyz
x,y,z
-x,y,1/2-z
-x,-y,-z
x,-y,1/2+z
loop_
_atom_site_type_symbol
_atom_site_label
_atom_site_fract_x
_atom_site_fract_y
_atom_site_fract_z
Si Si1 0.361798 0.799476 0.289894
Si Si2 0.065654 0.738964 0.653176
Si Si3 0.854804 0.006950 0.266969
Si Si4 0.550226 0.611961 0.626464
O O1 0.500000 0.799471 0.250000
O O2 0.436885 0.716993 0.467225
O O3 0.347289 0.928104 0.349096
O O4 0.129244 0.761712 0.085548
O O5 0.199090 0.856307 0.791380
O O6 0.208990 0.642923 0.687777
O O7 0.000000 0.681704 0.750000
O O8 0.000000 0.958499 0.250000
O O9 0.000000 0.000000 0.500000
O O10 0.500000 0.590502 0.750000
O O11 0.500000 0.500000 0.500000
#
# Coordination Sequence:
#
# PCOD8121664 Si02
#       4
#     4   4   4   4
#     4  11  23  44  72 103 143 182 223 279 343 408
#     4  10  22  46  71 102 143 178 223 285 337 407
#     4   9  21  39  66 104 143 178 220 271 339 406
#     4  12  29  48  70 101 130 179 241 284 346 407
#
# _framework density 22.175447999999999
#
# number of rings (size 3 to 8) (size 9 to 14) (size 15 to 20)
#    0.000    1.500    2.500    0.750    7.000    3.000 
#    0.000    0.000    0.000    0.000    0.000    0.000 
#    0.000    0.000    0.000    0.000    0.000    0.000 
#
# Total GULP energy -198226.061878 kJ/mol
# GULP energy per Si atom -12389.128867 kJ/mol
# Density = 2.212498 g / cm^3
# Si number density = 22.175448 Si / 1000 Ang^3
#
#
#
# Elastic Constant Matrix: (Units=GPa)
#
#
# Indices 1 2 3 4 5 6 
#
# 1 164.0814 82.3649 61.0624 0.0000 -23.4434 0.0000
# 2 82.3649 110.4465 48.1305 0.0000 4.1888 0.0000
# 3 61.0624 48.1305 97.5437 0.0000 -16.2358 0.0000
# 4 0.0000 0.0000 0.0000 31.1931 0.0000 3.9667
# 5 -23.4434 4.1888 -16.2358 0.0000 49.2645 0.0000
# 6 0.0000 0.0000 0.0000 3.9667 0.0000 15.4157
#
#
#
# Elastic Compliance Matrix: (Units=1/GPa)
#
#
# Indices 1 2 3 4 5 6 
#
# 1 0.011779 -0.007860 -0.002594 0.000000 0.005419 0.000000
# 2 -0.007860 0.017220 -0.004701 0.000000 -0.006754 0.000000
# 3 -0.002594 -0.004701 0.014872 0.000000 0.004067 0.000000
# 4 0.000000 0.000000 0.000000 0.033143 0.000000 -0.008528
# 5 0.005419 -0.006754 0.004067 0.000000 0.024792 0.000000
# 6 0.000000 0.000000 0.000000 -0.008528 0.000000 0.067063
#
#
# Mechanical properties :
#
#
# Convention : Reuss Voigt Hill
#
# Bulk Modulus (GPa) = 73.73039 83.90970 78.82004
# Shear Modulus (GPa) = 24.54605 31.20892 27.87748
#
# Velocity S-wave (km/s) = 3.33062 3.75555 3.54945
# Velocity P-wave (km/s) = 6.93625 7.53172 7.24011
#
# Compressibility (1/GPa) = 0.01356293
#
# Stress axis : x y z
#
# Youngs Moduli (GPa) = 84.89417 58.07180 67.24082
#
# Poissons Ratio (x) = 0.45642 0.17441
# Poissons Ratio (y) = 0.66723 0.31609
# Poissons Ratio (z) = 0.22020 0.27298
#
# Static dielectric constant tensor:
#      x y z
#    x 3.612580 0.000000 -0.253260 
#    y 0.000000 6.490470 0.000000 
#    z -0.253260 0.000000 3.902750 
# 
# 
# High freq. dielectric constant tensor:
#      x y z
#    x 1.878710 0.000000 -0.003680 
#    y 0.000000 1.864910 0.000000 
#    z -0.003680 0.000000 1.886530 
# 
# From -- ./inp_files/11485.got.cif
#   From: 2010.06.25/outbox.cif.g09.slc.cpg/sg13_6_cif.got.tgz:11485.got - 2010.06.28 04:50:58.
