data_PCOD8121422
_publ_section_title
;
Structure prediction by ZEFSAII (Michael W. Deem and Ramdas Pophale) SiO2 
 PCOD8121422
Probable space group: P 2/C
;
_chemical_formula_sum "Si O2"
_cell_formula_units_Z 28
_cell_length_a 11.419727
_cell_length_b 6.557009
_cell_length_c 17.664878
_cell_angle_alpha 90.000000
_cell_angle_beta 110.103585
_cell_angle_gamma 90.000000
_cell_volume 1242.142385
_symmetry_space_group_name_H-M "P 2/C"
_symmetry_group_IT_number 13
_symmetry_cell_setting 'monoclinic'
loop_
_space_group_symop_operation_xyz
x,y,z
-x,y,1/2-z
-x,-y,-z
x,-y,1/2+z
loop_
_atom_site_type_symbol
_atom_site_label
_atom_site_fract_x
_atom_site_fract_y
_atom_site_fract_z
Si Si1 0.315903 0.522670 0.788776
Si Si2 0.496234 0.691939 0.944181
Si Si3 0.937758 0.006736 0.066897
Si Si4 0.119615 0.743192 0.317502
Si Si5 0.627809 0.828489 0.310767
Si Si6 0.837182 0.093435 0.287060
Si Si7 0.659831 0.940487 0.480829
O O1 0.441688 0.619008 0.851324
O O2 0.244944 0.388968 0.837216
O O3 0.351898 0.390933 0.723437
O O4 0.217302 0.688167 0.741695
O O5 0.626865 0.816318 0.961808
O O6 0.500000 0.500000 0.000000
O O7 0.403859 0.861501 0.957235
O O8 0.030426 0.132053 0.142322
O O9 0.913502 0.784619 0.101512
O O10 0.804360 0.109320 0.025690
O O11 0.000000 0.000000 0.000000
O O12 0.000000 0.638535 0.250000
O O13 0.145234 0.964592 0.285435
O O14 0.500000 0.926566 0.250000
O O15 0.613316 0.807975 0.398219
O O16 0.744796 0.974451 0.322967
#
# Coordination Sequence:
#
# PCOD8121422 Si02
#       7
#     4   4   4   4   4   4   4
#     4  11  23  41  65  98 127 169 229 270 325 398
#     4  11  24  43  69 100 132 174 224 274 334 396
#     4  11  21  42  68  95 131 176 215 268 333 391
#     4   9  21  39  65  90 132 171 214 267 326 393
#     4  11  23  41  63  93 134 171 216 273 329 391
#     4  10  22  42  66  93 129 175 219 269 331 395
#     4  11  24  43  68  96 135 173 217 277 335 389
#
# _framework density 22.541699000000001
#
# number of rings (size 3 to 8) (size 9 to 14) (size 15 to 20)
#    0.000    1.429    1.429    3.429    0.000   10.286 
#    2.571    2.143    0.000    0.000    0.000    0.000 
#    0.000    0.000    0.000    0.000    0.000    0.000 
#
# Total GULP energy -347105.354013 kJ/mol
# GULP energy per Si atom -12396.619786 kJ/mol
# Density = 2.249039 g / cm^3
# Si number density = 22.541699 Si / 1000 Ang^3
#
#
#
# Elastic Constant Matrix: (Units=GPa)
#
#
# Indices 1 2 3 4 5 6 
#
# 1 100.5870 27.3282 32.3710 0.0000 13.8216 0.0000
# 2 27.3282 101.2626 48.4022 0.0000 3.9616 0.0000
# 3 32.3710 48.4022 112.7846 0.0000 16.2530 0.0000
# 4 0.0000 0.0000 0.0000 29.2728 0.0000 2.8376
# 5 13.8216 3.9616 16.2530 0.0000 49.5871 0.0000
# 6 0.0000 0.0000 0.0000 2.8376 0.0000 22.4161
#
#
#
# Elastic Compliance Matrix: (Units=1/GPa)
#
#
# Indices 1 2 3 4 5 6 
#
# 1 0.011485 -0.002005 -0.002097 0.000000 -0.002354 0.000000
# 2 -0.002005 0.012804 -0.005093 0.000000 0.001205 0.000000
# 3 -0.002097 -0.005093 0.012082 0.000000 -0.002969 0.000000
# 4 0.000000 0.000000 0.000000 0.034586 0.000000 -0.004378
# 5 -0.002354 0.001205 -0.002969 0.000000 0.021699 0.000000
# 6 0.000000 0.000000 0.000000 -0.004378 0.000000 0.045165
#
#
# Mechanical properties :
#
#
# Convention : Reuss Voigt Hill
#
# Bulk Modulus (GPa) = 55.61554 58.98189 57.29871
# Shear Modulus (GPa) = 30.82556 34.02404 32.42480
#
# Velocity S-wave (km/s) = 3.70197 3.88929 3.79679
# Velocity P-wave (km/s) = 6.55734 6.81111 6.68543
#
# Compressibility (1/GPa) = 0.01798059
#
# Stress axis : x y z
#
# Youngs Moduli (GPa) = 87.07336 78.10255 82.76997
#
# Poissons Ratio (x) = 0.15661 0.17353
# Poissons Ratio (y) = 0.17460 0.42154
# Poissons Ratio (z) = 0.18255 0.39777
#
# Static dielectric constant tensor:
#      x y z
#    x 4.555850 0.000000 0.148760 
#    y 0.000000 3.881580 0.000000 
#    z 0.148760 0.000000 4.257000 
# 
# 
# High freq. dielectric constant tensor:
#      x y z
#    x 1.906220 0.000000 0.006200 
#    y 0.000000 1.860390 0.000000 
#    z 0.006200 0.000000 1.893540 
# 
# From -- ./inp_files/77540.got.cif
#   From: 2010.06.25/outbox.cif.g09.slc.cpg/sg13_39_cif.got.tgz:77540.got - 2010.06.28 04:50:58.
