data_PCOD8121191
_publ_section_title
;
Structure prediction by ZEFSAII (Michael W. Deem and Ramdas Pophale) SiO2 
 PCOD8121191
Probable space group: P 2/C
;
_chemical_formula_sum "Si O2"
_cell_formula_units_Z 16
_cell_length_a 8.278814
_cell_length_b 13.144479
_cell_length_c 8.712798
_cell_angle_alpha 90.000000
_cell_angle_beta 132.514543
_cell_angle_gamma 90.000000
_cell_volume 698.874179
_symmetry_space_group_name_H-M "P 2/C"
_symmetry_group_IT_number 13
_symmetry_cell_setting 'monoclinic'
loop_
_space_group_symop_operation_xyz
x,y,z
-x,y,1/2-z
-x,-y,-z
x,-y,1/2+z
loop_
_atom_site_type_symbol
_atom_site_label
_atom_site_fract_x
_atom_site_fract_y
_atom_site_fract_z
Si Si1 0.589074 0.388339 0.588239
Si Si2 0.000000 0.025413 0.750000
Si Si3 0.131202 0.141729 0.121693
Si Si4 0.500000 0.726367 0.750000
Si Si5 0.169393 0.677477 0.981292
O O1 0.500000 0.500000 0.500000
O O2 0.649567 0.341989 0.460384
O O3 0.799396 0.386557 0.839102
O O4 0.402383 0.318102 0.546183
O O5 0.873680 0.099046 0.553822
O O6 0.836890 0.952890 0.742317
O O7 0.345576 0.210483 0.264321
O O8 0.917842 0.208746 0.033059
O O9 0.000000 0.625403 0.750000
#
# Coordination Sequence:
#
# PCOD8121191 Si02
#       5
#     4   2   4   2   4
#     4  11  25  43  67  99 133 170 228 274 321 405
#     4  10  22  40  64  92 134 170 232 266 330 402
#     4  11  22  41  64  96 130 180 214 278 333 394
#     4  12  22  42  64  98 136 170 228 274 344 382
#     4  11  22  46  67  92 135 181 209 271 339 386
#
# _framework density 22.893962999999999
#
# number of rings (size 3 to 8) (size 9 to 14) (size 15 to 20)
#    0.000    1.000    3.750    3.000    0.000    2.000 
#    4.500   10.000    0.000    0.000    0.000    0.000 
#    0.000    0.000    0.000    0.000    0.000    0.000 
#
# Total GULP energy -198225.438219 kJ/mol
# GULP energy per Si atom -12389.089889 kJ/mol
# Density = 2.284185 g / cm^3
# Si number density = 22.893963 Si / 1000 Ang^3
#
#
#
# Elastic Constant Matrix: (Units=GPa)
#
#
# Indices 1 2 3 4 5 6 
#
# 1 67.0844 30.3438 19.5133 0.0000 -5.8512 0.0000
# 2 30.3438 114.2344 54.8807 0.0000 -9.2792 0.0000
# 3 19.5133 54.8807 203.2973 0.0000 -35.6099 0.0000
# 4 0.0000 0.0000 0.0000 35.8993 0.0000 -10.5384
# 5 -5.8512 -9.2792 -35.6099 0.0000 37.0758 0.0000
# 6 0.0000 0.0000 0.0000 -10.5384 0.0000 24.5583
#
#
#
# Elastic Compliance Matrix: (Units=1/GPa)
#
#
# Indices 1 2 3 4 5 6 
#
# 1 0.017041 -0.004303 -0.000230 0.000000 0.001391 0.000000
# 2 -0.004303 0.011145 -0.002676 0.000000 -0.000460 0.000000
# 3 -0.000230 -0.002676 0.006660 0.000000 0.005691 0.000000
# 4 0.000000 0.000000 0.000000 0.031870 0.000000 0.013676
# 5 0.001391 -0.000460 0.005691 0.000000 0.032542 0.000000
# 6 0.000000 0.000000 0.000000 0.013676 0.000000 0.046588
#
#
# Mechanical properties :
#
#
# Convention : Reuss Voigt Hill
#
# Bulk Modulus (GPa) = 48.95344 66.01019 57.48181
# Shear Modulus (GPa) = 29.92653 38.16524 34.04589
#
# Velocity S-wave (km/s) = 3.61942 4.08737 3.86049
# Velocity P-wave (km/s) = 6.23667 7.15340 6.71070
#
# Compressibility (1/GPa) = 0.02042758
#
# Stress axis : x y z
#
# Youngs Moduli (GPa) = 58.68106 89.72416 150.14348
#
# Poissons Ratio (x) = 0.38608 0.03460
# Poissons Ratio (y) = 0.25250 0.40183
# Poissons Ratio (z) = 0.01352 0.24013
#
# Static dielectric constant tensor:
#      x y z
#    x 4.060590 0.000000 -0.542480 
#    y 0.000000 3.997420 0.000000 
#    z -0.542480 0.000000 4.733400 
# 
# 
# High freq. dielectric constant tensor:
#      x y z
#    x 1.890620 0.000000 -0.041910 
#    y 0.000000 1.897610 0.000000 
#    z -0.041910 0.000000 1.914650 
# 
# From -- ./inp_files/11530.got.cif
#   From: 2010.06.25/outbox.cif.g09.slc.cpg/sg13_6_cif.got.tgz:11530.got - 2010.06.28 04:50:58.
