data_PCOD8121929
_publ_section_title
;
Structure prediction by ZEFSAII (Michael W. Deem and Ramdas Pophale) SiO2 
 PCOD8121929
Probable space group: P 2/C
;
_chemical_formula_sum "Si O2"
_cell_formula_units_Z 30
_cell_length_a 21.429135
_cell_length_b 6.765556
_cell_length_c 18.423024
_cell_angle_alpha 90.000000
_cell_angle_beta 147.334176
_cell_angle_gamma 90.000000
_cell_volume 1441.624884
_symmetry_space_group_name_H-M "P 2/C"
_symmetry_group_IT_number 13
_symmetry_cell_setting 'monoclinic'
loop_
_space_group_symop_operation_xyz
x,y,z
-x,y,1/2-z
-x,-y,-z
x,-y,1/2+z
loop_
_atom_site_type_symbol
_atom_site_label
_atom_site_fract_x
_atom_site_fract_y
_atom_site_fract_z
Si Si1 0.430735 0.116523 0.048444
Si Si2 0.905763 0.904001 0.256941
Si Si3 0.159494 0.004865 0.466603
Si Si4 0.684817 0.252371 0.284963
Si Si5 0.249325 0.555240 0.402082
Si Si6 0.291125 0.617553 0.097293
Si Si7 0.253839 0.835662 0.811581
Si Si8 0.500000 0.874810 0.250000
O O1 0.555617 0.179598 0.142054
O O2 0.432708 0.014985 0.128858
O O3 0.356176 0.314302 0.980297
O O4 0.372280 0.959614 0.936719
O O5 0.845793 0.985598 0.125166
O O6 0.871138 0.672837 0.230356
O O7 0.042779 0.928855 0.390068
O O8 0.855515 0.028000 0.274986
O O9 0.264834 0.877952 0.600563
O O10 0.184342 0.234376 0.509079
O O11 0.689368 0.480664 0.313390
O O12 0.759139 0.228339 0.284599
O O13 0.259809 0.514739 0.497580
O O14 0.252292 0.354459 0.360855
O O15 0.409007 0.737311 0.202042
#
# Coordination Sequence:
#
# PCOD8121929 Si02
#       8
#     4   4   4   4   4   4   4   2
#     4  11  23  40  66  95 135 171 211 264 324 388
#     4  10  23  45  69  93 126 172 222 270 322 386
#     4  11  23  44  69  95 127 169 221 274 322 377
#     4  12  26  41  64 102 135 167 216 267 328 388
#     4  11  21  42  67  93 127 172 219 259 322 385
#     4  12  22  39  66 100 127 169 218 268 318 385
#     4  11  25  44  65  96 134 174 212 265 330 390
#     4  12  20  40  68  96 130 164 218 266 314 386
#
# _framework density 20.809850000000001
#
# number of rings (size 3 to 8) (size 9 to 14) (size 15 to 20)
#    0.000    0.800    5.333    2.800    0.000    4.267 
#    0.000    1.333    0.000    0.000    0.000    0.000 
#    0.000    0.000    0.000    0.000    0.000    0.000 
#
# Total GULP energy -372123.662105 kJ/mol
# GULP energy per Si atom -12404.122070 kJ/mol
# Density = 2.076249 g / cm^3
# Si number density = 20.809850 Si / 1000 Ang^3
#
#
#
# Elastic Constant Matrix: (Units=GPa)
#
#
# Indices 1 2 3 4 5 6 
#
# 1 62.2828 7.6192 9.8860 0.0000 10.5059 0.0000
# 2 7.6192 105.3817 21.5471 0.0000 13.9656 0.0000
# 3 9.8860 21.5471 57.3195 0.0000 20.6021 0.0000
# 4 0.0000 0.0000 0.0000 18.0410 0.0000 -0.4146
# 5 10.5059 13.9656 20.6021 0.0000 36.3120 0.0000
# 6 0.0000 0.0000 0.0000 -0.4146 0.0000 19.9304
#
#
#
# Elastic Compliance Matrix: (Units=1/GPa)
#
#
# Indices 1 2 3 4 5 6 
#
# 1 0.016994 -0.000426 -0.001335 0.000000 -0.003996 0.000000
# 2 -0.000426 0.010434 -0.003078 0.000000 -0.002143 0.000000
# 3 -0.001335 -0.003078 0.022949 0.000000 -0.011450 0.000000
# 4 0.000000 0.000000 0.000000 0.055456 0.000000 0.001154
# 5 -0.003996 -0.002143 -0.011450 0.000000 0.036016 0.000000
# 6 0.000000 0.000000 0.000000 0.001154 0.000000 0.050199
#
#
# Mechanical properties :
#
#
# Convention : Reuss Voigt Hill
#
# Bulk Modulus (GPa) = 24.57138 33.67653 29.12395
# Shear Modulus (GPa) = 23.22440 27.25214 25.23827
#
# Velocity S-wave (km/s) = 3.34433 3.62274 3.48631
# Velocity P-wave (km/s) = 5.17164 5.80664 5.49832
#
# Compressibility (1/GPa) = 0.04069775
#
# Stress axis : x y z
#
# Youngs Moduli (GPa) = 58.84517 95.84472 43.57490
#
# Poissons Ratio (x) = 0.04086 0.05816
# Poissons Ratio (y) = 0.02508 0.13414
# Poissons Ratio (z) = 0.07854 0.29505
#
# Static dielectric constant tensor:
#      x y z
#    x 3.597370 0.000000 0.064510 
#    y 0.000000 3.958220 0.000000 
#    z 0.064510 0.000000 3.698930 
# 
# 
# High freq. dielectric constant tensor:
#      x y z
#    x 1.808030 0.000000 0.007920 
#    y 0.000000 1.830560 0.000000 
#    z 0.007920 0.000000 1.805680 
# 
# From -- ./inp_files/77519.got.cif
#   From: 2010.06.25/outbox.cif.g09.slc.cpg/sg13_39_cif.got.tgz:77519.got - 2010.06.28 04:50:58.
