data_PCOD8121471
_publ_section_title
;
Structure prediction by ZEFSAII (Michael W. Deem and Ramdas Pophale) SiO2 
 PCOD8121471
Probable space group: P 2/C
;
_chemical_formula_sum "Si O2"
_cell_formula_units_Z 20
_cell_length_a 11.771188
_cell_length_b 10.360687
_cell_length_c 14.262915
_cell_angle_alpha 90.000000
_cell_angle_beta 30.648315
_cell_angle_gamma 90.000000
_cell_volume 886.724918
_symmetry_space_group_name_H-M "P 2/C"
_symmetry_group_IT_number 13
_symmetry_cell_setting 'monoclinic'
loop_
_space_group_symop_operation_xyz
x,y,z
-x,y,1/2-z
-x,-y,-z
x,-y,1/2+z
loop_
_atom_site_type_symbol
_atom_site_label
_atom_site_fract_x
_atom_site_fract_y
_atom_site_fract_z
Si Si1 0.554637 0.634546 0.011029
Si Si2 0.074253 0.384151 0.883950
Si Si3 0.324037 0.101479 0.160680
Si Si4 0.253271 0.839816 0.910102
Si Si5 0.000000 0.987587 0.250000
Si Si6 0.000000 0.468655 0.250000
O O1 0.326299 0.663698 0.230301
O O2 0.500000 0.500000 0.000000
O O3 0.593023 0.750327 0.909421
O O4 0.775840 0.619773 0.919611
O O5 0.045203 0.433001 0.800268
O O6 0.000000 0.500000 0.000000
O O7 0.912795 0.265364 0.013303
O O8 0.271350 0.065028 0.306814
O O9 0.111465 0.081491 0.245839
O O10 0.500000 0.000000 0.000000
O O11 0.500000 0.781113 0.750000
O O12 0.170670 0.900306 0.067265
#
# Coordination Sequence:
#
# PCOD8121471 Si02
#       6
#     4   4   4   4   2   2
#     4  10  23  44  70 104 142 187 237 299 363 431
#     4  11  25  41  69 107 145 190 247 300 364 444
#     4  12  25  47  74 105 146 192 253 305 370 446
#     4  12  26  45  75 107 152 200 247 309 380 444
#     4  12  26  48  74 108 143 198 249 316 375 436
#     4  10  22  42  70  96 143 190 235 300 359 438
#
# _framework density 22.554908000000001
#
# number of rings (size 3 to 8) (size 9 to 14) (size 15 to 20)
#    0.000    0.800    2.000    5.400    8.400    0.000 
#    0.000    2.000    0.000    0.000    0.000    0.000 
#    0.000    0.000    0.000    0.000    0.000    0.000 
#
# Total GULP energy -247801.189011 kJ/mol
# GULP energy per Si atom -12390.059451 kJ/mol
# Density = 2.250357 g / cm^3
# Si number density = 22.554908 Si / 1000 Ang^3
#
#
#
# Elastic Constant Matrix: (Units=GPa)
#
#
# Indices 1 2 3 4 5 6 
#
# 1 105.8740 15.4623 66.0957 0.0000 -14.6921 0.0000
# 2 15.4623 99.5095 44.4690 0.0000 -4.0976 0.0000
# 3 66.0957 44.4690 176.9311 0.0000 -20.8414 0.0000
# 4 0.0000 0.0000 0.0000 39.0677 0.0000 -4.8658
# 5 -14.6921 -4.0976 -20.8414 0.0000 59.4023 0.0000
# 6 0.0000 0.0000 0.0000 -4.8658 0.0000 39.3400
#
#
#
# Elastic Compliance Matrix: (Units=1/GPa)
#
#
# Indices 1 2 3 4 5 6 
#
# 1 0.012448 0.000143 -0.004509 0.000000 0.001507 0.000000
# 2 0.000143 0.011325 -0.002924 0.000000 -0.000210 0.000000
# 3 -0.004509 -0.002924 0.008257 0.000000 0.001580 0.000000
# 4 0.000000 0.000000 0.000000 0.025997 0.000000 0.003215
# 5 0.001507 -0.000210 0.001580 0.000000 0.017747 0.000000
# 6 0.000000 0.000000 0.000000 0.003215 0.000000 0.025817
#
#
# Mechanical properties :
#
#
# Convention : Reuss Voigt Hill
#
# Bulk Modulus (GPa) = 57.30648 70.48541 63.89594
# Shear Modulus (GPa) = 40.98714 44.64783 42.81749
#
# Velocity S-wave (km/s) = 4.26751 4.45400 4.36175
# Velocity P-wave (km/s) = 7.05300 7.60061 7.33192
#
# Compressibility (1/GPa) = 0.01745004
#
# Stress axis : x y z
#
# Youngs Moduli (GPa) = 80.33356 88.29731 121.10467
#
# Poissons Ratio (x) = -0.01259 0.54601
# Poissons Ratio (y) = -0.01145 0.35416
# Poissons Ratio (z) = 0.36219 0.25822
#
# Static dielectric constant tensor:
#      x y z
#    x 4.174850 0.000000 -0.611190 
#    y 0.000000 4.029030 0.000000 
#    z -0.611190 0.000000 5.348830 
# 
# 
# High freq. dielectric constant tensor:
#      x y z
#    x 1.892490 0.000000 -0.017180 
#    y 0.000000 1.878890 0.000000 
#    z -0.017180 0.000000 1.909970 
# 
# From -- ./inp_files/51128.got.cif
#   From: 2010.06.25/outbox.cif.g09.slc.cpg/sg13_26_cif.got.tgz:51128.got - 2010.06.28 04:50:58.
