data_PCOD8121952
_publ_section_title
;
Structure prediction by ZEFSAII (Michael W. Deem and Ramdas Pophale) SiO2 
 PCOD8121952
Probable space group: P 2/C
;
_chemical_formula_sum "Si O2"
_cell_formula_units_Z 28
_cell_length_a 9.698580
_cell_length_b 19.970444
_cell_length_c 8.818958
_cell_angle_alpha 90.000000
_cell_angle_beta 136.305755
_cell_angle_gamma 90.000000
_cell_volume 1179.971808
_symmetry_space_group_name_H-M "P 2/C"
_symmetry_group_IT_number 13
_symmetry_cell_setting 'monoclinic'
loop_
_space_group_symop_operation_xyz
x,y,z
-x,y,1/2-z
-x,-y,-z
x,-y,1/2+z
loop_
_atom_site_type_symbol
_atom_site_label
_atom_site_fract_x
_atom_site_fract_y
_atom_site_fract_z
Si Si1 0.500000 0.752685 0.250000
Si Si2 0.084489 0.774476 0.978142
Si Si3 0.615629 0.641641 0.573689
Si Si4 0.808328 0.542084 0.500851
Si Si5 0.971360 0.900201 0.054698
Si Si6 0.500000 0.430627 0.250000
Si Si7 0.012408 0.643687 0.080508
Si Si8 0.656080 0.012655 0.751837
O O1 0.688902 0.800694 0.368194
O O2 0.546982 0.708808 0.437491
O O3 0.000000 0.748225 0.750000
O O4 0.945229 0.833076 0.934341
O O5 0.120901 0.712679 0.121037
O O6 0.658667 0.587617 0.477999
O O7 0.447337 0.612956 0.556747
O O8 0.798599 0.654144 0.832356
O O9 0.696277 0.474058 0.364236
O O10 0.000000 0.521998 0.750000
O O11 0.870703 0.580402 0.397179
O O12 0.000000 0.878649 0.250000
O O13 0.169098 0.936178 0.149811
O O14 0.770244 0.943791 0.885513
O O15 0.000000 0.635101 0.250000
O O16 0.500000 0.040680 0.750000
O O17 0.500000 0.000000 0.500000
#
# Coordination Sequence:
#
# PCOD8121952 Si02
#       8
#     2   4   4   4   4   2   4   4
#     4  12  25  50  74  98 138 197 242 302 378 440
#     4  12  26  48  76 105 143 191 248 306 362 433
#     4  11  25  45  70  99 135 179 230 291 368 445
#     4  10  23  46  67  97 137 173 221 288 363 446
#     4  11  26  45  73 118 154 196 258 303 351 432
#     4  12  27  42  70 104 130 173 234 294 368 454
#     4  11  24  46  74 100 138 183 232 298 372 432
#     4  11  24  46  76 111 162 208 237 298 362 418
#
# _framework density 23.729381
#
# number of rings (size 3 to 8) (size 9 to 14) (size 15 to 20)
#    0.000    0.857    4.286    1.714    5.000    4.000 
#    0.000    1.429    0.000    0.000    0.000    0.000 
#    0.000    0.000    0.000    0.000    0.000    0.000 
#
# Total GULP energy -347090.300534 kJ/mol
# GULP energy per Si atom -12396.082162 kJ/mol
# Density = 2.367537 g / cm^3
# Si number density = 23.729381 Si / 1000 Ang^3
#
#
#
# Elastic Constant Matrix: (Units=GPa)
#
#
# Indices 1 2 3 4 5 6 
#
# 1 150.9724 27.3536 43.8925 0.0000 -18.1226 0.0000
# 2 27.3536 65.9394 10.0962 0.0000 -11.8085 0.0000
# 3 43.8925 10.0962 95.6463 0.0000 -23.3495 0.0000
# 4 0.0000 0.0000 0.0000 19.1163 0.0000 -2.4156
# 5 -18.1226 -11.8085 -23.3495 0.0000 51.7003 0.0000
# 6 0.0000 0.0000 0.0000 -2.4156 0.0000 37.6771
#
#
#
# Elastic Compliance Matrix: (Units=1/GPa)
#
#
# Indices 1 2 3 4 5 6 
#
# 1 0.008164 -0.002750 -0.003272 0.000000 0.000756 0.000000
# 2 -0.002750 0.016806 0.000213 0.000000 0.002971 0.000000
# 3 -0.003272 0.000213 0.013112 0.000000 0.004824 0.000000
# 4 0.000000 0.000000 0.000000 0.052739 0.000000 0.003381
# 5 0.000756 0.002971 0.004824 0.000000 0.022464 0.000000
# 6 0.000000 0.000000 0.000000 0.003381 0.000000 0.026758
#
#
# Mechanical properties :
#
#
# Convention : Reuss Voigt Hill
#
# Bulk Modulus (GPa) = 37.78701 52.80475 45.29588
# Shear Modulus (GPa) = 31.15642 37.11312 34.13477
#
# Velocity S-wave (km/s) = 3.62745 3.95905 3.79687
# Velocity P-wave (km/s) = 5.78820 6.57267 6.19287
#
# Compressibility (1/GPa) = 0.02646412
#
# Stress axis : x y z
#
# Youngs Moduli (GPa) = 122.48980 59.50367 76.26867
#
# Poissons Ratio (x) = 0.16366 0.24952
# Poissons Ratio (y) = 0.33689 -0.01628
# Poissons Ratio (z) = 0.40074 -0.01270
#
# Static dielectric constant tensor:
#      x y z
#    x 4.645890 0.000000 0.086570 
#    y 0.000000 3.600480 0.000000 
#    z 0.086570 0.000000 4.434930 
# 
# 
# High freq. dielectric constant tensor:
#      x y z
#    x 1.960590 0.000000 0.003210 
#    y 0.000000 1.916690 0.000000 
#    z 0.003210 0.000000 1.957670 
# 
# From -- ./inp_files/13699.got.cif
#   From: 2010.06.25/outbox.cif.g09.slc.cpg/sg13_7_cif.got.tgz:13699.got - 2010.06.28 04:50:58.
