data_PCOD8121749
_publ_section_title
;
Structure prediction by ZEFSAII (Michael W. Deem and Ramdas Pophale) SiO2 
 PCOD8121749
Probable space group: P 2/C
;
_chemical_formula_sum "Si O2"
_cell_formula_units_Z 24
_cell_length_a 10.382510
_cell_length_b 11.296624
_cell_length_c 9.608875
_cell_angle_alpha 90.000000
_cell_angle_beta 107.422707
_cell_angle_gamma 90.000000
_cell_volume 1075.294358
_symmetry_space_group_name_H-M "P 2/C"
_symmetry_group_IT_number 13
_symmetry_cell_setting 'monoclinic'
loop_
_space_group_symop_operation_xyz
x,y,z
-x,y,1/2-z
-x,-y,-z
x,-y,1/2+z
loop_
_atom_site_type_symbol
_atom_site_label
_atom_site_fract_x
_atom_site_fract_y
_atom_site_fract_z
Si Si1 0.000000 0.782117 0.250000
Si Si2 0.698729 0.597500 0.476474
Si Si3 0.649709 0.886404 0.829026
Si Si4 0.007907 0.637613 0.982234
Si Si5 0.269109 0.371867 0.205351
Si Si6 0.500000 0.760799 0.250000
Si Si7 0.725165 0.085061 0.668306
O O1 0.038480 0.700935 0.392158
O O2 0.129769 0.859026 0.255733
O O3 0.704191 0.471078 0.402671
O O4 0.675084 0.574873 0.632516
O O5 0.577602 0.677920 0.383902
O O6 0.839180 0.671624 0.508203
O O7 0.500000 0.931315 0.750000
O O8 0.652674 0.745648 0.813126
O O9 0.737922 0.955065 0.741668
O O10 0.696786 0.928430 0.995915
O O11 0.890138 0.664388 0.831364
O O12 0.000000 0.500000 0.000000
O O13 0.393371 0.838557 0.300128
#
# Coordination Sequence:
#
# PCOD8121749 Si02
#       7
#     2   4   4   4   4   2   4
#     4  12  24  50  72 106 144 192 246 302 360 426
#     4  11  26  43  72 108 150 192 237 298 367 438
#     4  12  27  48  74 103 144 192 248 296 364 432
#     4  10  23  40  72 100 143 187 238 289 362 431
#     4  11  26  45  72 110 146 188 245 300 364 433
#     4  12  26  46  76 106 152 192 242 296 368 432
#     4  12  28  49  75 104 145 196 245 303 357 427
#
# _framework density 22.319471
#
# number of rings (size 3 to 8) (size 9 to 14) (size 15 to 20)
#    0.000    0.667    4.167    2.000   15.167    1.333 
#    3.000    0.000    0.000    0.000    0.000    0.000 
#    0.000    0.000    0.000    0.000    0.000    0.000 
#
# Total GULP energy -297592.415830 kJ/mol
# GULP energy per Si atom -12399.683993 kJ/mol
# Density = 2.226867 g / cm^3
# Si number density = 22.319471 Si / 1000 Ang^3
#
#
#
# Elastic Constant Matrix: (Units=GPa)
#
#
# Indices 1 2 3 4 5 6 
#
# 1 109.9460 37.6214 28.3933 0.0000 12.1811 0.0000
# 2 37.6214 115.3243 59.3935 0.0000 -10.4633 0.0000
# 3 28.3933 59.3935 177.8773 0.0000 -3.0052 0.0000
# 4 0.0000 0.0000 0.0000 14.7873 0.0000 -26.6297
# 5 12.1811 -10.4633 -3.0052 0.0000 39.3855 0.0000
# 6 0.0000 0.0000 0.0000 -26.6297 0.0000 18.4822
#
#
#
# Elastic Compliance Matrix: (Units=1/GPa)
#
#
# Indices 1 2 3 4 5 6 
#
# 1 0.011000 -0.003680 -0.000602 0.000000 -0.004426 0.000000
# 2 -0.003680 0.011959 -0.003337 0.000000 0.004061 0.000000
# 3 -0.000602 -0.003337 0.006829 0.000000 -0.000179 0.000000
# 4 0.000000 0.000000 0.000000 -0.042406 0.000000 -0.061100
# 5 -0.004426 0.004061 -0.000179 0.000000 0.027824 0.000000
# 6 0.000000 0.000000 0.000000 -0.061100 0.000000 -0.033928
#
#
# Mechanical properties :
#
#
# Convention : Reuss Voigt Hill
#
# Bulk Modulus (GPa) = 68.72750 72.66268 70.69509
# Shear Modulus (GPa) = 3660.00587 33.04694 1846.52641
#
# Velocity S-wave (km/s) = 40.53870 3.85207 28.79431
# Velocity P-wave (km/s) = 47.13853 7.23955 33.72278
#
# Compressibility (1/GPa) = 0.01455022
#
# Stress axis : x y z
#
# Youngs Moduli (GPa) = 90.90548 83.62064 146.43148
#
# Poissons Ratio (x) = 0.30774 0.08813
# Poissons Ratio (y) = 0.33455 0.48864
# Poissons Ratio (z) = 0.05471 0.27904
#
# Static dielectric constant tensor:
#      x y z
#    x 4.682720 0.000000 0.363770 
#    y 0.000000 3.913320 0.000000 
#    z 0.363770 0.000000 4.197430 
# 
# 
# High freq. dielectric constant tensor:
#      x y z
#    x 1.887300 0.000000 0.013570 
#    y 0.000000 1.876020 0.000000 
#    z 0.013570 0.000000 1.892830 
# 
# From -- ./inp_files/15991.got.cif
#   From: 2010.06.25/outbox.cif.g09.slc.cpg/sg13_8_cif.got.tgz:15991.got - 2010.06.28 04:50:58.
