data_PCOD8121216
_publ_section_title
;
Structure prediction by ZEFSAII (Michael W. Deem and Ramdas Pophale) SiO2 
 PCOD8121216
Probable space group: P 2/C
;
_chemical_formula_sum "Si O2"
_cell_formula_units_Z 18
_cell_length_a 8.471340
_cell_length_b 12.247071
_cell_length_c 9.788484
_cell_angle_alpha 90.000000
_cell_angle_beta 38.281400
_cell_angle_gamma 90.000000
_cell_volume 629.155626
_symmetry_space_group_name_H-M "P 2/C"
_symmetry_group_IT_number 13
_symmetry_cell_setting 'monoclinic'
loop_
_space_group_symop_operation_xyz
x,y,z
-x,y,1/2-z
-x,-y,-z
x,-y,1/2+z
loop_
_atom_site_type_symbol
_atom_site_label
_atom_site_fract_x
_atom_site_fract_y
_atom_site_fract_z
Si Si1 0.692642 0.649842 0.434411
Si Si2 0.636775 0.850979 0.295871
Si Si3 0.115645 0.695320 0.904760
Si Si4 0.841756 0.071825 0.224127
Si Si5 0.000000 0.547937 0.750000
O O1 0.767444 0.736060 0.259314
O O2 0.402884 0.675138 0.660182
O O3 0.883267 0.665904 0.435301
O O4 0.751459 0.521863 0.366994
O O5 0.500000 0.821805 0.250000
O O6 0.443070 0.887960 0.546202
O O7 0.818311 0.959829 0.149641
O O8 0.032699 0.823191 0.939513
O O9 0.935309 0.622733 0.927138
O O10 0.000000 0.041278 0.250000
#
# Coordination Sequence:
#
# PCOD8121216 Si02
#       5
#     4   4   4   4   2
#     4  10  24  42  64  93 129 163 209 264 309 366
#     4  10  24  42  63  95 128 162 208 261 313 372
#     4  10  22  44  65  91 128 168 208 254 318 373
#     4  10  22  40  66  91 125 168 208 252 318 378
#     4  12  22  42  66  96 120 168 216 258 308 368
#
# _framework density 28.609772
#
# number of rings (size 3 to 8) (size 9 to 14) (size 15 to 20)
#    0.000    1.778    1.111    1.333   10.889    2.667 
#   12.000    0.000    0.000    0.000    0.000    0.000 
#    0.000    0.000    0.000    0.000    0.000    0.000 
#
# Total GULP energy -223275.175080 kJ/mol
# GULP energy per Si atom -12404.176393 kJ/mol
# Density = 2.854466 g / cm^3
# Si number density = 28.609772 Si / 1000 Ang^3
#
#
#
# Elastic Constant Matrix: (Units=GPa)
#
#
# Indices 1 2 3 4 5 6 
#
# 1 147.0413 92.8207 48.3712 0.0000 20.5736 0.0000
# 2 92.8207 255.0542 88.0287 0.0000 18.4788 0.0000
# 3 48.3712 88.0287 120.3605 0.0000 16.2598 0.0000
# 4 0.0000 0.0000 0.0000 52.1675 0.0000 6.6011
# 5 20.5736 18.4788 16.2598 0.0000 61.0004 0.0000
# 6 0.0000 0.0000 0.0000 6.6011 0.0000 70.9848
#
#
#
# Elastic Compliance Matrix: (Units=1/GPa)
#
#
# Indices 1 2 3 4 5 6 
#
# 1 0.009275 -0.002728 -0.001474 0.000000 -0.001909 0.000000
# 2 -0.002728 0.006068 -0.003337 0.000000 -0.000028 0.000000
# 3 -0.001474 -0.003337 0.011554 0.000000 -0.001572 0.000000
# 4 0.000000 0.000000 0.000000 0.019397 0.000000 -0.001804
# 5 -0.001909 -0.000028 -0.001572 0.000000 0.017465 0.000000
# 6 0.000000 0.000000 0.000000 -0.001804 0.000000 0.014255
#
#
# Mechanical properties :
#
#
# Convention : Reuss Voigt Hill
#
# Bulk Modulus (GPa) = 84.62515 108.98856 96.80685
# Shear Modulus (GPa) = 51.52905 56.37954 53.95430
#
# Velocity S-wave (km/s) = 4.24854 4.44400 4.34737
# Velocity P-wave (km/s) = 7.32872 8.03180 7.68830
#
# Compressibility (1/GPa) = 0.01181682
#
# Stress axis : x y z
#
# Youngs Moduli (GPa) = 107.81507 164.81128 86.55004
#
# Poissons Ratio (x) = 0.44966 0.12760
# Poissons Ratio (y) = 0.29416 0.28885
# Poissons Ratio (z) = 0.15894 0.55003
#
# Static dielectric constant tensor:
#      x y z
#    x 5.017960 0.000000 -0.142450 
#    y 0.000000 5.760550 0.000000 
#    z -0.142450 0.000000 6.016180 
# 
# 
# High freq. dielectric constant tensor:
#      x y z
#    x 2.155180 0.000000 -0.025040 
#    y 0.000000 2.196870 0.000000 
#    z -0.025040 0.000000 2.249980 
# 
# From -- ./inp_files/28890.got.cif
#   From: 2010.06.25/outbox.cif.g09.slc.cpg/sg13_15_cif.got.tgz:28890.got - 2010.06.28 04:50:58.
