data_PCOD8121921
_publ_section_title
;
Structure prediction by ZEFSAII (Michael W. Deem and Ramdas Pophale) SiO2 
 PCOD8121921
Probable space group: P 2/C
;
_chemical_formula_sum "Si O2"
_cell_formula_units_Z 18
_cell_length_a 7.562506
_cell_length_b 11.065526
_cell_length_c 11.462677
_cell_angle_alpha 90.000000
_cell_angle_beta 125.011743
_cell_angle_gamma 90.000000
_cell_volume 785.644420
_symmetry_space_group_name_H-M "P 2/C"
_symmetry_group_IT_number 13
_symmetry_cell_setting 'monoclinic'
loop_
_space_group_symop_operation_xyz
x,y,z
-x,y,1/2-z
-x,-y,-z
x,-y,1/2+z
loop_
_atom_site_type_symbol
_atom_site_label
_atom_site_fract_x
_atom_site_fract_y
_atom_site_fract_z
Si Si1 0.106660 0.344855 0.092634
Si Si2 0.736139 0.596408 0.298274
Si Si3 0.000000 0.060729 0.750000
Si Si4 0.329933 0.132994 0.289772
Si Si5 0.303206 0.751871 0.449289
O O1 0.142214 0.468920 0.178090
O O2 0.149704 0.232924 0.193013
O O3 0.275025 0.339779 0.047047
O O4 0.863894 0.335279 0.950315
O O5 0.500000 0.565824 0.250000
O O6 0.727966 0.678335 0.180914
O O7 0.883684 0.146033 0.610486
O O8 0.806488 0.986566 0.736333
O O9 0.500000 0.107460 0.250000
O O10 0.464030 0.181614 0.452937
#
# Coordination Sequence:
#
# PCOD8121921 Si02
#       5
#     4   4   2   4   4
#     4  10  23  45  64  99 135 172 216 281 335 403
#     4  11  23  40  71  99 130 174 220 273 346 402
#     4  12  24  44  68  98 134 186 226 282 316 400
#     4  10  25  43  69  98 136 176 228 275 335 394
#     4  11  23  47  64  96 139 173 220 281 333 396
#
# _framework density 22.91113
#
# number of rings (size 3 to 8) (size 9 to 14) (size 15 to 20)
#    0.000    1.333    2.222    2.667    3.111    8.000 
#    4.000    0.000    0.000    0.000    0.000    0.000 
#    0.000    0.000    0.000    0.000    0.000    0.000 
#
# Total GULP energy -223144.510915 kJ/mol
# GULP energy per Si atom -12396.917273 kJ/mol
# Density = 2.285898 g / cm^3
# Si number density = 22.911130 Si / 1000 Ang^3
#
#
#
# Elastic Constant Matrix: (Units=GPa)
#
#
# Indices 1 2 3 4 5 6 
#
# 1 56.4487 31.4012 33.6273 0.0000 10.4576 0.0000
# 2 31.4012 118.5144 65.7276 0.0000 -4.9634 0.0000
# 3 33.6273 65.7276 145.4422 0.0000 12.7565 0.0000
# 4 0.0000 0.0000 0.0000 30.4121 0.0000 8.4172
# 5 10.4576 -4.9634 12.7565 0.0000 21.9952 0.0000
# 6 0.0000 0.0000 0.0000 8.4172 0.0000 32.3637
#
#
#
# Elastic Compliance Matrix: (Units=1/GPa)
#
#
# Indices 1 2 3 4 5 6 
#
# 1 0.024307 -0.005854 -0.001944 0.000000 -0.011750 0.000000
# 2 -0.005854 0.013415 -0.005498 0.000000 0.009000 0.000000
# 3 -0.001944 -0.005498 0.010365 0.000000 -0.006328 0.000000
# 4 0.000000 0.000000 0.000000 0.035432 0.000000 -0.009215
# 5 -0.011750 0.009000 -0.006328 0.000000 0.056752 0.000000
# 6 0.000000 0.000000 0.000000 -0.009215 0.000000 0.033296
#
#
# Mechanical properties :
#
#
# Convention : Reuss Voigt Hill
#
# Bulk Modulus (GPa) = 46.52471 64.65751 55.59111
# Shear Modulus (GPa) = 24.11692 29.59749 26.85721
#
# Velocity S-wave (km/s) = 3.24794 3.59812 3.42750
# Velocity P-wave (km/s) = 5.86653 6.74864 6.32299
#
# Compressibility (1/GPa) = 0.02149396
#
# Stress axis : x y z
#
# Youngs Moduli (GPa) = 41.14124 74.54247 96.48122
#
# Poissons Ratio (x) = 0.43640 0.18752
# Poissons Ratio (y) = 0.24086 0.53048
# Poissons Ratio (z) = 0.07996 0.40986
#
# Static dielectric constant tensor:
#      x y z
#    x 3.830730 0.000000 0.377400 
#    y 0.000000 4.172490 0.000000 
#    z 0.377400 0.000000 4.489960 
# 
# 
# High freq. dielectric constant tensor:
#      x y z
#    x 1.878910 0.000000 0.028210 
#    y 0.000000 1.910830 0.000000 
#    z 0.028210 0.000000 1.924310 
# 
# From -- ./inp_files/28895.got.cif
#   From: 2010.06.25/outbox.cif.g09.slc.cpg/sg13_15_cif.got.tgz:28895.got - 2010.06.28 04:50:58.
