data_PCOD8121186
_publ_section_title
;
Structure prediction by ZEFSAII (Michael W. Deem and Ramdas Pophale) SiO2 
 PCOD8121186
Probable space group: P 2/C
;
_chemical_formula_sum "Si O2"
_cell_formula_units_Z 20
_cell_length_a 12.748921
_cell_length_b 5.902045
_cell_length_c 20.718443
_cell_angle_alpha 90.000000
_cell_angle_beta 32.858808
_cell_angle_gamma 90.000000
_cell_volume 845.842260
_symmetry_space_group_name_H-M "P 2/C"
_symmetry_group_IT_number 13
_symmetry_cell_setting 'monoclinic'
loop_
_space_group_symop_operation_xyz
x,y,z
-x,y,1/2-z
-x,-y,-z
x,-y,1/2+z
loop_
_atom_site_type_symbol
_atom_site_label
_atom_site_fract_x
_atom_site_fract_y
_atom_site_fract_z
Si Si1 0.235962 0.067305 0.017498
Si Si2 0.642143 0.893237 0.805382
Si Si3 0.787043 0.654800 0.854971
Si Si4 0.094482 0.736772 0.283193
Si Si5 0.031566 0.635471 0.918661
O O1 0.312527 0.267650 0.026337
O O2 0.134982 0.174612 0.006012
O O3 0.083406 0.908795 0.134815
O O4 0.419656 0.920078 0.899366
O O5 0.658962 0.757088 0.863800
O O6 0.758468 0.757782 0.689355
O O7 0.733032 0.141798 0.767786
O O8 0.817603 0.380924 0.828334
O O9 0.000000 0.767789 0.750000
O O10 0.015285 0.526839 0.365576
O O11 0.000000 0.500000 0.000000
#
# Coordination Sequence:
#
# PCOD8121186 Si02
#       5
#     4   4   4   4   4
#     4  11  23  40  65  97 131 175 226 274 333 402
#     4  10  23  40  63  98 129 169 229 271 334 404
#     4  11  20  38  60  97 131 180 207 265 342 411
#     4  10  22  40  64  86 137 167 222 271 343 402
#     4  10  23  44  65  91 126 175 225 282 346 388
#
# _framework density 23.645071000000002
#
# number of rings (size 3 to 8) (size 9 to 14) (size 15 to 20)
#    0.000    1.600    6.000    0.600    2.800    7.200 
#    0.000    6.000    0.000    0.000    0.000    0.000 
#    0.000    0.000    0.000    0.000    0.000    0.000 
#
# Total GULP energy -247793.017195 kJ/mol
# GULP energy per Si atom -12389.650860 kJ/mol
# Density = 2.359125 g / cm^3
# Si number density = 23.645071 Si / 1000 Ang^3
#
#
#
# Elastic Constant Matrix: (Units=GPa)
#
#
# Indices 1 2 3 4 5 6 
#
# 1 82.6351 44.9191 58.2900 0.0000 -5.7363 0.0000
# 2 44.9191 130.2119 58.3415 0.0000 -4.0156 0.0000
# 3 58.2900 58.3415 116.6643 0.0000 -10.8018 0.0000
# 4 0.0000 0.0000 0.0000 34.8990 0.0000 11.2306
# 5 -5.7363 -4.0156 -10.8018 0.0000 35.4838 0.0000
# 6 0.0000 0.0000 0.0000 11.2306 0.0000 34.9015
#
#
#
# Elastic Compliance Matrix: (Units=1/GPa)
#
#
# Indices 1 2 3 4 5 6 
#
# 1 0.019592 -0.003062 -0.008228 0.000000 0.000316 0.000000
# 2 -0.003062 0.010381 -0.003703 0.000000 -0.000447 0.000000
# 3 -0.008228 -0.003703 0.014789 0.000000 0.002753 0.000000
# 4 0.000000 0.000000 0.000000 0.031964 0.000000 -0.010285
# 5 0.000316 -0.000447 0.002753 0.000000 0.029020 0.000000
# 6 0.000000 0.000000 0.000000 -0.010285 0.000000 0.031962
#
#
# Mechanical properties :
#
#
# Convention : Reuss Voigt Hill
#
# Bulk Modulus (GPa) = 67.67768 72.51249 70.09508
# Shear Modulus (GPa) = 28.96511 32.25425 30.60968
#
# Velocity S-wave (km/s) = 3.50379 3.69738 3.60189
# Velocity P-wave (km/s) = 6.71217 6.99722 6.85618
#
# Compressibility (1/GPa) = 0.01477592
#
# Stress axis : x y z
#
# Youngs Moduli (GPa) = 51.04100 96.32530 67.61557
#
# Poissons Ratio (x) = 0.29497 0.55637
# Poissons Ratio (y) = 0.15630 0.25038
# Poissons Ratio (z) = 0.41998 0.35669
#
# Static dielectric constant tensor:
#      x y z
#    x 3.893370 0.000000 -0.020340 
#    y 0.000000 4.633600 0.000000 
#    z -0.020340 0.000000 4.105280 
# 
# 
# High freq. dielectric constant tensor:
#      x y z
#    x 1.909540 0.000000 -0.015110 
#    y 0.000000 1.955850 0.000000 
#    z -0.015110 0.000000 1.908530 
# 
# From -- ./inp_files/58088.got.cif
#   From: 2010.06.25/outbox.cif.g09.slc.cpg/sg13_30_cif.got.tgz:58088.got - 2010.06.28 04:50:58.
