data_PCOD8121758
_publ_section_title
;
Structure prediction by ZEFSAII (Michael W. Deem and Ramdas Pophale) SiO2 
 PCOD8121758
Probable space group: P 2/C
;
_chemical_formula_sum "Si O2"
_cell_formula_units_Z 20
_cell_length_a 8.812907
_cell_length_b 12.723613
_cell_length_c 10.600174
_cell_angle_alpha 90.000000
_cell_angle_beta 50.263146
_cell_angle_gamma 90.000000
_cell_volume 914.034297
_symmetry_space_group_name_H-M "P 2/C"
_symmetry_group_IT_number 13
_symmetry_cell_setting 'monoclinic'
loop_
_space_group_symop_operation_xyz
x,y,z
-x,y,1/2-z
-x,-y,-z
x,-y,1/2+z
loop_
_atom_site_type_symbol
_atom_site_label
_atom_site_fract_x
_atom_site_fract_y
_atom_site_fract_z
Si Si1 0.398280 0.280582 0.666846
Si Si2 0.354901 0.316043 0.211033
Si Si3 0.126084 0.479229 0.808775
Si Si4 0.707876 0.064572 0.705726
Si Si5 0.928038 0.865946 0.654395
O O1 0.500000 0.288988 0.750000
O O2 0.553728 0.287709 0.472156
O O3 0.222480 0.364298 0.752698
O O4 0.308991 0.164330 0.693149
O O5 0.500000 0.306939 0.250000
O O6 0.298693 0.436540 0.222742
O O7 0.174729 0.238946 0.346056
O O8 0.000000 0.495953 0.750000
O O9 0.000000 0.500000 0.000000
O O10 0.500000 0.040084 0.750000
O O11 0.879387 0.094966 0.518534
O O12 0.769037 0.960443 0.749466
O O13 0.000000 0.828653 0.750000
#
# Coordination Sequence:
#
# PCOD8121758 Si02
#       5
#     4   4   4   4   4
#     4  11  23  42  65  90 126 168 213 262 318 377
#     4  12  25  42  65  94 130 170 215 263 319 379
#     4  12  24  41  65  94 129 167 215 265 318 379
#     4  10  23  41  63  92 126 166 211 262 318 378
#     4  11  23  40  64  93 127 167 215 264 316 378
#
# _framework density 21.881018000000001
#
# number of rings (size 3 to 8) (size 9 to 14) (size 15 to 20)
#    0.000    0.800    0.000    8.400    0.000    7.200 
#    0.000    0.000    0.000    0.000    0.000    0.000 
#    0.000    0.000    0.000    0.000    0.000    0.000 
#
# Total GULP energy -247956.390468 kJ/mol
# GULP energy per Si atom -12397.819523 kJ/mol
# Density = 2.183122 g / cm^3
# Si number density = 21.881018 Si / 1000 Ang^3
#
#
#
# Elastic Constant Matrix: (Units=GPa)
#
#
# Indices 1 2 3 4 5 6 
#
# 1 146.0808 31.3863 34.5024 0.0000 2.7595 0.0000
# 2 31.3863 96.0191 8.8829 0.0000 -13.7644 0.0000
# 3 34.5024 8.8829 100.0664 0.0000 2.1601 0.0000
# 4 0.0000 0.0000 0.0000 52.9174 0.0000 5.0312
# 5 2.7595 -13.7644 2.1601 0.0000 40.9918 0.0000
# 6 0.0000 0.0000 0.0000 5.0312 0.0000 49.6621
#
#
#
# Elastic Compliance Matrix: (Units=1/GPa)
#
#
# Indices 1 2 3 4 5 6 
#
# 1 0.008014 -0.002570 -0.002508 0.000000 -0.001270 0.000000
# 2 -0.002570 0.011877 -0.000258 0.000000 0.004175 0.000000
# 3 -0.002508 -0.000258 0.010892 0.000000 -0.000492 0.000000
# 4 0.000000 0.000000 0.000000 0.019081 0.000000 -0.001933
# 5 -0.001270 0.004175 -0.000492 0.000000 0.025908 0.000000
# 6 0.000000 0.000000 0.000000 -0.001933 0.000000 0.020332
#
#
# Mechanical properties :
#
#
# Convention : Reuss Voigt Hill
#
# Bulk Modulus (GPa) = 49.72416 54.63436 52.17926
# Shear Modulus (GPa) = 44.06110 46.54057 45.30083
#
# Velocity S-wave (km/s) = 4.49226 4.61693 4.55502
# Velocity P-wave (km/s) = 7.04850 7.31057 7.18073
#
# Compressibility (1/GPa) = 0.02011095
#
# Stress axis : x y z
#
# Youngs Moduli (GPa) = 124.78332 84.19706 91.81436
#
# Poissons Ratio (x) = 0.21636 0.23024
# Poissons Ratio (y) = 0.32065 0.02373
# Poissons Ratio (z) = 0.31291 0.02176
#
# Static dielectric constant tensor:
#      x y z
#    x 4.010800 0.000000 -0.144560 
#    y 0.000000 4.834000 0.000000 
#    z -0.144560 0.000000 4.036120 
# 
# 
# High freq. dielectric constant tensor:
#      x y z
#    x 1.866330 0.000000 -0.009110 
#    y 0.000000 1.884790 0.000000 
#    z -0.009110 0.000000 1.868320 
# 
# From -- ./inp_files/29267.got.cif
#   From: 2010.06.25/outbox.cif.g09.slc.cpg/sg13_15_cif.got.tgz:29267.got - 2010.06.28 04:50:58.
