data_PCOD8121532
_publ_section_title
;
Structure prediction by ZEFSAII (Michael W. Deem and Ramdas Pophale) SiO2 
 PCOD8121532
Probable space group: P 2/C
;
_chemical_formula_sum "Si O2"
_cell_formula_units_Z 20
_cell_length_a 18.999539
_cell_length_b 7.126994
_cell_length_c 13.978577
_cell_angle_alpha 90.000000
_cell_angle_beta 27.359619
_cell_angle_gamma 90.000000
_cell_volume 869.896989
_symmetry_space_group_name_H-M "P 2/C"
_symmetry_group_IT_number 13
_symmetry_cell_setting 'monoclinic'
loop_
_space_group_symop_operation_xyz
x,y,z
-x,y,1/2-z
-x,-y,-z
x,-y,1/2+z
loop_
_atom_site_type_symbol
_atom_site_label
_atom_site_fract_x
_atom_site_fract_y
_atom_site_fract_z
Si Si1 0.090076 0.834703 0.494468
Si Si2 0.717540 0.490554 0.716146
Si Si3 0.235796 0.986252 0.643706
Si Si4 0.167018 0.831269 0.036265
Si Si5 0.452768 0.350138 0.911361
O O1 0.120619 0.617594 0.484290
O O2 0.911576 0.848799 0.685060
O O3 0.205871 0.877749 0.268105
O O4 0.136716 0.970532 0.523269
O O5 0.727228 0.692704 0.653121
O O6 0.599887 0.352093 0.803235
O O7 0.671556 0.521832 0.882915
O O8 0.387314 0.860664 0.475480
O O9 0.253638 0.120616 0.530152
O O10 0.000000 0.734375 0.250000
O O11 0.500000 0.432636 0.750000
#
# Coordination Sequence:
#
# PCOD8121532 Si02
#       5
#     4   4   4   4   4
#     4  10  22  44  70  97 131 172 223 283 329 386
#     4  11  25  44  68  97 141 173 222 274 331 399
#     4  10  22  44  70  98 133 173 224 274 334 392
#     4  10  22  43  70 103 130 172 226 282 335 388
#     4  11  25  45  62  99 136 178 224 263 330 402
#
# _framework density 22.991226999999999
#
# number of rings (size 3 to 8) (size 9 to 14) (size 15 to 20)
#    0.000    1.600    2.000    1.200    2.800    5.600 
#    7.200    0.000    0.000    0.000    0.000    0.000 
#    0.000    0.000    0.000    0.000    0.000    0.000 
#
# Total GULP energy -247927.855480 kJ/mol
# GULP energy per Si atom -12396.392774 kJ/mol
# Density = 2.293890 g / cm^3
# Si number density = 22.991227 Si / 1000 Ang^3
#
#
#
# Elastic Constant Matrix: (Units=GPa)
#
#
# Indices 1 2 3 4 5 6 
#
# 1 83.9963 28.9426 33.8255 0.0000 29.3169 0.0000
# 2 28.9426 86.8218 40.6777 0.0000 2.9898 0.0000
# 3 33.8255 40.6777 97.7584 0.0000 25.6065 0.0000
# 4 0.0000 0.0000 0.0000 24.3400 0.0000 -8.0233
# 5 29.3169 2.9898 25.6065 0.0000 43.7337 0.0000
# 6 0.0000 0.0000 0.0000 -8.0233 0.0000 27.2836
#
#
#
# Elastic Compliance Matrix: (Units=1/GPa)
#
#
# Indices 1 2 3 4 5 6 
#
# 1 0.017970 -0.005025 -0.001254 0.000000 -0.010969 0.000000
# 2 -0.005025 0.016045 -0.006535 0.000000 0.006098 0.000000
# 3 -0.001254 -0.006535 0.015408 0.000000 -0.007734 0.000000
# 4 0.000000 0.000000 0.000000 0.045495 0.000000 0.013379
# 5 -0.010969 0.006098 -0.007734 0.000000 0.034330 0.000000
# 6 0.000000 0.000000 0.000000 0.013379 0.000000 0.040586
#
#
# Mechanical properties :
#
#
# Convention : Reuss Voigt Hill
#
# Bulk Modulus (GPa) = 42.02490 52.82981 47.42736
# Shear Modulus (GPa) = 24.58286 30.08016 27.33151
#
# Velocity S-wave (km/s) = 3.27345 3.62101 3.45161
# Velocity P-wave (km/s) = 5.71014 6.36478 6.04633
#
# Compressibility (1/GPa) = 0.02379541
#
# Stress axis : x y z
#
# Youngs Moduli (GPa) = 55.64799 62.32566 64.90060
#
# Poissons Ratio (x) = 0.31321 0.08137
# Poissons Ratio (y) = 0.27965 0.42411
# Poissons Ratio (z) = 0.06977 0.40728
#
# Static dielectric constant tensor:
#      x y z
#    x 4.180710 0.000000 0.184430 
#    y 0.000000 3.739280 0.000000 
#    z 0.184430 0.000000 4.333550 
# 
# 
# High freq. dielectric constant tensor:
#      x y z
#    x 1.910830 0.000000 0.016890 
#    y 0.000000 1.889480 0.000000 
#    z 0.016890 0.000000 1.913180 
# 
# From -- ./inp_files/56398.got.cif
#   From: 2010.06.25/outbox.cif.g09.slc.cpg/sg13_29_cif.got.tgz:56398.got - 2010.06.28 04:50:58.
