data_PCOD8121933
_publ_section_title
;
Structure prediction by ZEFSAII (Michael W. Deem and Ramdas Pophale) SiO2 
 PCOD8121933
Probable space group: P 2/C
;
_chemical_formula_sum "Si O2"
_cell_formula_units_Z 32
_cell_length_a 18.852325
_cell_length_b 11.203082
_cell_length_c 16.184906
_cell_angle_alpha 90.000000
_cell_angle_beta 154.664866
_cell_angle_gamma 90.000000
_cell_volume 1462.740386
_symmetry_space_group_name_H-M "P 2/C"
_symmetry_group_IT_number 13
_symmetry_cell_setting 'monoclinic'
loop_
_space_group_symop_operation_xyz
x,y,z
-x,y,1/2-z
-x,-y,-z
x,-y,1/2+z
loop_
_atom_site_type_symbol
_atom_site_label
_atom_site_fract_x
_atom_site_fract_y
_atom_site_fract_z
Si Si1 0.855642 0.712648 0.462930
Si Si2 0.676541 0.700977 0.436918
Si Si3 0.150994 0.273198 0.733194
Si Si4 0.685535 0.089653 0.076859
Si Si5 0.011859 0.955198 0.857437
Si Si6 0.067261 0.505770 0.735705
Si Si7 0.474873 0.139376 0.127869
Si Si8 0.209803 0.153103 0.136671
O O1 0.710575 0.734186 0.376781
O O2 0.799518 0.736136 0.310661
O O3 0.991107 0.811776 0.632519
O O4 0.920659 0.576960 0.535333
O O5 0.500000 0.635879 0.250000
O O6 0.661921 0.821167 0.475461
O O7 0.803249 0.608061 0.606831
O O8 0.145826 0.409922 0.757613
O O9 0.965257 0.223195 0.557191
O O10 0.306519 0.215214 0.942651
O O11 0.843975 0.002906 0.225857
O O12 0.716614 0.161546 0.193934
O O13 0.537958 0.992647 0.928084
O O14 0.000000 0.991933 0.750000
O O15 0.169676 0.016890 0.067046
O O16 0.000000 0.446054 0.750000
O O17 0.500000 0.119708 0.250000
O O18 0.640115 0.202543 0.263072
#
# Coordination Sequence:
#
# PCOD8121933 Si02
#       8
#     4   4   4   4   4   4   4   4
#     4  11  22  44  69 104 125 175 232 282 340 399
#     4  11  24  41  71 102 138 172 226 288 346 395
#     4  12  26  46  73  95 141 184 228 279 337 406
#     4  12  22  44  67 101 139 175 223 286 339 401
#     4  12  20  38  68  94 135 176 223 271 338 396
#     4  10  23  45  70  96 130 179 230 281 340 405
#     4  12  29  45  63 103 141 183 229 269 336 422
#     4  12  27  42  70 101 139 183 226 275 341 406
#
# _framework density 21.876746000000001
#
# number of rings (size 3 to 8) (size 9 to 14) (size 15 to 20)
#    0.000    0.500    5.000    3.375    5.250    0.500 
#    2.250    0.625    0.000    0.000    0.000    0.000 
#    0.000    0.000    0.000    0.000    0.000    0.000 
#
# Total GULP energy -396628.484552 kJ/mol
# GULP energy per Si atom -12394.640142 kJ/mol
# Density = 2.182695 g / cm^3
# Si number density = 21.876746 Si / 1000 Ang^3
#
#
#
# Elastic Constant Matrix: (Units=GPa)
#
#
# Indices 1 2 3 4 5 6 
#
# 1 110.9841 25.6404 39.8787 0.0000 2.6794 0.0000
# 2 25.6404 85.0692 21.8171 0.0000 1.1260 0.0000
# 3 39.8787 21.8171 88.7295 0.0000 5.7586 0.0000
# 4 0.0000 0.0000 0.0000 -9.8514 0.0000 -2.5377
# 5 2.6794 1.1260 5.7586 0.0000 35.8262 0.0000
# 6 0.0000 0.0000 0.0000 -2.5377 0.0000 28.8155
#
#
#
# Elastic Compliance Matrix: (Units=1/GPa)
#
#
# Indices 1 2 3 4 5 6 
#
# 1 0.011122 -0.002210 -0.004452 0.000000 -0.000047 0.000000
# 2 -0.002210 0.012986 -0.002207 0.000000 0.000112 0.000000
# 3 -0.004452 -0.002207 0.013933 0.000000 -0.001837 0.000000
# 4 0.000000 0.000000 0.000000 -0.099256 0.000000 -0.008741
# 5 -0.000047 0.000112 -0.001837 0.000000 0.028208 0.000000
# 6 0.000000 0.000000 0.000000 -0.008741 0.000000 0.033934
#
#
# Mechanical properties :
#
#
# Convention : Reuss Voigt Hill
#
# Bulk Modulus (GPa) = 49.25490 51.05057 50.15273
# Shear Modulus (GPa) = 196.60949 24.12118 110.36533
#
# Velocity S-wave (km/s) = 9.49034 3.32414 7.11043
# Velocity P-wave (km/s) = 11.94372 6.17409 9.50715
#
# Compressibility (1/GPa) = 0.02030255
#
# Stress axis : x y z
#
# Youngs Moduli (GPa) = 89.91447 77.00776 71.77146
#
# Poissons Ratio (x) = 0.17016 0.31954
# Poissons Ratio (y) = 0.19868 0.15841
# Poissons Ratio (z) = 0.40031 0.16996
#
# Static dielectric constant tensor:
#      x y z
#    x 4.130950 0.000000 0.160460 
#    y 0.000000 3.669700 0.000000 
#    z 0.160460 0.000000 4.057220 
# 
# 
# High freq. dielectric constant tensor:
#      x y z
#    x 1.873100 0.000000 -0.000160 
#    y 0.000000 1.839010 0.000000 
#    z -0.000160 0.000000 1.865550 
# 
# From -- ./inp_files/55830.got.cif
#   From: 2010.06.25/outbox.cif.g09.slc.cpg/sg13_28_cif.got.tgz:55830.got - 2010.06.28 04:50:58.
