data_PCOD8121314
_publ_section_title
;
Structure prediction by ZEFSAII (Michael W. Deem and Ramdas Pophale) SiO2 
 PCOD8121314
Probable space group: P 2/C
;
_chemical_formula_sum "Si O2"
_cell_formula_units_Z 28
_cell_length_a 14.397656
_cell_length_b 6.511061
_cell_length_c 17.156039
_cell_angle_alpha 90.000000
_cell_angle_beta 122.879299
_cell_angle_gamma 90.000000
_cell_volume 1350.656014
_symmetry_space_group_name_H-M "P 2/C"
_symmetry_group_IT_number 13
_symmetry_cell_setting 'monoclinic'
loop_
_space_group_symop_operation_xyz
x,y,z
-x,y,1/2-z
-x,-y,-z
x,-y,1/2+z
loop_
_atom_site_type_symbol
_atom_site_label
_atom_site_fract_x
_atom_site_fract_y
_atom_site_fract_z
Si Si1 0.295643 0.787638 0.320141
Si Si2 0.467510 0.951714 0.823897
Si Si3 0.041906 0.316767 0.071439
Si Si4 0.403051 0.391296 0.409209
Si Si5 0.668097 0.952610 0.517172
Si Si6 0.887220 0.944204 0.025791
Si Si7 0.944672 0.655790 0.305514
O O1 0.323965 0.549223 0.329342
O O2 0.345546 0.871113 0.424233
O O3 0.162914 0.802315 0.252729
O O4 0.355141 0.911971 0.277069
O O5 0.500000 0.910251 0.750000
O O6 0.454093 0.737901 0.861934
O O7 0.564288 0.072156 0.912903
O O8 0.087174 0.436032 0.168518
O O9 0.131535 0.171791 0.066655
O O10 0.938770 0.169558 0.042266
O O11 0.000000 0.500000 0.000000
O O12 0.500000 0.500000 0.500000
O O13 0.324581 0.261440 0.432359
O O14 0.772384 0.015427 0.514195
O O15 0.966534 0.792922 0.109170
O O16 0.000000 0.592900 0.250000
#
# Coordination Sequence:
#
# PCOD8121314 Si02
#       7
#     4   4   4   4   4   4   4
#     4  11  23  43  65  95 132 167 216 273 319 387
#     4  11  25  42  65  98 130 165 216 272 333 392
#     4   9  22  41  60  91 132 171 214 264 322 382
#     4  11  21  42  68  92 123 171 216 267 322 389
#     4  11  22  40  69  93 125 172 216 261 330 394
#     4  10  22  41  65  93 134 172 210 271 325 380
#     4  11  23  39  65 100 130 170 224 265 318 393
#
# _framework density 20.730665999999999
#
# number of rings (size 3 to 8) (size 9 to 14) (size 15 to 20)
#    0.000    1.429    4.286    0.857    2.000    8.000 
#    0.000    0.000    0.000    0.000    0.000    0.000 
#    0.000    0.000    0.000    0.000    0.000    0.000 
#
# Total GULP energy -347028.828419 kJ/mol
# GULP energy per Si atom -12393.886729 kJ/mol
# Density = 2.068348 g / cm^3
# Si number density = 20.730666 Si / 1000 Ang^3
#
#
#
# Elastic Constant Matrix: (Units=GPa)
#
#
# Indices 1 2 3 4 5 6 
#
# 1 156.5497 51.7599 50.0395 0.0000 -16.2912 0.0000
# 2 51.7599 118.8055 31.3942 0.0000 -13.7833 0.0000
# 3 50.0395 31.3942 76.6506 0.0000 -14.2298 0.0000
# 4 0.0000 0.0000 0.0000 16.8251 0.0000 6.8445
# 5 -16.2912 -13.7833 -14.2298 0.0000 35.7027 0.0000
# 6 0.0000 0.0000 0.0000 6.8445 0.0000 24.1448
#
#
#
# Elastic Compliance Matrix: (Units=1/GPa)
#
#
# Indices 1 2 3 4 5 6 
#
# 1 0.008773 -0.002494 -0.004472 0.000000 0.001258 0.000000
# 2 -0.002494 0.010322 -0.002236 0.000000 0.001955 0.000000
# 3 -0.004472 -0.002236 0.017648 0.000000 0.004130 0.000000
# 4 0.000000 0.000000 0.000000 0.067182 0.000000 -0.019045
# 5 0.001258 0.001955 0.004130 0.000000 0.030984 0.000000
# 6 0.000000 0.000000 0.000000 -0.019045 0.000000 0.046815
#
#
# Mechanical properties :
#
#
# Convention : Reuss Voigt Hill
#
# Bulk Modulus (GPa) = 54.53248 68.71034 61.62141
# Shear Modulus (GPa) = 24.24342 29.92200 27.08271
#
# Velocity S-wave (km/s) = 3.42343 3.80329 3.61835
# Velocity P-wave (km/s) = 6.47988 7.24589 6.87356
#
# Compressibility (1/GPa) = 0.01833769
#
# Stress axis : x y z
#
# Youngs Moduli (GPa) = 113.98910 96.88442 56.66299
#
# Poissons Ratio (x) = 0.24167 0.25340
# Poissons Ratio (y) = 0.28433 0.12670
# Poissons Ratio (z) = 0.50976 0.21664
#
# Static dielectric constant tensor:
#      x y z
#    x 4.094800 0.000000 -0.232360 
#    y 0.000000 4.097450 0.000000 
#    z -0.232360 0.000000 3.918640 
# 
# 
# High freq. dielectric constant tensor:
#      x y z
#    x 1.814730 0.000000 -0.009650 
#    y 0.000000 1.822580 0.000000 
#    z -0.009650 0.000000 1.801570 
# 
# From -- ./inp_files/67624.got.cif
#   From: 2010.06.25/outbox.cif.g09.slc.cpg/sg13_34_cif.got.tgz:67624.got - 2010.06.28 04:50:58.
