data_PCOD8121119
_publ_section_title
;
Structure prediction by ZEFSAII (Michael W. Deem and Ramdas Pophale) SiO2 
 PCOD8121119
Probable space group: P 2/C
;
_chemical_formula_sum "Si O2"
_cell_formula_units_Z 26
_cell_length_a 5.325429
_cell_length_b 14.220713
_cell_length_c 16.617876
_cell_angle_alpha 90.000000
_cell_angle_beta 117.879465
_cell_angle_gamma 90.000000
_cell_volume 1112.425589
_symmetry_space_group_name_H-M "P 2/C"
_symmetry_group_IT_number 13
_symmetry_cell_setting 'monoclinic'
loop_
_space_group_symop_operation_xyz
x,y,z
-x,y,1/2-z
-x,-y,-z
x,-y,1/2+z
loop_
_atom_site_type_symbol
_atom_site_label
_atom_site_fract_x
_atom_site_fract_y
_atom_site_fract_z
Si Si1 0.231881 0.590769 0.107460
Si Si2 0.792700 0.307310 0.654798
Si Si3 0.500000 0.057983 0.250000
Si Si4 0.780703 0.378602 0.415009
Si Si5 0.924619 0.778056 0.824900
Si Si6 0.477309 0.773953 0.527380
Si Si7 0.323528 0.968230 0.553408
O O1 0.533591 0.641755 0.162151
O O2 0.312621 0.481083 0.127453
O O3 0.993911 0.618991 0.137054
O O4 0.101433 0.614265 0.999559
O O5 0.658608 0.222973 0.582006
O O6 0.000000 0.257620 0.750000
O O7 0.533541 0.997950 0.339240
O O8 0.775271 0.123285 0.286047
O O9 0.571171 0.333498 0.450362
O O10 0.743471 0.305026 0.337005
O O11 0.192103 0.798798 0.923040
O O12 0.000000 0.734988 0.750000
O O13 0.318957 0.853647 0.557090
O O14 0.500000 0.000000 0.500000
O O15 0.000000 0.000000 0.500000
#
# Coordination Sequence:
#
# PCOD8121119 Si02
#       7
#     4   4   2   4   4   4   4
#     4  10  23  40  66  97 143 190 240 293 350 407
#     4  11  24  45  64  95 142 195 244 287 339 417
#     4  12  26  48  74 112 146 184 240 304 378 446
#     4  10  22  39  66 102 139 184 236 292 360 421
#     4  12  21  40  72 104 141 180 234 296 367 437
#     4  11  24  44  73  98 140 184 232 290 366 426
#     4  12  28  49  77 108 146 184 231 300 374 442
#
# _framework density 23.372349
#
# number of rings (size 3 to 8) (size 9 to 14) (size 15 to 20)
#    0.000    0.923    4.615    1.385    2.154    2.462 
#    8.308    0.000    0.000    0.000    0.000    0.000 
#    0.000    0.000    0.000    0.000    0.000    0.000 
#
# Total GULP energy -322192.404961 kJ/mol
# GULP energy per Si atom -12392.015575 kJ/mol
# Density = 2.331915 g / cm^3
# Si number density = 23.372349 Si / 1000 Ang^3
#
#
#
# Elastic Constant Matrix: (Units=GPa)
#
#
# Indices 1 2 3 4 5 6 
#
# 1 128.1080 17.4975 44.0172 0.0000 12.1903 0.0000
# 2 17.4975 51.7467 14.8002 0.0000 5.6179 0.0000
# 3 44.0172 14.8002 169.7918 0.0000 10.6385 0.0000
# 4 0.0000 0.0000 0.0000 28.5068 0.0000 5.0254
# 5 12.1903 5.6179 10.6385 0.0000 46.1086 0.0000
# 6 0.0000 0.0000 0.0000 5.0254 0.0000 26.2342
#
#
#
# Elastic Compliance Matrix: (Units=1/GPa)
#
#
# Indices 1 2 3 4 5 6 
#
# 1 0.008967 -0.002277 -0.002024 0.000000 -0.001626 0.000000
# 2 -0.002277 0.020589 -0.001101 0.000000 -0.001653 0.000000
# 3 -0.002024 -0.001101 0.006563 0.000000 -0.000845 0.000000
# 4 0.000000 0.000000 0.000000 0.036305 0.000000 -0.006955
# 5 -0.001626 -0.001653 -0.000845 0.000000 0.022514 0.000000
# 6 0.000000 0.000000 0.000000 -0.006955 0.000000 0.039450
#
#
# Mechanical properties :
#
#
# Convention : Reuss Voigt Hill
#
# Bulk Modulus (GPa) = 39.50113 55.80847 47.65480
# Shear Modulus (GPa) = 32.54535 38.39202 35.46868
#
# Velocity S-wave (km/s) = 3.73563 4.05733 3.89980
# Velocity P-wave (km/s) = 5.96189 6.77341 6.38056
#
# Compressibility (1/GPa) = 0.02531573
#
# Stress axis : x y z
#
# Youngs Moduli (GPa) = 111.51801 48.56961 152.36313
#
# Poissons Ratio (x) = 0.11057 0.30843
# Poissons Ratio (y) = 0.25388 0.16774
# Poissons Ratio (z) = 0.22575 0.05347
#
# Static dielectric constant tensor:
#      x y z
#    x 4.151410 0.000000 -0.107610 
#    y 0.000000 4.051450 0.000000 
#    z -0.107610 0.000000 4.834210 
# 
# 
# High freq. dielectric constant tensor:
#      x y z
#    x 1.928050 0.000000 0.001400 
#    y 0.000000 1.890660 0.000000 
#    z 0.001400 0.000000 1.943970 
# 
# From -- ./inp_files/61466.got.cif
#   From: 2010.06.25/outbox.cif.g09.slc.cpg/sg13_31_cif.got.tgz:61466.got - 2010.06.28 04:50:58.
