data_PCOD8121893
_publ_section_title
;
Structure prediction by ZEFSAII (Michael W. Deem and Ramdas Pophale) SiO2 
 PCOD8121893
Probable space group: P 2/C
;
_chemical_formula_sum "Si O2"
_cell_formula_units_Z 18
_cell_length_a 5.020822
_cell_length_b 11.228698
_cell_length_c 16.367217
_cell_angle_alpha 90.000000
_cell_angle_beta 60.181141
_cell_angle_gamma 90.000000
_cell_volume 800.570392
_symmetry_space_group_name_H-M "P 2/C"
_symmetry_group_IT_number 13
_symmetry_cell_setting 'monoclinic'
loop_
_space_group_symop_operation_xyz
x,y,z
-x,y,1/2-z
-x,-y,-z
x,-y,1/2+z
loop_
_atom_site_type_symbol
_atom_site_label
_atom_site_fract_x
_atom_site_fract_y
_atom_site_fract_z
Si Si1 0.000000 0.378129 0.250000
Si Si2 0.255418 0.201108 0.086938
Si Si3 0.041641 0.224408 0.537451
Si Si4 0.854622 0.028160 0.689151
Si Si5 0.159311 0.608073 0.303553
O O1 0.232730 0.296262 0.163822
O O2 0.166523 0.463847 0.291552
O O3 0.615581 0.174747 0.025392
O O4 0.066065 0.083805 0.135802
O O5 0.125808 0.251173 0.021951
O O6 0.859870 0.125356 0.616750
O O7 0.024947 0.350994 0.587582
O O8 0.500000 0.986163 0.750000
O O9 0.000000 0.082467 0.750000
O O10 0.500000 0.660132 0.250000
O O11 0.000000 0.669127 0.250000
#
# Coordination Sequence:
#
# PCOD8121893 Si02
#       5
#     2   4   4   4   4
#     4  10  28  44  68  90 140 176 228 260 340 384
#     4  12  26  43  68  99 138 171 220 274 330 390
#     4  12  25  43  70 103 132 169 225 276 323 390
#     4  12  24  44  73  98 137 175 212 267 340 400
#     4  10  23  44  68  94 134 173 226 264 327 389
#
# _framework density 22.483967
#
# number of rings (size 3 to 8) (size 9 to 14) (size 15 to 20)
#    0.667    0.000    1.111    6.667    3.111    1.778 
#    0.000    0.000    0.000    0.000    0.000    0.000 
#    0.000    0.000    0.000    0.000    0.000    0.000 
#
# Total GULP energy -223138.600594 kJ/mol
# GULP energy per Si atom -12396.588922 kJ/mol
# Density = 2.243279 g / cm^3
# Si number density = 22.483967 Si / 1000 Ang^3
#
#
#
# Elastic Constant Matrix: (Units=GPa)
#
#
# Indices 1 2 3 4 5 6 
#
# 1 99.0494 0.2451 25.1278 0.0000 -14.3182 0.0000
# 2 0.2451 106.9703 45.2501 0.0000 8.8115 0.0000
# 3 25.1278 45.2501 114.5612 0.0000 -2.6148 0.0000
# 4 0.0000 0.0000 0.0000 22.6112 0.0000 -27.5501
# 5 -14.3182 8.8115 -2.6148 0.0000 47.7774 0.0000
# 6 0.0000 0.0000 0.0000 -27.5501 0.0000 75.2616
#
#
#
# Elastic Compliance Matrix: (Units=1/GPa)
#
#
# Indices 1 2 3 4 5 6 
#
# 1 0.011231 0.000883 -0.002742 0.000000 0.003053 0.000000
# 2 0.000883 0.011555 -0.004806 0.000000 -0.002130 0.000000
# 3 -0.002742 -0.004806 0.011244 0.000000 0.000680 0.000000
# 4 0.000000 0.000000 0.000000 0.079832 0.000000 0.029223
# 5 0.003053 -0.002130 0.000680 0.000000 0.022275 0.000000
# 6 0.000000 0.000000 0.000000 0.029223 0.000000 0.023984
#
#
# Mechanical properties :
#
#
# Convention : Reuss Voigt Hill
#
# Bulk Modulus (GPa) = 48.31265 51.31409 49.81337
# Shear Modulus (GPa) = 27.72340 45.79390 36.75865
#
# Velocity S-wave (km/s) = 3.51526 4.51792 4.04775
# Velocity P-wave (km/s) = 6.16525 7.07725 6.63694
#
# Compressibility (1/GPa) = 0.02069851
#
# Stress axis : x y z
#
# Youngs Moduli (GPa) = 89.04081 86.54318 88.93298
#
# Poissons Ratio (x) = -0.07641 0.24389
# Poissons Ratio (y) = -0.07861 0.42744
# Poissons Ratio (z) = 0.24419 0.41595
#
# Static dielectric constant tensor:
#      x y z
#    x 4.203920 0.000000 0.111740 
#    y 0.000000 3.914590 0.000000 
#    z 0.111740 0.000000 4.323690 
# 
# 
# High freq. dielectric constant tensor:
#      x y z
#    x 1.892270 0.000000 0.003960 
#    y 0.000000 1.881830 0.000000 
#    z 0.003960 0.000000 1.897240 
# 
# From -- ./inp_files/60885.got.cif
#   From: 2010.06.25/outbox.cif.g09.slc.cpg/sg13_31_cif.got.tgz:60885.got - 2010.06.28 04:50:58.
