data_PCOD8121586
_publ_section_title
;
Structure prediction by ZEFSAII (Michael W. Deem and Ramdas Pophale) SiO2 
 PCOD8121586
Probable space group: P 2/C
;
_chemical_formula_sum "Si O2"
_cell_formula_units_Z 28
_cell_length_a 9.184284
_cell_length_b 6.524903
_cell_length_c 24.970017
_cell_angle_alpha 90.000000
_cell_angle_beta 64.471414
_cell_angle_gamma 90.000000
_cell_volume 1350.277511
_symmetry_space_group_name_H-M "P 2/C"
_symmetry_group_IT_number 13
_symmetry_cell_setting 'monoclinic'
loop_
_space_group_symop_operation_xyz
x,y,z
-x,y,1/2-z
-x,-y,-z
x,-y,1/2+z
loop_
_atom_site_type_symbol
_atom_site_label
_atom_site_fract_x
_atom_site_fract_y
_atom_site_fract_z
Si Si1 0.467395 0.728692 0.158098
Si Si2 0.158240 0.618865 0.141153
Si Si3 0.500000 0.569486 0.750000
Si Si4 0.282806 0.913291 0.744273
Si Si5 0.959642 0.366214 0.429951
Si Si6 0.183144 0.296843 0.936113
Si Si7 0.000000 0.343914 0.250000
Si Si8 0.050523 0.960588 0.364649
O O1 0.328470 0.624309 0.144349
O O2 0.521897 0.574522 0.195567
O O3 0.411272 0.950348 0.190272
O O4 0.625825 0.747074 0.096449
O O5 0.165802 0.515862 0.081028
O O6 0.023117 0.494477 0.195955
O O7 0.098212 0.850327 0.141383
O O8 0.351049 0.720433 0.765774
O O9 0.204248 0.063870 0.800868
O O10 0.150643 0.811234 0.726980
O O11 0.865921 0.267373 0.494550
O O12 0.122962 0.481237 0.424073
O O13 0.007141 0.196592 0.378918
O O14 0.090836 0.128000 0.916182
#
# Coordination Sequence:
#
# PCOD8121586 Si02
#       8
#     4   4   2   4   4   4   2   4
#     4  12  25  41  59  97 132 164 208 267 326 376
#     4  11  24  40  63  91 128 165 214 265 316 377
#     4  12  24  40  60  92 134 160 204 260 318 396
#     4  12  24  39  65  93 127 170 208 256 333 384
#     4  10  22  44  67  95 119 176 223 255 318 375
#     4  10  23  41  67  92 132 164 214 273 314 375
#     4  12  22  44  62  90 128 170 212 262 314 400
#     4  11  21  40  67  93 123 167 218 267 305 392
#
# _framework density 20.736478000000002
#
# number of rings (size 3 to 8) (size 9 to 14) (size 15 to 20)
#    0.000    0.857    2.857    5.143    2.000    0.571 
#    0.000    0.714    0.000    0.000    0.000    0.000 
#    0.000    0.000    0.000    0.000    0.000    0.000 
#
# Total GULP energy -347144.127467 kJ/mol
# GULP energy per Si atom -12398.004552 kJ/mol
# Density = 2.068928 g / cm^3
# Si number density = 20.736478 Si / 1000 Ang^3
#
#
#
# Elastic Constant Matrix: (Units=GPa)
#
#
# Indices 1 2 3 4 5 6 
#
# 1 100.4360 35.4740 32.5768 0.0000 -10.7740 0.0000
# 2 35.4740 98.2547 25.8966 0.0000 -8.3896 0.0000
# 3 32.5768 25.8966 82.2951 0.0000 -7.3696 0.0000
# 4 0.0000 0.0000 0.0000 31.5837 0.0000 3.3083
# 5 -10.7740 -8.3896 -7.3696 0.0000 31.4145 0.0000
# 6 0.0000 0.0000 0.0000 3.3083 0.0000 37.4428
#
#
#
# Elastic Compliance Matrix: (Units=1/GPa)
#
#
# Indices 1 2 3 4 5 6 
#
# 1 0.012621 -0.003360 -0.003709 0.000000 0.002561 0.000000
# 2 -0.003360 0.012142 -0.002353 0.000000 0.001538 0.000000
# 3 -0.003709 -0.002353 0.014494 0.000000 0.001500 0.000000
# 4 0.000000 0.000000 0.000000 0.031958 0.000000 -0.002824
# 5 0.002561 0.001538 0.001500 0.000000 0.033473 0.000000
# 6 0.000000 0.000000 0.000000 -0.002824 0.000000 0.026957
#
#
# Mechanical properties :
#
#
# Convention : Reuss Voigt Hill
#
# Bulk Modulus (GPa) = 48.98936 52.09785 50.54360
# Shear Modulus (GPa) = 31.78717 32.55743 32.17230
#
# Velocity S-wave (km/s) = 3.91949 3.96669 3.94316
# Velocity P-wave (km/s) = 6.64524 6.79396 6.72001
#
# Compressibility (1/GPa) = 0.02041260
#
# Stress axis : x y z
#
# Youngs Moduli (GPa) = 79.23054 82.35598 68.99171
#
# Poissons Ratio (x) = 0.27676 0.25592
# Poissons Ratio (y) = 0.26625 0.16233
# Poissons Ratio (z) = 0.29390 0.19378
#
# Static dielectric constant tensor:
#      x y z
#    x 3.641460 0.000000 0.125550 
#    y 0.000000 3.824420 0.000000 
#    z 0.125550 0.000000 3.596840 
# 
# 
# High freq. dielectric constant tensor:
#      x y z
#    x 1.814610 0.000000 0.015640 
#    y 0.000000 1.823760 0.000000 
#    z 0.015640 0.000000 1.799110 
# 
# From -- ./inp_files/95434.got.cif
#   From: 2010.06.25/outbox.cif.g09.slc.cpg/sg13_48_cif.got.tgz:95434.got - 2010.06.28 04:50:58.
