data_PCOD8121035
_publ_section_title
;
Structure prediction by ZEFSAII (Michael W. Deem and Ramdas Pophale) SiO2 
 PCOD8121035
Probable space group: P 2/C
;
_chemical_formula_sum "Si O2"
_cell_formula_units_Z 28
_cell_length_a 15.291627
_cell_length_b 9.272175
_cell_length_c 21.305295
_cell_angle_alpha 90.000000
_cell_angle_beta 153.451415
_cell_angle_gamma 90.000000
_cell_volume 1350.169064
_symmetry_space_group_name_H-M "P 2/C"
_symmetry_group_IT_number 13
_symmetry_cell_setting 'monoclinic'
loop_
_space_group_symop_operation_xyz
x,y,z
-x,y,1/2-z
-x,-y,-z
x,-y,1/2+z
loop_
_atom_site_type_symbol
_atom_site_label
_atom_site_fract_x
_atom_site_fract_y
_atom_site_fract_z
Si Si1 0.137824 0.972710 0.921262
Si Si2 0.757782 0.403730 0.185739
Si Si3 0.290806 0.075182 0.382079
Si Si4 0.919501 0.493378 0.517024
Si Si5 0.660280 0.718365 0.395963
Si Si6 0.320419 0.261136 0.087192
Si Si7 0.592296 0.498107 0.957266
O O1 0.247278 0.925503 0.927712
O O2 0.258433 0.105751 0.024460
O O3 0.904387 0.006152 0.770206
O O4 0.167002 0.833687 0.983826
O O5 0.703252 0.235759 0.142620
O O6 0.612433 0.485191 0.139263
O O7 0.965053 0.430470 0.351530
O O8 0.758601 0.479982 0.117951
O O9 0.500000 0.000000 0.500000
O O10 0.721620 0.585515 0.390265
O O11 0.867925 0.327773 0.498325
O O12 0.000000 0.500000 0.500000
O O13 0.500000 0.798984 0.250000
O O14 0.582112 0.649558 0.410908
O O15 0.500000 0.247520 0.250000
O O16 0.369121 0.359630 0.058493
#
# Coordination Sequence:
#
# PCOD8121035 Si02
#       7
#     4   4   4   4   4   4   4
#     4  11  24  43  67  95 135 183 225 273 347 405
#     4  11  21  39  66 100 134 162 231 282 334 405
#     4  11  24  43  68  99 141 177 222 286 344 402
#     4  11  23  40  66  94 132 173 222 282 340 399
#     4  11  21  40  64  93 129 178 223 266 340 406
#     4  11  24  43  63  93 138 175 226 276 339 400
#     4  10  22  38  68  95 128 174 216 283 335 397
#
# _framework density 20.738143000000001
#
# number of rings (size 3 to 8) (size 9 to 14) (size 15 to 20)
#    0.000    1.143    2.857    4.714    0.000    6.857 
#    2.571    0.714    0.000    0.000    0.000    0.000 
#    0.000    0.000    0.000    0.000    0.000    0.000 
#
# Total GULP energy -346957.263728 kJ/mol
# GULP energy per Si atom -12391.330847 kJ/mol
# Density = 2.069094 g / cm^3
# Si number density = 20.738143 Si / 1000 Ang^3
#
#
#
# Elastic Constant Matrix: (Units=GPa)
#
#
# Indices 1 2 3 4 5 6 
#
# 1 106.6109 28.9052 55.6968 0.0000 -8.0503 0.0000
# 2 28.9052 120.6452 60.2185 0.0000 -9.2985 0.0000
# 3 55.6968 60.2185 136.9547 0.0000 -8.7602 0.0000
# 4 0.0000 0.0000 0.0000 34.3144 0.0000 3.3572
# 5 -8.0503 -9.2985 -8.7602 0.0000 33.6997 0.0000
# 6 0.0000 0.0000 0.0000 3.3572 0.0000 11.1149
#
#
#
# Elastic Compliance Matrix: (Units=1/GPa)
#
#
# Indices 1 2 3 4 5 6 
#
# 1 0.012018 -0.000474 -0.004580 0.000000 0.001550 0.000000
# 2 -0.000474 0.010740 -0.004421 0.000000 0.001701 0.000000
# 3 -0.004580 -0.004421 0.011145 0.000000 0.000583 0.000000
# 4 0.000000 0.000000 0.000000 0.030030 0.000000 -0.009070
# 5 0.001550 0.001701 0.000583 0.000000 0.030665 0.000000
# 6 0.000000 0.000000 0.000000 -0.009070 0.000000 0.092709
#
#
# Mechanical properties :
#
#
# Convention : Reuss Voigt Hill
#
# Bulk Modulus (GPa) = 66.87149 72.65020 69.76084
# Shear Modulus (GPa) = 23.66962 30.45182 27.06072
#
# Velocity S-wave (km/s) = 3.38206 3.83612 3.61623
# Velocity P-wave (km/s) = 6.89687 7.39793 7.15179
#
# Compressibility (1/GPa) = 0.01495406
#
# Stress axis : x y z
#
# Youngs Moduli (GPa) = 83.20733 93.10991 89.72279
#
# Poissons Ratio (x) = 0.04412 0.41094
# Poissons Ratio (y) = 0.03943 0.39665
# Poissons Ratio (z) = 0.38110 0.41162
#
# Static dielectric constant tensor:
#      x y z
#    x 3.825780 0.000000 -0.053400 
#    y 0.000000 3.782020 0.000000 
#    z -0.053400 0.000000 4.054480 
# 
# 
# High freq. dielectric constant tensor:
#      x y z
#    x 1.811590 0.000000 -0.008180 
#    y 0.000000 1.809390 0.000000 
#    z -0.008180 0.000000 1.827980 
# 
# From -- ./inp_files/79995.got.cif
#   From: 2010.06.25/outbox.cif.g09.slc.cpg/sg13_40_cif.got.tgz:79995.got - 2010.06.28 04:50:58.
