data_PCOD8121559
_publ_section_title
;
Structure prediction by ZEFSAII (Michael W. Deem and Ramdas Pophale) SiO2 
 PCOD8121559
Probable space group: P 2/C
;
_chemical_formula_sum "Si O2"
_cell_formula_units_Z 28
_cell_length_a 8.932052
_cell_length_b 5.280106
_cell_length_c 31.405333
_cell_angle_alpha 90.000000
_cell_angle_beta 55.889548
_cell_angle_gamma 90.000000
_cell_volume 1226.325104
_symmetry_space_group_name_H-M "P 2/C"
_symmetry_group_IT_number 13
_symmetry_cell_setting 'monoclinic'
loop_
_space_group_symop_operation_xyz
x,y,z
-x,y,1/2-z
-x,-y,-z
x,-y,1/2+z
loop_
_atom_site_type_symbol
_atom_site_label
_atom_site_fract_x
_atom_site_fract_y
_atom_site_fract_z
Si Si1 0.500000 0.202396 0.250000
Si Si2 0.833707 0.554845 0.195758
Si Si3 0.052434 0.780207 0.603937
Si Si4 0.000000 0.408199 0.250000
Si Si5 0.296894 0.914391 0.345931
Si Si6 0.403269 0.252359 0.997623
Si Si7 0.492979 0.334669 0.887973
Si Si8 0.720394 0.152301 0.350016
O O1 0.681030 0.353433 0.230641
O O2 0.469225 0.076754 0.302353
O O3 0.944316 0.597472 0.221148
O O4 0.743869 0.810650 0.195109
O O5 0.967874 0.478287 0.135631
O O6 0.192573 0.733923 0.543598
O O7 0.163541 0.899973 0.625708
O O8 0.886182 0.942262 0.610739
O O9 0.843197 0.223676 0.290805
O O10 0.345300 0.698715 0.373309
O O11 0.500000 0.500000 0.000000
O O12 0.403640 0.254644 0.946662
O O13 0.500000 0.000000 0.000000
O O14 0.570804 0.620212 0.879138
O O15 0.637843 0.120535 0.852944
#
# Coordination Sequence:
#
# PCOD8121559 Si02
#       8
#     2   4   4   2   4   4   4   4
#     4  10  22  44  64  96 142 192 228 274 364 418
#     4  10  23  43  64  98 141 180 228 287 341 421
#     4  10  24  44  68  98 141 174 236 290 353 406
#     4  10  24  40  68  98 136 182 232 282 340 410
#     4  11  26  41  71 100 147 183 232 296 354 429
#     4  12  24  46  75 102 135 186 237 297 357 419
#     4  12  26  45  72 105 138 184 237 291 353 426
#     4  11  25  45  70 103 139 182 239 286 346 424
#
# _framework density 22.832446000000001
#
# number of rings (size 3 to 8) (size 9 to 14) (size 15 to 20)
#    0.000    1.143    2.857    1.286   14.000    1.143 
#    0.000    0.714    0.000    0.000    0.000    0.000 
#    0.000    0.000    0.000    0.000    0.000    0.000 
#
# Total GULP energy -346907.468138 kJ/mol
# GULP energy per Si atom -12389.552433 kJ/mol
# Density = 2.278048 g / cm^3
# Si number density = 22.832446 Si / 1000 Ang^3
#
#
#
# Elastic Constant Matrix: (Units=GPa)
#
#
# Indices 1 2 3 4 5 6 
#
# 1 83.0799 13.9182 41.1523 0.0000 -5.5328 0.0000
# 2 13.9182 67.7105 5.3662 0.0000 -2.1621 0.0000
# 3 41.1523 5.3662 143.8162 0.0000 -18.2142 0.0000
# 4 0.0000 0.0000 0.0000 -22.7410 0.0000 38.0798
# 5 -5.5328 -2.1621 -18.2142 0.0000 39.0397 0.0000
# 6 0.0000 0.0000 0.0000 38.0798 0.0000 -0.6928
#
#
#
# Elastic Compliance Matrix: (Units=1/GPa)
#
#
# Indices 1 2 3 4 5 6 
#
# 1 0.014486 -0.002657 -0.004043 0.000000 0.000019 0.000000
# 2 -0.002657 0.015313 0.000264 0.000000 0.000595 0.000000
# 3 -0.004043 0.000264 0.008534 0.000000 0.003423 0.000000
# 4 0.000000 0.000000 0.000000 0.000483 0.000000 0.026549
# 5 0.000019 0.000595 0.003423 0.000000 0.027248 0.000000
# 6 0.000000 0.000000 0.000000 0.026549 0.000000 0.015855
#
#
# Mechanical properties :
#
#
# Convention : Reuss Voigt Hill
#
# Bulk Modulus (GPa) = 39.27587 46.16443 42.72015
# Shear Modulus (GPa) = 48.41343 18.73252 33.57298
#
# Velocity S-wave (km/s) = 4.60975 2.86743 3.83875
# Velocity P-wave (km/s) = 6.75072 5.58798 6.19668
#
# Compressibility (1/GPa) = 0.02546092
#
# Stress axis : x y z
#
# Youngs Moduli (GPa) = 69.03314 65.30446 117.17807
#
# Poissons Ratio (x) = 0.17348 0.47381
# Poissons Ratio (y) = 0.18339 -0.03095
# Poissons Ratio (z) = 0.27913 -0.01725
#
# Static dielectric constant tensor:
#      x y z
#    x 4.286200 0.000000 -0.095290 
#    y 0.000000 4.054260 0.000000 
#    z -0.095290 0.000000 4.307580 
# 
# 
# High freq. dielectric constant tensor:
#      x y z
#    x 1.908320 0.000000 -0.004230 
#    y 0.000000 1.893580 0.000000 
#    z -0.004230 0.000000 1.906750 
# 
# From -- ./inp_files/95429.got.cif
#   From: 2010.06.25/outbox.cif.g09.slc.cpg/sg13_48_cif.got.tgz:95429.got - 2010.06.28 04:50:58.
