data_PCOD8121280
_publ_section_title
;
Structure prediction by ZEFSAII (Michael W. Deem and Ramdas Pophale) SiO2 
 PCOD8121280
Probable space group: P 2/C
;
_chemical_formula_sum "Si O2"
_cell_formula_units_Z 20
_cell_length_a 9.848951
_cell_length_b 20.019342
_cell_length_c 4.988694
_cell_angle_alpha 90.000000
_cell_angle_beta 79.739066
_cell_angle_gamma 90.000000
_cell_volume 967.887111
_symmetry_space_group_name_H-M "P 2/C"
_symmetry_group_IT_number 13
_symmetry_cell_setting 'monoclinic'
loop_
_space_group_symop_operation_xyz
x,y,z
-x,y,1/2-z
-x,-y,-z
x,-y,1/2+z
loop_
_atom_site_type_symbol
_atom_site_label
_atom_site_fract_x
_atom_site_fract_y
_atom_site_fract_z
Si Si1 0.500000 0.549264 0.250000
Si Si2 0.092921 0.859978 0.949352
Si Si3 0.250337 0.356422 0.701421
Si Si4 0.343096 0.043720 0.298170
Si Si5 0.000000 0.546576 0.250000
Si Si6 0.846146 0.712189 0.769862
O O1 0.500000 0.500000 0.500000
O O2 0.623000 0.600749 0.241472
O O3 0.234177 0.900736 0.931757
O O4 0.138030 0.787543 0.831896
O O5 0.000000 0.894206 0.750000
O O6 0.000000 0.856454 0.250000
O O7 0.129733 0.408058 0.738997
O O8 0.255476 0.325747 0.401511
O O9 0.225867 0.294607 0.915215
O O10 0.500000 0.072462 0.250000
O O11 0.320104 0.980798 0.503110
O O12 0.000000 0.500000 0.500000
O O13 0.000000 0.680018 0.750000
#
# Coordination Sequence:
#
# PCOD8121280 Si02
#       6
#     2   4   4   4   2   4
#     4  12  26  46  62  88 128 160 200 260 324 380
#     4  11  23  39  65  96 128 168 214 265 315 370
#     4  12  23  41  64  88 122 163 199 257 312 378
#     4  10  22  41  63  92 134 173 211 261 315 368
#     4  12  22  36  60  92 110 148 204 246 296 368
#     4  11  21  41  64  91 125 159 207 260 312 364
#
# _framework density 20.663567
#
# number of rings (size 3 to 8) (size 9 to 14) (size 15 to 20)
#    0.000    0.800    2.000    7.200    0.000    2.400 
#    3.600    0.000    0.000    0.000    0.000    0.000 
#    0.000    0.000    0.000    0.000    0.000    0.000 
#
# Total GULP energy -247834.153557 kJ/mol
# GULP energy per Si atom -12391.707678 kJ/mol
# Density = 2.061654 g / cm^3
# Si number density = 20.663567 Si / 1000 Ang^3
#
#
#
# Elastic Constant Matrix: (Units=GPa)
#
#
# Indices 1 2 3 4 5 6 
#
# 1 145.6092 64.0664 38.4120 0.0000 7.1085 0.0000
# 2 64.0664 87.7232 39.2354 0.0000 -2.2798 0.0000
# 3 38.4120 39.2354 134.7169 0.0000 7.1462 0.0000
# 4 0.0000 0.0000 0.0000 33.2894 0.0000 -3.6602
# 5 7.1085 -2.2798 7.1462 0.0000 33.2137 0.0000
# 6 0.0000 0.0000 0.0000 -3.6602 0.0000 37.0868
#
#
#
# Elastic Compliance Matrix: (Units=1/GPa)
#
#
# Indices 1 2 3 4 5 6 
#
# 1 0.010417 -0.007368 -0.000687 0.000000 -0.002587 0.000000
# 2 -0.007368 0.018418 -0.003454 0.000000 0.003584 0.000000
# 3 -0.000687 -0.003454 0.008729 0.000000 -0.001968 0.000000
# 4 0.000000 0.000000 0.000000 0.030369 0.000000 0.002997
# 5 -0.002587 0.003584 -0.001968 0.000000 0.031331 0.000000
# 6 0.000000 0.000000 0.000000 0.002997 0.000000 0.027260
#
#
# Mechanical properties :
#
#
# Convention : Reuss Voigt Hill
#
# Bulk Modulus (GPa) = 68.74054 72.38633 70.56343
# Shear Modulus (GPa) = 32.38550 35.80700 34.09625
#
# Velocity S-wave (km/s) = 3.96318 4.16728 4.06651
# Velocity P-wave (km/s) = 7.36757 7.63295 7.50143
#
# Compressibility (1/GPa) = 0.01454746
#
# Stress axis : x y z
#
# Youngs Moduli (GPa) = 95.99704 54.29453 114.55906
#
# Poissons Ratio (x) = 0.40002 0.07872
# Poissons Ratio (y) = 0.70728 0.39563
# Poissons Ratio (z) = 0.06597 0.18751
#
# Static dielectric constant tensor:
#      x y z
#    x 4.016180 0.000000 0.370700 
#    y 0.000000 3.658680 0.000000 
#    z 0.370700 0.000000 4.375950 
# 
# 
# High freq. dielectric constant tensor:
#      x y z
#    x 1.809610 0.000000 0.014710 
#    y 0.000000 1.802340 0.000000 
#    z 0.014710 0.000000 1.832310 
# 
# From -- ./inp_files/1628.got.cif
#   From: 2010.06.25/outbox.cif.g09.slc.cpg/sg13_1_cif.got.tgz:1628.got - 2010.06.28 04:50:58.
