data_PCOD8121942
_publ_section_title
;
Structure prediction by ZEFSAII (Michael W. Deem and Ramdas Pophale) SiO2 
 PCOD8121942
Probable space group: P 2/C
;
_chemical_formula_sum "Si O2"
_cell_formula_units_Z 24
_cell_length_a 25.162499
_cell_length_b 7.496763
_cell_length_c 12.395400
_cell_angle_alpha 90.000000
_cell_angle_beta 156.039042
_cell_angle_gamma 90.000000
_cell_volume 949.589953
_symmetry_space_group_name_H-M "P 2/C"
_symmetry_group_IT_number 13
_symmetry_cell_setting 'monoclinic'
loop_
_space_group_symop_operation_xyz
x,y,z
-x,y,1/2-z
-x,-y,-z
x,-y,1/2+z
loop_
_atom_site_type_symbol
_atom_site_label
_atom_site_fract_x
_atom_site_fract_y
_atom_site_fract_z
Si Si1 0.593348 0.740255 0.196392
Si Si2 0.405681 0.955452 0.978247
Si Si3 0.783047 0.742402 0.743670
Si Si4 0.930206 0.166094 0.229757
Si Si5 0.068361 0.783683 0.194556
Si Si6 0.746552 0.501832 0.360257
O O1 0.463530 0.774008 0.027577
O O2 0.720807 0.752149 0.510440
O O3 0.605297 0.548967 0.155364
O O4 0.606891 0.892993 0.132206
O O5 0.500000 0.018167 0.250000
O O6 0.265471 0.906147 0.769767
O O7 0.736778 0.560035 0.717950
O O8 0.938980 0.751665 0.027284
O O9 0.000000 0.111854 0.250000
O O10 0.035753 0.251272 0.508681
O O11 0.876333 0.984188 0.186057
O O12 0.817936 0.307331 0.996062
O O13 0.180443 0.646830 0.434430
#
# Coordination Sequence:
#
# PCOD8121942 Si02
#       6
#     4   4   4   4   4   4
#     4  10  23  45  72 106 137 181 243 299 358 421
#     4   9  22  47  76 102 139 182 242 307 359 426
#     4  11  23  43  69 101 146 185 234 298 352 420
#     4  11  24  40  65  93 139 191 238 276 343 418
#     4  11  25  43  62 103 148 187 237 288 343 432
#     4  12  25  40  67 103 145 183 227 292 353 419
#
# _framework density 25.274066000000001
#
# number of rings (size 3 to 8) (size 9 to 14) (size 15 to 20)
#    0.000    1.333    1.667    3.000    7.000    0.667 
#    0.000    7.500    0.000    0.000    0.000    0.000 
#    0.000    0.000    0.000    0.000    0.000    0.000 
#
# Total GULP energy -297523.707950 kJ/mol
# GULP energy per Si atom -12396.821165 kJ/mol
# Density = 2.521654 g / cm^3
# Si number density = 25.274066 Si / 1000 Ang^3
#
#
#
# Elastic Constant Matrix: (Units=GPa)
#
#
# Indices 1 2 3 4 5 6 
#
# 1 128.4536 41.5218 48.8804 0.0000 -23.9599 0.0000
# 2 41.5218 93.3426 30.2588 0.0000 -3.8636 0.0000
# 3 48.8804 30.2588 79.4160 0.0000 -18.9645 0.0000
# 4 0.0000 0.0000 0.0000 27.2786 0.0000 -6.2199
# 5 -23.9599 -3.8636 -18.9645 0.0000 37.5060 0.0000
# 6 0.0000 0.0000 0.0000 -6.2199 0.0000 52.6248
#
#
#
# Elastic Compliance Matrix: (Units=1/GPa)
#
#
# Indices 1 2 3 4 5 6 
#
# 1 0.011543 -0.003422 -0.004691 0.000000 0.004650 0.000000
# 2 -0.003422 0.013289 -0.003585 0.000000 -0.002630 0.000000
# 3 -0.004691 -0.003585 0.018244 0.000000 0.005859 0.000000
# 4 0.000000 0.000000 0.000000 0.037674 0.000000 0.004453
# 5 0.004650 -0.002630 0.005859 0.000000 0.032325 0.000000
# 6 0.000000 0.000000 0.000000 0.004453 0.000000 0.019529
#
#
# Mechanical properties :
#
#
# Convention : Reuss Voigt Hill
#
# Bulk Modulus (GPa) = 50.81060 60.28160 55.54610
# Shear Modulus (GPa) = 30.75804 35.51861 33.13833
#
# Velocity S-wave (km/s) = 3.49231 3.75285 3.62492
# Velocity P-wave (km/s) = 6.03400 6.53311 6.28851
#
# Compressibility (1/GPa) = 0.01968093
#
# Stress axis : x y z
#
# Youngs Moduli (GPa) = 86.63064 75.25209 54.81196
#
# Poissons Ratio (x) = 0.25749 0.25711
# Poissons Ratio (y) = 0.29643 0.19651
# Poissons Ratio (z) = 0.40636 0.26979
#
# Static dielectric constant tensor:
#      x y z
#    x 5.105210 0.000000 -0.139370 
#    y 0.000000 4.577230 0.000000 
#    z -0.139370 0.000000 4.576890 
# 
# 
# High freq. dielectric constant tensor:
#      x y z
#    x 2.028710 0.000000 -0.010630 
#    y 0.000000 2.006240 0.000000 
#    z -0.010630 0.000000 2.006660 
# 
# From -- ./inp_files/42214.got.cif
#   From: 2010.06.25/outbox.cif.g09.slc.cpg/sg13_22_cif.got.tgz:42214.got - 2010.06.28 04:50:58.
