data_PCOD8121771
_publ_section_title
;
Structure prediction by ZEFSAII (Michael W. Deem and Ramdas Pophale) SiO2 
 PCOD8121771
Probable space group: P 2/C
;
_chemical_formula_sum "Si O2"
_cell_formula_units_Z 24
_cell_length_a 14.280252
_cell_length_b 6.780371
_cell_length_c 14.116817
_cell_angle_alpha 90.000000
_cell_angle_beta 120.141804
_cell_angle_gamma 90.000000
_cell_volume 1182.046067
_symmetry_space_group_name_H-M "P 2/C"
_symmetry_group_IT_number 13
_symmetry_cell_setting 'monoclinic'
loop_
_space_group_symop_operation_xyz
x,y,z
-x,y,1/2-z
-x,-y,-z
x,-y,1/2+z
loop_
_atom_site_type_symbol
_atom_site_label
_atom_site_fract_x
_atom_site_fract_y
_atom_site_fract_z
Si Si1 0.043967 0.024811 0.875443
Si Si2 0.408173 0.378834 0.901280
Si Si3 0.307679 0.542300 0.157552
Si Si4 0.442933 0.878568 0.130612
Si Si5 0.930369 0.697529 0.460104
Si Si6 0.721189 0.792331 0.002562
O O1 0.158390 0.131379 0.925539
O O2 0.000000 0.973269 0.750000
O O3 0.962111 0.172228 0.885913
O O4 0.051139 0.818203 0.933959
O O5 0.361914 0.498071 0.787340
O O6 0.462397 0.173419 0.895672
O O7 0.308587 0.338879 0.921488
O O8 0.500000 0.500000 0.000000
O O9 0.385446 0.675018 0.132400
O O10 0.195370 0.653833 0.115822
O O11 0.288682 0.332326 0.098721
O O12 0.500000 0.981331 0.250000
O O13 0.359016 0.023875 0.040374
O O14 0.000000 0.500000 0.500000
#
# Coordination Sequence:
#
# PCOD8121771 Si02
#       6
#     4   4   4   4   4   4
#     4  11  25  44  68 100 129 166 225 270 323 393
#     4  11  24  41  64  99 130 168 217 263 315 380
#     4  11  23  44  64  94 133 169 214 263 319 389
#     4  10  23  41  65  92 132 168 213 261 313 385
#     4  11  23  46  67  95 131 174 212 269 336 383
#     4  12  23  43  68  92 132 175 211 266 324 381
#
# _framework density 20.303778000000001
#
# number of rings (size 3 to 8) (size 9 to 14) (size 15 to 20)
#    0.000    1.000    5.000    1.500    2.333    0.667 
#    6.000    0.000    0.000    0.000    0.000    0.000 
#    0.000    0.000    0.000    0.000    0.000    0.000 
#
# Total GULP energy -297701.277155 kJ/mol
# GULP energy per Si atom -12404.219881 kJ/mol
# Density = 2.025757 g / cm^3
# Si number density = 20.303778 Si / 1000 Ang^3
#
#
#
# Elastic Constant Matrix: (Units=GPa)
#
#
# Indices 1 2 3 4 5 6 
#
# 1 121.4028 34.7539 54.5288 0.0000 -3.4422 0.0000
# 2 34.7539 82.8200 55.7382 0.0000 -5.7324 0.0000
# 3 54.5288 55.7382 152.8400 0.0000 -9.8793 0.0000
# 4 0.0000 0.0000 0.0000 23.5036 0.0000 7.7104
# 5 -3.4422 -5.7324 -9.8793 0.0000 33.3259 0.0000
# 6 0.0000 0.0000 0.0000 7.7104 0.0000 33.4252
#
#
#
# Elastic Compliance Matrix: (Units=1/GPa)
#
#
# Indices 1 2 3 4 5 6 
#
# 1 0.010163 -0.002424 -0.002754 0.000000 -0.000184 0.000000
# 2 -0.002424 0.016616 -0.005124 0.000000 0.001089 0.000000
# 3 -0.002754 -0.005124 0.009501 0.000000 0.001651 0.000000
# 4 0.000000 0.000000 0.000000 0.046030 0.000000 -0.010618
# 5 -0.000184 0.001089 0.001651 0.000000 0.030664 0.000000
# 6 0.000000 0.000000 0.000000 -0.010618 0.000000 0.032367
#
#
# Mechanical properties :
#
#
# Convention : Reuss Voigt Hill
#
# Bulk Modulus (GPa) = 63.79581 71.90052 67.84816
# Shear Modulus (GPa) = 29.21102 32.18708 30.69905
#
# Velocity S-wave (km/s) = 3.79713 3.98587 3.89265
# Velocity P-wave (km/s) = 7.12132 7.52809 7.32753
#
# Compressibility (1/GPa) = 0.01567501
#
# Stress axis : x y z
#
# Youngs Moduli (GPa) = 98.40055 60.18454 105.25687
#
# Poissons Ratio (x) = 0.14589 0.28983
# Poissons Ratio (y) = 0.23853 0.53936
# Poissons Ratio (z) = 0.27095 0.30840
#
# Static dielectric constant tensor:
#      x y z
#    x 4.112710 0.000000 -0.593410 
#    y 0.000000 3.573110 0.000000 
#    z -0.593410 0.000000 8.355960 
# 
# 
# High freq. dielectric constant tensor:
#      x y z
#    x 1.814490 0.000000 0.000350 
#    y 0.000000 1.785470 0.000000 
#    z 0.000350 0.000000 1.799420 
# 
# From -- ./inp_files/52082.got.cif
#   From: 2010.06.25/outbox.cif.g09.slc.cpg/sg13_27_cif.got.tgz:52082.got - 2010.06.28 04:50:58.
