data_PCOD8121980
_publ_section_title
;
Structure prediction by ZEFSAII (Michael W. Deem and Ramdas Pophale) SiO2 
 PCOD8121980
Probable space group: P 2/C
;
_chemical_formula_sum "Si O2"
_cell_formula_units_Z 28
_cell_length_a 14.751993
_cell_length_b 15.008579
_cell_length_c 9.047167
_cell_angle_alpha 90.000000
_cell_angle_beta 40.534102
_cell_angle_gamma 90.000000
_cell_volume 1301.816480
_symmetry_space_group_name_H-M "P 2/C"
_symmetry_group_IT_number 13
_symmetry_cell_setting 'monoclinic'
loop_
_space_group_symop_operation_xyz
x,y,z
-x,y,1/2-z
-x,-y,-z
x,-y,1/2+z
loop_
_atom_site_type_symbol
_atom_site_label
_atom_site_fract_x
_atom_site_fract_y
_atom_site_fract_z
Si Si1 0.817855 0.280193 0.270890
Si Si2 0.821416 0.916709 0.114978
Si Si3 0.321910 0.266963 0.740249
Si Si4 0.500000 0.488675 0.250000
Si Si5 0.098989 0.617752 0.399407
Si Si6 0.596132 0.622653 0.887625
Si Si7 0.000000 0.517551 0.250000
Si Si8 0.864060 0.914473 0.719533
O O1 0.740018 0.290116 0.523123
O O2 0.747669 0.335945 0.226589
O O3 0.802773 0.178442 0.240568
O O4 0.976110 0.312729 0.091613
O O5 0.710226 0.835375 0.272014
O O6 0.773493 0.010915 0.244120
O O7 0.842769 0.931874 0.917187
O O8 0.969519 0.904460 0.016532
O O9 0.245157 0.331194 0.719419
O O10 0.483509 0.296046 0.537833
O O11 0.415496 0.549586 0.468142
O O12 0.401010 0.424674 0.274842
O O13 0.091753 0.577885 0.244733
O O14 0.102248 0.541149 0.520623
#
# Coordination Sequence:
#
# PCOD8121980 Si02
#       8
#     4   4   4   2   4   4   2   4
#     4  11  20  38  61  86 115 155 192 238 288 351
#     4   9  18  35  59  86 116 152 187 230 287 351
#     4  11  20  38  61  86 115 155 192 238 288 351
#     4  10  24  44  60  84 114 162 200 244 278 352
#     4  11  22  38  55  82 117 148 192 239 294 340
#     4  11  24  40  63  84 117 154 204 237 290 338
#     4  10  24  36  56  84 114 150 188 248 298 336
#     4   9  18  35  59  86 116 152 187 230 287 351
#
# _framework density 21.508407999999999
#
# number of rings (size 3 to 8) (size 9 to 14) (size 15 to 20)
#    0.000    1.714    4.286    0.000    0.000    8.000 
#    5.143    0.714    0.000    0.000    0.000    0.000 
#    0.000    0.000    0.000    0.000    0.000    0.000 
#
# Total GULP energy -347016.628000 kJ/mol
# GULP energy per Si atom -12393.451000 kJ/mol
# Density = 2.145945 g / cm^3
# Si number density = 21.508408 Si / 1000 Ang^3
#
#
#
# Elastic Constant Matrix: (Units=GPa)
#
#
# Indices 1 2 3 4 5 6 
#
# 1 86.4170 53.4306 11.2149 0.0000 13.6090 0.0000
# 2 53.4306 138.8248 11.4976 0.0000 18.4391 0.0000
# 3 11.2149 11.4976 24.7186 0.0000 6.0470 0.0000
# 4 0.0000 0.0000 0.0000 10.2687 0.0000 9.9583
# 5 13.6090 18.4391 6.0470 0.0000 28.8275 0.0000
# 6 0.0000 0.0000 0.0000 9.9583 0.0000 44.6739
#
#
#
# Elastic Compliance Matrix: (Units=1/GPa)
#
#
# Indices 1 2 3 4 5 6 
#
# 1 0.015912 -0.005367 -0.003927 0.000000 -0.003255 0.000000
# 2 -0.005367 0.009839 -0.001288 0.000000 -0.003490 0.000000
# 3 -0.003927 -0.001288 0.044463 0.000000 -0.006649 0.000000
# 4 0.000000 0.000000 0.000000 0.124241 0.000000 -0.027695
# 5 -0.003255 -0.003490 -0.006649 0.000000 0.039853 0.000000
# 6 0.000000 0.000000 0.000000 -0.027695 0.000000 0.028558
#
#
# Mechanical properties :
#
#
# Convention : Reuss Voigt Hill
#
# Bulk Modulus (GPa) = 20.38691 44.69409 32.54050
# Shear Modulus (GPa) = 16.64568 28.34185 22.49377
#
# Velocity S-wave (km/s) = 2.78495 3.63397 3.23741
# Velocity P-wave (km/s) = 4.45426 6.19940 5.39782
#
# Compressibility (1/GPa) = 0.04905107
#
# Stress axis : x y z
#
# Youngs Moduli (GPa) = 62.84487 101.63631 22.49078
#
# Poissons Ratio (x) = 0.54544 0.08832
# Poissons Ratio (y) = 0.33727 0.02897
# Poissons Ratio (z) = 0.24678 0.13090
#
# Static dielectric constant tensor:
#      x y z
#    x 3.991720 0.000000 0.143700 
#    y 0.000000 4.195930 0.000000 
#    z 0.143700 0.000000 3.453930 
# 
# 
# High freq. dielectric constant tensor:
#      x y z
#    x 1.844750 0.000000 0.013530 
#    y 0.000000 1.854290 0.000000 
#    z 0.013530 0.000000 1.808590 
# 
# From -- ./inp_files/19858.got.cif
#   From: 2010.06.25/outbox.cif.g09.slc.cpg/sg13_10_cif.got.tgz:19858.got - 2010.06.28 04:50:58.
