data_PCOD8121958
_publ_section_title
;
Structure prediction by ZEFSAII (Michael W. Deem and Ramdas Pophale) SiO2 
 PCOD8121958
Probable space group: P 2/C
;
_chemical_formula_sum "Si O2"
_cell_formula_units_Z 16
_cell_length_a 8.495890
_cell_length_b 9.667309
_cell_length_c 9.762651
_cell_angle_alpha 90.000000
_cell_angle_beta 129.217247
_cell_angle_gamma 90.000000
_cell_volume 621.221082
_symmetry_space_group_name_H-M "P 2/C"
_symmetry_group_IT_number 13
_symmetry_cell_setting 'monoclinic'
loop_
_space_group_symop_operation_xyz
x,y,z
-x,y,1/2-z
-x,-y,-z
x,-y,1/2+z
loop_
_atom_site_type_symbol
_atom_site_label
_atom_site_fract_x
_atom_site_fract_y
_atom_site_fract_z
Si Si1 0.886055 0.659264 0.498110
Si Si2 0.733219 0.461778 0.637561
Si Si3 0.717780 0.763824 0.923598
Si Si4 0.140638 0.949773 0.958682
O O1 0.867275 0.573190 0.627990
O O2 0.810119 0.554053 0.337000
O O3 0.754411 0.801309 0.445623
O O4 0.115717 0.718968 0.599825
O O5 0.500000 0.500000 0.500000
O O6 0.773305 0.312471 0.594656
O O7 0.500000 0.713168 0.750000
O O8 0.697577 0.924785 0.959799
O O9 0.000000 0.931970 0.750000
O O10 0.000000 0.000000 0.000000
#
# Coordination Sequence:
#
# PCOD8121958 Si02
#       4
#     4   4   4   4
#     4  11  26  49  73 103 146 191 235 300 364 425
#     4  12  26  47  73 107 143 188 242 296 362 436
#     4  11  24  44  73 109 143 187 241 295 359 436
#     4  10  23  46  72 101 139 190 237 289 360 423
#
# _framework density 25.755727
#
# number of rings (size 3 to 8) (size 9 to 14) (size 15 to 20)
#    0.000    1.000    0.000    6.750    0.000   14.000 
#    0.000    7.500    0.000    0.000    0.000    0.000 
#    0.000    0.000    0.000    0.000    0.000    0.000 
#
# Total GULP energy -198239.666521 kJ/mol
# GULP energy per Si atom -12389.979158 kJ/mol
# Density = 2.569711 g / cm^3
# Si number density = 25.755727 Si / 1000 Ang^3
#
#
#
# Elastic Constant Matrix: (Units=GPa)
#
#
# Indices 1 2 3 4 5 6 
#
# 1 104.3625 50.3475 60.7330 0.0000 3.2371 0.0000
# 2 50.3475 241.1482 49.5977 0.0000 -16.0263 0.0000
# 3 60.7330 49.5977 141.9223 0.0000 -3.0712 0.0000
# 4 0.0000 0.0000 0.0000 31.1384 0.0000 0.5460
# 5 3.2371 -16.0263 -3.0712 0.0000 48.2391 0.0000
# 6 0.0000 0.0000 0.0000 0.5460 0.0000 27.5729
#
#
#
# Elastic Compliance Matrix: (Units=1/GPa)
#
#
# Indices 1 2 3 4 5 6 
#
# 1 0.013571 -0.001891 -0.005187 0.000000 -0.001869 0.000000
# 2 -0.001891 0.004826 -0.000841 0.000000 0.001677 0.000000
# 3 -0.005187 -0.000841 0.009574 0.000000 0.000678 0.000000
# 4 0.000000 0.000000 0.000000 0.032126 0.000000 -0.000636
# 5 -0.001869 0.001677 0.000678 0.000000 0.021456 0.000000
# 6 0.000000 0.000000 0.000000 -0.000636 0.000000 0.036280
#
#
# Mechanical properties :
#
#
# Convention : Reuss Voigt Hill
#
# Bulk Modulus (GPa) = 82.41768 89.86547 86.14158
# Shear Modulus (GPa) = 36.30689 43.17373 39.74031
#
# Velocity S-wave (km/s) = 3.75862 4.09868 3.93233
# Velocity P-wave (km/s) = 7.13481 7.57404 7.35770
#
# Compressibility (1/GPa) = 0.01213332
#
# Stress axis : x y z
#
# Youngs Moduli (GPa) = 73.68860 207.21064 104.44482
#
# Poissons Ratio (x) = 0.39177 0.54176
# Poissons Ratio (y) = 0.13932 0.08786
# Poissons Ratio (z) = 0.38222 0.17430
#
# Static dielectric constant tensor:
#      x y z
#    x 3.643850 0.000000 -0.897530 
#    y 0.000000 11.660550 0.000000 
#    z -0.897530 0.000000 3.976020 
# 
# 
# High freq. dielectric constant tensor:
#      x y z
#    x 2.016390 0.000000 -0.015720 
#    y 0.000000 2.068610 0.000000 
#    z -0.015720 0.000000 2.032010 
# 
# From -- ./inp_files/11983.got.cif
#   From: 2010.06.25/outbox.cif.g09.slc.cpg/sg13_6_cif.got.tgz:11983.got - 2010.06.28 04:50:58.
