data_PCOD8121841
_publ_section_title
;
Structure prediction by ZEFSAII (Michael W. Deem and Ramdas Pophale) SiO2 
 PCOD8121841
Probable space group: P 2/C
;
_chemical_formula_sum "Si O2"
_cell_formula_units_Z 20
_cell_length_a 17.268352
_cell_length_b 5.968058
_cell_length_c 25.479833
_cell_angle_alpha 90.000000
_cell_angle_beta 159.235860
_cell_angle_gamma 90.000000
_cell_volume 930.943795
_symmetry_space_group_name_H-M "P 2/C"
_symmetry_group_IT_number 13
_symmetry_cell_setting 'monoclinic'
loop_
_space_group_symop_operation_xyz
x,y,z
-x,y,1/2-z
-x,-y,-z
x,-y,1/2+z
loop_
_atom_site_type_symbol
_atom_site_label
_atom_site_fract_x
_atom_site_fract_y
_atom_site_fract_z
Si Si1 0.074049 0.060577 0.150253
Si Si2 0.747417 0.309288 0.462246
Si Si3 0.476482 0.057027 0.840083
Si Si4 0.812810 0.369839 0.911793
Si Si5 0.888261 0.683229 0.624172
O O1 0.069133 0.222918 0.197742
O O2 0.320065 0.041633 0.285659
O O3 0.919705 0.157326 0.007174
O O4 0.978262 0.816151 0.101064
O O5 0.698059 0.466194 0.380887
O O6 0.780898 0.454613 0.535868
O O7 0.542729 0.140180 0.341066
O O8 0.371947 0.270064 0.743745
O O9 0.696740 0.133514 0.008803
O O10 0.000000 0.500000 0.000000
O O11 0.000000 0.636011 0.750000
#
# Coordination Sequence:
#
# PCOD8121841 Si02
#       5
#     4   4   4   4   4
#     4  10  23  43  65  98 134 168 215 269 330 394
#     4  10  24  42  63  95 137 170 218 264 330 387
#     4  11  24  41  69  99 132 178 214 266 335 387
#     4  11  23  41  67  98 139 167 210 269 324 405
#     4  10  25  45  66  94 128 173 232 277 318 382
#
# _framework density 21.483574999999998
#
# number of rings (size 3 to 8) (size 9 to 14) (size 15 to 20)
#    0.000    1.600    2.000    0.600    2.800   12.800 
#    0.000    2.000    0.000    0.000    0.000    0.000 
#    0.000    0.000    0.000    0.000    0.000    0.000 
#
# Total GULP energy -248058.050025 kJ/mol
# GULP energy per Si atom -12402.902501 kJ/mol
# Density = 2.143468 g / cm^3
# Si number density = 21.483575 Si / 1000 Ang^3
#
#
#
# Elastic Constant Matrix: (Units=GPa)
#
#
# Indices 1 2 3 4 5 6 
#
# 1 125.4294 45.6877 69.4863 0.0000 13.4634 0.0000
# 2 45.6877 106.1811 41.7574 0.0000 9.4838 0.0000
# 3 69.4863 41.7574 97.3228 0.0000 13.4056 0.0000
# 4 0.0000 0.0000 0.0000 30.7914 0.0000 9.5534
# 5 13.4634 9.4838 13.4056 0.0000 47.6001 0.0000
# 6 0.0000 0.0000 0.0000 9.5534 0.0000 32.8136
#
#
#
# Elastic Compliance Matrix: (Units=1/GPa)
#
#
# Indices 1 2 3 4 5 6 
#
# 1 0.013748 -0.002432 -0.008639 0.000000 -0.000971 0.000000
# 2 -0.002432 0.011799 -0.003222 0.000000 -0.000756 0.000000
# 3 -0.008639 -0.003222 0.018103 0.000000 -0.002013 0.000000
# 4 0.000000 0.000000 0.000000 0.035701 0.000000 -0.010394
# 5 -0.000971 -0.000756 -0.002013 0.000000 0.022000 0.000000
# 6 0.000000 0.000000 0.000000 -0.010394 0.000000 0.033501
#
#
# Mechanical properties :
#
#
# Convention : Reuss Voigt Hill
#
# Bulk Modulus (GPa) = 66.38095 71.42177 68.90136
# Shear Modulus (GPa) = 29.68051 33.70781 31.69416
#
# Velocity S-wave (km/s) = 3.72095 3.96536 3.84510
# Velocity P-wave (km/s) = 7.03037 7.36766 7.20099
#
# Compressibility (1/GPa) = 0.01506456
#
# Stress axis : x y z
#
# Youngs Moduli (GPa) = 72.73545 84.75432 55.23956
#
# Poissons Ratio (x) = 0.20608 0.47722
# Poissons Ratio (y) = 0.17686 0.17800
# Poissons Ratio (z) = 0.62836 0.27310
#
# Static dielectric constant tensor:
#      x y z
#    x 3.739450 0.000000 0.136730 
#    y 0.000000 4.007930 0.000000 
#    z 0.136730 0.000000 3.462000 
# 
# 
# High freq. dielectric constant tensor:
#      x y z
#    x 1.841140 0.000000 0.024030 
#    y 0.000000 1.862430 0.000000 
#    z 0.024030 0.000000 1.824050 
# 
# From -- ./inp_files/48586.got.cif
#   From: 2010.06.25/outbox.cif.g09.slc.cpg/sg13_25_cif.got.tgz:48586.got - 2010.06.28 04:50:58.
