data_PCOD8121379
_publ_section_title
;
Structure prediction by ZEFSAII (Michael W. Deem and Ramdas Pophale) SiO2 
 PCOD8121379
Probable space group: P 2/C
;
_chemical_formula_sum "Si O2"
_cell_formula_units_Z 24
_cell_length_a 11.431254
_cell_length_b 14.635609
_cell_length_c 14.003618
_cell_angle_alpha 90.000000
_cell_angle_beta 150.060039
_cell_angle_gamma 90.000000
_cell_volume 1169.299443
_symmetry_space_group_name_H-M "P 2/C"
_symmetry_group_IT_number 13
_symmetry_cell_setting 'monoclinic'
loop_
_space_group_symop_operation_xyz
x,y,z
-x,y,1/2-z
-x,-y,-z
x,-y,1/2+z
loop_
_atom_site_type_symbol
_atom_site_label
_atom_site_fract_x
_atom_site_fract_y
_atom_site_fract_z
Si Si1 0.840673 0.657675 0.789542
Si Si2 0.500000 0.951621 0.250000
Si Si3 0.108339 0.644605 0.451410
Si Si4 0.969243 0.154876 0.117428
Si Si5 0.448399 0.076554 0.389982
Si Si6 0.343244 0.265858 0.958101
Si Si7 0.000000 0.483557 0.250000
O O1 0.583581 0.694451 0.589093
O O2 0.032902 0.735600 0.901295
O O3 0.856358 0.575897 0.724646
O O4 0.868336 0.626971 0.919493
O O5 0.725135 0.885808 0.408487
O O6 0.492937 0.025356 0.325696
O O7 0.302654 0.712056 0.542426
O O8 0.155009 0.549195 0.428007
O O9 0.857281 0.690403 0.250256
O O10 0.000000 0.131308 0.250000
O O11 0.182496 0.113158 0.207423
O O12 0.640255 0.156691 0.540304
O O13 0.500000 0.000000 0.500000
#
# Coordination Sequence:
#
# PCOD8121379 Si02
#       7
#     4   2   4   4   4   4   2
#     4  11  22  41  67  86 131 163 201 258 316 372
#     4  12  26  42  66  92 128 168 218 256 314 370
#     4  10  23  41  66  93 123 164 211 252 316 377
#     4  11  24  42  62  93 126 167 210 259 316 369
#     4  11  24  41  65  92 128 167 213 264 306 370
#     4   9  23  41  62  92 125 163 210 257 310 366
#     4  10  22  42  62 100 122 160 210 256 304 386
#
# _framework density 20.525110000000002
#
# number of rings (size 3 to 8) (size 9 to 14) (size 15 to 20)
#    0.000    1.667    2.500    1.500    7.000    5.333 
#    0.000    3.333    0.000    0.000    0.000    0.000 
#    0.000    0.000    0.000    0.000    0.000    0.000 
#
# Total GULP energy -297388.171038 kJ/mol
# GULP energy per Si atom -12391.173793 kJ/mol
# Density = 2.047839 g / cm^3
# Si number density = 20.525110 Si / 1000 Ang^3
#
#
#
# Elastic Constant Matrix: (Units=GPa)
#
#
# Indices 1 2 3 4 5 6 
#
# 1 106.1811 63.6398 17.1552 0.0000 -11.6952 0.0000
# 2 63.6398 162.5945 48.7919 0.0000 -0.8122 0.0000
# 3 17.1552 48.7919 58.1090 0.0000 4.4665 0.0000
# 4 0.0000 0.0000 0.0000 18.4759 0.0000 5.8876
# 5 -11.6952 -0.8122 4.4665 0.0000 39.0142 0.0000
# 6 0.0000 0.0000 0.0000 5.8876 0.0000 51.4574
#
#
#
# Elastic Compliance Matrix: (Units=1/GPa)
#
#
# Indices 1 2 3 4 5 6 
#
# 1 0.012829 -0.005054 0.000170 0.000000 0.003721 0.000000
# 2 -0.005054 0.010249 -0.007076 0.000000 -0.000491 0.000000
# 3 0.000170 -0.007076 0.023313 0.000000 -0.002765 0.000000
# 4 0.000000 0.000000 0.000000 0.056173 0.000000 -0.006427
# 5 0.003721 -0.000491 -0.002765 0.000000 0.027054 0.000000
# 6 0.000000 0.000000 0.000000 -0.006427 0.000000 0.020169
#
#
# Mechanical properties :
#
#
# Convention : Reuss Voigt Hill
#
# Bulk Modulus (GPa) = 44.50069 65.11759 54.80914
# Shear Modulus (GPa) = 27.59421 34.94269 31.26845
#
# Velocity S-wave (km/s) = 3.67060 4.13053 3.90734
# Velocity P-wave (km/s) = 6.30020 7.38533 6.86424
#
# Compressibility (1/GPa) = 0.02247156
#
# Stress axis : x y z
#
# Youngs Moduli (GPa) = 77.94657 97.56718 42.89446
#
# Poissons Ratio (x) = 0.49309 -0.00729
# Poissons Ratio (y) = 0.39393 0.30353
# Poissons Ratio (z) = -0.01325 0.69040
#
# Static dielectric constant tensor:
#      x y z
#    x 3.904990 0.000000 0.068790 
#    y 0.000000 3.944360 0.000000 
#    z 0.068790 0.000000 3.552120 
# 
# 
# High freq. dielectric constant tensor:
#      x y z
#    x 1.821740 0.000000 -0.001870 
#    y 0.000000 1.817640 0.000000 
#    z -0.001870 0.000000 1.785620 
# 
# From -- ./inp_files/51535.got.cif
#   From: 2010.06.25/outbox.cif.g09.slc.cpg/sg13_26_cif.got.tgz:51535.got - 2010.06.28 04:50:58.
