data_PCOD8121879
_publ_section_title
;
Structure prediction by ZEFSAII (Michael W. Deem and Ramdas Pophale) SiO2 
 PCOD8121879
Probable space group: P 2/C
;
_chemical_formula_sum "Si O2"
_cell_formula_units_Z 26
_cell_length_a 21.862042
_cell_length_b 5.362867
_cell_length_c 15.724438
_cell_angle_alpha 90.000000
_cell_angle_beta 145.249632
_cell_angle_gamma 90.000000
_cell_volume 1050.846527
_symmetry_space_group_name_H-M "P 2/C"
_symmetry_group_IT_number 13
_symmetry_cell_setting 'monoclinic'
loop_
_space_group_symop_operation_xyz
x,y,z
-x,y,1/2-z
-x,-y,-z
x,-y,1/2+z
loop_
_atom_site_type_symbol
_atom_site_label
_atom_site_fract_x
_atom_site_fract_y
_atom_site_fract_z
Si Si1 0.064879 0.320016 0.235452
Si Si2 0.500000 0.027894 0.750000
Si Si3 0.261826 0.202001 0.214292
Si Si4 0.977761 0.819173 0.123405
Si Si5 0.382577 0.711676 0.315963
Si Si6 0.297370 0.699821 0.947488
Si Si7 0.467903 0.629560 0.587718
O O1 0.194254 0.322461 0.391401
O O2 0.000000 0.322407 0.250000
O O3 0.032942 0.570416 0.147340
O O4 0.030926 0.070560 0.145287
O O5 0.530297 0.843757 0.707396
O O6 0.388537 0.164697 0.605217
O O7 0.304843 0.473026 0.237492
O O8 0.266462 0.167592 0.322228
O O9 0.322219 0.972349 0.236655
O O10 0.144555 0.184847 0.042022
O O11 0.000000 0.820950 0.250000
O O12 0.464086 0.732743 0.488031
O O13 0.463008 0.635626 0.329078
O O14 0.347484 0.425796 0.984462
#
# Coordination Sequence:
#
# PCOD8121879 Si02
#       7
#     4   2   4   4   4   4   4
#     4  10  24  46  70  99 140 184 242 298 360 425
#     4  12  24  46  66 110 146 196 230 302 350 432
#     4  11  23  44  74 105 141 188 235 298 356 428
#     4  10  23  45  67 102 133 181 240 298 361 415
#     4  10  23  43  73 101 144 190 237 284 353 433
#     4  11  26  44  70 103 147 187 239 292 359 426
#     4  10  24  43  66 102 147 191 238 286 352 426
#
# _framework density 24.741955999999998
#
# number of rings (size 3 to 8) (size 9 to 14) (size 15 to 20)
#    0.000    1.538    1.538    1.385    4.308    5.538 
#   13.846    0.000    0.000    0.000    0.000    0.000 
#    0.000    0.000    0.000    0.000    0.000    0.000 
#
# Total GULP energy -322139.797188 kJ/mol
# GULP energy per Si atom -12389.992200 kJ/mol
# Density = 2.468564 g / cm^3
# Si number density = 24.741956 Si / 1000 Ang^3
#
#
#
# Elastic Constant Matrix: (Units=GPa)
#
#
# Indices 1 2 3 4 5 6 
#
# 1 95.0032 18.4664 48.5394 0.0000 40.4717 0.0000
# 2 18.4664 161.6234 46.5276 0.0000 18.4585 0.0000
# 3 48.5394 46.5276 185.9175 0.0000 18.7832 0.0000
# 4 0.0000 0.0000 0.0000 45.2100 0.0000 1.0554
# 5 40.4717 18.4585 18.7832 0.0000 37.3486 0.0000
# 6 0.0000 0.0000 0.0000 1.0554 0.0000 30.4857
#
#
#
# Elastic Compliance Matrix: (Units=1/GPa)
#
#
# Indices 1 2 3 4 5 6 
#
# 1 0.021618 0.001119 -0.003689 0.000000 -0.022123 0.000000
# 2 0.001119 0.006972 -0.001650 0.000000 -0.003828 0.000000
# 3 -0.003689 -0.001650 0.006604 0.000000 0.001491 0.000000
# 4 0.000000 0.000000 0.000000 0.022137 0.000000 -0.000766
# 5 -0.022123 -0.003828 0.001491 0.000000 0.051889 0.000000
# 6 0.000000 0.000000 0.000000 -0.000766 0.000000 0.032829
#
#
# Mechanical properties :
#
#
# Convention : Reuss Voigt Hill
#
# Bulk Modulus (GPa) = 37.37920 74.40121 55.89021
# Shear Modulus (GPa) = 31.36636 44.54292 37.95464
#
# Velocity S-wave (km/s) = 3.56440 4.24760 3.92090
# Velocity P-wave (km/s) = 5.66395 7.36154 6.56782
#
# Compressibility (1/GPa) = 0.02675285
#
# Stress axis : x y z
#
# Youngs Moduli (GPa) = 46.25840 143.43948 151.42210
#
# Poissons Ratio (x) = -0.16045 0.55857
# Poissons Ratio (y) = -0.05174 0.24985
# Poissons Ratio (z) = 0.17064 0.23668
#
# Static dielectric constant tensor:
#      x y z
#    x 4.549060 0.000000 0.057930 
#    y 0.000000 5.609460 0.000000 
#    z 0.057930 0.000000 4.504610 
# 
# 
# High freq. dielectric constant tensor:
#      x y z
#    x 1.968010 0.000000 0.005680 
#    y 0.000000 2.009870 0.000000 
#    z 0.005680 0.000000 1.985760 
# 
# From -- ./inp_files/70969.got.cif
#   From: 2010.06.25/outbox.cif.g09.slc.cpg/sg13_36_cif.got.tgz:70969.got - 2010.06.28 04:50:58.
