data_PCOD8121339
_publ_section_title
;
Structure prediction by ZEFSAII (Michael W. Deem and Ramdas Pophale) SiO2 
 PCOD8121339
Probable space group: P 2/C
;
_chemical_formula_sum "Si O2"
_cell_formula_units_Z 22
_cell_length_a 15.889863
_cell_length_b 10.942182
_cell_length_c 13.037292
_cell_angle_alpha 90.000000
_cell_angle_beta 154.827197
_cell_angle_gamma 90.000000
_cell_volume 964.178969
_symmetry_space_group_name_H-M "P 2/C"
_symmetry_group_IT_number 13
_symmetry_cell_setting 'monoclinic'
loop_
_space_group_symop_operation_xyz
x,y,z
-x,y,1/2-z
-x,-y,-z
x,-y,1/2+z
loop_
_atom_site_type_symbol
_atom_site_label
_atom_site_fract_x
_atom_site_fract_y
_atom_site_fract_z
Si Si1 0.612841 0.772990 0.978984
Si Si2 0.246834 0.246379 0.213962
Si Si3 0.278076 0.351447 0.476190
Si Si4 0.960652 0.933467 0.319202
Si Si5 0.000000 0.165427 0.250000
Si Si6 0.934561 0.427245 0.829728
O O1 0.500000 0.745607 0.750000
O O2 0.460128 0.783168 0.903640
O O3 0.737170 0.899544 0.106741
O O4 0.757201 0.662224 0.165446
O O5 0.269216 0.297925 0.352249
O O6 0.120669 0.119918 0.076018
O O7 0.124690 0.344228 0.006938
O O8 0.144862 0.474459 0.340866
O O9 0.194248 0.251286 0.463860
O O10 0.500000 0.385423 0.750000
O O11 0.000000 0.873291 0.250000
O O12 0.994147 0.080226 0.345839
O O13 0.000000 0.500000 0.000000
#
# Coordination Sequence:
#
# PCOD8121339 Si02
#       6
#     4   4   4   4   2   4
#     4  11  19  35  66  94 119 154 203 270 315 363
#     4  10  22  41  67  95 121 161 215 260 313 373
#     4  11  25  42  61  93 132 174 209 250 312 385
#     4   9  20  41  63  89 120 160 210 267 311 360
#     4  10  24  44  62  84 134 170 212 260 318 366
#     4   9  22  39  59  91 126 163 203 252 312 382
#
# _framework density 22.817340999999999
#
# number of rings (size 3 to 8) (size 9 to 14) (size 15 to 20)
#    0.545    1.455    1.818    0.545    0.000   13.091 
#    0.000    1.818    0.000    0.000    0.000    0.000 
#    0.000    0.000    0.000    0.000    0.000    0.000 
#
# Total GULP energy -272620.201690 kJ/mol
# GULP energy per Si atom -12391.827350 kJ/mol
# Density = 2.276541 g / cm^3
# Si number density = 22.817341 Si / 1000 Ang^3
#
#
#
# Elastic Constant Matrix: (Units=GPa)
#
#
# Indices 1 2 3 4 5 6 
#
# 1 58.9024 17.2436 37.4379 0.0000 29.2175 0.0000
# 2 17.2436 128.1719 53.2731 0.0000 19.6506 0.0000
# 3 37.4379 53.2731 135.4777 0.0000 20.9801 0.0000
# 4 0.0000 0.0000 0.0000 19.8349 0.0000 -4.9915
# 5 29.2175 19.6506 20.9801 0.0000 44.5854 0.0000
# 6 0.0000 0.0000 0.0000 -4.9915 0.0000 22.6185
#
#
#
# Elastic Compliance Matrix: (Units=1/GPa)
#
#
# Indices 1 2 3 4 5 6 
#
# 1 0.028458 0.001077 -0.005745 0.000000 -0.016420 0.000000
# 2 0.001077 0.009649 -0.003585 0.000000 -0.003271 0.000000
# 3 -0.005745 -0.003585 0.010301 0.000000 0.000497 0.000000
# 4 0.000000 0.000000 0.000000 0.053381 0.000000 0.011780
# 5 -0.016420 -0.003271 0.000497 0.000000 0.034397 0.000000
# 6 0.000000 0.000000 0.000000 0.011780 0.000000 0.046811
#
#
# Mechanical properties :
#
#
# Convention : Reuss Voigt Hill
#
# Bulk Modulus (GPa) = 31.34565 59.82901 45.58733
# Shear Modulus (GPa) = 23.79385 31.71424 27.75404
#
# Velocity S-wave (km/s) = 3.23274 3.73221 3.49142
# Velocity P-wave (km/s) = 5.26323 6.69703 6.02295
#
# Compressibility (1/GPa) = 0.03190236
#
# Stress axis : x y z
#
# Youngs Moduli (GPa) = 35.13903 103.63999 97.07324
#
# Poissons Ratio (x) = -0.11157 0.55765
# Poissons Ratio (y) = -0.03783 0.34801
# Poissons Ratio (z) = 0.20186 0.37156
#
# Static dielectric constant tensor:
#      x y z
#    x 3.804640 0.000000 0.163850 
#    y 0.000000 4.356120 0.000000 
#    z 0.163850 0.000000 4.279390 
# 
# 
# High freq. dielectric constant tensor:
#      x y z
#    x 1.885770 0.000000 0.007400 
#    y 0.000000 1.907790 0.000000 
#    z 0.007400 0.000000 1.901630 
# 
# From -- ./inp_files/55747.got.cif
#   From: 2010.06.25/outbox.cif.g09.slc.cpg/sg13_28_cif.got.tgz:55747.got - 2010.06.28 04:50:58.
