data_PCOD8121069
_publ_section_title
;
Structure prediction by ZEFSAII (Michael W. Deem and Ramdas Pophale) SiO2 
 PCOD8121069
Probable space group: P 2/C
;
_chemical_formula_sum "Si O2"
_cell_formula_units_Z 24
_cell_length_a 15.242007
_cell_length_b 14.942614
_cell_length_c 9.266103
_cell_angle_alpha 90.000000
_cell_angle_beta 35.070228
_cell_angle_gamma 90.000000
_cell_volume 1212.596748
_symmetry_space_group_name_H-M "P 2/C"
_symmetry_group_IT_number 13
_symmetry_cell_setting 'monoclinic'
loop_
_space_group_symop_operation_xyz
x,y,z
-x,y,1/2-z
-x,-y,-z
x,-y,1/2+z
loop_
_atom_site_type_symbol
_atom_site_label
_atom_site_fract_x
_atom_site_fract_y
_atom_site_fract_z
Si Si1 0.181307 0.583055 0.379124
Si Si2 0.895035 0.748337 0.524952
Si Si3 0.328408 0.901760 0.655842
Si Si4 0.831539 0.573713 0.788053
Si Si5 0.890260 0.772524 0.025561
Si Si6 0.319411 0.918837 0.333982
O O1 0.253428 0.582193 0.443137
O O2 0.257265 0.507488 0.174812
O O3 0.204395 0.685288 0.291902
O O4 0.004528 0.553946 0.602128
O O5 0.757342 0.814557 0.665895
O O6 0.821609 0.662576 0.702645
O O7 0.003708 0.805565 0.486211
O O8 0.000000 0.717192 0.250000
O O9 0.279544 0.920827 0.556636
O O10 0.508917 0.885939 0.423558
O O11 0.284124 0.983955 0.817746
O O12 0.786204 0.851583 0.111027
O O13 0.000000 0.735881 0.750000
#
# Coordination Sequence:
#
# PCOD8121069 Si02
#       6
#     4   4   4   4   4   4
#     4   9  16  28  47  73 108 138 173 211 260 315
#     4  11  23  34  53  83 112 137 178 226 264 306
#     4  10  22  41  56  80 104 142 180 212 269 323
#     4   9  17  28  46  74 107 140 170 213 261 310
#     4  11  19  36  53  81 109 139 178 220 267 308
#     4  10  22  39  61  75 106 142 177 218 263 328
#
# _framework density 19.792235000000002
#
# number of rings (size 3 to 8) (size 9 to 14) (size 15 to 20)
#    0.000    2.000    5.000    0.000    9.333    1.333 
#    0.000    0.000    0.000    1.000    0.000    0.000 
#    0.000    0.000    0.000    0.000    0.000    0.000 
#
# Total GULP energy -297386.269072 kJ/mol
# GULP energy per Si atom -12391.094545 kJ/mol
# Density = 1.974719 g / cm^3
# Si number density = 19.792235 Si / 1000 Ang^3
#
#
#
# Elastic Constant Matrix: (Units=GPa)
#
#
# Indices 1 2 3 4 5 6 
#
# 1 63.4096 27.0291 12.7153 0.0000 6.1281 0.0000
# 2 27.0291 99.8613 25.1802 0.0000 -5.6007 0.0000
# 3 12.7153 25.1802 36.7780 0.0000 9.2179 0.0000
# 4 0.0000 0.0000 0.0000 10.7193 0.0000 20.1614
# 5 6.1281 -5.6007 9.2179 0.0000 18.3861 0.0000
# 6 0.0000 0.0000 0.0000 20.1614 0.0000 22.0348
#
#
#
# Elastic Compliance Matrix: (Units=1/GPa)
#
#
# Indices 1 2 3 4 5 6 
#
# 1 0.018947 -0.005264 -0.001100 0.000000 -0.007367 0.000000
# 2 -0.005264 0.015014 -0.011489 0.000000 0.012088 0.000000
# 3 -0.001100 -0.011489 0.041427 0.000000 -0.023903 0.000000
# 4 0.000000 0.000000 0.000000 -0.129400 0.000000 0.118398
# 5 -0.007367 0.012088 -0.023903 0.000000 0.072510 0.000000
# 6 0.000000 0.000000 0.000000 0.118398 0.000000 -0.062949
#
#
# Mechanical properties :
#
#
# Convention : Reuss Voigt Hill
#
# Bulk Modulus (GPa) = 25.20038 36.65536 30.92787
# Shear Modulus (GPa) = 1115.64311 19.23633 567.43972
#
# Velocity S-wave (km/s) = 23.76764 3.12093 16.95053
# Velocity P-wave (km/s) = 27.67600 5.61669 19.96883
#
# Compressibility (1/GPa) = 0.03968193
#
# Stress axis : x y z
#
# Youngs Moduli (GPa) = 52.77902 66.60644 24.13872
#
# Poissons Ratio (x) = 0.35062 0.02655
# Poissons Ratio (y) = 0.27783 0.27732
# Poissons Ratio (z) = 0.05806 0.76523
#
# Static dielectric constant tensor:
#      x y z
#    x 3.759530 0.000000 0.414580 
#    y 0.000000 3.566130 0.000000 
#    z 0.414580 0.000000 3.359730 
# 
# 
# High freq. dielectric constant tensor:
#      x y z
#    x 1.770840 0.000000 0.032770 
#    y 0.000000 1.778790 0.000000 
#    z 0.032770 0.000000 1.723220 
# 
# From -- ./inp_files/19513.got.cif
#   From: 2010.06.25/outbox.cif.g09.slc.cpg/sg13_10_cif.got.tgz:19513.got - 2010.06.28 04:50:58.
