data_PCOD8121685
_publ_section_title
;
Structure prediction by ZEFSAII (Michael W. Deem and Ramdas Pophale) SiO2 
 PCOD8121685
Probable space group: P 2/C
;
_chemical_formula_sum "Si O2"
_cell_formula_units_Z 22
_cell_length_a 14.989102
_cell_length_b 16.693845
_cell_length_c 8.555808
_cell_angle_alpha 90.000000
_cell_angle_beta 148.879675
_cell_angle_gamma 90.000000
_cell_volume 1106.487872
_symmetry_space_group_name_H-M "P 2/C"
_symmetry_group_IT_number 13
_symmetry_cell_setting 'monoclinic'
loop_
_space_group_symop_operation_xyz
x,y,z
-x,y,1/2-z
-x,-y,-z
x,-y,1/2+z
loop_
_atom_site_type_symbol
_atom_site_label
_atom_site_fract_x
_atom_site_fract_y
_atom_site_fract_z
Si Si1 0.767999 0.947004 0.645187
Si Si2 0.000000 0.261184 0.250000
Si Si3 0.147741 0.392117 0.260291
Si Si4 0.500000 0.313000 0.750000
Si Si5 0.000000 0.982804 0.250000
Si Si6 0.500000 0.913401 0.750000
Si Si7 0.638901 0.184807 0.741810
Si Si8 0.000000 0.515402 0.250000
O O1 0.654010 0.872723 0.416893
O O2 0.926917 0.955695 0.766533
O O3 0.665983 0.030388 0.485308
O O4 0.848476 0.930187 0.939110
O O5 0.959698 0.314281 0.343482
O O6 0.171761 0.208394 0.541279
O O7 0.337211 0.370251 0.486257
O O8 0.150460 0.457336 0.405670
O O9 0.059217 0.427748 0.976156
O O10 0.530553 0.261096 0.638498
O O11 0.475326 0.858268 0.561162
#
# Coordination Sequence:
#
# PCOD8121685 Si02
#       8
#     4   2   4   2   2   2   4   2
#     4  11  22  41  55  85 103 147 197 264 283 345
#     4   9  21  40  56  76 120 152 186 220 273 361
#     4   9  19  38  60  91 114 146 183 223 267 327
#     4  10  23  38  56  83 124 148 184 226 280 347
#     4  10  23  36  62  76 107 134 194 262 298 333
#     4  12  25  36  56  79 112 142 204 252 294 331
#     4  11  23  39  56  79 112 160 185 236 302 338
#     4   9  18  36  68  88 113 148 182 220 267 318
#
# _framework density 19.882731
#
# number of rings (size 3 to 8) (size 9 to 14) (size 15 to 20)
#    0.000    1.818    1.818    1.636    5.091    2.182 
#    0.000    3.636    0.000    0.000    0.000    0.000 
#    0.000    0.000    0.000    0.000    0.000    0.000 
#
# Total GULP energy -272680.399947 kJ/mol
# GULP energy per Si atom -12394.563634 kJ/mol
# Density = 1.983748 g / cm^3
# Si number density = 19.882731 Si / 1000 Ang^3
#
#
#
# Elastic Constant Matrix: (Units=GPa)
#
#
# Indices 1 2 3 4 5 6 
#
# 1 84.6441 32.2991 50.7601 0.0000 8.2694 0.0000
# 2 32.2991 83.9281 50.8774 0.0000 -1.0892 0.0000
# 3 50.7601 50.8774 121.0537 0.0000 -10.2743 0.0000
# 4 0.0000 0.0000 0.0000 -9.0831 0.0000 0.1988
# 5 8.2694 -1.0892 -10.2743 0.0000 43.7443 0.0000
# 6 0.0000 0.0000 0.0000 0.1988 0.0000 29.8436
#
#
#
# Elastic Compliance Matrix: (Units=1/GPa)
#
#
# Indices 1 2 3 4 5 6 
#
# 1 0.017224 -0.002770 -0.006470 0.000000 -0.004844 0.000000
# 2 -0.002770 0.016496 -0.005808 0.000000 -0.000430 0.000000
# 3 -0.006470 -0.005808 0.013781 0.000000 0.004315 0.000000
# 4 0.000000 0.000000 0.000000 -0.110078 0.000000 0.000733
# 5 -0.004844 -0.000430 0.004315 0.000000 0.024779 0.000000
# 6 0.000000 0.000000 0.000000 0.000733 0.000000 0.033503
#
#
# Mechanical properties :
#
#
# Convention : Reuss Voigt Hill
#
# Bulk Modulus (GPa) = 57.45001 61.94435 59.69718
# Shear Modulus (GPa) = 158.21922 23.28024 90.74973
#
# Velocity S-wave (km/s) = 8.93023 3.42552 6.76325
# Velocity P-wave (km/s) = 11.63138 6.84603 9.54351
#
# Compressibility (1/GPa) = 0.01740644
#
# Stress axis : x y z
#
# Youngs Moduli (GPa) = 58.05861 60.61983 72.56367
#
# Poissons Ratio (x) = 0.16789 0.46945
# Poissons Ratio (y) = 0.16080 0.42147
# Poissons Ratio (z) = 0.37561 0.35210
#
# Static dielectric constant tensor:
#      x y z
#    x 3.820570 0.000000 0.038140 
#    y 0.000000 3.722760 0.000000 
#    z 0.038140 0.000000 3.633480 
# 
# 
# High freq. dielectric constant tensor:
#      x y z
#    x 1.792640 0.000000 0.010460 
#    y 0.000000 1.769250 0.000000 
#    z 0.010460 0.000000 1.761460 
# 
# From -- ./inp_files/12720.got.cif
#   From: 2010.06.25/outbox.cif.g09.slc.cpg/sg13_7_cif.got.tgz:12720.got - 2010.06.28 04:50:58.
