data_PCOD8121097
_publ_section_title
;
Structure prediction by ZEFSAII (Michael W. Deem and Ramdas Pophale) SiO2 
 PCOD8121097
Probable space group: P 2/C
;
_chemical_formula_sum "Si O2"
_cell_formula_units_Z 30
_cell_length_a 8.669303
_cell_length_b 8.499747
_cell_length_c 19.857111
_cell_angle_alpha 90.000000
_cell_angle_beta 96.894872
_cell_angle_gamma 90.000000
_cell_volume 1452.626806
_symmetry_space_group_name_H-M "P 2/C"
_symmetry_group_IT_number 13
_symmetry_cell_setting 'monoclinic'
loop_
_space_group_symop_operation_xyz
x,y,z
-x,y,1/2-z
-x,-y,-z
x,-y,1/2+z
loop_
_atom_site_type_symbol
_atom_site_label
_atom_site_fract_x
_atom_site_fract_y
_atom_site_fract_z
Si Si1 0.649958 0.829122 0.024662
Si Si2 0.698994 0.177189 0.015073
Si Si3 0.000000 0.889599 0.250000
Si Si4 0.107559 0.403237 0.555618
Si Si5 0.153556 0.808712 0.726932
Si Si6 0.668812 0.346229 0.153040
Si Si7 0.320490 0.663451 0.611675
Si Si8 0.849185 0.654618 0.142907
O O1 0.735337 0.708353 0.077465
O O2 0.728619 0.999156 0.040886
O O3 0.466760 0.822366 0.032329
O O4 0.669399 0.790092 0.947169
O O5 0.703349 0.291522 0.079273
O O6 0.836480 0.237079 0.973141
O O7 0.880339 0.786118 0.200496
O O8 0.886463 0.005754 0.287511
O O9 0.263146 0.499408 0.578661
O O10 0.000000 0.500000 0.500000
O O11 0.017638 0.379389 0.620503
O O12 0.287163 0.786771 0.790084
O O13 0.199064 0.730776 0.659126
O O14 0.000000 0.723390 0.750000
O O15 0.485901 0.373447 0.153803
O O16 0.767717 0.504129 0.172969
#
# Coordination Sequence:
#
# PCOD8121097 Si02
#       8
#     4   4   2   4   4   4   4   4
#     4  10  22  40  64  90 128 164 211 258 325 373
#     4  10  22  39  63  95 125 165 205 266 317 384
#     4  10  28  42  64  92 128 168 210 260 328 382
#     4  12  23  37  61  99 129 160 211 260 322 376
#     4  10  24  43  64  89 123 164 213 262 318 381
#     4  11  22  41  68  88 125 168 214 260 318 378
#     4  11  23  41  64  94 122 168 212 263 315 379
#     4  12  24  41  64  93 127 169 209 265 314 386
#
# _framework density 20.652242000000001
#
# number of rings (size 3 to 8) (size 9 to 14) (size 15 to 20)
#    0.400    0.800    2.667    2.800    4.667    2.667 
#    0.000    0.000    2.933    0.000    0.000    0.000 
#    0.000    0.000    0.000    0.000    0.000    0.000 
#
# Total GULP energy -372001.086582 kJ/mol
# GULP energy per Si atom -12400.036219 kJ/mol
# Density = 2.060524 g / cm^3
# Si number density = 20.652242 Si / 1000 Ang^3
#
#
#
# Elastic Constant Matrix: (Units=GPa)
#
#
# Indices 1 2 3 4 5 6 
#
# 1 80.2351 28.5128 20.4593 0.0000 2.1609 0.0000
# 2 28.5128 104.6448 14.9474 0.0000 3.7202 0.0000
# 3 20.4593 14.9474 60.2405 0.0000 4.3576 0.0000
# 4 0.0000 0.0000 0.0000 33.2690 0.0000 4.2661
# 5 2.1609 3.7202 4.3576 0.0000 40.6990 0.0000
# 6 0.0000 0.0000 0.0000 4.2661 0.0000 38.6199
#
#
#
# Elastic Compliance Matrix: (Units=1/GPa)
#
#
# Indices 1 2 3 4 5 6 
#
# 1 0.014740 -0.003422 -0.004155 0.000000 -0.000025 0.000000
# 2 -0.003422 0.010719 -0.001451 0.000000 -0.000643 0.000000
# 3 -0.004155 -0.001451 0.018489 0.000000 -0.001626 0.000000
# 4 0.000000 0.000000 0.000000 0.030490 0.000000 -0.003368
# 5 -0.000025 -0.000643 -0.001626 0.000000 0.024805 0.000000
# 6 0.000000 0.000000 0.000000 -0.003368 0.000000 0.026265
#
#
# Mechanical properties :
#
#
# Convention : Reuss Voigt Hill
#
# Bulk Modulus (GPa) = 38.62275 41.43992 40.03133
# Shear Modulus (GPa) = 32.85296 34.59765 33.72531
#
# Velocity S-wave (km/s) = 3.99277 4.09742 4.04544
# Velocity P-wave (km/s) = 6.32443 6.51876 6.42233
#
# Compressibility (1/GPa) = 0.02589148
#
# Stress axis : x y z
#
# Youngs Moduli (GPa) = 67.84487 93.29606 54.08625
#
# Poissons Ratio (x) = 0.31923 0.22473
# Poissons Ratio (y) = 0.23214 0.07848
# Poissons Ratio (z) = 0.28190 0.13537
#
# Static dielectric constant tensor:
#      x y z
#    x 3.843570 0.000000 0.046530 
#    y 0.000000 3.734020 0.000000 
#    z 0.046530 0.000000 3.590510 
# 
# 
# High freq. dielectric constant tensor:
#      x y z
#    x 1.814690 0.000000 0.008660 
#    y 0.000000 1.808350 0.000000 
#    z 0.008660 0.000000 1.798100 
# 
# From -- ./inp_files/75694.got.cif
#   From: 2010.06.25/outbox.cif.g09.slc.cpg/sg13_38_cif.got.tgz:75694.got - 2010.06.28 04:50:58.
