data_PCOD8121717
_publ_section_title
;
Structure prediction by ZEFSAII (Michael W. Deem and Ramdas Pophale) SiO2 
 PCOD8121717
Probable space group: P 2/C
;
_chemical_formula_sum "Si O2"
_cell_formula_units_Z 32
_cell_length_a 11.392389
_cell_length_b 13.517379
_cell_length_c 14.533356
_cell_angle_alpha 90.000000
_cell_angle_beta 42.299656
_cell_angle_gamma 90.000000
_cell_volume 1506.237591
_symmetry_space_group_name_H-M "P 2/C"
_symmetry_group_IT_number 13
_symmetry_cell_setting 'monoclinic'
loop_
_space_group_symop_operation_xyz
x,y,z
-x,y,1/2-z
-x,-y,-z
x,-y,1/2+z
loop_
_atom_site_type_symbol
_atom_site_label
_atom_site_fract_x
_atom_site_fract_y
_atom_site_fract_z
Si Si1 0.068029 0.700544 0.464876
Si Si2 0.893406 0.907870 0.524294
Si Si3 0.866884 0.615272 0.748953
Si Si4 0.623856 0.076674 0.336143
Si Si5 0.639276 0.203776 0.600776
Si Si6 0.730017 0.015980 0.461646
Si Si7 0.486871 0.724322 0.510805
Si Si8 0.158010 0.384703 0.720176
O O1 0.245618 0.713095 0.417718
O O2 0.114695 0.636166 0.350422
O O3 0.997619 0.806290 0.469976
O O4 0.937563 0.638966 0.605759
O O5 0.720821 0.897140 0.686165
O O6 0.841057 0.929508 0.447192
O O7 0.000000 0.000000 0.500000
O O8 0.679965 0.665379 0.858602
O O9 0.828655 0.502124 0.793909
O O10 0.000000 0.658086 0.750000
O O11 0.760922 0.031083 0.333420
O O12 0.515140 0.171356 0.434912
O O13 0.477743 0.994889 0.401929
O O14 0.500000 0.154829 0.750000
O O15 0.772854 0.120465 0.485654
O O16 0.525758 0.257737 0.589771
O O17 0.666674 0.665175 0.422404
O O18 0.000000 0.344179 0.750000
#
# Coordination Sequence:
#
# PCOD8121717 Si02
#       8
#     4   4   4   4   4   4   4   4
#     4  12  24  42  68  98 136 171 218 278 330 398
#     4  12  24  39  62  97 134 172 215 270 326 390
#     4  11  23  45  73  99 128 168 222 291 341 399
#     4  10  23  41  64  90 130 174 220 272 316 388
#     4  11  20  38  67  95 126 173 224 267 321 386
#     4  10  23  40  61  89 127 175 219 258 318 385
#     4  11  22  42  71  96 130 171 221 278 337 397
#     4  11  27  46  66  98 135 174 222 273 347 411
#
# _framework density 21.244989
#
# number of rings (size 3 to 8) (size 9 to 14) (size 15 to 20)
#    0.000    1.000    5.000    1.875    1.750    1.500 
#    0.000    0.625    0.000    0.000    0.000    0.000 
#    0.000    0.000    0.000    0.000    0.000    0.000 
#
# Total GULP energy -396720.683086 kJ/mol
# GULP energy per Si atom -12397.521346 kJ/mol
# Density = 2.119663 g / cm^3
# Si number density = 21.244989 Si / 1000 Ang^3
#
#
#
# Elastic Constant Matrix: (Units=GPa)
#
#
# Indices 1 2 3 4 5 6 
#
# 1 89.7109 23.0622 15.0462 0.0000 -4.5888 0.0000
# 2 23.0622 60.1773 13.0424 0.0000 -3.1382 0.0000
# 3 15.0462 13.0424 87.2083 0.0000 -7.7489 0.0000
# 4 0.0000 0.0000 0.0000 33.6330 0.0000 2.1333
# 5 -4.5888 -3.1382 -7.7489 0.0000 28.0285 0.0000
# 6 0.0000 0.0000 0.0000 2.1333 0.0000 -8.1024
#
#
#
# Elastic Compliance Matrix: (Units=1/GPa)
#
#
# Indices 1 2 3 4 5 6 
#
# 1 0.012588 -0.004460 -0.001401 0.000000 0.001174 0.000000
# 2 -0.004460 0.018796 -0.001968 0.000000 0.000830 0.000000
# 3 -0.001401 -0.001968 0.012264 0.000000 0.002941 0.000000
# 4 0.000000 0.000000 0.000000 0.029244 0.000000 0.007700
# 5 0.001174 0.000830 0.002941 0.000000 0.036776 0.000000
# 6 0.000000 0.000000 0.000000 0.007700 0.000000 -0.121393
#
#
# Mechanical properties :
#
#
# Convention : Reuss Voigt Hill
#
# Bulk Modulus (GPa) = 35.72348 37.71091 36.71719
# Shear Modulus (GPa) = 376.96792 23.10821 200.03806
#
# Velocity S-wave (km/s) = 13.33506 3.30161 9.71402
# Velocity P-wave (km/s) = 15.93580 5.68535 11.96397
#
# Compressibility (1/GPa) = 0.02799279
#
# Stress axis : x y z
#
# Youngs Moduli (GPa) = 79.43878 53.20163 81.53898
#
# Poissons Ratio (x) = 0.23725 0.11420
# Poissons Ratio (y) = 0.35426 0.16046
# Poissons Ratio (z) = 0.11126 0.10470
#
# Static dielectric constant tensor:
#      x y z
#    x 4.031150 0.000000 0.140350 
#    y 0.000000 3.834780 0.000000 
#    z 0.140350 0.000000 3.788380 
# 
# 
# High freq. dielectric constant tensor:
#      x y z
#    x 1.840660 0.000000 0.004740 
#    y 0.000000 1.829070 0.000000 
#    z 0.004740 0.000000 1.833560 
# 
# From -- ./inp_files/51456.got.cif
#   From: 2010.06.25/outbox.cif.g09.slc.cpg/sg13_26_cif.got.tgz:51456.got - 2010.06.28 04:50:58.
