data_PCOD8121014
_publ_section_title
;
Structure prediction by ZEFSAII (Michael W. Deem and Ramdas Pophale) SiO2 
 PCOD8121014
Probable space group: P 2/C
;
_chemical_formula_sum "Si O2"
_cell_formula_units_Z 30
_cell_length_a 11.267712
_cell_length_b 9.217495
_cell_length_c 28.701099
_cell_angle_alpha 90.000000
_cell_angle_beta 149.191695
_cell_angle_gamma 90.000000
_cell_volume 1526.718885
_symmetry_space_group_name_H-M "P 2/C"
_symmetry_group_IT_number 13
_symmetry_cell_setting 'monoclinic'
loop_
_space_group_symop_operation_xyz
x,y,z
-x,y,1/2-z
-x,-y,-z
x,-y,1/2+z
loop_
_atom_site_type_symbol
_atom_site_label
_atom_site_fract_x
_atom_site_fract_y
_atom_site_fract_z
Si Si1 0.766320 0.089036 0.923950
Si Si2 0.057056 0.754260 0.217342
Si Si3 0.500000 0.037837 0.250000
Si Si4 0.212787 0.415411 0.596377
Si Si5 0.254671 0.522550 0.217237
Si Si6 0.759879 0.007506 0.100417
Si Si7 0.159784 0.194329 0.196222
Si Si8 0.374920 0.986264 0.843349
O O1 0.810484 0.259934 0.936524
O O2 0.647669 0.030346 0.932569
O O3 0.583382 0.060371 0.820787
O O4 0.000000 0.000000 0.000000
O O5 0.115204 0.615273 0.207220
O O6 0.263457 0.869052 0.284501
O O7 0.000000 0.699962 0.250000
O O8 0.843537 0.841937 0.122702
O O9 0.277342 0.134830 0.188615
O O10 0.471565 0.482871 0.676554
O O11 0.190788 0.410977 0.645072
O O12 0.000000 0.500000 0.500000
O O13 0.140304 0.365142 0.183222
O O14 0.906837 0.123016 0.119888
O O15 0.752976 0.053539 0.152115
O O16 0.500000 0.000000 0.000000
O O17 0.328559 0.154423 0.295900
#
# Coordination Sequence:
#
# PCOD8121014 Si02
#       8
#     4   4   2   4   4   4   4   4
#     4  11  24  37  68  93 123 164 212 265 319 381
#     4   9  19  40  63  85 115 169 215 253 315 388
#     4  10  22  40  62  94 124 162 220 254 308 384
#     4  11  26  41  62  97 134 168 214 265 332 392
#     4  11  23  43  66  87 135 180 205 263 333 390
#     4  10  22  38  64  92 127 161 211 277 319 373
#     4  10  22  38  64  88 125 167 213 259 319 376
#     4   9  20  40  60  89 121 161 219 259 313 378
#
# _framework density 19.649982000000001
#
# number of rings (size 3 to 8) (size 9 to 14) (size 15 to 20)
#    0.000    1.867    1.333    2.800   11.200    1.067 
#    0.000    0.667    0.000    0.000    0.000    0.000 
#    0.000    0.000    0.000    0.000    0.000    0.000 
#
# Total GULP energy -371657.985324 kJ/mol
# GULP energy per Si atom -12388.599511 kJ/mol
# Density = 1.960526 g / cm^3
# Si number density = 19.649982 Si / 1000 Ang^3
#
#
#
# Elastic Constant Matrix: (Units=GPa)
#
#
# Indices 1 2 3 4 5 6 
#
# 1 118.6822 39.9352 29.1419 0.0000 26.1426 0.0000
# 2 39.9352 87.1895 22.4344 0.0000 13.4908 0.0000
# 3 29.1419 22.4344 105.0946 0.0000 27.2779 0.0000
# 4 0.0000 0.0000 0.0000 17.3880 0.0000 1.4407
# 5 26.1426 13.4908 27.2779 0.0000 32.8997 0.0000
# 6 0.0000 0.0000 0.0000 1.4407 0.0000 28.9322
#
#
#
# Elastic Compliance Matrix: (Units=1/GPa)
#
#
# Indices 1 2 3 4 5 6 
#
# 1 0.011453 -0.004031 -0.000487 0.000000 -0.007044 0.000000
# 2 -0.004031 0.013899 -0.001531 0.000000 -0.001227 0.000000
# 3 -0.000487 -0.001531 0.012377 0.000000 -0.009248 0.000000
# 4 0.000000 0.000000 0.000000 0.057749 0.000000 -0.002876
# 5 -0.007044 -0.001227 -0.009248 0.000000 0.044164 0.000000
# 6 0.000000 0.000000 0.000000 -0.002876 0.000000 0.034707
#
#
# Mechanical properties :
#
#
# Convention : Reuss Voigt Hill
#
# Bulk Modulus (GPa) = 39.01241 54.88769 46.95005
# Shear Modulus (GPa) = 25.64219 30.47430 28.05824
#
# Velocity S-wave (km/s) = 3.61632 3.94236 3.78286
# Velocity P-wave (km/s) = 6.11014 6.97971 6.55935
#
# Compressibility (1/GPa) = 0.02563287
#
# Stress axis : x y z
#
# Youngs Moduli (GPa) = 87.30994 71.94635 80.79287
#
# Poissons Ratio (x) = 0.28999 0.03936
# Poissons Ratio (y) = 0.35192 0.12368
# Poissons Ratio (z) = 0.04253 0.11013
#
# Static dielectric constant tensor:
#      x y z
#    x 3.884020 0.000000 0.185440 
#    y 0.000000 5.542270 0.000000 
#    z 0.185440 0.000000 3.440960 
# 
# 
# High freq. dielectric constant tensor:
#      x y z
#    x 1.785440 0.000000 0.011910 
#    y 0.000000 1.753550 0.000000 
#    z 0.011910 0.000000 1.758220 
# 
# From -- ./inp_files/96617.got.cif
#   From: 2010.06.25/outbox.cif.g09.slc.cpg/sg13_49_cif.got.tgz:96617.got - 2010.06.28 04:50:58.
