data_PCOD8121234
_publ_section_title
;
Structure prediction by ZEFSAII (Michael W. Deem and Ramdas Pophale) SiO2 
 PCOD8121234
Probable space group: P 2/C
;
_chemical_formula_sum "Si O2"
_cell_formula_units_Z 20
_cell_length_a 11.804719
_cell_length_b 6.829395
_cell_length_c 26.332357
_cell_angle_alpha 90.000000
_cell_angle_beta 26.285883
_cell_angle_gamma 90.000000
_cell_volume 940.122739
_symmetry_space_group_name_H-M "P 2/C"
_symmetry_group_IT_number 13
_symmetry_cell_setting 'monoclinic'
loop_
_space_group_symop_operation_xyz
x,y,z
-x,y,1/2-z
-x,-y,-z
x,-y,1/2+z
loop_
_atom_site_type_symbol
_atom_site_label
_atom_site_fract_x
_atom_site_fract_y
_atom_site_fract_z
Si Si1 0.989968 0.799589 0.033724
Si Si2 0.832157 0.250000 0.708922
Si Si3 0.279227 0.010563 0.155966
Si Si4 0.624864 0.700411 0.466276
Si Si5 0.403092 0.510564 0.844033
O O1 0.885076 0.838389 0.132184
O O2 0.798103 0.665036 0.079201
O O3 0.268703 0.696468 0.924635
O O4 0.000000 0.000000 0.000000
O O5 0.635716 0.432148 0.785215
O O6 0.086186 0.338387 0.632185
O O7 0.723422 0.067853 0.785216
O O8 0.000000 0.078535 0.250000
O O9 0.385094 0.834963 0.079200
O O10 0.467242 0.196468 0.075365
O O11 0.500000 0.500000 0.500000
O O12 0.500000 0.578538 0.750000
#
# Coordination Sequence:
#
# PCOD8121234 Si02
#       5
#     4   4   4   4   4
#     4  10  22  41  63  95 128 172 221 268 326 401
#     4  10  22  40  68  96 128 176 218 270 342 392
#     4   9  21  42  60  91 136 164 215 277 322 392
#     4  10  22  41  63  95 128 172 221 268 326 401
#     4   9  21  42  60  91 136 164 215 277 322 392
#
# _framework density 21.273817999999999
#
# number of rings (size 3 to 8) (size 9 to 14) (size 15 to 20)
#    0.000    2.400    0.000    0.000    5.600    4.800 
#    0.000    4.000    0.000    0.000    0.000    0.000 
#    0.000    0.000    0.000    0.000    0.000    0.000 
#
# Total GULP energy -248054.599488 kJ/mol
# GULP energy per Si atom -12402.729974 kJ/mol
# Density = 2.122540 g / cm^3
# Si number density = 21.273818 Si / 1000 Ang^3
#
#
#
# Elastic Constant Matrix: (Units=GPa)
#
#
# Indices 1 2 3 4 5 6 
#
# 1 102.6761 63.2402 53.7865 0.0000 -0.4863 0.0000
# 2 63.2402 136.4991 81.6921 0.0000 -0.4499 0.0000
# 3 53.7865 81.6921 139.9926 0.0000 -0.4199 0.0000
# 4 0.0000 0.0000 0.0000 34.6559 0.0000 -0.3016
# 5 -0.4863 -0.4499 -0.4199 0.0000 34.4568 0.0000
# 6 0.0000 0.0000 0.0000 -0.3016 0.0000 22.2772
#
#
#
# Elastic Compliance Matrix: (Units=1/GPa)
#
#
# Indices 1 2 3 4 5 6 
#
# 1 0.014167 -0.005080 -0.002478 0.000000 0.000103 0.000000
# 2 -0.005080 0.013079 -0.005681 0.000000 0.000030 0.000000
# 3 -0.002478 -0.005681 0.011410 0.000000 0.000030 0.000000
# 4 0.000000 0.000000 0.000000 0.028859 0.000000 0.000391
# 5 0.000103 0.000030 0.000030 0.000000 0.029024 0.000000
# 6 0.000000 0.000000 0.000000 0.000391 0.000000 0.044894
#
#
# Mechanical properties :
#
#
# Convention : Reuss Voigt Hill
#
# Bulk Modulus (GPa) = 82.10882 86.28950 84.19916
# Shear Modulus (GPa) = 29.07463 30.30791 29.69127
#
# Velocity S-wave (km/s) = 3.70088 3.77856 3.73992
# Velocity P-wave (km/s) = 7.54599 7.72568 7.63636
#
# Compressibility (1/GPa) = 0.01217896
#
# Stress axis : x y z
#
# Youngs Moduli (GPa) = 70.58653 76.45592 87.63919
#
# Poissons Ratio (x) = 0.38839 0.21720
# Poissons Ratio (y) = 0.35858 0.49784
# Poissons Ratio (z) = 0.17494 0.43431
#
# Static dielectric constant tensor:
#      x y z
#    x 3.768170 0.000000 -0.012250 
#    y 0.000000 3.596630 0.000000 
#    z -0.012250 0.000000 4.272080 
# 
# 
# High freq. dielectric constant tensor:
#      x y z
#    x 1.829320 0.000000 -0.000620 
#    y 0.000000 1.817490 0.000000 
#    z -0.000620 0.000000 1.854950 
# 
# From -- ./inp_files/35176.got.cif
#   From: 2010.06.25/outbox.cif.g09.slc.cpg/sg13_18_cif.got.tgz:35176.got - 2010.06.28 04:50:58.
