data_PCOD8121728
_publ_section_title
;
Structure prediction by ZEFSAII (Michael W. Deem and Ramdas Pophale) SiO2 
 PCOD8121728
Probable space group: P 2/C
;
_chemical_formula_sum "Si O2"
_cell_formula_units_Z 32
_cell_length_a 27.299910
_cell_length_b 7.846851
_cell_length_c 21.560340
_cell_angle_alpha 90.000000
_cell_angle_beta 19.425975
_cell_angle_gamma 90.000000
_cell_volume 1536.100836
_symmetry_space_group_name_H-M "P 2/C"
_symmetry_group_IT_number 13
_symmetry_cell_setting 'monoclinic'
loop_
_space_group_symop_operation_xyz
x,y,z
-x,y,1/2-z
-x,-y,-z
x,-y,1/2+z
loop_
_atom_site_type_symbol
_atom_site_label
_atom_site_fract_x
_atom_site_fract_y
_atom_site_fract_z
Si Si1 0.169535 0.086108 0.031317
Si Si2 0.708677 0.607069 0.192918
Si Si3 0.338291 0.845712 0.454981
Si Si4 0.590573 0.777774 0.942983
Si Si5 0.398369 0.089721 0.491141
Si Si6 0.836186 0.342676 0.237651
Si Si7 0.836713 0.679152 0.170782
Si Si8 0.674750 0.234211 0.203109
O O1 0.000000 0.095325 0.250000
O O2 0.203004 0.241628 0.945163
O O3 0.267775 0.102556 0.974814
O O4 0.200321 0.902180 0.963989
O O5 0.532557 0.632465 0.400508
O O6 0.757497 0.594565 0.206167
O O7 0.742298 0.425085 0.120193
O O8 0.500000 0.767173 0.250000
O O9 0.241425 0.701388 0.604536
O O10 0.352604 0.017210 0.478976
O O11 0.745690 0.732378 0.788567
O O12 0.615398 0.813132 0.841781
O O13 0.530122 0.944259 0.050360
O O14 0.252523 0.159094 0.698535
O O15 0.532411 0.225665 0.326600
O O16 0.845926 0.545993 0.217021
O O17 0.999065 0.260681 0.043321
#
# Coordination Sequence:
#
# PCOD8121728 Si02
#       8
#     4   4   4   4   4   4   4   4
#     4  12  27  46  66  95 134 180 224 268 322 394
#     4  12  23  42  73  98 133 169 218 281 331 392
#     4  11  23  46  63  87 134 181 226 259 316 405
#     4  11  20  39  67 102 129 161 215 276 340 384
#     4  11  22  38  70  93 132 172 215 275 328 389
#     4  10  23  40  64  95 139 169 206 284 336 391
#     4  11  22  41  63 106 133 159 220 280 350 395
#     4  12  22  40  69  99 129 169 220 273 323 394
#
# _framework density 20.831968
#
# number of rings (size 3 to 8) (size 9 to 14) (size 15 to 20)
#    0.000    0.750    5.000    3.750    0.000    3.500 
#    2.250    0.625    2.750    0.000    0.000    0.000 
#    0.000    0.000    0.000    0.000    0.000    0.000 
#
# Total GULP energy -396866.495036 kJ/mol
# GULP energy per Si atom -12402.077970 kJ/mol
# Density = 2.078455 g / cm^3
# Si number density = 20.831968 Si / 1000 Ang^3
#
#
#
# Elastic Constant Matrix: (Units=GPa)
#
#
# Indices 1 2 3 4 5 6 
#
# 1 58.0944 27.9955 12.2164 0.0000 4.7987 0.0000
# 2 27.9955 108.0416 44.4626 0.0000 9.9263 0.0000
# 3 12.2164 44.4626 121.8573 0.0000 -4.0263 0.0000
# 4 0.0000 0.0000 0.0000 28.8026 0.0000 8.5976
# 5 4.7987 9.9263 -4.0263 0.0000 38.2403 0.0000
# 6 0.0000 0.0000 0.0000 8.5976 0.0000 36.4899
#
#
#
# Elastic Compliance Matrix: (Units=1/GPa)
#
#
# Indices 1 2 3 4 5 6 
#
# 1 0.019726 -0.004905 -0.000229 0.000000 -0.001226 0.000000
# 2 -0.004905 0.012530 -0.004182 0.000000 -0.003077 0.000000
# 3 -0.000229 -0.004182 0.009826 0.000000 0.002149 0.000000
# 4 0.000000 0.000000 0.000000 0.037346 0.000000 -0.008799
# 5 -0.001226 -0.003077 0.002149 0.000000 0.027329 0.000000
# 6 0.000000 0.000000 0.000000 -0.008799 0.000000 0.029478
#
#
# Mechanical properties :
#
#
# Convention : Reuss Voigt Hill
#
# Bulk Modulus (GPa) = 42.63966 50.81581 46.72774
# Shear Modulus (GPa) = 30.73447 34.26113 32.49780
#
# Velocity S-wave (km/s) = 3.84520 4.05982 3.95396
# Velocity P-wave (km/s) = 6.34247 6.81339 6.58214
#
# Compressibility (1/GPa) = 0.02345234
#
# Stress axis : x y z
#
# Youngs Moduli (GPa) = 50.69379 79.80628 101.76956
#
# Poissons Ratio (x) = 0.39143 0.02325
# Poissons Ratio (y) = 0.24864 0.42560
# Poissons Ratio (z) = 0.01158 0.33375
#
# Static dielectric constant tensor:
#      x y z
#    x 3.778500 0.000000 -0.014520 
#    y 0.000000 3.833200 0.000000 
#    z -0.014520 0.000000 3.799990 
# 
# 
# High freq. dielectric constant tensor:
#      x y z
#    x 1.817210 0.000000 -0.009060 
#    y 0.000000 1.811120 0.000000 
#    z -0.009060 0.000000 1.820250 
# 
# From -- ./inp_files/82494.got.cif
#   From: 2010.06.25/outbox.cif.g09.slc.cpg/sg13_42_cif.got.tgz:82494.got - 2010.06.28 04:50:58.
