data_PCOD8121375
_publ_section_title
;
Structure prediction by ZEFSAII (Michael W. Deem and Ramdas Pophale) SiO2 
 PCOD8121375
Probable space group: P 2/C
;
_chemical_formula_sum "Si O2"
_cell_formula_units_Z 26
_cell_length_a 22.212377
_cell_length_b 11.042773
_cell_length_c 9.337178
_cell_angle_alpha 90.000000
_cell_angle_beta 149.008709
_cell_angle_gamma 90.000000
_cell_volume 1179.283635
_symmetry_space_group_name_H-M "P 2/C"
_symmetry_group_IT_number 13
_symmetry_cell_setting 'monoclinic'
loop_
_space_group_symop_operation_xyz
x,y,z
-x,y,1/2-z
-x,-y,-z
x,-y,1/2+z
loop_
_atom_site_type_symbol
_atom_site_label
_atom_site_fract_x
_atom_site_fract_y
_atom_site_fract_z
Si Si1 0.743074 0.393295 0.283960
Si Si2 0.820979 0.187340 0.248494
Si Si3 0.566501 0.873890 0.146203
Si Si4 0.118158 0.783426 0.931305
Si Si5 0.276824 0.373273 0.920857
Si Si6 0.500000 0.273720 0.250000
Si Si7 0.000000 0.016353 0.750000
Si Si8 0.500000 0.292589 0.750000
O O1 0.818656 0.281573 0.376108
O O2 0.750458 0.398689 0.469638
O O3 0.782552 0.520294 0.295228
O O4 0.611280 0.377606 0.960220
O O5 0.846349 0.262401 0.154567
O O6 0.929311 0.097197 0.492787
O O7 0.697055 0.115714 0.979682
O O8 0.484610 0.791288 0.079223
O O9 0.575669 0.811688 0.009490
O O10 0.500000 0.000000 0.000000
O O11 0.000000 0.720001 0.750000
O O12 0.217522 0.752304 0.250043
O O13 0.097808 0.929424 0.875530
O O14 0.414783 0.359758 0.169458
#
# Coordination Sequence:
#
# PCOD8121375 Si02
#       8
#     4   4   4   4   4   2   2   2
#     4  11  26  42  72  98 137 177 231 284 345 414
#     4  11  24  46  68 103 140 180 238 283 348 413
#     4  11  24  39  66 105 146 183 222 281 345 420
#     4  10  25  45  69 100 136 178 237 277 343 403
#     4  12  25  46  69 103 134 183 230 289 345 417
#     4  12  24  42  70  98 144 185 227 278 354 412
#     4  10  26  42  76  96 136 188 226 286 338 410
#     4  10  22  42  60 102 138 177 227 264 342 418
#
# _framework density 22.047284000000001
#
# number of rings (size 3 to 8) (size 9 to 14) (size 15 to 20)
#    0.462    0.615    3.077    2.308    6.462    3.692 
#    1.385    1.538    0.000    0.000    0.000    0.000 
#    0.000    0.000    0.000    0.000    0.000    0.000 
#
# Total GULP energy -322335.947446 kJ/mol
# GULP energy per Si atom -12397.536440 kJ/mol
# Density = 2.199710 g / cm^3
# Si number density = 22.047284 Si / 1000 Ang^3
#
#
#
# Elastic Constant Matrix: (Units=GPa)
#
#
# Indices 1 2 3 4 5 6 
#
# 1 138.9188 41.5585 38.7120 0.0000 -27.2148 0.0000
# 2 41.5585 103.9656 51.5641 0.0000 -10.2593 0.0000
# 3 38.7120 51.5641 100.4309 0.0000 -14.6202 0.0000
# 4 0.0000 0.0000 0.0000 32.8560 0.0000 -4.1229
# 5 -27.2148 -10.2593 -14.6202 0.0000 44.8971 0.0000
# 6 0.0000 0.0000 0.0000 -4.1229 0.0000 25.4757
#
#
#
# Elastic Compliance Matrix: (Units=1/GPa)
#
#
# Indices 1 2 3 4 5 6 
#
# 1 0.009278 -0.002435 -0.001667 0.000000 0.004525 0.000000
# 2 -0.002435 0.013574 -0.006082 0.000000 -0.000355 0.000000
# 3 -0.001667 -0.006082 0.014038 0.000000 0.002171 0.000000
# 4 0.000000 0.000000 0.000000 0.031067 0.000000 0.005028
# 5 0.004525 -0.000355 0.002171 0.000000 0.025642 0.000000
# 6 0.000000 0.000000 0.000000 0.005028 0.000000 0.040067
#
#
# Mechanical properties :
#
#
# Convention : Reuss Voigt Hill
#
# Bulk Modulus (GPa) = 60.52973 67.44271 63.98622
# Shear Modulus (GPa) = 31.33986 34.74447 33.04217
#
# Velocity S-wave (km/s) = 3.77435 3.97408 3.87550
# Velocity P-wave (km/s) = 6.81970 7.19126 7.00794
#
# Compressibility (1/GPa) = 0.01652081
#
# Stress axis : x y z
#
# Youngs Moduli (GPa) = 107.78218 73.67285 71.23274
#
# Poissons Ratio (x) = 0.17942 0.11876
# Poissons Ratio (y) = 0.26248 0.43324
# Poissons Ratio (z) = 0.17970 0.44808
#
# Static dielectric constant tensor:
#      x y z
#    x 4.129830 0.000000 0.034400 
#    y 0.000000 3.772500 0.000000 
#    z 0.034400 0.000000 3.806620 
# 
# 
# High freq. dielectric constant tensor:
#      x y z
#    x 1.876880 0.000000 -0.006640 
#    y 0.000000 1.854000 0.000000 
#    z -0.006640 0.000000 1.861340 
# 
# From -- ./inp_files/24182.got.cif
#   From: 2010.06.25/outbox.cif.g09.slc.cpg/sg13_13_cif.got.tgz:24182.got - 2010.06.28 04:50:58.
