data_PCOD8121523
_publ_section_title
;
Structure prediction by ZEFSAII (Michael W. Deem and Ramdas Pophale) SiO2 
 PCOD8121523
Probable space group: P 2/C
;
_chemical_formula_sum "Si O2"
_cell_formula_units_Z 20
_cell_length_a 11.867793
_cell_length_b 8.509480
_cell_length_c 16.174128
_cell_angle_alpha 90.000000
_cell_angle_beta 148.263896
_cell_angle_gamma 90.000000
_cell_volume 859.183520
_symmetry_space_group_name_H-M "P 2/C"
_symmetry_group_IT_number 13
_symmetry_cell_setting 'monoclinic'
loop_
_space_group_symop_operation_xyz
x,y,z
-x,y,1/2-z
-x,-y,-z
x,-y,1/2+z
loop_
_atom_site_type_symbol
_atom_site_label
_atom_site_fract_x
_atom_site_fract_y
_atom_site_fract_z
Si Si1 0.187839 0.076414 0.430004
Si Si2 0.727773 0.231019 0.421995
Si Si3 0.439713 0.734395 0.391719
Si Si4 0.913783 0.823124 0.460977
Si Si5 0.753695 0.559540 0.083254
O O1 0.408701 0.110997 0.518031
O O2 0.156206 0.198253 0.487453
O O3 0.000000 0.105561 0.250000
O O4 0.173295 0.901429 0.456472
O O5 0.500000 0.167061 0.250000
O O6 0.710443 0.388559 0.462900
O O7 0.876331 0.275304 0.435536
O O8 0.281381 0.759470 0.216087
O O9 0.301396 0.705834 0.388629
O O10 0.599137 0.587592 0.492287
O O11 0.000000 0.000000 0.500000
O O12 0.000000 0.508546 0.250000
#
# Coordination Sequence:
#
# PCOD8121523 Si02
#       5
#     4   4   4   4   4
#     4  11  24  41  70 102 135 181 239 293 347 408
#     4  11  24  43  67 100 140 183 231 290 355 416
#     4  11  24  44  72 100 143 181 231 291 343 425
#     4  10  22  43  69 101 139 179 233 292 350 412
#     4  11  24  46  70 103 141 186 234 279 350 422
#
# _framework density 23.277916000000001
#
# number of rings (size 3 to 8) (size 9 to 14) (size 15 to 20)
#    0.000    1.200    2.000    4.200    5.600    2.400 
#    0.000    2.000    0.000    0.000    0.000    0.000 
#    0.000    0.000    0.000    0.000    0.000    0.000 
#
# Total GULP energy -247778.004346 kJ/mol
# GULP energy per Si atom -12388.900217 kJ/mol
# Density = 2.322493 g / cm^3
# Si number density = 23.277916 Si / 1000 Ang^3
#
#
#
# Elastic Constant Matrix: (Units=GPa)
#
#
# Indices 1 2 3 4 5 6 
#
# 1 84.6109 7.4527 50.7857 0.0000 4.3181 0.0000
# 2 7.4527 31.5512 9.2798 0.0000 -0.1019 0.0000
# 3 50.7857 9.2798 174.8625 0.0000 5.4472 0.0000
# 4 0.0000 0.0000 0.0000 40.7474 0.0000 -3.1728
# 5 4.3181 -0.1019 5.4472 0.0000 42.3930 0.0000
# 6 0.0000 0.0000 0.0000 -3.1728 0.0000 30.7995
#
#
#
# Elastic Compliance Matrix: (Units=1/GPa)
#
#
# Indices 1 2 3 4 5 6 
#
# 1 0.014504 -0.002234 -0.004064 0.000000 -0.000961 0.000000
# 2 -0.002234 0.032545 -0.001092 0.000000 0.000446 0.000000
# 3 -0.004064 -0.001092 0.006972 0.000000 -0.000485 0.000000
# 4 0.000000 0.000000 0.000000 0.024740 0.000000 0.002549
# 5 -0.000961 0.000446 -0.000485 0.000000 0.023750 0.000000
# 6 0.000000 0.000000 0.000000 0.002549 0.000000 0.032731
#
#
# Mechanical properties :
#
#
# Convention : Reuss Voigt Hill
#
# Bulk Modulus (GPa) = 25.48361 47.34011 36.41186
# Shear Modulus (GPa) = 30.65574 37.68839 34.17207
#
# Velocity S-wave (km/s) = 3.63291 4.02812 3.83561
# Velocity P-wave (km/s) = 5.34497 6.48193 5.94071
#
# Compressibility (1/GPa) = 0.03924091
#
# Stress axis : x y z
#
# Youngs Moduli (GPa) = 68.94715 30.72683 143.42822
#
# Poissons Ratio (x) = 0.06864 0.58288
# Poissons Ratio (y) = 0.15401 0.15666
# Poissons Ratio (z) = 0.28020 0.03356
#
# Static dielectric constant tensor:
#      x y z
#    x 5.645420 0.000000 0.272680 
#    y 0.000000 3.907420 0.000000 
#    z 0.272680 0.000000 4.150900 
# 
# 
# High freq. dielectric constant tensor:
#      x y z
#    x 1.940310 0.000000 0.013350 
#    y 0.000000 1.898820 0.000000 
#    z 0.013350 0.000000 1.931290 
# 
# From -- ./inp_files/66246.got.cif
#   From: 2010.06.25/outbox.cif.g09.slc.cpg/sg13_34_cif.got.tgz:66246.got - 2010.06.28 04:50:58.
