data_PCOD8121243
_publ_section_title
;
Structure prediction by ZEFSAII (Michael W. Deem and Ramdas Pophale) SiO2 
 PCOD8121243
Probable space group: P 2/C
;
_chemical_formula_sum "Si O2"
_cell_formula_units_Z 32
_cell_length_a 14.837462
_cell_length_b 14.361780
_cell_length_c 19.851037
_cell_angle_alpha 90.000000
_cell_angle_beta 21.076579
_cell_angle_gamma 90.000000
_cell_volume 1521.210742
_symmetry_space_group_name_H-M "P 2/C"
_symmetry_group_IT_number 13
_symmetry_cell_setting 'monoclinic'
loop_
_space_group_symop_operation_xyz
x,y,z
-x,y,1/2-z
-x,-y,-z
x,-y,1/2+z
loop_
_atom_site_type_symbol
_atom_site_label
_atom_site_fract_x
_atom_site_fract_y
_atom_site_fract_z
Si Si1 0.082317 0.641749 0.551649
Si Si2 0.448897 0.433118 0.096513
Si Si3 0.069908 0.152223 0.028237
Si Si4 0.502617 0.403344 0.845295
Si Si5 0.666342 0.778225 0.290276
Si Si6 0.448979 0.059887 0.103514
Si Si7 0.755402 0.242145 0.874676
Si Si8 0.265951 0.909017 0.529395
O O1 0.982070 0.746330 0.613193
O O2 0.308323 0.607470 0.347854
O O3 0.213612 0.627630 0.532735
O O4 0.846988 0.578800 0.701554
O O5 0.505439 0.489761 0.125320
O O6 0.500000 0.500000 0.000000
O O7 0.609053 0.339210 0.983976
O O8 0.256807 0.116403 0.956567
O O9 0.846284 0.077489 0.179527
O O10 0.198538 0.167957 0.865732
O O11 0.614221 0.331576 0.821796
O O12 0.826878 0.783738 0.247183
O O13 0.395387 0.828047 0.484402
O O14 0.576136 0.159657 0.022302
O O15 0.500000 0.000000 0.000000
O O16 0.559752 0.000541 0.088063
O O17 0.000000 0.245850 0.750000
O O18 0.000000 0.928771 0.750000
#
# Coordination Sequence:
#
# PCOD8121243 Si02
#       8
#     4   4   4   4   4   4   4   4
#     4  10  22  43  68  99 135 177 229 282 348 412
#     4  12  25  40  66 102 138 176 231 282 339 419
#     4  11  23  44  72 103 137 180 230 293 349 406
#     4  10  22  40  70 100 133 178 221 285 349 410
#     4  11  23  44  69 103 138 170 233 300 339 412
#     4  12  24  44  69  97 136 185 231 278 353 419
#     4  12  27  47  64  97 143 188 230 291 356 420
#     4  12  23  39  72 103 133 177 231 289 343 416
#
# _framework density 21.035875000000001
#
# number of rings (size 3 to 8) (size 9 to 14) (size 15 to 20)
#    0.000    0.750    6.250    1.125    1.750    0.500 
#    0.000    1.875    0.000    0.000    0.000    0.000 
#    0.000    0.000    0.000    0.000    0.000    0.000 
#
# Total GULP energy -396512.849469 kJ/mol
# GULP energy per Si atom -12391.026546 kJ/mol
# Density = 2.098800 g / cm^3
# Si number density = 21.035875 Si / 1000 Ang^3
#
#
#
# Elastic Constant Matrix: (Units=GPa)
#
#
# Indices 1 2 3 4 5 6 
#
# 1 144.0515 49.3710 52.0074 0.0000 -17.1758 0.0000
# 2 49.3710 138.5284 52.9868 0.0000 -1.0597 0.0000
# 3 52.0074 52.9868 78.9621 0.0000 -29.8338 0.0000
# 4 0.0000 0.0000 0.0000 29.0424 0.0000 -0.5245
# 5 -17.1758 -1.0597 -29.8338 0.0000 24.1050 0.0000
# 6 0.0000 0.0000 0.0000 -0.5245 0.0000 36.3631
#
#
#
# Elastic Compliance Matrix: (Units=1/GPa)
#
#
# Indices 1 2 3 4 5 6 
#
# 1 0.009280 -0.001339 -0.005142 0.000000 0.000190 0.000000
# 2 -0.001339 0.013534 -0.015657 0.000000 -0.019737 0.000000
# 3 -0.005142 -0.015657 0.046795 0.000000 0.053564 0.000000
# 4 0.000000 0.000000 0.000000 0.034441 0.000000 0.000497
# 5 0.000190 -0.019737 0.053564 0.000000 0.107047 0.000000
# 6 0.000000 0.000000 0.000000 0.000497 0.000000 0.027508
#
#
# Mechanical properties :
#
#
# Convention : Reuss Voigt Hill
#
# Bulk Modulus (GPa) = 39.47377 74.47470 56.97423
# Shear Modulus (GPa) = 17.16302 31.71390 24.43846
#
# Velocity S-wave (km/s) = 2.85948 3.88701 3.41215
# Velocity P-wave (km/s) = 5.45050 7.45826 6.53198
#
# Compressibility (1/GPa) = 0.02533328
#
# Stress axis : x y z
#
# Youngs Moduli (GPa) = 107.75969 73.88988 21.36978
#
# Poissons Ratio (x) = 0.09895 0.10988
# Poissons Ratio (y) = 0.14430 0.33458
# Poissons Ratio (z) = 0.55409 1.15687
#
# Static dielectric constant tensor:
#      x y z
#    x 4.147600 0.000000 -0.114340 
#    y 0.000000 4.030200 0.000000 
#    z -0.114340 0.000000 3.644560 
# 
# 
# High freq. dielectric constant tensor:
#      x y z
#    x 1.826830 0.000000 -0.009560 
#    y 0.000000 1.837720 0.000000 
#    z -0.009560 0.000000 1.817640 
# 
# From -- ./inp_files/80336.got.cif
#   From: 2010.06.25/outbox.cif.g09.slc.cpg/sg13_41_cif.got.tgz:80336.got - 2010.06.28 04:50:58.
