data_PCOD8121901
_publ_section_title
;
Structure prediction by ZEFSAII (Michael W. Deem and Ramdas Pophale) SiO2 
 PCOD8121901
Probable space group: P 2/C
;
_chemical_formula_sum "Si O2"
_cell_formula_units_Z 26
_cell_length_a 11.734879
_cell_length_b 14.898302
_cell_length_c 14.062825
_cell_angle_alpha 90.000000
_cell_angle_beta 150.119786
_cell_angle_gamma 90.000000
_cell_volume 1224.846100
_symmetry_space_group_name_H-M "P 2/C"
_symmetry_group_IT_number 13
_symmetry_cell_setting 'monoclinic'
loop_
_space_group_symop_operation_xyz
x,y,z
-x,y,1/2-z
-x,-y,-z
x,-y,1/2+z
loop_
_atom_site_type_symbol
_atom_site_label
_atom_site_fract_x
_atom_site_fract_y
_atom_site_fract_z
Si Si1 0.884003 0.873439 0.507713
Si Si2 0.000000 0.252365 0.250000
Si Si3 0.370377 0.377546 0.444278
Si Si4 0.408890 0.443328 0.078560
Si Si5 0.584448 0.912031 0.613874
Si Si6 0.283317 0.231443 0.796506
Si Si7 0.000000 0.311826 0.750000
Si Si8 0.500000 0.019557 0.250000
O O1 0.842389 0.809640 0.568574
O O2 0.817853 0.818995 0.366482
O O3 0.142238 0.908037 0.689614
O O4 0.726010 0.959442 0.406402
O O5 0.154376 0.312211 0.292700
O O6 0.395327 0.408185 0.352356
O O7 0.321510 0.460914 0.477814
O O8 0.601595 0.327048 0.647187
O O9 0.500000 0.455655 0.250000
O O10 0.204065 0.373255 0.935186
O O11 0.485177 0.824703 0.491861
O O12 0.488562 0.915241 0.651418
O O13 0.500000 0.000000 0.500000
O O14 0.075590 0.247500 0.718674
#
# Coordination Sequence:
#
# PCOD8121901 Si02
#       8
#     4   2   4   4   4   4   2   2
#     4  12  26  46  67 102 134 183 231 284 346 404
#     4  12  23  40  73  94 138 174 228 279 338 409
#     4  10  23  45  64 105 134 175 234 275 340 420
#     4  10  23  44  70  97 140 176 221 286 344 411
#     4  12  26  47  67 101 140 179 237 287 341 411
#     4  11  25  45  68 101 139 183 231 288 341 417
#     4  10  25  42  69 104 138 172 236 279 346 415
#     4  12  26  44  74  94 138 184 228 288 348 400
#
# _framework density 21.227156999999998
#
# number of rings (size 3 to 8) (size 9 to 14) (size 15 to 20)
#    0.000    0.923    3.077    2.769    6.462    0.000 
#    1.385    3.077    0.000    0.000    0.000    0.000 
#    0.000    0.000    0.000    0.000    0.000    0.000 
#
# Total GULP energy -322539.503296 kJ/mol
# GULP energy per Si atom -12405.365511 kJ/mol
# Density = 2.117884 g / cm^3
# Si number density = 21.227157 Si / 1000 Ang^3
#
#
#
# Elastic Constant Matrix: (Units=GPa)
#
#
# Indices 1 2 3 4 5 6 
#
# 1 116.6294 32.4023 51.1558 0.0000 -13.5650 0.0000
# 2 32.4023 79.5248 29.4700 0.0000 -5.3907 0.0000
# 3 51.1558 29.4700 98.6643 0.0000 -11.3168 0.0000
# 4 0.0000 0.0000 0.0000 8.1289 0.0000 7.2729
# 5 -13.5650 -5.3907 -11.3168 0.0000 37.5248 0.0000
# 6 0.0000 0.0000 0.0000 7.2729 0.0000 37.1410
#
#
#
# Elastic Compliance Matrix: (Units=1/GPa)
#
#
# Indices 1 2 3 4 5 6 
#
# 1 0.011831 -0.002797 -0.005028 0.000000 0.002359 0.000000
# 2 -0.002797 0.014824 -0.002951 0.000000 0.000228 0.000000
# 3 -0.005028 -0.002951 0.013846 0.000000 0.001934 0.000000
# 4 0.000000 0.000000 0.000000 0.149150 0.000000 -0.029207
# 5 0.002359 0.000228 0.001934 0.000000 0.028118 0.000000
# 6 0.000000 0.000000 0.000000 -0.029207 0.000000 0.032644
#
#
# Mechanical properties :
#
#
# Convention : Reuss Voigt Hill
#
# Bulk Modulus (GPa) = 52.77837 57.87495 55.32666
# Shear Modulus (GPa) = 17.96748 28.67829 23.32289
#
# Velocity S-wave (km/s) = 2.91252 3.67961 3.31830
# Velocity P-wave (km/s) = 6.01896 6.73621 6.38766
#
# Compressibility (1/GPa) = 0.01894716
#
# Stress axis : x y z
#
# Youngs Moduli (GPa) = 84.52295 67.46022 72.22477
#
# Poissons Ratio (x) = 0.18871 0.36316
# Poissons Ratio (y) = 0.23644 0.21314
# Poissons Ratio (z) = 0.42499 0.19908
#
# Static dielectric constant tensor:
#      x y z
#    x 4.047510 0.000000 -0.089400 
#    y 0.000000 4.105000 0.000000 
#    z -0.089400 0.000000 3.553890 
# 
# 
# High freq. dielectric constant tensor:
#      x y z
#    x 1.850970 0.000000 0.004800 
#    y 0.000000 1.847000 0.000000 
#    z 0.004800 0.000000 1.824600 
# 
# From -- ./inp_files/51557.got.cif
#   From: 2010.06.25/outbox.cif.g09.slc.cpg/sg13_26_cif.got.tgz:51557.got - 2010.06.28 04:50:58.
