data_PCOD8121279
_publ_section_title
;
Structure prediction by ZEFSAII (Michael W. Deem and Ramdas Pophale) SiO2 
 PCOD8121279
Probable space group: P 2/C
;
_chemical_formula_sum "Si O2"
_cell_formula_units_Z 30
_cell_length_a 12.262170
_cell_length_b 13.596231
_cell_length_c 8.229033
_cell_angle_alpha 90.000000
_cell_angle_beta 73.497524
_cell_angle_gamma 90.000000
_cell_volume 1315.424953
_symmetry_space_group_name_H-M "P 2/C"
_symmetry_group_IT_number 13
_symmetry_cell_setting 'monoclinic'
loop_
_space_group_symop_operation_xyz
x,y,z
-x,y,1/2-z
-x,-y,-z
x,-y,1/2+z
loop_
_atom_site_type_symbol
_atom_site_label
_atom_site_fract_x
_atom_site_fract_y
_atom_site_fract_z
Si Si1 0.500000 0.875009 0.750000
Si Si2 0.117563 0.239412 0.279357
Si Si3 0.502668 0.254196 0.565898
Si Si4 0.285167 0.623076 0.549661
Si Si5 0.250763 0.063249 0.336002
Si Si6 0.887020 0.311343 0.860366
Si Si7 0.130803 0.102997 0.716839
Si Si8 0.684169 0.418987 0.825843
O O1 0.533337 0.813529 0.571859
O O2 0.611408 0.941278 0.738607
O O3 0.167120 0.336973 0.172123
O O4 0.202890 0.146123 0.232246
O O5 0.090479 0.265069 0.475209
O O6 0.000000 0.206009 0.250000
O O7 0.500000 0.204581 0.750000
O O8 0.629807 0.285967 0.472600
O O9 0.427437 0.353455 0.603848
O O10 0.339508 0.532996 0.628594
O O11 0.264585 0.589461 0.375050
O O12 0.213388 0.089462 0.530608
O O13 0.193694 0.957195 0.330831
O O14 0.866412 0.219615 0.743502
O O15 0.780802 0.383994 0.910806
O O16 0.000000 0.368228 0.750000
O O17 0.000000 0.066669 0.750000
#
# Coordination Sequence:
#
# PCOD8121279 Si02
#       8
#     2   4   4   4   4   4   4   4
#     4  12  24  46  72  98 144 178 222 282 338 410
#     4  11  22  40  64  93 130 172 219 273 332 392
#     4  10  23  42  66  98 130 177 228 272 327 396
#     4  11  23  39  61  97 128 172 218 275 328 392
#     4  11  24  42  67 101 130 179 220 273 347 393
#     4  10  22  41  63  92 126 170 216 271 331 389
#     4  10  22  42  68  97 130 170 226 278 328 403
#     4  11  23  39  64  94 130 170 221 268 332 391
#
# _framework density 22.806317
#
# number of rings (size 3 to 8) (size 9 to 14) (size 15 to 20)
#    0.000    1.333    1.333    4.400    1.867    4.267 
#    2.400    2.667    0.000    0.000    0.000    0.000 
#    0.000    0.000    0.000    0.000    0.000    0.000 
#
# Total GULP energy -371916.511317 kJ/mol
# GULP energy per Si atom -12397.217044 kJ/mol
# Density = 2.275441 g / cm^3
# Si number density = 22.806317 Si / 1000 Ang^3
#
#
#
# Elastic Constant Matrix: (Units=GPa)
#
#
# Indices 1 2 3 4 5 6 
#
# 1 121.4135 9.7575 15.9938 0.0000 -14.1078 0.0000
# 2 9.7575 35.4556 10.8339 0.0000 -2.4297 0.0000
# 3 15.9938 10.8339 69.4482 0.0000 -6.4137 0.0000
# 4 0.0000 0.0000 0.0000 10.2721 0.0000 0.6618
# 5 -14.1078 -2.4297 -6.4137 0.0000 38.9081 0.0000
# 6 0.0000 0.0000 0.0000 0.6618 0.0000 28.7709
#
#
#
# Elastic Compliance Matrix: (Units=1/GPa)
#
#
# Indices 1 2 3 4 5 6 
#
# 1 0.008913 -0.001795 -0.001507 0.000000 0.002871 0.000000
# 2 -0.001795 0.030025 -0.004222 0.000000 0.000528 0.000000
# 3 -0.001507 -0.004222 0.015567 0.000000 0.001756 0.000000
# 4 0.000000 0.000000 0.000000 0.097495 0.000000 -0.002243
# 5 0.002871 0.000528 0.001756 0.000000 0.027065 0.000000
# 6 0.000000 0.000000 0.000000 -0.002243 0.000000 0.034809
#
#
# Mechanical properties :
#
#
# Convention : Reuss Voigt Hill
#
# Bulk Modulus (GPa) = 25.34495 33.27642 29.31068
# Shear Modulus (GPa) = 20.65479 28.23902 24.44690
#
# Velocity S-wave (km/s) = 3.01268 3.52264 3.27759
# Velocity P-wave (km/s) = 4.82068 5.58282 5.21569
#
# Compressibility (1/GPa) = 0.03945559
#
# Stress axis : x y z
#
# Youngs Moduli (GPa) = 112.19832 33.30613 64.23804
#
# Poissons Ratio (x) = 0.05980 0.09683
# Poissons Ratio (y) = 0.20145 0.27118
# Poissons Ratio (z) = 0.16912 0.14060
#
# Static dielectric constant tensor:
#      x y z
#    x 4.049940 0.000000 0.014760 
#    y 0.000000 4.188590 0.000000 
#    z 0.014760 0.000000 4.154890 
# 
# 
# High freq. dielectric constant tensor:
#      x y z
#    x 1.902790 0.000000 -0.009010 
#    y 0.000000 1.881190 0.000000 
#    z -0.009010 0.000000 1.908220 
# 
# From -- ./inp_files/16746.got.cif
#   From: 2010.06.25/outbox.cif.g09.slc.cpg/sg13_9_cif.got.tgz:16746.got - 2010.06.28 04:50:58.
