data_PCOD8121349
_publ_section_title
;
Structure prediction by ZEFSAII (Michael W. Deem and Ramdas Pophale) SiO2 
 PCOD8121349
Probable space group: P 2/C
;
_chemical_formula_sum "Si O2"
_cell_formula_units_Z 28
_cell_length_a 22.125244
_cell_length_b 8.529405
_cell_length_c 9.858734
_cell_angle_alpha 90.000000
_cell_angle_beta 47.013870
_cell_angle_gamma 90.000000
_cell_volume 1360.985293
_symmetry_space_group_name_H-M "P 2/C"
_symmetry_group_IT_number 13
_symmetry_cell_setting 'monoclinic'
loop_
_space_group_symop_operation_xyz
x,y,z
-x,y,1/2-z
-x,-y,-z
x,-y,1/2+z
loop_
_atom_site_type_symbol
_atom_site_label
_atom_site_fract_x
_atom_site_fract_y
_atom_site_fract_z
Si Si1 0.912737 0.844457 0.219914
Si Si2 0.740280 0.321294 0.360913
Si Si3 0.321529 0.188887 0.764045
Si Si4 0.900927 0.137987 0.049366
Si Si5 0.763016 0.314907 0.848081
Si Si6 0.351454 0.823139 0.747253
Si Si7 0.511259 0.348973 0.075703
O O1 0.891921 0.901852 0.403954
O O2 0.856341 0.696931 0.263403
O O3 0.887850 0.982985 0.156735
O O4 0.007907 0.792411 0.059986
O O5 0.703819 0.264017 0.556758
O O6 0.833786 0.265008 0.195326
O O7 0.739974 0.507243 0.355499
O O8 0.677689 0.259442 0.344699
O O9 0.245336 0.214913 0.777496
O O10 0.398539 0.279085 0.582224
O O11 0.341436 0.007918 0.750677
O O12 0.701740 0.239695 0.048624
O O13 0.446747 0.784293 0.628893
O O14 0.500000 0.396872 0.250000
O O15 0.500000 0.500000 0.000000
#
# Coordination Sequence:
#
# PCOD8121349 Si02
#       7
#     4   4   4   4   4   4   4
#     4  10  22  41  68  96 136 173 225 273 331 398
#     4  12  26  42  70  99 135 174 220 276 341 389
#     4  12  27  45  71  99 131 178 223 274 329 396
#     4  10  22  42  66  99 132 178 220 276 331 397
#     4  12  24  44  66 101 133 174 220 279 333 398
#     4  12  25  47  70  96 134 174 228 272 325 400
#     4  12  27  47  71 102 138 174 219 278 337 391
#
# _framework density 20.573332000000001
#
# number of rings (size 3 to 8) (size 9 to 14) (size 15 to 20)
#    0.000    0.571    2.857    5.571    4.000    0.571 
#    0.000    0.000    0.000    0.000    0.000    0.000 
#    0.000    0.000    0.000    0.000    0.000    0.000 
#
# Total GULP energy -347329.628613 kJ/mol
# GULP energy per Si atom -12404.629593 kJ/mol
# Density = 2.052651 g / cm^3
# Si number density = 20.573332 Si / 1000 Ang^3
#
#
#
# Elastic Constant Matrix: (Units=GPa)
#
#
# Indices 1 2 3 4 5 6 
#
# 1 119.0245 58.0991 33.3356 0.0000 9.7955 0.0000
# 2 58.0991 137.9074 53.1937 0.0000 19.6742 0.0000
# 3 33.3356 53.1937 107.2660 0.0000 7.1902 0.0000
# 4 0.0000 0.0000 0.0000 29.6308 0.0000 2.9458
# 5 9.7955 19.6742 7.1902 0.0000 42.9733 0.0000
# 6 0.0000 0.0000 0.0000 2.9458 0.0000 40.3767
#
#
#
# Elastic Compliance Matrix: (Units=1/GPa)
#
#
# Indices 1 2 3 4 5 6 
#
# 1 0.010740 -0.003943 -0.001355 0.000000 -0.000416 0.000000
# 2 -0.003943 0.010933 -0.003966 0.000000 -0.003443 0.000000
# 3 -0.001355 -0.003966 0.011699 0.000000 0.000167 0.000000
# 4 0.000000 0.000000 0.000000 0.033995 0.000000 -0.002480
# 5 -0.000416 -0.003443 0.000167 0.000000 0.024914 0.000000
# 6 0.000000 0.000000 0.000000 -0.002480 0.000000 0.024948
#
#
# Mechanical properties :
#
#
# Convention : Reuss Voigt Hill
#
# Bulk Modulus (GPa) = 67.35801 72.60606 69.98204
# Shear Modulus (GPa) = 35.53581 37.23413 36.38497
#
# Velocity S-wave (km/s) = 4.16056 4.25882 4.20998
# Velocity P-wave (km/s) = 7.47609 7.71695 7.59747
#
# Compressibility (1/GPa) = 0.01484604
#
# Stress axis : x y z
#
# Youngs Moduli (GPa) = 93.11153 91.46511 85.47745
#
# Poissons Ratio (x) = 0.36062 0.11578
# Poissons Ratio (y) = 0.36711 0.33898
# Poissons Ratio (z) = 0.12612 0.36272
#
# Static dielectric constant tensor:
#      x y z
#    x 18.899480 0.000000 -7.896310 
#    y 0.000000 3.503820 0.000000 
#    z -7.896310 0.000000 8.241110 
# 
# 
# High freq. dielectric constant tensor:
#      x y z
#    x 1.831240 0.000000 0.004360 
#    y 0.000000 1.798880 0.000000 
#    z 0.004360 0.000000 1.820800 
# 
# From -- ./inp_files/22961.got.cif
#   From: 2010.06.25/outbox.cif.g09.slc.cpg/sg13_12_cif.got.tgz:22961.got - 2010.06.28 04:50:58.
