data_PCOD8121139
_publ_section_title
;
Structure prediction by ZEFSAII (Michael W. Deem and Ramdas Pophale) SiO2 
 PCOD8121139
Probable space group: P 2/C
;
_chemical_formula_sum "Si O2"
_cell_formula_units_Z 32
_cell_length_a 21.856252
_cell_length_b 10.953055
_cell_length_c 9.943607
_cell_angle_alpha 90.000000
_cell_angle_beta 133.126080
_cell_angle_gamma 90.000000
_cell_volume 1737.357638
_symmetry_space_group_name_H-M "P 2/C"
_symmetry_group_IT_number 13
_symmetry_cell_setting 'monoclinic'
loop_
_space_group_symop_operation_xyz
x,y,z
-x,y,1/2-z
-x,-y,-z
x,-y,1/2+z
loop_
_atom_site_type_symbol
_atom_site_label
_atom_site_fract_x
_atom_site_fract_y
_atom_site_fract_z
Si Si1 0.559101 0.250130 0.721878
Si Si2 0.447395 0.689396 0.800388
Si Si3 0.198717 0.639818 0.315548
Si Si4 0.704415 0.094825 0.823096
Si Si5 0.692676 0.868708 0.989630
Si Si6 0.188423 0.321815 0.507644
Si Si7 0.058750 0.492009 0.214031
Si Si8 0.668029 0.528134 0.391687
O O1 0.500000 0.195973 0.750000
O O2 0.508473 0.288109 0.514873
O O3 0.621551 0.144839 0.770275
O O4 0.607112 0.367010 0.859114
O O5 0.500000 0.645203 0.750000
O O6 0.397581 0.812643 0.685025
O O7 0.386560 0.579864 0.756830
O O8 0.237456 0.765636 0.423790
O O9 0.153698 0.658543 0.105408
O O10 0.128184 0.599299 0.315968
O O11 0.271390 0.535896 0.407407
O O12 0.691230 0.081155 0.641754
O O13 0.784430 0.181696 0.975777
O O14 0.720870 0.967315 0.921322
O O15 0.111409 0.363700 0.296259
O O16 0.272264 0.404758 0.626322
O O17 0.000000 0.514730 0.250000
O O18 0.000000 0.500000 0.000000
#
# Coordination Sequence:
#
# PCOD8121139 Si02
#       8
#     4   4   4   4   4   4   4   4
#     4  11  23  34  50  80 107 140 187 238 284 328
#     4  11  21  36  52  75 107 145 183 236 292 326
#     4   9  19  37  57  83 114 146 179 215 267 330
#     4  10  22  41  57  75 105 147 193 232 272 314
#     4  10  22  40  59  75 103 148 192 233 271 315
#     4   9  19  37  57  83 114 146 179 215 268 329
#     4  11  20  36  62  93 120 143 166 207 267 328
#     4   9  20  32  54  77 109 146 183 223 277 340
#
# _framework density 18.418775
#
# number of rings (size 3 to 8) (size 9 to 14) (size 15 to 20)
#    0.000    2.000    2.500    0.750    5.250    1.000 
#    2.250    0.000    0.000    1.500    0.000    0.000 
#    0.000    0.000    0.000    0.000    0.000    0.000 
#
# Total GULP energy -396558.018852 kJ/mol
# GULP energy per Si atom -12392.438089 kJ/mol
# Density = 1.837685 g / cm^3
# Si number density = 18.418775 Si / 1000 Ang^3
#
#
#
# Elastic Constant Matrix: (Units=GPa)
#
#
# Indices 1 2 3 4 5 6 
#
# 1 95.9688 33.1578 33.3027 0.0000 0.1985 0.0000
# 2 33.1578 98.2003 35.7003 0.0000 1.5782 0.0000
# 3 33.3027 35.7003 88.2431 0.0000 8.1940 0.0000
# 4 0.0000 0.0000 0.0000 20.4017 0.0000 -2.2302
# 5 0.1985 1.5782 8.1940 0.0000 24.8844 0.0000
# 6 0.0000 0.0000 0.0000 -2.2302 0.0000 19.7386
#
#
#
# Elastic Compliance Matrix: (Units=1/GPa)
#
#
# Indices 1 2 3 4 5 6 
#
# 1 0.012736 -0.002966 -0.003729 0.000000 0.001314 0.000000
# 2 -0.002966 0.012648 -0.004049 0.000000 0.000555 0.000000
# 3 -0.003729 -0.004049 0.014804 0.000000 -0.004588 0.000000
# 4 0.000000 0.000000 0.000000 0.049629 0.000000 0.005607
# 5 0.001314 0.000555 -0.004588 0.000000 0.041651 0.000000
# 6 0.000000 0.000000 0.000000 0.005607 0.000000 0.051296
#
#
# Mechanical properties :
#
#
# Convention : Reuss Voigt Hill
#
# Bulk Modulus (GPa) = 53.47551 54.08153 53.77852
# Shear Modulus (GPa) = 23.75485 25.02169 24.38827
#
# Velocity S-wave (km/s) = 3.59515 3.68977 3.64276
# Velocity P-wave (km/s) = 6.80659 6.89771 6.85230
#
# Compressibility (1/GPa) = 0.01870015
#
# Stress axis : x y z
#
# Youngs Moduli (GPa) = 78.51764 79.06481 67.55084
#
# Poissons Ratio (x) = 0.23450 0.25187
# Poissons Ratio (y) = 0.23288 0.27352
# Poissons Ratio (z) = 0.29276 0.32014
#
# Static dielectric constant tensor:
#      x y z
#    x 3.575500 0.000000 0.037530 
#    y 0.000000 3.356560 0.000000 
#    z 0.037530 0.000000 3.428800 
# 
# 
# High freq. dielectric constant tensor:
#      x y z
#    x 1.711190 0.000000 0.002470 
#    y 0.000000 1.701790 0.000000 
#    z 0.002470 0.000000 1.710360 
# 
# From -- ./inp_files/23370.got.cif
#   From: 2010.06.25/outbox.cif.g09.slc.cpg/sg13_12_cif.got.tgz:23370.got - 2010.06.28 04:50:58.
