data_PCOD8121752
_publ_section_title
;
Structure prediction by ZEFSAII (Michael W. Deem and Ramdas Pophale) SiO2 
 PCOD8121752
Probable space group: P 2/C
;
_chemical_formula_sum "Si O2"
_cell_formula_units_Z 24
_cell_length_a 10.509772
_cell_length_b 17.372770
_cell_length_c 7.599791
_cell_angle_alpha 90.000000
_cell_angle_beta 128.856716
_cell_angle_gamma 90.000000
_cell_volume 1080.547463
_symmetry_space_group_name_H-M "P 2/C"
_symmetry_group_IT_number 13
_symmetry_cell_setting 'monoclinic'
loop_
_space_group_symop_operation_xyz
x,y,z
-x,y,1/2-z
-x,-y,-z
x,-y,1/2+z
loop_
_atom_site_type_symbol
_atom_site_label
_atom_site_fract_x
_atom_site_fract_y
_atom_site_fract_z
Si Si1 0.192573 0.093377 0.924814
Si Si2 0.375232 0.044238 0.770883
Si Si3 0.690797 0.476641 0.912840
Si Si4 0.875489 0.637366 0.802382
Si Si5 0.308675 0.255476 0.118142
Si Si6 0.825243 0.386744 0.705731
O O1 0.262788 0.101401 0.786524
O O2 0.000000 0.089123 0.750000
O O3 0.251024 0.167632 0.081877
O O4 0.257987 0.015674 0.069192
O O5 0.500000 0.090822 0.750000
O O6 0.500000 0.000000 0.000000
O O7 0.500000 0.492355 0.750000
O O8 0.722521 0.422267 0.775569
O O9 0.760942 0.434082 0.148433
O O10 0.783553 0.559144 0.998116
O O11 0.754385 0.706906 0.752423
O O12 0.000000 0.659837 0.750000
O O13 0.984105 0.615831 0.071506
O O14 0.500000 0.260235 0.250000
O O15 0.229341 0.299720 0.882984
#
# Coordination Sequence:
#
# PCOD8121752 Si02
#       6
#     4   4   4   4   4   4
#     4  11  22  40  65  95 126 161 200 247 299 357
#     4   9  19  39  64  93 124 159 199 240 290 354
#     4  11  21  37  59  88 120 160 207 256 305 363
#     4  10  23  41  61  88 120 158 206 257 306 359
#     4  12  24  42  63  89 123 162 201 250 306 362
#     4  11  22  37  59  87 120 160 204 254 306 361
#
# _framework density 22.210963
#
# number of rings (size 3 to 8) (size 9 to 14) (size 15 to 20)
#    0.000    1.333    0.000    7.000    0.000    2.667 
#    0.000   16.667    0.000    0.000    0.000    0.000 
#    0.000    0.000    0.000    0.000    0.000    0.000 
#
# Total GULP energy -297467.541016 kJ/mol
# GULP energy per Si atom -12394.480876 kJ/mol
# Density = 2.216041 g / cm^3
# Si number density = 22.210963 Si / 1000 Ang^3
#
#
#
# Elastic Constant Matrix: (Units=GPa)
#
#
# Indices 1 2 3 4 5 6 
#
# 1 133.8534 23.6988 50.1798 0.0000 41.5336 0.0000
# 2 23.6988 76.1215 13.0976 0.0000 17.1281 0.0000
# 3 50.1798 13.0976 115.0041 0.0000 25.5049 0.0000
# 4 0.0000 0.0000 0.0000 18.5957 0.0000 -8.9237
# 5 41.5336 17.1281 25.5049 0.0000 43.7255 0.0000
# 6 0.0000 0.0000 0.0000 -8.9237 0.0000 23.9605
#
#
#
# Elastic Compliance Matrix: (Units=1/GPa)
#
#
# Indices 1 2 3 4 5 6 
#
# 1 0.011489 -0.001098 -0.002944 0.000000 -0.008766 0.000000
# 2 -0.001098 0.014532 -0.000166 0.000000 -0.004552 0.000000
# 3 -0.002944 -0.000166 0.010756 0.000000 -0.003412 0.000000
# 4 0.000000 0.000000 0.000000 0.065478 0.000000 0.024386
# 5 -0.008766 -0.004552 -0.003412 0.000000 0.034970 0.000000
# 6 0.000000 0.000000 0.000000 0.024386 0.000000 0.050818
#
#
# Mechanical properties :
#
#
# Convention : Reuss Voigt Hill
#
# Bulk Modulus (GPa) = 35.26120 55.43684 45.34902
# Shear Modulus (GPa) = 24.28231 33.12320 28.70276
#
# Velocity S-wave (km/s) = 3.31003 3.86592 3.59873
# Velocity P-wave (km/s) = 5.52435 6.70377 6.14244
#
# Compressibility (1/GPa) = 0.02835978
#
# Stress axis : x y z
#
# Youngs Moduli (GPa) = 87.04155 68.81524 92.97549
#
# Poissons Ratio (x) = 0.07555 0.27371
# Poissons Ratio (y) = 0.09556 0.01546
# Poissons Ratio (z) = 0.25624 0.01145
#
# Static dielectric constant tensor:
#      x y z
#    x 4.978140 0.000000 -0.358320 
#    y 0.000000 3.589040 0.000000 
#    z -0.358320 0.000000 4.488200 
# 
# 
# High freq. dielectric constant tensor:
#      x y z
#    x 1.914500 0.000000 0.003880 
#    y 0.000000 1.845090 0.000000 
#    z 0.003880 0.000000 1.886270 
# 
# From -- ./inp_files/17246.got.cif
#   From: 2010.06.25/outbox.cif.g09.slc.cpg/sg13_9_cif.got.tgz:17246.got - 2010.06.28 04:50:58.
