data_PCOD8121072
_publ_section_title
;
Structure prediction by ZEFSAII (Michael W. Deem and Ramdas Pophale) SiO2 
 PCOD8121072
Probable space group: P 2/C
;
_chemical_formula_sum "Si O2"
_cell_formula_units_Z 18
_cell_length_a 14.170751
_cell_length_b 10.447900
_cell_length_c 12.058247
_cell_angle_alpha 90.000000
_cell_angle_beta 31.685936
_cell_angle_gamma 90.000000
_cell_volume 937.740532
_symmetry_space_group_name_H-M "P 2/C"
_symmetry_group_IT_number 13
_symmetry_cell_setting 'monoclinic'
loop_
_space_group_symop_operation_xyz
x,y,z
-x,y,1/2-z
-x,-y,-z
x,-y,1/2+z
loop_
_atom_site_type_symbol
_atom_site_label
_atom_site_fract_x
_atom_site_fract_y
_atom_site_fract_z
Si Si1 0.000000 0.520599 0.250000
Si Si2 0.708055 0.145506 0.809262
Si Si3 0.708019 0.854470 0.774690
Si Si4 0.999986 0.275480 0.127157
Si Si5 0.294616 0.267715 0.455378
O O1 0.000010 0.430260 0.140355
O O2 0.822198 0.605080 0.427790
O O3 0.820910 0.236299 0.616386
O O4 0.769614 0.999984 0.730396
O O5 0.500026 0.164528 0.986248
O O6 0.749565 0.180928 0.894444
O O7 0.820831 0.763668 0.741913
O O8 0.749568 0.819039 0.606452
O O9 0.000000 0.211244 0.250000
O O10 0.500000 0.313690 0.250000
#
# Coordination Sequence:
#
# PCOD8121072 Si02
#       5
#     2   4   4   4   4
#     4  10  24  40  58  84 126 158 200 248 278 352
#     4  10  22  40  64  90 120 153 194 249 301 353
#     4  10  22  40  64  90 120 153 194 249 301 353
#     4  10  24  39  58  88 118 160 199 235 291 350
#     4  10  22  39  61  89 117 156 201 246 298 346
#
# _framework density 19.195074999999999
#
# number of rings (size 3 to 8) (size 9 to 14) (size 15 to 20)
#    0.667    1.333    0.000    2.000    3.111    6.222 
#    0.000    4.444    0.000    0.000    0.000    0.000 
#    0.000    0.000    0.000    0.000    0.000    0.000 
#
# Total GULP energy -223221.460128 kJ/mol
# GULP energy per Si atom -12401.192229 kJ/mol
# Density = 1.915139 g / cm^3
# Si number density = 19.195075 Si / 1000 Ang^3
#
#
#
# Elastic Constant Matrix: (Units=GPa)
#
#
# Indices 1 2 3 4 5 6 
#
# 1 145.6763 76.0715 71.7161 0.0000 10.4536 0.0000
# 2 76.0715 166.5741 76.3069 0.0000 -0.3487 0.0000
# 3 71.7161 76.3069 127.9066 0.0000 10.9726 0.0000
# 4 0.0000 0.0000 0.0000 35.0436 0.0000 2.9210
# 5 10.4536 -0.3487 10.9726 0.0000 32.0078 0.0000
# 6 0.0000 0.0000 0.0000 2.9210 0.0000 37.4445
#
#
#
# Elastic Compliance Matrix: (Units=1/GPa)
#
#
# Indices 1 2 3 4 5 6 
#
# 1 0.010520 -0.003014 -0.003918 0.000000 -0.002125 0.000000
# 2 -0.003014 0.009230 -0.004028 0.000000 0.002466 0.000000
# 3 -0.003918 -0.004028 0.012685 0.000000 -0.003113 0.000000
# 4 0.000000 0.000000 0.000000 0.028723 0.000000 -0.002241
# 5 -0.002125 0.002466 -0.003113 0.000000 0.033031 0.000000
# 6 0.000000 0.000000 0.000000 -0.002241 0.000000 0.026881
#
#
# Mechanical properties :
#
#
# Convention : Reuss Voigt Hill
#
# Bulk Modulus (GPa) = 95.10262 98.70512 96.90387
# Shear Modulus (GPa) = 34.13101 35.30334 34.71717
#
# Velocity S-wave (km/s) = 4.22134 4.29323 4.25744
# Velocity P-wave (km/s) = 8.56811 8.72407 8.64644
#
# Compressibility (1/GPa) = 0.01051496
#
# Stress axis : x y z
#
# Youngs Moduli (GPa) = 95.06029 108.34011 78.83174
#
# Poissons Ratio (x) = 0.32651 0.30886
# Poissons Ratio (y) = 0.28649 0.31756
# Poissons Ratio (z) = 0.37244 0.43643
#
# Static dielectric constant tensor:
#      x y z
#    x 3.608150 0.000000 0.040440 
#    y 0.000000 3.411610 0.000000 
#    z 0.040440 0.000000 3.574520 
# 
# 
# High freq. dielectric constant tensor:
#      x y z
#    x 1.756660 0.000000 -0.002230 
#    y 0.000000 1.742960 0.000000 
#    z -0.002230 0.000000 1.758470 
# 
# From -- ./inp_files/27821.got.cif
#   From: 2010.06.25/outbox.cif.g09.slc.cpg/sg13_14_cif.got.tgz:27821.got - 2010.06.28 04:50:58.
