data_PCOD8121323
_publ_section_title
;
Structure prediction by ZEFSAII (Michael W. Deem and Ramdas Pophale) SiO2 
 PCOD8121323
Probable space group: P 2/C
;
_chemical_formula_sum "Si O2"
_cell_formula_units_Z 16
_cell_length_a 7.485171
_cell_length_b 6.959623
_cell_length_c 24.570203
_cell_angle_alpha 90.000000
_cell_angle_beta 147.757755
_cell_angle_gamma 90.000000
_cell_volume 682.858380
_symmetry_space_group_name_H-M "P 2/C"
_symmetry_group_IT_number 13
_symmetry_cell_setting 'monoclinic'
loop_
_space_group_symop_operation_xyz
x,y,z
-x,y,1/2-z
-x,-y,-z
x,-y,1/2+z
loop_
_atom_site_type_symbol
_atom_site_label
_atom_site_fract_x
_atom_site_fract_y
_atom_site_fract_z
Si Si1 0.278114 0.166269 0.246707
Si Si2 0.351093 0.890783 0.083741
Si Si3 0.725127 0.321763 0.038742
Si Si4 0.356003 0.529445 0.157060
O O1 0.500000 0.119146 0.250000
O O2 0.383456 0.372129 0.298854
O O3 0.884925 0.193343 0.129250
O O4 0.340182 0.005898 0.308970
O O5 0.294819 0.691091 0.098434
O O6 0.450763 0.834660 0.047085
O O7 0.000000 0.000000 0.000000
O O8 0.014611 0.417577 0.078421
O O9 0.500000 0.500000 0.000000
O O10 0.500000 0.620868 0.250000
#
# Coordination Sequence:
#
# PCOD8121323 Si02
#       4
#     4   4   4   4
#     4   9  19  38  63  99 126 169 237 279 320 424
#     4  12  20  35  74  96 121 178 239 275 331 418
#     4  10  22  41  65  97 143 177 214 293 363 395
#     4   9  20  37  65  91 131 173 225 277 333 412
#
# _framework density 23.430921000000001
#
# number of rings (size 3 to 8) (size 9 to 14) (size 15 to 20)
#    0.000    2.500    5.000    1.500    0.000    0.000 
#    0.000    6.250   11.000    0.000    0.000    1.750 
#    0.000    0.000    0.000    0.000    0.000    0.000 
#
# Total GULP energy -198210.407536 kJ/mol
# GULP energy per Si atom -12388.150471 kJ/mol
# Density = 2.337759 g / cm^3
# Si number density = 23.430921 Si / 1000 Ang^3
#
#
#
# Elastic Constant Matrix: (Units=GPa)
#
#
# Indices 1 2 3 4 5 6 
#
# 1 41.0101 34.8618 43.8001 0.0000 -15.3860 0.0000
# 2 34.8618 119.4150 80.0368 0.0000 -31.6489 0.0000
# 3 43.8001 80.0368 164.0645 0.0000 -27.3765 0.0000
# 4 0.0000 0.0000 0.0000 65.1385 0.0000 -17.0329
# 5 -15.3860 -31.6489 -27.3765 0.0000 20.7968 0.0000
# 6 0.0000 0.0000 0.0000 -17.0329 0.0000 42.8317
#
#
#
# Elastic Compliance Matrix: (Units=1/GPa)
#
#
# Indices 1 2 3 4 5 6 
#
# 1 0.040041 -0.002942 -0.006483 0.000000 0.016614 0.000000
# 2 -0.002942 0.016953 -0.004540 0.000000 0.017646 0.000000
# 3 -0.006483 -0.004540 0.010364 0.000000 0.001937 0.000000
# 4 0.000000 0.000000 0.000000 0.017134 0.000000 0.006814
# 5 0.016614 0.017646 0.001937 0.000000 0.089780 0.000000
# 6 0.000000 0.000000 0.000000 0.006814 0.000000 0.026057
#
#
# Mechanical properties :
#
#
# Convention : Reuss Voigt Hill
#
# Bulk Modulus (GPa) = 25.36195 71.32077 48.34136
# Shear Modulus (GPa) = 20.71244 36.80613 28.75929
#
# Velocity S-wave (km/s) = 2.97640 3.96768 3.50724
# Velocity P-wave (km/s) = 4.76021 7.17599 6.08910
#
# Compressibility (1/GPa) = 0.03942914
#
# Stress axis : x y z
#
# Youngs Moduli (GPa) = 24.97411 58.98706 96.48700
#
# Poissons Ratio (x) = 0.17352 0.62548
# Poissons Ratio (y) = 0.07346 0.43809
# Poissons Ratio (z) = 0.16190 0.26783
#
# Static dielectric constant tensor:
#      x y z
#    x 5.019370 0.000000 -0.330040 
#    y 0.000000 4.450930 0.000000 
#    z -0.330040 0.000000 5.026960 
# 
# 
# High freq. dielectric constant tensor:
#      x y z
#    x 1.877100 0.000000 -0.020690 
#    y 0.000000 1.933570 0.000000 
#    z -0.020690 0.000000 1.949020 
# 
# From -- ./inp_files/90937.got.cif
#   From: 2010.06.25/outbox.cif.g09.slc.cpg/sg13_46_cif.got.tgz:90937.got - 2010.06.28 04:50:58.
