data_PCOD8121047
_publ_section_title
;
Structure prediction by ZEFSAII (Michael W. Deem and Ramdas Pophale) SiO2 
 PCOD8121047
Probable space group: P 2/C
;
_chemical_formula_sum "Si O2"
_cell_formula_units_Z 28
_cell_length_a 15.427832
_cell_length_b 9.017471
_cell_length_c 20.075471
_cell_angle_alpha 90.000000
_cell_angle_beta 152.781295
_cell_angle_gamma 90.000000
_cell_volume 1277.439722
_symmetry_space_group_name_H-M "P 2/C"
_symmetry_group_IT_number 13
_symmetry_cell_setting 'monoclinic'
loop_
_space_group_symop_operation_xyz
x,y,z
-x,y,1/2-z
-x,-y,-z
x,-y,1/2+z
loop_
_atom_site_type_symbol
_atom_site_label
_atom_site_fract_x
_atom_site_fract_y
_atom_site_fract_z
Si Si1 0.886027 0.219050 0.760190
Si Si2 0.369240 0.345412 0.222342
Si Si3 0.301497 0.280763 0.449436
Si Si4 0.505444 0.341688 0.041505
Si Si5 0.625710 0.317089 0.775901
Si Si6 0.980344 0.170820 0.970505
Si Si7 0.000000 0.960043 0.750000
Si Si8 0.000000 0.532093 0.250000
O O1 0.680557 0.243487 0.589965
O O2 0.873317 0.207907 0.829655
O O3 0.011021 0.361174 0.822543
O O4 0.970294 0.063381 0.793395
O O5 0.500000 0.283274 0.250000
O O6 0.465803 0.349324 0.360436
O O7 0.317083 0.513568 0.170078
O O8 0.185130 0.245123 0.106919
O O9 0.333626 0.256034 0.391630
O O10 0.503663 0.292183 0.625047
O O11 0.179718 0.142005 0.391429
O O12 0.189549 0.434840 0.383844
O O13 0.500000 0.500000 0.000000
O O14 0.500000 0.252842 0.750000
O O15 0.829834 0.236966 0.919897
O O16 0.000000 0.000000 0.000000
#
# Coordination Sequence:
#
# PCOD8121047 Si02
#       8
#     4   4   4   4   4   4   2   2
#     4  11  24  45  69 101 141 182 238 286 353 425
#     4  11  27  47  73 107 139 182 236 299 363 414
#     4  11  23  44  70 105 133 177 239 294 355 409
#     4  12  22  44  75 104 133 179 241 298 344 418
#     4  11  25  45  71  97 140 184 237 294 353 416
#     4  12  29  46  66 103 146 193 230 286 362 430
#     4  10  28  40  68 100 142 182 226 298 356 422
#     4  10  22  38  76 102 132 168 234 302 340 410
#
# _framework density 21.918842000000001
#
# number of rings (size 3 to 8) (size 9 to 14) (size 15 to 20)
#    0.000    0.857    4.286    0.429   12.000    3.429 
#    0.000    0.000    0.000    0.000    0.000    0.000 
#    0.000    0.000    0.000    0.000    0.000    0.000 
#
# Total GULP energy -347037.855009 kJ/mol
# GULP energy per Si atom -12394.209107 kJ/mol
# Density = 2.186895 g / cm^3
# Si number density = 21.918842 Si / 1000 Ang^3
#
#
#
# Elastic Constant Matrix: (Units=GPa)
#
#
# Indices 1 2 3 4 5 6 
#
# 1 164.7768 56.1077 60.5392 0.0000 15.2361 0.0000
# 2 56.1077 134.5922 54.6786 0.0000 21.1283 0.0000
# 3 60.5392 54.6786 106.9155 0.0000 18.8012 0.0000
# 4 0.0000 0.0000 0.0000 24.1578 0.0000 8.0514
# 5 15.2361 21.1283 18.8012 0.0000 45.5593 0.0000
# 6 0.0000 0.0000 0.0000 8.0514 0.0000 16.4853
#
#
#
# Elastic Compliance Matrix: (Units=1/GPa)
#
#
# Indices 1 2 3 4 5 6 
#
# 1 0.008033 -0.001855 -0.003536 0.000000 -0.000367 0.000000
# 2 -0.001855 0.010091 -0.003662 0.000000 -0.002548 0.000000
# 3 -0.003536 -0.003662 0.013717 0.000000 -0.002780 0.000000
# 4 0.000000 0.000000 0.000000 0.049442 0.000000 -0.024148
# 5 -0.000367 -0.002548 -0.002780 0.000000 0.024401 0.000000
# 6 0.000000 0.000000 0.000000 -0.024148 0.000000 0.072454
#
#
# Mechanical properties :
#
#
# Convention : Reuss Voigt Hill
#
# Bulk Modulus (GPa) = 72.80283 83.21505 78.00894
# Shear Modulus (GPa) = 24.89760 32.90443 28.90102
#
# Velocity S-wave (km/s) = 3.37397 3.87873 3.63512
# Velocity P-wave (km/s) = 6.96168 7.62279 7.29972
#
# Compressibility (1/GPa) = 0.01373573
#
# Stress axis : x y z
#
# Youngs Moduli (GPa) = 124.48128 99.09903 72.90261
#
# Poissons Ratio (x) = 0.18382 0.25775
# Poissons Ratio (y) = 0.23090 0.26699
# Poissons Ratio (z) = 0.44011 0.36293
#
# Static dielectric constant tensor:
#      x y z
#    x 4.586540 0.000000 0.188100 
#    y 0.000000 3.970440 0.000000 
#    z 0.188100 0.000000 3.732630 
# 
# 
# High freq. dielectric constant tensor:
#      x y z
#    x 1.886380 0.000000 0.016570 
#    y 0.000000 1.858760 0.000000 
#    z 0.016570 0.000000 1.853300 
# 
# From -- ./inp_files/80039.got.cif
#   From: 2010.06.25/outbox.cif.g09.slc.cpg/sg13_41_cif.got.tgz:80039.got - 2010.06.28 04:50:58.
