data_PCOD8121502
_publ_section_title
;
Structure prediction by ZEFSAII (Michael W. Deem and Ramdas Pophale) SiO2 
 PCOD8121502
Probable space group: P 2/C
;
_chemical_formula_sum "Si O2"
_cell_formula_units_Z 26
_cell_length_a 11.540113
_cell_length_b 8.407941
_cell_length_c 15.112445
_cell_angle_alpha 90.000000
_cell_angle_beta 126.856088
_cell_angle_gamma 90.000000
_cell_volume 1173.283394
_symmetry_space_group_name_H-M "P 2/C"
_symmetry_group_IT_number 13
_symmetry_cell_setting 'monoclinic'
loop_
_space_group_symop_operation_xyz
x,y,z
-x,y,1/2-z
-x,-y,-z
x,-y,1/2+z
loop_
_atom_site_type_symbol
_atom_site_label
_atom_site_fract_x
_atom_site_fract_y
_atom_site_fract_z
Si Si1 0.000000 0.463707 0.250000
Si Si2 0.342235 0.826259 0.148796
Si Si3 0.691360 0.801753 0.894352
Si Si4 0.151992 0.863862 0.364008
Si Si5 0.230877 0.776261 0.911470
Si Si6 0.758944 0.652159 0.235774
Si Si7 0.386348 0.333899 0.314721
O O1 0.107093 0.355599 0.356063
O O2 0.089774 0.565234 0.219204
O O3 0.500000 0.770277 0.250000
O O4 0.228565 0.748179 0.165973
O O5 0.333550 0.015773 0.142784
O O6 0.317538 0.752902 0.041382
O O7 0.723178 0.710946 0.816902
O O8 0.548734 0.719948 0.869716
O O9 0.822461 0.789693 0.025647
O O10 0.273365 0.784048 0.355685
O O11 0.000000 0.814413 0.250000
O O12 0.159544 0.051481 0.373286
O O13 0.339679 0.760581 0.880089
O O14 0.628257 0.523611 0.177324
#
# Coordination Sequence:
#
# PCOD8121502 Si02
#       7
#     2   4   4   4   4   4   4
#     4  10  22  48  62  98 136 186 214 270 338 402
#     4  11  24  42  67 104 130 174 225 284 324 400
#     4  10  23  44  68  95 137 172 226 270 338 392
#     4  11  23  43  67  98 127 176 226 276 315 401
#     4  10  23  43  71  92 135 178 226 271 333 393
#     4  11  25  42  68  99 143 167 226 273 338 397
#     4  10  22  43  65  98 133 178 209 278 340 399
#
# _framework density 22.160032999999999
#
# number of rings (size 3 to 8) (size 9 to 14) (size 15 to 20)
#    0.000    1.538    3.077    0.923    4.308    4.923 
#    5.538    2.308    0.000    0.000    0.000    0.000 
#    0.000    0.000    0.000    0.000    0.000    0.000 
#
# Total GULP energy -322243.679961 kJ/mol
# GULP energy per Si atom -12393.987691 kJ/mol
# Density = 2.210960 g / cm^3
# Si number density = 22.160033 Si / 1000 Ang^3
#
#
#
# Elastic Constant Matrix: (Units=GPa)
#
#
# Indices 1 2 3 4 5 6 
#
# 1 102.6030 61.3830 55.9063 0.0000 -17.0629 0.0000
# 2 61.3830 103.3748 46.2144 0.0000 -1.1760 0.0000
# 3 55.9063 46.2144 181.4529 0.0000 -14.3173 0.0000
# 4 0.0000 0.0000 0.0000 8.8424 0.0000 -10.4230
# 5 -17.0629 -1.1760 -14.3173 0.0000 39.5648 0.0000
# 6 0.0000 0.0000 0.0000 -10.4230 0.0000 31.3555
#
#
#
# Elastic Compliance Matrix: (Units=1/GPa)
#
#
# Indices 1 2 3 4 5 6 
#
# 1 0.017837 -0.009354 -0.002602 0.000000 0.006473 0.000000
# 2 -0.009354 0.015841 -0.001476 0.000000 -0.004097 0.000000
# 3 -0.002602 -0.001476 0.006791 0.000000 0.001291 0.000000
# 4 0.000000 0.000000 0.000000 0.185955 0.000000 0.061814
# 5 0.006473 -0.004097 0.001291 0.000000 0.028412 0.000000
# 6 0.000000 0.000000 0.000000 0.061814 0.000000 0.052440
#
#
# Mechanical properties :
#
#
# Convention : Reuss Voigt Hill
#
# Bulk Modulus (GPa) = 73.50973 79.38201 76.44587
# Shear Modulus (GPa) = 14.76339 30.88101 22.82220
#
# Velocity S-wave (km/s) = 2.58392 3.73707 3.21266
# Velocity P-wave (km/s) = 6.49203 7.38382 6.95224
#
# Compressibility (1/GPa) = 0.01360364
#
# Stress axis : x y z
#
# Youngs Moduli (GPa) = 56.06294 63.12633 147.26133
#
# Poissons Ratio (x) = 0.59051 0.38324
# Poissons Ratio (y) = 0.52444 0.21733
# Poissons Ratio (z) = 0.14590 0.09316
#
# Static dielectric constant tensor:
#      x y z
#    x 3.946970 0.000000 -0.291290 
#    y 0.000000 4.264640 0.000000 
#    z -0.291290 0.000000 4.203420 
# 
# 
# High freq. dielectric constant tensor:
#      x y z
#    x 1.857950 0.000000 -0.018330 
#    y 0.000000 1.894260 0.000000 
#    z -0.018330 0.000000 1.872610 
# 
# From -- ./inp_files/50173.got.cif
#   From: 2010.06.25/outbox.cif.g09.slc.cpg/sg13_26_cif.got.tgz:50173.got - 2010.06.28 04:50:58.
