data_PCOD8121192
_publ_section_title
;
Structure prediction by ZEFSAII (Michael W. Deem and Ramdas Pophale) SiO2 
 PCOD8121192
Probable space group: P 2/C
;
_chemical_formula_sum "Si O2"
_cell_formula_units_Z 18
_cell_length_a 6.087555
_cell_length_b 6.341720
_cell_length_c 25.397343
_cell_angle_alpha 90.000000
_cell_angle_beta 55.358458
_cell_angle_gamma 90.000000
_cell_volume 806.663942
_symmetry_space_group_name_H-M "P 2/C"
_symmetry_group_IT_number 13
_symmetry_cell_setting 'monoclinic'
loop_
_space_group_symop_operation_xyz
x,y,z
-x,y,1/2-z
-x,-y,-z
x,-y,1/2+z
loop_
_atom_site_type_symbol
_atom_site_label
_atom_site_fract_x
_atom_site_fract_y
_atom_site_fract_z
Si Si1 0.753068 0.767756 0.355036
Si Si2 0.809162 0.302073 0.527408
Si Si3 0.000000 0.555816 0.750000
Si Si4 0.999650 0.971899 0.915317
Si Si5 0.554073 0.099569 0.301211
O O1 0.495889 0.650374 0.415100
O O2 0.955646 0.585130 0.308651
O O3 0.877871 0.932315 0.378956
O O4 0.686873 0.903214 0.312509
O O5 0.799879 0.192358 0.470849
O O6 0.000000 0.500000 0.500000
O O7 0.944545 0.157710 0.552263
O O8 0.738331 0.694589 0.775732
O O9 0.271312 0.843277 0.866348
O O10 0.500000 0.018236 0.250000
#
# Coordination Sequence:
#
# PCOD8121192 Si02
#       5
#     4   4   2   4   4
#     4  11  24  42  65  93 127 166 211 260 314 376
#     4  10  22  40  64  94 127 164 207 259 316 374
#     4  12  24  38  62  94 122 162 212 260 314 374
#     4  10  22  41  63  91 126 165 209 258 313 375
#     4  11  24  42  63  89 126 165 208 260 315 373
#
# _framework density 22.314126999999999
#
# number of rings (size 3 to 8) (size 9 to 14) (size 15 to 20)
#    0.000    1.333    0.000    5.333    0.000    8.889 
#    0.000    0.000    0.000    0.000    0.000    0.000 
#    0.000    0.000    0.000    0.000    0.000    0.000 
#
# Total GULP energy -223209.755524 kJ/mol
# GULP energy per Si atom -12400.541974 kJ/mol
# Density = 2.226334 g / cm^3
# Si number density = 22.314127 Si / 1000 Ang^3
#
#
#
# Elastic Constant Matrix: (Units=GPa)
#
#
# Indices 1 2 3 4 5 6 
#
# 1 110.7319 57.2522 68.0037 0.0000 5.7299 0.0000
# 2 57.2522 109.8593 93.8499 0.0000 -15.2236 0.0000
# 3 68.0037 93.8499 166.9682 0.0000 -11.3187 0.0000
# 4 0.0000 0.0000 0.0000 40.9272 0.0000 -17.0216
# 5 5.7299 -15.2236 -11.3187 0.0000 49.6720 0.0000
# 6 0.0000 0.0000 0.0000 -17.0216 0.0000 26.4341
#
#
#
# Elastic Compliance Matrix: (Units=1/GPa)
#
#
# Indices 1 2 3 4 5 6 
#
# 1 0.013703 -0.005161 -0.002940 0.000000 -0.003832 0.000000
# 2 -0.005161 0.019961 -0.008799 0.000000 0.004708 0.000000
# 3 -0.002940 -0.008799 0.012160 0.000000 0.000413 0.000000
# 4 0.000000 0.000000 0.000000 0.033371 0.000000 0.021488
# 5 -0.003832 0.004708 0.000413 0.000000 0.022111 0.000000
# 6 0.000000 0.000000 0.000000 0.021488 0.000000 0.051667
#
#
# Mechanical properties :
#
#
# Convention : Reuss Voigt Hill
#
# Bulk Modulus (GPa) = 83.15798 91.75233 87.45515
# Shear Modulus (GPa) = 26.20828 34.63692 30.42260
#
# Velocity S-wave (km/s) = 3.43084 3.94412 3.69640
# Velocity P-wave (km/s) = 7.28300 7.87078 7.58259
#
# Compressibility (1/GPa) = 0.01202530
#
# Stress axis : x y z
#
# Youngs Moduli (GPa) = 72.97716 50.09828 82.23529
#
# Poissons Ratio (x) = 0.25853 0.24178
# Poissons Ratio (y) = 0.37660 0.72356
# Poissons Ratio (z) = 0.21456 0.44080
#
# Static dielectric constant tensor:
#      x y z
#    x 3.950380 0.000000 -0.100260 
#    y 0.000000 3.886920 0.000000 
#    z -0.100260 0.000000 4.705660 
# 
# 
# High freq. dielectric constant tensor:
#      x y z
#    x 1.871330 0.000000 -0.005620 
#    y 0.000000 1.870490 0.000000 
#    z -0.005620 0.000000 1.912500 
# 
# From -- ./inp_files/82940.got.cif
#   From: 2010.06.25/outbox.cif.g09.slc.cpg/sg13_42_cif.got.tgz:82940.got - 2010.06.28 04:50:58.
