data_PCOD8121321
_publ_section_title
;
Structure prediction by ZEFSAII (Michael W. Deem and Ramdas Pophale) SiO2 
 PCOD8121321
Probable space group: P 2/C
;
_chemical_formula_sum "Si O2"
_cell_formula_units_Z 30
_cell_length_a 17.705958
_cell_length_b 6.451624
_cell_length_c 21.130896
_cell_angle_alpha 90.000000
_cell_angle_beta 146.922108
_cell_angle_gamma 90.000000
_cell_volume 1317.416074
_symmetry_space_group_name_H-M "P 2/C"
_symmetry_group_IT_number 13
_symmetry_cell_setting 'monoclinic'
loop_
_space_group_symop_operation_xyz
x,y,z
-x,y,1/2-z
-x,-y,-z
x,-y,1/2+z
loop_
_atom_site_type_symbol
_atom_site_label
_atom_site_fract_x
_atom_site_fract_y
_atom_site_fract_z
Si Si1 0.000000 0.448996 0.250000
Si Si2 0.323388 0.167452 0.334481
Si Si3 0.889517 0.793822 0.090384
Si Si4 0.476145 0.931329 0.348217
Si Si5 0.719330 0.444662 0.766993
Si Si6 0.081383 0.092339 0.614944
Si Si7 0.233129 0.883809 0.909429
Si Si8 0.640813 0.267829 0.323550
O O1 0.968643 0.584579 0.165612
O O2 0.860576 0.319258 0.161934
O O3 0.309910 0.416251 0.316375
O O4 0.305187 0.086112 0.392344
O O5 0.465697 0.084165 0.402652
O O6 0.208473 0.060690 0.210217
O O7 0.988083 0.919737 0.112197
O O8 0.863899 0.926085 0.136646
O O9 0.742533 0.755693 0.954147
O O10 0.404805 0.714616 0.313030
O O11 0.638271 0.873986 0.450800
O O12 0.407593 0.045741 0.239608
O O13 0.866017 0.326437 0.862641
O O14 0.722060 0.592203 0.830119
O O15 0.000000 0.000000 0.500000
O O16 0.500000 0.378160 0.250000
#
# Coordination Sequence:
#
# PCOD8121321 Si02
#       8
#     2   4   4   4   4   4   4   4
#     4  12  28  40  66 104 134 192 222 276 356 402
#     4  10  22  41  65  95 134 175 231 280 348 410
#     4  12  26  46  69  98 146 179 233 289 340 423
#     4  10  23  43  70  99 133 183 229 290 351 401
#     4  10  23  41  67 103 133 175 240 286 348 415
#     4  11  23  43  68  96 133 183 228 286 349 412
#     4  12  25  44  66  97 140 182 233 280 343 425
#     4  11  24  45  70 103 137 184 236 295 355 399
#
# _framework density 22.771850000000001
#
# number of rings (size 3 to 8) (size 9 to 14) (size 15 to 20)
#    0.000    1.067    1.333    5.600    1.867    7.467 
#    0.000    0.000    0.000    0.000    0.000    0.000 
#    0.000    0.000    0.000    0.000    0.000    0.000 
#
# Total GULP energy -371919.716964 kJ/mol
# GULP energy per Si atom -12397.323899 kJ/mol
# Density = 2.272002 g / cm^3
# Si number density = 22.771850 Si / 1000 Ang^3
#
#
#
# Elastic Constant Matrix: (Units=GPa)
#
#
# Indices 1 2 3 4 5 6 
#
# 1 99.2367 31.9616 28.8342 0.0000 -1.7854 0.0000
# 2 31.9616 123.8886 58.7986 0.0000 -1.9330 0.0000
# 3 28.8342 58.7986 127.2107 0.0000 9.0891 0.0000
# 4 0.0000 0.0000 0.0000 32.8833 0.0000 1.5299
# 5 -1.7854 -1.9330 9.0891 0.0000 36.1468 0.0000
# 6 0.0000 0.0000 0.0000 1.5299 0.0000 34.5339
#
#
#
# Elastic Compliance Matrix: (Units=1/GPa)
#
#
# Indices 1 2 3 4 5 6 
#
# 1 0.011248 -0.002113 -0.001634 0.000000 0.000853 0.000000
# 2 -0.002113 0.010852 -0.004654 0.000000 0.001646 0.000000
# 3 -0.001634 -0.004654 0.010597 0.000000 -0.002994 0.000000
# 4 0.000000 0.000000 0.000000 0.030473 0.000000 -0.001350
# 5 0.000853 0.001646 -0.002994 0.000000 0.028548 0.000000
# 6 0.000000 0.000000 0.000000 -0.001350 0.000000 0.029017
#
#
# Mechanical properties :
#
#
# Convention : Reuss Voigt Hill
#
# Bulk Modulus (GPa) = 62.91954 65.50276 64.21115
# Shear Modulus (GPa) = 35.00566 36.09559 35.55062
#
# Velocity S-wave (km/s) = 3.92501 3.98565 3.95545
# Velocity P-wave (km/s) = 6.94488 7.07162 7.00853
#
# Compressibility (1/GPa) = 0.01589331
#
# Stress axis : x y z
#
# Youngs Moduli (GPa) = 88.90856 92.15200 94.37023
#
# Poissons Ratio (x) = 0.19472 0.15417
# Poissons Ratio (y) = 0.18787 0.43924
# Poissons Ratio (z) = 0.14525 0.42892
#
# Static dielectric constant tensor:
#      x y z
#    x 4.472940 0.000000 0.225920 
#    y 0.000000 3.777630 0.000000 
#    z 0.225920 0.000000 4.166400 
# 
# 
# High freq. dielectric constant tensor:
#      x y z
#    x 1.910860 0.000000 0.010360 
#    y 0.000000 1.891710 0.000000 
#    z 0.010360 0.000000 1.903500 
# 
# From -- ./inp_files/88327.got.cif
#   From: 2010.06.25/outbox.cif.g09.slc.cpg/sg13_45_cif.got.tgz:88327.got - 2010.06.28 04:50:58.
