data_PCOD8121563
_publ_section_title
;
Structure prediction by ZEFSAII (Michael W. Deem and Ramdas Pophale) SiO2 
 PCOD8121563
Probable space group: P 2/C
;
_chemical_formula_sum "Si O2"
_cell_formula_units_Z 12
_cell_length_a 9.845070
_cell_length_b 6.590736
_cell_length_c 13.297698
_cell_angle_alpha 90.000000
_cell_angle_beta 38.714430
_cell_angle_gamma 90.000000
_cell_volume 539.652607
_symmetry_space_group_name_H-M "P 2/C"
_symmetry_group_IT_number 13
_symmetry_cell_setting 'monoclinic'
loop_
_space_group_symop_operation_xyz
x,y,z
-x,y,1/2-z
-x,-y,-z
x,-y,1/2+z
loop_
_atom_site_type_symbol
_atom_site_label
_atom_site_fract_x
_atom_site_fract_y
_atom_site_fract_z
Si Si1 0.663399 0.469050 0.812392
Si Si2 0.000000 0.637514 0.750000
Si Si3 0.500000 0.775917 0.750000
Si Si4 0.592988 0.098685 0.546245
O O1 0.650527 0.638581 0.733457
O O2 0.600414 0.249959 0.802342
O O3 0.906851 0.489420 0.716276
O O4 0.500000 0.500000 0.000000
O O5 0.186003 0.779956 0.598023
O O6 0.645642 0.922263 0.595723
O O7 0.500000 0.000000 0.500000
#
# Coordination Sequence:
#
# PCOD8121563 Si02
#       4
#     4   2   2   4
#     4  10  22  44  64  99 141 173 221 286 327 395
#     4  10  22  44  72 100 138 182 218 288 342 386
#     4  12  22  44  74  96 142 182 218 284 344 392
#     4  11  23  45  70  99 140 176 227 280 334 407
#
# _framework density 22.236529000000001
#
# number of rings (size 3 to 8) (size 9 to 14) (size 15 to 20)
#    0.000    1.333    6.667    1.000    0.000    2.667 
#    0.000    8.333    0.000    0.000    0.000    0.000 
#    0.000    0.000    0.000    0.000    0.000    0.000 
#
# Total GULP energy -148700.649325 kJ/mol
# GULP energy per Si atom -12391.720777 kJ/mol
# Density = 2.218592 g / cm^3
# Si number density = 22.236529 Si / 1000 Ang^3
#
#
#
# Elastic Constant Matrix: (Units=GPa)
#
#
# Indices 1 2 3 4 5 6 
#
# 1 168.8425 80.9327 52.0719 0.0000 -16.0483 0.0000
# 2 80.9327 157.8757 44.5465 0.0000 -7.5156 0.0000
# 3 52.0719 44.5465 62.5541 0.0000 -14.4645 0.0000
# 4 0.0000 0.0000 0.0000 44.1510 0.0000 16.8046
# 5 -16.0483 -7.5156 -14.4645 0.0000 41.6425 0.0000
# 6 0.0000 0.0000 0.0000 16.8046 0.0000 18.0783
#
#
#
# Elastic Compliance Matrix: (Units=1/GPa)
#
#
# Indices 1 2 3 4 5 6 
#
# 1 0.009124 -0.003198 -0.005043 0.000000 0.001187 0.000000
# 2 -0.003198 0.009060 -0.004020 0.000000 -0.000993 0.000000
# 3 -0.005043 -0.004020 0.024389 0.000000 0.005802 0.000000
# 4 0.000000 0.000000 0.000000 0.035050 0.000000 -0.032581
# 5 0.001187 -0.000993 0.005802 0.000000 0.026308 0.000000
# 6 0.000000 0.000000 0.000000 -0.032581 0.000000 0.085600
#
#
# Mechanical properties :
#
#
# Convention : Reuss Voigt Hill
#
# Bulk Modulus (GPa) = 55.39848 82.70830 69.05339
# Shear Modulus (GPa) = 22.72012 34.88910 28.80461
#
# Velocity S-wave (km/s) = 3.19995 3.96536 3.60303
# Velocity P-wave (km/s) = 6.21452 7.63158 6.95921
#
# Compressibility (1/GPa) = 0.01805104
#
# Stress axis : x y z
#
# Youngs Moduli (GPa) = 109.60616 110.37160 41.00265
#
# Poissons Ratio (x) = 0.35292 0.20678
# Poissons Ratio (y) = 0.35047 0.16483
# Poissons Ratio (z) = 0.55276 0.44370
#
# Static dielectric constant tensor:
#      x y z
#    x 4.594930 0.000000 -0.252540 
#    y 0.000000 4.868880 0.000000 
#    z -0.252540 0.000000 4.271410 
# 
# 
# High freq. dielectric constant tensor:
#      x y z
#    x 1.894280 0.000000 0.009510 
#    y 0.000000 1.896340 0.000000 
#    z 0.009510 0.000000 1.832160 
# 
# From -- ./inp_files/30952.got.cif
#   From: 2010.06.25/outbox.cif.g09.slc.cpg/sg13_16_cif.got.tgz:30952.got - 2010.06.28 04:50:58.
