data_PCOD8121652
_publ_section_title
;
Structure prediction by ZEFSAII (Michael W. Deem and Ramdas Pophale) SiO2 
 PCOD8121652
Probable space group: P 2/C
;
_chemical_formula_sum "Si O2"
_cell_formula_units_Z 24
_cell_length_a 20.032592
_cell_length_b 6.382337
_cell_length_c 13.779349
_cell_angle_alpha 90.000000
_cell_angle_beta 142.672980
_cell_angle_gamma 90.000000
_cell_volume 1068.264033
_symmetry_space_group_name_H-M "P 2/C"
_symmetry_group_IT_number 13
_symmetry_cell_setting 'monoclinic'
loop_
_space_group_symop_operation_xyz
x,y,z
-x,y,1/2-z
-x,-y,-z
x,-y,1/2+z
loop_
_atom_site_type_symbol
_atom_site_label
_atom_site_fract_x
_atom_site_fract_y
_atom_site_fract_z
Si Si1 0.114187 0.814516 0.917079
Si Si2 0.372700 0.429750 0.208387
Si Si3 0.179647 0.478973 0.860161
Si Si4 0.252719 0.372871 0.741546
Si Si5 0.500000 0.781746 0.250000
Si Si6 0.446830 0.095676 0.033580
Si Si7 0.000000 0.219363 0.750000
O O1 0.191728 0.712671 0.922794
O O2 0.000000 0.709871 0.750000
O O3 0.153788 0.732431 0.066843
O O4 0.097301 0.066738 0.905329
O O5 0.322872 0.465044 0.258282
O O6 0.417555 0.648676 0.220102
O O7 0.471884 0.268228 0.327493
O O8 0.278277 0.345405 0.025683
O O9 0.197991 0.500178 0.766663
O O10 0.062440 0.361642 0.742784
O O11 0.329072 0.190499 0.871598
O O12 0.427358 0.920566 0.092522
O O13 0.500000 0.000000 0.000000
#
# Coordination Sequence:
#
# PCOD8121652 Si02
#       7
#     4   4   4   4   2   4   2
#     4   9  23  45  64  94 132 169 225 285 347 391
#     4  11  26  45  66 104 145 179 227 285 345 405
#     4  11  23  43  70  93 133 182 221 279 347 403
#     4  11  24  43  69 102 135 180 229 280 342 415
#     4  12  24  46  72  92 150 182 226 296 328 408
#     4  12  26  43  70 105 140 186 236 270 343 418
#     4  10  22  46  64  90 138 164 230 286 336 402
#
# _framework density 22.466356000000001
#
# number of rings (size 3 to 8) (size 9 to 14) (size 15 to 20)
#    0.500    0.667    2.500    3.000    4.667    4.000 
#    0.000    0.000    0.000    0.000    0.000    0.000 
#    0.000    0.000    0.000    0.000    0.000    0.000 
#
# Total GULP energy -297372.733309 kJ/mol
# GULP energy per Si atom -12390.530555 kJ/mol
# Density = 2.241522 g / cm^3
# Si number density = 22.466356 Si / 1000 Ang^3
#
#
#
# Elastic Constant Matrix: (Units=GPa)
#
#
# Indices 1 2 3 4 5 6 
#
# 1 147.0846 44.4239 48.7529 0.0000 -25.5658 0.0000
# 2 44.4239 89.3413 31.2458 0.0000 -4.7696 0.0000
# 3 48.7529 31.2458 109.2812 0.0000 0.7491 0.0000
# 4 0.0000 0.0000 0.0000 34.8450 0.0000 -0.5599
# 5 -25.5658 -4.7696 0.7491 0.0000 37.3219 0.0000
# 6 0.0000 0.0000 0.0000 -0.5599 0.0000 23.5646
#
#
#
# Elastic Compliance Matrix: (Units=1/GPa)
#
#
# Indices 1 2 3 4 5 6 
#
# 1 0.010183 -0.003451 -0.003602 0.000000 0.006607 0.000000
# 2 -0.003451 0.013710 -0.002376 0.000000 -0.000564 0.000000
# 3 -0.003602 -0.002376 0.011457 0.000000 -0.003001 0.000000
# 4 0.000000 0.000000 0.000000 0.028709 0.000000 0.000682
# 5 0.006607 -0.000564 -0.003001 0.000000 0.031308 0.000000
# 6 0.000000 0.000000 0.000000 0.000682 0.000000 0.042453
#
#
# Mechanical properties :
#
#
# Convention : Reuss Voigt Hill
#
# Bulk Modulus (GPa) = 60.63373 66.06136 63.34755
# Shear Modulus (GPa) = 30.83051 33.89860 32.36455
#
# Velocity S-wave (km/s) = 3.70847 3.88862 3.79961
# Velocity P-wave (km/s) = 6.73679 7.04487 6.89255
#
# Compressibility (1/GPa) = 0.01649247
#
# Stress axis : x y z
#
# Youngs Moduli (GPa) = 98.19950 72.93874 87.27922
#
# Poissons Ratio (x) = 0.25173 0.31434
# Poissons Ratio (y) = 0.33891 0.20742
# Poissons Ratio (z) = 0.35367 0.17334
#
# Static dielectric constant tensor:
#      x y z
#    x 4.062100 0.000000 0.046270 
#    y 0.000000 4.041260 0.000000 
#    z 0.046270 0.000000 4.270030 
# 
# 
# High freq. dielectric constant tensor:
#      x y z
#    x 1.886860 0.000000 0.002340 
#    y 0.000000 1.876650 0.000000 
#    z 0.002340 0.000000 1.891360 
# 
# From -- ./inp_files/56669.got.cif
#   From: 2010.06.25/outbox.cif.g09.slc.cpg/sg13_29_cif.got.tgz:56669.got - 2010.06.28 04:50:58.
