data_PCOD8121992
_publ_section_title
;
Structure prediction by ZEFSAII (Michael W. Deem and Ramdas Pophale) SiO2 
 PCOD8121992
Probable space group: P 2/C
;
_chemical_formula_sum "Si O2"
_cell_formula_units_Z 32
_cell_length_a 12.883156
_cell_length_b 10.801854
_cell_length_c 22.033435
_cell_angle_alpha 90.000000
_cell_angle_beta 149.812067
_cell_angle_gamma 90.000000
_cell_volume 1541.809762
_symmetry_space_group_name_H-M "P 2/C"
_symmetry_group_IT_number 13
_symmetry_cell_setting 'monoclinic'
loop_
_space_group_symop_operation_xyz
x,y,z
-x,y,1/2-z
-x,-y,-z
x,-y,1/2+z
loop_
_atom_site_type_symbol
_atom_site_label
_atom_site_fract_x
_atom_site_fract_y
_atom_site_fract_z
Si Si1 0.128698 0.840505 0.873190
Si Si2 0.326223 0.066796 0.018299
Si Si3 0.499967 0.245551 0.488982
Si Si4 0.342284 0.005500 0.723350
Si Si5 0.174311 0.358999 0.235351
Si Si6 0.996344 0.789700 0.417570
Si Si7 0.731246 0.728466 0.844450
Si Si8 0.855238 0.368725 0.732859
O O1 0.359874 0.809165 0.970884
O O2 0.000000 0.877596 0.750000
O O3 0.024029 0.728663 0.856372
O O4 0.148083 0.962893 0.923033
O O5 0.368738 0.134918 0.975562
O O6 0.536841 0.010221 0.151821
O O7 0.222117 0.158513 0.013395
O O8 0.371644 0.311330 0.371479
O O9 0.630293 0.347295 0.591309
O O10 0.500000 0.047439 0.750000
O O11 0.165236 0.108583 0.640085
O O12 0.240337 0.873179 0.657756
O O13 0.233040 0.361552 0.194654
O O14 0.110978 0.492247 0.227954
O O15 0.894381 0.719231 0.309917
O O16 0.078645 0.698905 0.512897
O O17 0.500000 0.698839 0.750000
O O18 0.000000 0.335097 0.750000
#
# Coordination Sequence:
#
# PCOD8121992 Si02
#       8
#     4   4   4   4   4   4   4   4
#     4  10  24  38  62  99 133 165 208 271 332 392
#     4  12  22  38  66  98 131 170 211 269 339 396
#     4  11  22  43  64  98 131 169 219 269 327 394
#     4  11  23  40  66  97 132 172 219 267 338 397
#     4  11  24  45  69  94 126 178 221 269 325 384
#     4  12  25  41  65  97 133 174 216 274 326 388
#     4  11  22  45  68  96 129 171 223 269 333 394
#     4  12  26  44  67  95 132 176 223 268 319 392
#
# _framework density 20.754829999999998
#
# number of rings (size 3 to 8) (size 9 to 14) (size 15 to 20)
#    0.000    0.750    5.000    3.750    5.250    0.500 
#    0.000    0.625    0.000    0.000    0.000    0.000 
#    0.000    0.000    0.000    0.000    0.000    0.000 
#
# Total GULP energy -396758.472377 kJ/mol
# GULP energy per Si atom -12398.702262 kJ/mol
# Density = 2.070759 g / cm^3
# Si number density = 20.754830 Si / 1000 Ang^3
#
#
#
# Elastic Constant Matrix: (Units=GPa)
#
#
# Indices 1 2 3 4 5 6 
#
# 1 101.1420 24.7527 35.6870 0.0000 -4.8372 0.0000
# 2 24.7527 57.4886 20.9127 0.0000 0.2631 0.0000
# 3 35.6870 20.9127 74.0168 0.0000 2.7658 0.0000
# 4 0.0000 0.0000 0.0000 25.7832 0.0000 -7.1239
# 5 -4.8372 0.2631 2.7658 0.0000 31.8758 0.0000
# 6 0.0000 0.0000 0.0000 -7.1239 0.0000 27.5216
#
#
#
# Elastic Compliance Matrix: (Units=1/GPa)
#
#
# Indices 1 2 3 4 5 6 
#
# 1 0.012719 -0.003593 -0.005207 0.000000 0.002412 0.000000
# 2 -0.003593 0.020406 -0.004019 0.000000 -0.000365 0.000000
# 3 -0.005207 -0.004019 0.017241 0.000000 -0.002253 0.000000
# 4 0.000000 0.000000 0.000000 0.041772 0.000000 0.010813
# 5 0.002412 -0.000365 -0.002253 0.000000 0.031936 0.000000
# 6 0.000000 0.000000 0.000000 0.010813 0.000000 0.039134
#
#
# Mechanical properties :
#
#
# Convention : Reuss Voigt Hill
#
# Bulk Modulus (GPa) = 40.44334 43.92803 42.18568
# Shear Modulus (GPa) = 25.36909 27.12247 26.24578
#
# Velocity S-wave (km/s) = 3.49997 3.61889 3.55993
# Velocity P-wave (km/s) = 5.98845 6.21876 6.10469
#
# Compressibility (1/GPa) = 0.02472595
#
# Stress axis : x y z
#
# Youngs Moduli (GPa) = 78.62142 49.00603 58.00131
#
# Poissons Ratio (x) = 0.17609 0.30204
# Poissons Ratio (y) = 0.28250 0.23313
# Poissons Ratio (z) = 0.40941 0.19697
#
# Static dielectric constant tensor:
#      x y z
#    x 3.848230 0.000000 -0.154470 
#    y 0.000000 3.548220 0.000000 
#    z -0.154470 0.000000 3.702530 
# 
# 
# High freq. dielectric constant tensor:
#      x y z
#    x 1.824030 0.000000 -0.003810 
#    y 0.000000 1.788580 0.000000 
#    z -0.003810 0.000000 1.825440 
# 
# From -- ./inp_files/78654.got.cif
#   From: 2010.06.25/outbox.cif.g09.slc.cpg/sg13_40_cif.got.tgz:78654.got - 2010.06.28 04:50:58.
