data_PCOD8121734
_publ_section_title
;
Structure prediction by ZEFSAII (Michael W. Deem and Ramdas Pophale) SiO2 
 PCOD8121734
Probable space group: P 2/C
;
_chemical_formula_sum "Si O2"
_cell_formula_units_Z 22
_cell_length_a 11.453839
_cell_length_b 6.574644
_cell_length_c 14.348009
_cell_angle_alpha 90.000000
_cell_angle_beta 75.258479
_cell_angle_gamma 90.000000
_cell_volume 1044.910222
_symmetry_space_group_name_H-M "P 2/C"
_symmetry_group_IT_number 13
_symmetry_cell_setting 'monoclinic'
loop_
_space_group_symop_operation_xyz
x,y,z
-x,y,1/2-z
-x,-y,-z
x,-y,1/2+z
loop_
_atom_site_type_symbol
_atom_site_label
_atom_site_fract_x
_atom_site_fract_y
_atom_site_fract_z
Si Si1 0.000000 0.864395 0.750000
Si Si2 0.055997 0.819771 0.390449
Si Si3 0.566526 0.794979 0.505211
Si Si4 0.181151 0.167743 0.461456
Si Si5 0.446504 0.497750 0.661573
Si Si6 0.187187 0.568180 0.783067
O O1 0.114622 0.716809 0.729604
O O2 0.993094 0.005925 0.841341
O O3 0.115561 0.640695 0.318789
O O4 0.943522 0.735448 0.473404
O O5 0.157570 0.934546 0.432263
O O6 0.710590 0.830255 0.485905
O O7 0.512525 0.701173 0.611727
O O8 0.531981 0.669248 0.421054
O O9 0.500000 0.000000 0.500000
O O10 0.221675 0.317367 0.370760
O O11 0.500000 0.427797 0.750000
O O12 0.304355 0.522112 0.699964
#
# Coordination Sequence:
#
# PCOD8121734 Si02
#       6
#     2   4   4   4   4   4
#     4  10  24  38  62 106 124 172 220 260 332 390
#     4  10  23  40  65  97 133 172 213 271 329 388
#     4  11  27  44  70  97 134 179 222 280 327 395
#     4  10  23  43  64  98 129 171 223 264 333 394
#     4  11  26  47  66 100 131 177 228 270 338 392
#     4  11  23  43  70  92 136 170 216 279 323 395
#
# _framework density 21.054442000000002
#
# number of rings (size 3 to 8) (size 9 to 14) (size 15 to 20)
#    0.000    1.455    1.818    1.091   10.182    2.182 
#    0.000    0.000    0.000    0.000    0.000    0.000 
#    0.000    0.000    0.000    0.000    0.000    0.000 
#
# Total GULP energy -272799.132067 kJ/mol
# GULP energy per Si atom -12399.960548 kJ/mol
# Density = 2.100652 g / cm^3
# Si number density = 21.054442 Si / 1000 Ang^3
#
#
#
# Elastic Constant Matrix: (Units=GPa)
#
#
# Indices 1 2 3 4 5 6 
#
# 1 111.7252 52.2200 38.4298 0.0000 5.1677 0.0000
# 2 52.2200 108.9307 34.1086 0.0000 -1.3612 0.0000
# 3 38.4298 34.1086 93.5724 0.0000 -1.2695 0.0000
# 4 0.0000 0.0000 0.0000 14.3325 0.0000 -4.5491
# 5 5.1677 -1.3612 -1.2695 0.0000 47.4956 0.0000
# 6 0.0000 0.0000 0.0000 -4.5491 0.0000 26.8041
#
#
#
# Elastic Compliance Matrix: (Units=1/GPa)
#
#
# Indices 1 2 3 4 5 6 
#
# 1 0.012494 -0.004962 -0.003344 0.000000 -0.001591 0.000000
# 2 -0.004962 0.012336 -0.002447 0.000000 0.000828 0.000000
# 3 -0.003344 -0.002447 0.012961 0.000000 0.000640 0.000000
# 4 0.000000 0.000000 0.000000 0.073744 0.000000 0.012516
# 5 -0.001591 0.000828 0.000640 0.000000 0.021269 0.000000
# 6 0.000000 0.000000 0.000000 0.012516 0.000000 0.039432
#
#
# Mechanical properties :
#
#
# Convention : Reuss Voigt Hill
#
# Bulk Modulus (GPa) = 61.41190 62.63833 62.02511
# Shear Modulus (GPa) = 25.10433 30.35778 27.73106
#
# Velocity S-wave (km/s) = 3.45679 3.80132 3.63314
# Velocity P-wave (km/s) = 6.72042 7.00585 6.86462
#
# Compressibility (1/GPa) = 0.01628349
#
# Stress axis : x y z
#
# Youngs Moduli (GPa) = 80.04108 81.06627 77.15444
#
# Poissons Ratio (x) = 0.40226 0.25800
# Poissons Ratio (y) = 0.39717 0.18882
# Poissons Ratio (z) = 0.26765 0.19840
#
# Static dielectric constant tensor:
#      x y z
#    x 4.082100 0.000000 0.032400 
#    y 0.000000 3.831260 0.000000 
#    z 0.032400 0.000000 3.862260 
# 
# 
# High freq. dielectric constant tensor:
#      x y z
#    x 1.832850 0.000000 0.002860 
#    y 0.000000 1.825010 0.000000 
#    z 0.002860 0.000000 1.830370 
# 
# From -- ./inp_files/48863.got.cif
#   From: 2010.06.25/outbox.cif.g09.slc.cpg/sg13_25_cif.got.tgz:48863.got - 2010.06.28 04:50:58.
