data_PCOD8121839
_publ_section_title
;
Structure prediction by ZEFSAII (Michael W. Deem and Ramdas Pophale) SiO2 
 PCOD8121839
Probable space group: P 2/C
;
_chemical_formula_sum "Si O2"
_cell_formula_units_Z 22
_cell_length_a 12.871770
_cell_length_b 10.472976
_cell_length_c 8.077705
_cell_angle_alpha 90.000000
_cell_angle_beta 107.198196
_cell_angle_gamma 90.000000
_cell_volume 1040.232794
_symmetry_space_group_name_H-M "P 2/C"
_symmetry_group_IT_number 13
_symmetry_cell_setting 'monoclinic'
loop_
_space_group_symop_operation_xyz
x,y,z
-x,y,1/2-z
-x,-y,-z
x,-y,1/2+z
loop_
_atom_site_type_symbol
_atom_site_label
_atom_site_fract_x
_atom_site_fract_y
_atom_site_fract_z
Si Si1 0.810620 0.351126 0.811160
Si Si2 0.123303 0.612697 0.788639
Si Si3 0.623496 0.174799 0.786134
Si Si4 0.276340 0.000238 0.412014
Si Si5 0.000000 0.814338 0.250000
Si Si6 0.140348 0.868393 0.596888
O O1 0.804896 0.495855 0.744810
O O2 0.690345 0.292056 0.739317
O O3 0.894975 0.271727 0.740343
O O4 0.839362 0.339949 0.016590
O O5 0.133558 0.724446 0.658967
O O6 0.000000 0.564958 0.750000
O O7 0.500000 0.218714 0.750000
O O8 0.630942 0.055119 0.664331
O O9 0.675565 0.129255 0.985107
O O10 0.161716 0.033990 0.260322
O O11 0.246003 0.891406 0.530817
O O12 0.032482 0.895022 0.431788
#
# Coordination Sequence:
#
# PCOD8121839 Si02
#       6
#     4   4   4   4   2   4
#     4  12  24  41  66  96 127 170 220 262 320 385
#     4  12  23  41  66  94 132 172 212 260 323 394
#     4  11  23  44  69  94 125 169 219 272 320 375
#     4  10  23  43  65  93 131 170 214 263 321 390
#     4  12  22  40  64  98 132 170 210 260 322 384
#     4  11  23  40  64  96 130 171 211 260 322 384
#
# _framework density 21.149111999999999
#
# number of rings (size 3 to 8) (size 9 to 14) (size 15 to 20)
#    0.000    0.727    6.364    2.182    0.000    0.727 
#    1.636    0.909    0.000    0.000    0.000    0.000 
#    0.000    0.000    0.000    0.000    0.000    0.000 
#
# Total GULP energy -272684.243499 kJ/mol
# GULP energy per Si atom -12394.738341 kJ/mol
# Density = 2.110098 g / cm^3
# Si number density = 21.149112 Si / 1000 Ang^3
#
#
#
# Elastic Constant Matrix: (Units=GPa)
#
#
# Indices 1 2 3 4 5 6 
#
# 1 127.3808 49.7216 31.2622 0.0000 4.3036 0.0000
# 2 49.7216 89.1166 29.3060 0.0000 -6.1301 0.0000
# 3 31.2622 29.3060 104.4903 0.0000 -5.9418 0.0000
# 4 0.0000 0.0000 0.0000 15.0338 0.0000 -2.9944
# 5 4.3036 -6.1301 -5.9418 0.0000 24.6488 0.0000
# 6 0.0000 0.0000 0.0000 -2.9944 0.0000 24.2774
#
#
#
# Elastic Compliance Matrix: (Units=1/GPa)
#
#
# Indices 1 2 3 4 5 6 
#
# 1 0.010593 -0.005565 -0.001817 0.000000 -0.003672 0.000000
# 2 -0.005565 0.015412 -0.002417 0.000000 0.004222 0.000000
# 3 -0.001817 -0.002417 0.010926 0.000000 0.002350 0.000000
# 4 0.000000 0.000000 0.000000 0.068192 0.000000 0.008411
# 5 -0.003672 0.004222 0.002350 0.000000 0.042827 0.000000
# 6 0.000000 0.000000 0.000000 0.008411 0.000000 0.042228
#
#
# Mechanical properties :
#
#
# Convention : Reuss Voigt Hill
#
# Bulk Modulus (GPa) = 57.70130 60.17417 58.93773
# Shear Modulus (GPa) = 23.19610 26.83852 25.01731
#
# Velocity S-wave (km/s) = 3.31537 3.56619 3.44306
# Velocity P-wave (km/s) = 6.48058 6.74322 6.61320
#
# Compressibility (1/GPa) = 0.01733063
#
# Stress axis : x y z
#
# Youngs Moduli (GPa) = 94.40402 64.88629 91.52856
#
# Poissons Ratio (x) = 0.36110 0.16632
# Poissons Ratio (y) = 0.52537 0.22126
# Poissons Ratio (z) = 0.17155 0.15685
#
# Static dielectric constant tensor:
#      x y z
#    x 3.562740 0.000000 -0.184310 
#    y 0.000000 3.664750 0.000000 
#    z -0.184310 0.000000 4.239380 
# 
# 
# High freq. dielectric constant tensor:
#      x y z
#    x 1.801140 0.000000 -0.023180 
#    y 0.000000 1.819270 0.000000 
#    z -0.023180 0.000000 1.849030 
# 
# From -- ./inp_files/15959.got.cif
#   From: 2010.06.25/outbox.cif.g09.slc.cpg/sg13_8_cif.got.tgz:15959.got - 2010.06.28 04:50:58.
