data_PCOD8121556
_publ_section_title
;
Structure prediction by ZEFSAII (Michael W. Deem and Ramdas Pophale) SiO2 
 PCOD8121556
Probable space group: P 2/C
;
_chemical_formula_sum "Si O2"
_cell_formula_units_Z 18
_cell_length_a 12.347867
_cell_length_b 9.577179
_cell_length_c 21.193310
_cell_angle_alpha 90.000000
_cell_angle_beta 159.597330
_cell_angle_gamma 90.000000
_cell_volume 873.726103
_symmetry_space_group_name_H-M "P 2/C"
_symmetry_group_IT_number 13
_symmetry_cell_setting 'monoclinic'
loop_
_space_group_symop_operation_xyz
x,y,z
-x,y,1/2-z
-x,-y,-z
x,-y,1/2+z
loop_
_atom_site_type_symbol
_atom_site_label
_atom_site_fract_x
_atom_site_fract_y
_atom_site_fract_z
Si Si1 0.981031 0.406939 0.927439
Si Si2 0.275472 0.638772 0.012227
Si Si3 0.696173 0.878556 0.914386
Si Si4 0.134523 0.115961 0.195616
Si Si5 0.000000 0.225369 0.250000
O O1 0.110805 0.492540 0.938400
O O2 0.189400 0.270188 0.048591
O O3 0.000000 0.500000 0.000000
O O4 0.369256 0.361142 0.774932
O O5 0.096830 0.760529 0.954312
O O6 0.243199 0.673552 0.919780
O O7 0.500000 0.947928 0.750000
O O8 0.477714 0.863712 0.855973
O O9 0.994056 0.969558 0.096100
O O10 0.170245 0.125878 0.291519
#
# Coordination Sequence:
#
# PCOD8121556 Si02
#       5
#     4   4   4   4   2
#     4  12  24  41  68 101 136 172 221 278 340 398
#     4  10  22  44  64  94 133 177 219 275 331 395
#     4  12  24  41  68 101 133 175 220 279 341 394
#     4  10  23  45  66  98 134 175 226 271 333 394
#     4   8  24  46  66  90 142 172 234 268 328 396
#
# _framework density 20.601421999999999
#
# number of rings (size 3 to 8) (size 9 to 14) (size 15 to 20)
#    1.333    0.000    0.000    6.667    0.000    3.556 
#    0.000    0.000    0.000    0.000    0.000    0.000 
#    0.000    0.000    0.000    0.000    0.000    0.000 
#
# Total GULP energy -223129.129449 kJ/mol
# GULP energy per Si atom -12396.062747 kJ/mol
# Density = 2.055453 g / cm^3
# Si number density = 20.601422 Si / 1000 Ang^3
#
#
#
# Elastic Constant Matrix: (Units=GPa)
#
#
# Indices 1 2 3 4 5 6 
#
# 1 106.3827 28.1134 43.3067 0.0000 2.2590 0.0000
# 2 28.1134 99.9906 46.0970 0.0000 1.6395 0.0000
# 3 43.3067 46.0970 100.3998 0.0000 -0.0369 0.0000
# 4 0.0000 0.0000 0.0000 33.1068 0.0000 2.8069
# 5 2.2590 1.6395 -0.0369 0.0000 45.4765 0.0000
# 6 0.0000 0.0000 0.0000 2.8069 0.0000 34.0213
#
#
#
# Elastic Compliance Matrix: (Units=1/GPa)
#
#
# Indices 1 2 3 4 5 6 
#
# 1 0.011528 -0.001192 -0.004425 0.000000 -0.000533 0.000000
# 2 -0.001192 0.012819 -0.005372 0.000000 -0.000407 0.000000
# 3 -0.004425 -0.005372 0.014335 0.000000 0.000425 0.000000
# 4 0.000000 0.000000 0.000000 0.030418 0.000000 -0.002510
# 5 -0.000533 -0.000407 0.000425 0.000000 0.022031 0.000000
# 6 0.000000 0.000000 0.000000 -0.002510 0.000000 0.029600
#
#
# Mechanical properties :
#
#
# Convention : Reuss Voigt Hill
#
# Bulk Modulus (GPa) = 59.86518 60.20082 60.03300
# Shear Modulus (GPa) = 33.72039 35.13799 34.42919
#
# Velocity S-wave (km/s) = 4.05013 4.13438 4.09247
# Velocity P-wave (km/s) = 7.14095 7.21637 7.17876
#
# Compressibility (1/GPa) = 0.01670420
#
# Stress axis : x y z
#
# Youngs Moduli (GPa) = 86.74625 78.00778 69.75738
#
# Poissons Ratio (x) = 0.09301 0.30869
# Poissons Ratio (y) = 0.10343 0.37471
# Poissons Ratio (z) = 0.38387 0.41903
#
# Static dielectric constant tensor:
#      x y z
#    x 4.086950 0.000000 -0.224370 
#    y 0.000000 3.787180 0.000000 
#    z -0.224370 0.000000 3.661500 
# 
# 
# High freq. dielectric constant tensor:
#      x y z
#    x 1.809650 0.000000 0.004820 
#    y 0.000000 1.807760 0.000000 
#    z 0.004820 0.000000 1.799130 
# 
# From -- ./inp_files/66213.got.cif
#   From: 2010.06.25/outbox.cif.g09.slc.cpg/sg13_34_cif.got.tgz:66213.got - 2010.06.28 04:50:58.
