data_PCOD8121343
_publ_section_title
;
Structure prediction by ZEFSAII (Michael W. Deem and Ramdas Pophale) SiO2 
 PCOD8121343
Probable space group: P 2/C
;
_chemical_formula_sum "Si O2"
_cell_formula_units_Z 28
_cell_length_a 15.648608
_cell_length_b 10.842410
_cell_length_c 9.675909
_cell_angle_alpha 90.000000
_cell_angle_beta 124.078004
_cell_angle_gamma 90.000000
_cell_volume 1359.778375
_symmetry_space_group_name_H-M "P 2/C"
_symmetry_group_IT_number 13
_symmetry_cell_setting 'monoclinic'
loop_
_space_group_symop_operation_xyz
x,y,z
-x,y,1/2-z
-x,-y,-z
x,-y,1/2+z
loop_
_atom_site_type_symbol
_atom_site_label
_atom_site_fract_x
_atom_site_fract_y
_atom_site_fract_z
Si Si1 0.383682 0.117994 0.804554
Si Si2 0.102081 0.158742 0.918614
Si Si3 0.922643 0.508249 0.304226
Si Si4 0.902042 0.874889 0.581724
Si Si5 0.618016 0.123082 0.022422
Si Si6 0.802847 0.249881 0.747392
Si Si7 0.191734 0.740353 0.773190
O O1 0.371235 0.092679 0.630626
O O2 0.308890 0.231041 0.783437
O O3 0.348692 0.995551 0.855925
O O4 0.499500 0.157156 0.948607
O O5 0.196271 0.177049 0.897436
O O6 0.000000 0.212756 0.750000
O O7 0.087255 0.017356 0.944694
O O8 0.123530 0.232533 0.077155
O O9 0.833438 0.609264 0.247664
O O10 0.850188 0.389314 0.208658
O O11 0.000000 0.537385 0.250000
O O12 0.000000 0.500000 0.500000
O O13 0.890917 0.806725 0.426550
O O14 0.812826 0.845336 0.610557
O O15 0.000000 0.818935 0.750000
O O16 0.684739 0.242500 0.138001
#
# Coordination Sequence:
#
# PCOD8121343 Si02
#       7
#     4   4   4   4   4   4   4
#     4  10  22  41  67  98 131 161 205 260 327 383
#     4  11  23  37  57  91 127 159 200 260 322 381
#     4  12  26  44  63  86 125 175 222 259 300 368
#     4  11  21  35  59  87 121 156 201 257 322 383
#     4  10  22  41  67  99 129 163 203 262 324 388
#     4  12  23  39  60  89 123 167 210 258 311 367
#     4  12  23  39  62  89 123 168 213 253 313 373
#
# _framework density 20.59159
#
# number of rings (size 3 to 8) (size 9 to 14) (size 15 to 20)
#    0.000    0.857    1.429    7.714    2.000    2.286 
#    0.000    0.714    0.000    0.000    0.000    0.000 
#    0.000    0.000    0.000    0.000    0.000    0.000 
#
# Total GULP energy -347043.538395 kJ/mol
# GULP energy per Si atom -12394.412086 kJ/mol
# Density = 2.054472 g / cm^3
# Si number density = 20.591590 Si / 1000 Ang^3
#
#
#
# Elastic Constant Matrix: (Units=GPa)
#
#
# Indices 1 2 3 4 5 6 
#
# 1 102.5153 61.3146 21.1740 0.0000 4.7259 0.0000
# 2 61.3146 95.1750 45.6706 0.0000 7.4057 0.0000
# 3 21.1740 45.6706 74.6042 0.0000 -1.6785 0.0000
# 4 0.0000 0.0000 0.0000 12.9099 0.0000 -20.1478
# 5 4.7259 7.4057 -1.6785 0.0000 46.2453 0.0000
# 6 0.0000 0.0000 0.0000 -20.1478 0.0000 -8.2177
#
#
#
# Elastic Compliance Matrix: (Units=1/GPa)
#
#
# Indices 1 2 3 4 5 6 
#
# 1 0.016206 -0.011696 0.002568 0.000000 0.000310 0.000000
# 2 -0.011696 0.023668 -0.011237 0.000000 -0.003003 0.000000
# 3 0.002568 -0.011237 0.019605 0.000000 0.002249 0.000000
# 4 0.000000 0.000000 0.000000 0.016049 0.000000 -0.039349
# 5 0.000310 -0.003003 0.002249 0.000000 0.022155 0.000000
# 6 0.000000 0.000000 0.000000 -0.039349 0.000000 -0.025213
#
#
# Mechanical properties :
#
#
# Convention : Reuss Voigt Hill
#
# Bulk Modulus (GPa) = 53.34071 58.73477 56.03774
# Shear Modulus (GPa) = 41.85892 19.79650 30.82771
#
# Velocity S-wave (km/s) = 4.51357 3.10399 3.87344
# Velocity P-wave (km/s) = 7.28858 6.43676 6.87588
#
# Compressibility (1/GPa) = 0.01874741
#
# Stress axis : x y z
#
# Youngs Moduli (GPa) = 61.70680 42.25138 51.00830
#
# Poissons Ratio (x) = 0.49419 -0.13098
# Poissons Ratio (y) = 0.72175 0.57316
# Poissons Ratio (z) = -0.15845 0.47477
#
# Static dielectric constant tensor:
#      x y z
#    x 4.067280 0.000000 0.016980 
#    y 0.000000 3.519770 0.000000 
#    z 0.016980 0.000000 3.849970 
# 
# 
# High freq. dielectric constant tensor:
#      x y z
#    x 1.815590 0.000000 -0.010910 
#    y 0.000000 1.778980 0.000000 
#    z -0.010910 0.000000 1.819260 
# 
# From -- ./inp_files/19118.got.cif
#   From: 2010.06.25/outbox.cif.g09.slc.cpg/sg13_10_cif.got.tgz:19118.got - 2010.06.28 04:50:58.
