data_PCOD8121699
_publ_section_title
;
Structure prediction by ZEFSAII (Michael W. Deem and Ramdas Pophale) SiO2 
 PCOD8121699
Probable space group: P 2/C
;
_chemical_formula_sum "Si O2"
_cell_formula_units_Z 24
_cell_length_a 11.888296
_cell_length_b 6.385073
_cell_length_c 16.496842
_cell_angle_alpha 90.000000
_cell_angle_beta 76.159207
_cell_angle_gamma 90.000000
_cell_volume 1215.876630
_symmetry_space_group_name_H-M "P 2/C"
_symmetry_group_IT_number 13
_symmetry_cell_setting 'monoclinic'
loop_
_space_group_symop_operation_xyz
x,y,z
-x,y,1/2-z
-x,-y,-z
x,-y,1/2+z
loop_
_atom_site_type_symbol
_atom_site_label
_atom_site_fract_x
_atom_site_fract_y
_atom_site_fract_z
Si Si1 0.339519 0.197516 0.012298
Si Si2 0.111401 0.561692 0.811213
Si Si3 0.475167 0.127709 0.390928
Si Si4 0.885634 0.805369 0.848478
Si Si5 0.500000 0.184583 0.750000
Si Si6 0.338997 0.510769 0.362550
Si Si7 0.000000 0.183286 0.750000
O O1 0.425778 0.236524 0.072417
O O2 0.208346 0.181764 0.065008
O O3 0.345837 0.394184 0.951222
O O4 0.376266 0.980830 0.963055
O O5 0.159403 0.669758 0.720577
O O6 0.208716 0.553815 0.863004
O O7 0.002612 0.696984 0.862985
O O8 0.072906 0.324913 0.799489
O O9 0.416200 0.303292 0.346153
O O10 0.533306 0.955592 0.322034
O O11 0.911639 0.041596 0.816496
O O12 0.612437 0.325934 0.712057
#
# Coordination Sequence:
#
# PCOD8121699 Si02
#       7
#     4   4   4   4   2   4   2
#     4  10  23  39  60  88 124 158 199 238 311 348
#     4   9  21  37  59  91 115 152 209 239 296 351
#     4  10  23  41  57  90 123 158 200 245 292 363
#     4   9  20  37  60  87 116 163 195 249 293 349
#     4  10  24  36  60  92 110 164 202 238 306 344
#     4  11  23  40  60  89 123 153 198 257 291 358
#     4   8  18  38  58  88 118 152 204 242 290 352
#
# _framework density 19.738845000000001
#
# number of rings (size 3 to 8) (size 9 to 14) (size 15 to 20)
#    0.000    2.667    0.000    1.000    7.000    7.333 
#    0.000    1.667    0.000    0.000    0.000    0.000 
#    0.000    0.000    0.000    0.000    0.000    0.000 
#
# Total GULP energy -297634.666901 kJ/mol
# GULP energy per Si atom -12401.444454 kJ/mol
# Density = 1.969392 g / cm^3
# Si number density = 19.738845 Si / 1000 Ang^3
#
#
#
# Elastic Constant Matrix: (Units=GPa)
#
#
# Indices 1 2 3 4 5 6 
#
# 1 133.5302 49.5478 54.7533 0.0000 10.8458 0.0000
# 2 49.5478 113.0005 33.9468 0.0000 0.2284 0.0000
# 3 54.7533 33.9468 89.8675 0.0000 -19.3693 0.0000
# 4 0.0000 0.0000 0.0000 16.8340 0.0000 -0.4445
# 5 10.8458 0.2284 -19.3693 0.0000 41.8087 0.0000
# 6 0.0000 0.0000 0.0000 -0.4445 0.0000 21.9425
#
#
#
# Elastic Compliance Matrix: (Units=1/GPa)
#
#
# Indices 1 2 3 4 5 6 
#
# 1 0.012415 -0.003061 -0.007886 0.000000 -0.006857 0.000000
# 2 -0.003061 0.010890 -0.002322 0.000000 -0.000341 0.000000
# 3 -0.007886 -0.002322 0.019167 0.000000 0.010938 0.000000
# 4 0.000000 0.000000 0.000000 0.059435 0.000000 0.001204
# 5 -0.006857 -0.000341 0.010938 0.000000 0.030767 0.000000
# 6 0.000000 0.000000 0.000000 0.001204 0.000000 0.045598
#
#
# Mechanical properties :
#
#
# Convention : Reuss Voigt Hill
#
# Bulk Modulus (GPa) = 62.75944 68.09934 65.42939
# Shear Modulus (GPa) = 23.79568 29.32705 26.56136
#
# Velocity S-wave (km/s) = 3.47583 3.85873 3.67227
# Velocity P-wave (km/s) = 6.92622 7.37754 7.15544
#
# Compressibility (1/GPa) = 0.01593386
#
# Stress axis : x y z
#
# Youngs Moduli (GPa) = 80.54558 91.82769 52.17315
#
# Poissons Ratio (x) = 0.28107 0.41144
# Poissons Ratio (y) = 0.24654 0.12116
# Poissons Ratio (z) = 0.63519 0.21325
#
# Static dielectric constant tensor:
#      x y z
#    x 3.393610 0.000000 -0.051270 
#    y 0.000000 3.665290 0.000000 
#    z -0.051270 0.000000 3.475330 
# 
# 
# High freq. dielectric constant tensor:
#      x y z
#    x 1.759840 0.000000 -0.004470 
#    y 0.000000 1.781200 0.000000 
#    z -0.004470 0.000000 1.760260 
# 
# From -- ./inp_files/65315.got.cif
#   From: 2010.06.25/outbox.cif.g09.slc.cpg/sg13_33_cif.got.tgz:65315.got - 2010.06.28 04:50:58.
