data_PCOD8121492
_publ_section_title
;
Structure prediction by ZEFSAII (Michael W. Deem and Ramdas Pophale) SiO2 
 PCOD8121492
Probable space group: P 2/C
;
_chemical_formula_sum "Si O2"
_cell_formula_units_Z 20
_cell_length_a 7.973348
_cell_length_b 5.072510
_cell_length_c 23.027135
_cell_angle_alpha 90.000000
_cell_angle_beta 117.592987
_cell_angle_gamma 90.000000
_cell_volume 825.400683
_symmetry_space_group_name_H-M "P 2/C"
_symmetry_group_IT_number 13
_symmetry_cell_setting 'monoclinic'
loop_
_space_group_symop_operation_xyz
x,y,z
-x,y,1/2-z
-x,-y,-z
x,-y,1/2+z
loop_
_atom_site_type_symbol
_atom_site_label
_atom_site_fract_x
_atom_site_fract_y
_atom_site_fract_z
Si Si1 0.672882 0.925134 0.388620
Si Si2 0.529920 0.439301 0.174295
Si Si3 0.017050 0.178098 0.879638
Si Si4 0.423347 0.330956 0.935267
Si Si5 0.901725 0.324921 0.294166
O O1 0.575773 0.714624 0.328303
O O2 0.900764 0.886874 0.420334
O O3 0.591277 0.868326 0.440415
O O4 0.628688 0.216086 0.359200
O O5 0.635802 0.478785 0.128387
O O6 0.674960 0.358216 0.248281
O O7 0.970746 0.476435 0.854379
O O8 0.242222 0.159383 0.926677
O O9 0.951123 0.974552 0.819238
O O10 0.500000 0.500000 0.000000
O O11 0.000000 0.397975 0.250000
#
# Coordination Sequence:
#
# PCOD8121492 Si02
#       5
#     4   4   4   4   4
#     4  10  23  43  62 102 129 168 228 263 340 398
#     4  10  22  43  63  96 136 169 215 275 331 391
#     4  12  25  40  69  98 128 179 215 275 337 393
#     4  10  25  47  68  93 135 177 224 278 327 393
#     4  12  22  40  67  98 136 168 221 268 333 414
#
# _framework density 24.230657999999998
#
# number of rings (size 3 to 8) (size 9 to 14) (size 15 to 20)
#    1.200    0.000    2.000    4.200    0.000    6.400 
#    0.000    1.000    0.000    0.000    0.000    0.000 
#    0.000    0.000    0.000    0.000    0.000    0.000 
#
# Total GULP energy -247906.095642 kJ/mol
# GULP energy per Si atom -12395.304782 kJ/mol
# Density = 2.417551 g / cm^3
# Si number density = 24.230658 Si / 1000 Ang^3
#
#
#
# Elastic Constant Matrix: (Units=GPa)
#
#
# Indices 1 2 3 4 5 6 
#
# 1 171.7770 7.4197 5.2703 0.0000 23.9145 0.0000
# 2 7.4197 110.0343 3.8064 0.0000 3.6274 0.0000
# 3 5.2703 3.8064 48.3146 0.0000 -1.6050 0.0000
# 4 0.0000 0.0000 0.0000 23.2766 0.0000 -4.7509
# 5 23.9145 3.6274 -1.6050 0.0000 17.8701 0.0000
# 6 0.0000 0.0000 0.0000 -4.7509 0.0000 21.2010
#
#
#
# Elastic Compliance Matrix: (Units=1/GPa)
#
#
# Indices 1 2 3 4 5 6 
#
# 1 0.007215 -0.000128 -0.001100 0.000000 -0.009729 0.000000
# 2 -0.000128 0.009181 -0.000768 0.000000 -0.001762 0.000000
# 3 -0.001100 -0.000768 0.020995 0.000000 0.003514 0.000000
# 4 0.000000 0.000000 0.000000 0.045021 0.000000 0.010089
# 5 -0.009729 -0.001762 0.003514 0.000000 0.069652 0.000000
# 6 0.000000 0.000000 0.000000 0.010089 0.000000 0.049428
#
#
# Mechanical properties :
#
#
# Convention : Reuss Voigt Hill
#
# Bulk Modulus (GPa) = 29.94035 40.34651 35.14343
# Shear Modulus (GPa) = 23.08219 33.37816 28.23017
#
# Velocity S-wave (km/s) = 3.08977 3.71552 3.41700
# Velocity P-wave (km/s) = 5.01120 5.92401 5.48662
#
# Compressibility (1/GPa) = 0.03339974
#
# Stress axis : x y z
#
# Youngs Moduli (GPa) = 138.59706 108.91663 47.63054
#
# Poissons Ratio (x) = 0.01391 0.05240
# Poissons Ratio (y) = 0.01771 0.03658
# Poissons Ratio (z) = 0.15248 0.08364
#
# Static dielectric constant tensor:
#      x y z
#    x 4.786210 0.000000 0.018980 
#    y 0.000000 4.187450 0.000000 
#    z 0.018980 0.000000 3.726310 
# 
# 
# High freq. dielectric constant tensor:
#      x y z
#    x 1.990050 0.000000 0.000440 
#    y 0.000000 1.965450 0.000000 
#    z 0.000440 0.000000 1.915040 
# 
# From -- ./inp_files/74239.got.cif
#   From: 2010.06.25/outbox.cif.g09.slc.cpg/sg13_38_cif.got.tgz:74239.got - 2010.06.28 04:50:58.
