data_PCOD8121027
_publ_section_title
;
Structure prediction by ZEFSAII (Michael W. Deem and Ramdas Pophale) SiO2 
 PCOD8121027
Probable space group: P 2/C
;
_chemical_formula_sum "Si O2"
_cell_formula_units_Z 24
_cell_length_a 5.392654
_cell_length_b 11.125031
_cell_length_c 20.171827
_cell_angle_alpha 90.000000
_cell_angle_beta 58.352689
_cell_angle_gamma 90.000000
_cell_volume 1030.216684
_symmetry_space_group_name_H-M "P 2/C"
_symmetry_group_IT_number 13
_symmetry_cell_setting 'monoclinic'
loop_
_space_group_symop_operation_xyz
x,y,z
-x,y,1/2-z
-x,-y,-z
x,-y,1/2+z
loop_
_atom_site_type_symbol
_atom_site_label
_atom_site_fract_x
_atom_site_fract_y
_atom_site_fract_z
Si Si1 0.747326 0.946613 0.097037
Si Si2 0.500000 0.169483 0.750000
Si Si3 0.639652 0.822093 0.452474
Si Si4 0.425325 0.204400 0.391855
Si Si5 0.992143 0.356004 0.826319
Si Si6 0.787650 0.596001 0.668886
Si Si7 0.000000 0.245470 0.250000
O O1 0.500494 0.914846 0.185570
O O2 0.606549 0.904761 0.046833
O O3 0.060089 0.891190 0.071367
O O4 0.790791 0.090632 0.086966
O O5 0.219198 0.249841 0.793970
O O6 0.500652 0.776326 0.541082
O O7 0.697951 0.707061 0.395395
O O8 0.278444 0.329334 0.388543
O O9 0.705282 0.170472 0.305425
O O10 0.065971 0.466063 0.865999
O O11 0.000000 0.408063 0.750000
O O12 0.500000 0.566321 0.750000
O O13 0.998649 0.674836 0.684242
#
# Coordination Sequence:
#
# PCOD8121027 Si02
#       7
#     4   2   4   4   4   4   2
#     4  11  25  43  70 102 139 184 223 292 344 418
#     4  10  22  38  66  96 128 170 242 270 344 406
#     4  11  26  44  71 101 141 185 225 291 351 411
#     4  11  26  43  66 101 140 179 235 278 361 419
#     4  11  20  41  67  95 136 177 237 285 343 416
#     4  10  22  40  65  97 129 186 227 292 342 409
#     4  10  24  40  66  92 130 178 224 280 334 412
#
# _framework density 23.296071000000001
#
# number of rings (size 3 to 8) (size 9 to 14) (size 15 to 20)
#    0.000    1.333    3.333    1.000    8.167    2.000 
#    0.000    0.833    0.000    0.000    0.000    0.000 
#    0.000    0.000    0.000    0.000    0.000    0.000 
#
# Total GULP energy -297392.157964 kJ/mol
# GULP energy per Si atom -12391.339915 kJ/mol
# Density = 2.324305 g / cm^3
# Si number density = 23.296071 Si / 1000 Ang^3
#
#
#
# Elastic Constant Matrix: (Units=GPa)
#
#
# Indices 1 2 3 4 5 6 
#
# 1 78.4736 18.0025 14.1085 0.0000 9.3116 0.0000
# 2 18.0025 115.5270 43.2493 0.0000 2.0394 0.0000
# 3 14.1085 43.2493 126.2841 0.0000 13.6425 0.0000
# 4 0.0000 0.0000 0.0000 23.1418 0.0000 14.7842
# 5 9.3116 2.0394 13.6425 0.0000 24.9419 0.0000
# 6 0.0000 0.0000 0.0000 14.7842 0.0000 11.4582
#
#
#
# Elastic Compliance Matrix: (Units=1/GPa)
#
#
# Indices 1 2 3 4 5 6 
#
# 1 0.013822 -0.001933 -0.000363 0.000000 -0.004803 0.000000
# 2 -0.001933 0.010229 -0.003480 0.000000 0.001789 0.000000
# 3 -0.000363 -0.003480 0.009678 0.000000 -0.004873 0.000000
# 4 0.000000 0.000000 0.000000 0.245928 0.000000 -0.317313
# 5 -0.004803 0.001789 -0.004873 0.000000 0.044406 0.000000
# 6 0.000000 0.000000 0.000000 -0.317313 0.000000 0.496693
#
#
# Mechanical properties :
#
#
# Convention : Reuss Voigt Hill
#
# Bulk Modulus (GPa) = 45.09635 52.33394 48.71514
# Shear Modulus (GPa) = 5.95451 28.23668 17.09560
#
# Velocity S-wave (km/s) = 1.60049 3.48527 2.71189
# Velocity P-wave (km/s) = 4.77654 6.22171 5.54639
#
# Compressibility (1/GPa) = 0.02217474
#
# Stress axis : x y z
#
# Youngs Moduli (GPa) = 72.34908 97.76559 103.33116
#
# Poissons Ratio (x) = 0.18899 0.03753
# Poissons Ratio (y) = 0.13986 0.35963
# Poissons Ratio (z) = 0.02628 0.34026
#
# Static dielectric constant tensor:
#      x y z
#    x 3.962220 0.000000 0.074110 
#    y 0.000000 4.202150 0.000000 
#    z 0.074110 0.000000 4.939700 
# 
# 
# High freq. dielectric constant tensor:
#      x y z
#    x 1.913620 0.000000 0.001850 
#    y 0.000000 1.916960 0.000000 
#    z 0.001850 0.000000 1.923960 
# 
# From -- ./inp_files/61060.got.cif
#   From: 2010.06.25/outbox.cif.g09.slc.cpg/sg13_31_cif.got.tgz:61060.got - 2010.06.28 04:50:58.
