data_PCOD8121932
_publ_section_title
;
Structure prediction by ZEFSAII (Michael W. Deem and Ramdas Pophale) SiO2 
 PCOD8121932
Probable space group: P 2/C
;
_chemical_formula_sum "Si O2"
_cell_formula_units_Z 22
_cell_length_a 16.721671
_cell_length_b 11.018840
_cell_length_c 14.183943
_cell_angle_alpha 90.000000
_cell_angle_beta 158.109177
_cell_angle_gamma 90.000000
_cell_volume 974.392782
_symmetry_space_group_name_H-M "P 2/C"
_symmetry_group_IT_number 13
_symmetry_cell_setting 'monoclinic'
loop_
_space_group_symop_operation_xyz
x,y,z
-x,y,1/2-z
-x,-y,-z
x,-y,1/2+z
loop_
_atom_site_type_symbol
_atom_site_label
_atom_site_fract_x
_atom_site_fract_y
_atom_site_fract_z
Si Si1 0.670929 0.752186 0.019362
Si Si2 0.332403 0.286706 0.294871
Si Si3 0.279756 0.321540 0.459433
Si Si4 0.026801 0.936189 0.431393
Si Si5 0.000000 0.124191 0.250000
Si Si6 0.991939 0.462776 0.884115
O O1 0.500000 0.753413 0.750000
O O2 0.568702 0.732632 0.011611
O O3 0.827018 0.640621 0.175809
O O4 0.798102 0.878521 0.152829
O O5 0.336499 0.302898 0.411736
O O6 0.203313 0.166946 0.127817
O O7 0.228686 0.404423 0.126682
O O8 0.192258 0.200625 0.413296
O O9 0.086197 0.420152 0.260702
O O10 0.500000 0.364294 0.750000
O O11 0.104813 0.037929 0.443366
O O12 0.000000 0.000000 0.500000
O O13 0.000000 0.500000 0.000000
#
# Coordination Sequence:
#
# PCOD8121932 Si02
#       6
#     4   4   4   4   2   4
#     4  11  24  42  70  98 129 174 230 274 328 401
#     4  10  23  45  70  96 130 179 223 271 337 398
#     4  11  25  40  66 102 135 175 221 275 334 404
#     4  11  24  45  67  95 135 179 220 282 333 390
#     4  12  26  44  66  96 138 174 228 274 340 390
#     4   9  22  43  67  99 135 174 218 273 343 393
#
# _framework density 22.578164999999998
#
# number of rings (size 3 to 8) (size 9 to 14) (size 15 to 20)
#    0.000    1.455    1.818    1.636    2.545   10.909 
#    0.000    0.000    0.000    0.000    0.000    0.000 
#    0.000    0.000    0.000    0.000    0.000    0.000 
#
# Total GULP energy -272666.256884 kJ/mol
# GULP energy per Si atom -12393.920767 kJ/mol
# Density = 2.252678 g / cm^3
# Si number density = 22.578165 Si / 1000 Ang^3
#
#
#
# Elastic Constant Matrix: (Units=GPa)
#
#
# Indices 1 2 3 4 5 6 
#
# 1 105.9839 29.3230 17.8674 0.0000 -12.7137 0.0000
# 2 29.3230 121.8479 32.2777 0.0000 -17.1205 0.0000
# 3 17.8674 32.2777 96.2843 0.0000 -23.0553 0.0000
# 4 0.0000 0.0000 0.0000 19.1830 0.0000 -9.8486
# 5 -12.7137 -17.1205 -23.0553 0.0000 36.2560 0.0000
# 6 0.0000 0.0000 0.0000 -9.8486 0.0000 30.4289
#
#
#
# Elastic Compliance Matrix: (Units=1/GPa)
#
#
# Indices 1 2 3 4 5 6 
#
# 1 0.010377 -0.001991 -0.000722 0.000000 0.002239 0.000000
# 2 -0.001991 0.009628 -0.002284 0.000000 0.002395 0.000000
# 3 -0.000722 -0.002284 0.012937 0.000000 0.006895 0.000000
# 4 0.000000 0.000000 0.000000 0.062518 0.000000 0.020235
# 5 0.002239 0.002395 0.006895 0.000000 0.033882 0.000000
# 6 0.000000 0.000000 0.000000 0.020235 0.000000 0.039413
#
#
# Mechanical properties :
#
#
# Convention : Reuss Voigt Hill
#
# Bulk Modulus (GPa) = 43.58070 53.67247 48.62659
# Shear Modulus (GPa) = 26.82432 33.48345 30.15388
#
# Velocity S-wave (km/s) = 3.45057 3.85515 3.65846
# Velocity P-wave (km/s) = 5.93458 6.60604 6.27929
#
# Compressibility (1/GPa) = 0.02294594
#
# Stress axis : x y z
#
# Youngs Moduli (GPa) = 96.37017 103.86477 77.30015
#
# Poissons Ratio (x) = 0.20683 0.05580
# Poissons Ratio (y) = 0.19190 0.17659
# Poissons Ratio (z) = 0.06956 0.23728
#
# Static dielectric constant tensor:
#      x y z
#    x 3.793720 0.000000 -0.185040 
#    y 0.000000 1.225650 0.000000 
#    z -0.185040 0.000000 4.140080 
# 
# 
# High freq. dielectric constant tensor:
#      x y z
#    x 1.896540 0.000000 -0.012120 
#    y 0.000000 1.905920 0.000000 
#    z -0.012120 0.000000 1.888950 
# 
# From -- ./inp_files/55748.got.cif
#   From: 2010.06.25/outbox.cif.g09.slc.cpg/sg13_28_cif.got.tgz:55748.got - 2010.06.28 04:50:58.
