data_PCOD8121134
_publ_section_title
;
Structure prediction by ZEFSAII (Michael W. Deem and Ramdas Pophale) SiO2 
 PCOD8121134
Probable space group: P 2/C
;
_chemical_formula_sum "Si O2"
_cell_formula_units_Z 24
_cell_length_a 13.601209
_cell_length_b 11.315224
_cell_length_c 14.115137
_cell_angle_alpha 90.000000
_cell_angle_beta 30.125394
_cell_angle_gamma 90.000000
_cell_volume 1090.279596
_symmetry_space_group_name_H-M "P 2/C"
_symmetry_group_IT_number 13
_symmetry_cell_setting 'monoclinic'
loop_
_space_group_symop_operation_xyz
x,y,z
-x,y,1/2-z
-x,-y,-z
x,-y,1/2+z
loop_
_atom_site_type_symbol
_atom_site_label
_atom_site_fract_x
_atom_site_fract_y
_atom_site_fract_z
Si Si1 0.147405 0.699840 0.487098
Si Si2 0.815359 0.080425 0.655564
Si Si3 0.423428 0.988736 0.416041
Si Si4 0.737821 0.746855 0.905496
Si Si5 0.809201 0.215046 0.848175
Si Si6 0.617403 0.382267 0.878950
O O1 0.204246 0.834949 0.418237
O O2 0.245116 0.677202 0.508270
O O3 0.223392 0.608580 0.341157
O O4 0.910639 0.697780 0.693888
O O5 0.867049 0.162572 0.700013
O O6 0.611109 0.007548 0.831961
O O7 0.000000 0.000000 0.500000
O O8 0.500000 0.952228 0.250000
O O9 0.329141 0.119013 0.485282
O O10 0.261601 0.890532 0.583868
O O11 0.530840 0.718751 0.031465
O O12 0.706727 0.340006 0.905807
O O13 0.000000 0.244389 0.750000
O O14 0.500000 0.500000 0.000000
#
# Coordination Sequence:
#
# PCOD8121134 Si02
#       6
#     4   4   4   4   4   4
#     4  10  22  39  70 102 127 170 225 289 339 409
#     4  11  21  35  61  96 141 175 222 266 341 422
#     4  12  21  37  64 100 143 181 221 278 354 429
#     4  11  21  41  70 104 130 169 230 281 353 418
#     4  11  25  41  60  97 143 183 223 282 352 420
#     4  11  25  48  70  91 134 181 244 294 343 402
#
# _framework density 22.012702999999998
#
# number of rings (size 3 to 8) (size 9 to 14) (size 15 to 20)
#    0.000    1.000    5.000    3.000    4.667    0.667 
#    3.000    1.667    0.000    0.000    0.000    0.000 
#    0.000    0.000    0.000    0.000    0.000    0.000 
#
# Total GULP energy -297369.747604 kJ/mol
# GULP energy per Si atom -12390.406150 kJ/mol
# Density = 2.196260 g / cm^3
# Si number density = 22.012703 Si / 1000 Ang^3
#
#
#
# Elastic Constant Matrix: (Units=GPa)
#
#
# Indices 1 2 3 4 5 6 
#
# 1 135.9427 36.8483 44.5280 0.0000 -24.9502 0.0000
# 2 36.8483 97.0602 46.2058 0.0000 0.1025 0.0000
# 3 44.5280 46.2058 140.6665 0.0000 0.9004 0.0000
# 4 0.0000 0.0000 0.0000 64.3238 0.0000 -13.1880
# 5 -24.9502 0.1025 0.9004 0.0000 31.9528 0.0000
# 6 0.0000 0.0000 0.0000 -13.1880 0.0000 24.9743
#
#
#
# Elastic Compliance Matrix: (Units=1/GPa)
#
#
# Indices 1 2 3 4 5 6 
#
# 1 0.010420 -0.002809 -0.002429 0.000000 0.008214 0.000000
# 2 -0.002809 0.012970 -0.003358 0.000000 -0.002140 0.000000
# 3 -0.002429 -0.003358 0.008994 0.000000 -0.002139 0.000000
# 4 0.000000 0.000000 0.000000 0.017434 0.000000 0.009206
# 5 0.008214 -0.002140 -0.002139 0.000000 0.037777 0.000000
# 6 0.000000 0.000000 0.000000 0.009206 0.000000 0.044902
#
#
# Mechanical properties :
#
#
# Convention : Reuss Voigt Hill
#
# Bulk Modulus (GPa) = 65.81066 69.87041 67.84053
# Shear Modulus (GPa) = 32.30966 40.65602 36.48284
#
# Velocity S-wave (km/s) = 3.83531 4.30226 4.07548
# Velocity P-wave (km/s) = 7.04091 7.51592 7.28229
#
# Compressibility (1/GPa) = 0.01519511
#
# Stress axis : x y z
#
# Youngs Moduli (GPa) = 95.96567 77.10242 111.18091
#
# Poissons Ratio (x) = 0.21655 0.27001
# Poissons Ratio (y) = 0.26953 0.37329
# Poissons Ratio (z) = 0.23306 0.25887
#
# Static dielectric constant tensor:
#      x y z
#    x 4.085100 0.000000 -0.027750 
#    y 0.000000 3.590810 0.000000 
#    z -0.027750 0.000000 4.113470 
# 
# 
# High freq. dielectric constant tensor:
#      x y z
#    x 1.877560 0.000000 -0.003260 
#    y 0.000000 1.829680 0.000000 
#    z -0.003260 0.000000 1.874420 
# 
# From -- ./inp_files/53465.got.cif
#   From: 2010.06.25/outbox.cif.g09.slc.cpg/sg13_27_cif.got.tgz:53465.got - 2010.06.28 04:50:58.
