data_PCOD8121653
_publ_section_title
;
Structure prediction by ZEFSAII (Michael W. Deem and Ramdas Pophale) SiO2 
 PCOD8121653
Probable space group: P 2/C
;
_chemical_formula_sum "Si O2"
_cell_formula_units_Z 22
_cell_length_a 16.232144
_cell_length_b 8.551466
_cell_length_c 26.362400
_cell_angle_alpha 90.000000
_cell_angle_beta 16.388739
_cell_angle_gamma 90.000000
_cell_volume 1032.490189
_symmetry_space_group_name_H-M "P 2/C"
_symmetry_group_IT_number 13
_symmetry_cell_setting 'monoclinic'
loop_
_space_group_symop_operation_xyz
x,y,z
-x,y,1/2-z
-x,-y,-z
x,-y,1/2+z
loop_
_atom_site_type_symbol
_atom_site_label
_atom_site_fract_x
_atom_site_fract_y
_atom_site_fract_z
Si Si1 0.353466 0.063609 0.451759
Si Si2 0.098641 0.347898 0.553439
Si Si3 0.500000 0.445560 0.750000
Si Si4 0.016543 0.602269 0.681661
Si Si5 0.269716 0.919785 0.671715
Si Si6 0.426437 0.250848 0.698048
O O1 0.347071 0.231002 0.427906
O O2 0.594788 0.075730 0.352742
O O3 0.468499 0.922882 0.348070
O O4 0.026250 0.018543 0.662160
O O5 0.238708 0.455141 0.427633
O O6 0.951059 0.451054 0.685339
O O7 0.856933 0.241004 0.669711
O O8 0.356100 0.340513 0.791300
O O9 0.778114 0.738173 0.814088
O O10 0.000000 0.549071 0.750000
O O11 0.333601 0.663541 0.478327
O O12 0.500000 0.000000 0.500000
#
# Coordination Sequence:
#
# PCOD8121653 Si02
#       6
#     4   4   2   4   4   4
#     4  11  23  42  65  98 134 178 224 280 334 402
#     4  11  24  44  68  99 136 173 231 278 342 403
#     4  10  24  44  72  96 128 174 222 290 342 398
#     4  10  24  40  67  99 138 178 221 277 336 398
#     4  11  22  41  66  96 139 184 229 268 330 403
#     4  10  22  46  65  97 133 175 225 277 337 402
#
# _framework density 21.307708000000002
#
# number of rings (size 3 to 8) (size 9 to 14) (size 15 to 20)
#    0.000    1.455    1.818    3.273    5.091    2.909 
#    3.273    1.818    0.000    0.000    0.000    0.000 
#    0.000    0.000    0.000    0.000    0.000    0.000 
#
# Total GULP energy -272779.887772 kJ/mol
# GULP energy per Si atom -12399.085808 kJ/mol
# Density = 2.125921 g / cm^3
# Si number density = 21.307708 Si / 1000 Ang^3
#
#
#
# Elastic Constant Matrix: (Units=GPa)
#
#
# Indices 1 2 3 4 5 6 
#
# 1 111.3143 50.4822 45.4602 0.0000 9.1702 0.0000
# 2 50.4822 141.5713 39.0108 0.0000 14.0059 0.0000
# 3 45.4602 39.0108 71.2985 0.0000 6.5519 0.0000
# 4 0.0000 0.0000 0.0000 30.2112 0.0000 -12.0509
# 5 9.1702 14.0059 6.5519 0.0000 41.4317 0.0000
# 6 0.0000 0.0000 0.0000 -12.0509 0.0000 17.6948
#
#
#
# Elastic Compliance Matrix: (Units=1/GPa)
#
#
# Indices 1 2 3 4 5 6 
#
# 1 0.013041 -0.002699 -0.006755 0.000000 -0.000906 0.000000
# 2 -0.002699 0.009065 -0.003056 0.000000 -0.001983 0.000000
# 3 -0.006755 -0.003056 0.020064 0.000000 -0.000645 0.000000
# 4 0.000000 0.000000 0.000000 0.045446 0.000000 0.030951
# 5 -0.000906 -0.001983 -0.000645 0.000000 0.025109 0.000000
# 6 0.000000 0.000000 0.000000 0.030951 0.000000 0.077593
#
#
# Mechanical properties :
#
#
# Convention : Reuss Voigt Hill
#
# Bulk Modulus (GPa) = 58.31380 66.01006 62.16193
# Shear Modulus (GPa) = 22.61883 30.48293 26.55088
#
# Velocity S-wave (km/s) = 3.26165 3.78644 3.53380
# Velocity P-wave (km/s) = 6.45069 7.08257 6.77400
#
# Compressibility (1/GPa) = 0.01714860
#
# Stress axis : x y z
#
# Youngs Moduli (GPa) = 76.68139 110.32038 49.84072
#
# Poissons Ratio (x) = 0.29778 0.33667
# Poissons Ratio (y) = 0.20698 0.15233
# Poissons Ratio (z) = 0.51797 0.33717
#
# Static dielectric constant tensor:
#      x y z
#    x 4.230580 0.000000 -0.161300 
#    y 0.000000 4.329840 0.000000 
#    z -0.161300 0.000000 3.715900 
# 
# 
# High freq. dielectric constant tensor:
#      x y z
#    x 1.839710 0.000000 -0.009300 
#    y 0.000000 1.848870 0.000000 
#    z -0.009300 0.000000 1.825730 
# 
# From -- ./inp_files/87235.got.cif
#   From: 2010.06.25/outbox.cif.g09.slc.cpg/sg13_44_cif.got.tgz:87235.got - 2010.06.28 04:50:58.
