data_PCOD8121673
_publ_section_title
;
Structure prediction by ZEFSAII (Michael W. Deem and Ramdas Pophale) SiO2 
 PCOD8121673
Probable space group: P 2/C
;
_chemical_formula_sum "Si O2"
_cell_formula_units_Z 28
_cell_length_a 14.116604
_cell_length_b 11.128040
_cell_length_c 9.900938
_cell_angle_alpha 90.000000
_cell_angle_beta 123.824411
_cell_angle_gamma 90.000000
_cell_volume 1292.094366
_symmetry_space_group_name_H-M "P 2/C"
_symmetry_group_IT_number 13
_symmetry_cell_setting 'monoclinic'
loop_
_space_group_symop_operation_xyz
x,y,z
-x,y,1/2-z
-x,-y,-z
x,-y,1/2+z
loop_
_atom_site_type_symbol
_atom_site_label
_atom_site_fract_x
_atom_site_fract_y
_atom_site_fract_z
Si Si1 0.654161 0.206687 0.551272
Si Si2 0.307206 0.004067 0.111540
Si Si3 0.822398 0.214932 0.921885
Si Si4 0.414511 0.126554 0.451231
Si Si5 0.262941 0.339786 0.382135
Si Si6 0.977301 0.615286 0.889148
Si Si7 0.573286 0.461917 0.433268
O O1 0.747821 0.248072 0.732652
O O2 0.550650 0.133490 0.539713
O O3 0.599659 0.321791 0.436353
O O4 0.719184 0.125895 0.491294
O O5 0.388719 0.921981 0.081455
O O6 0.190832 0.928748 0.055686
O O7 0.366228 0.036078 0.299709
O O8 0.770097 0.284274 0.003560
O O9 0.950701 0.266346 0.005779
O O10 0.359134 0.258337 0.386543
O O11 0.154748 0.348823 0.196549
O O12 0.306641 0.471411 0.455385
O O13 0.000000 0.582600 0.750000
O O14 0.000000 0.500000 0.000000
O O15 0.500000 0.509107 0.250000
O O16 0.500000 0.500000 0.500000
#
# Coordination Sequence:
#
# PCOD8121673 Si02
#       7
#     4   4   4   4   4   4   4
#     4  12  23  38  64  96 138 175 224 269 331 399
#     4  11  23  40  61  96 134 178 222 271 325 405
#     4  10  23  42  68  94 127 174 227 273 330 389
#     4  11  23  39  63  95 133 181 218 265 336 399
#     4  10  23  42  69  93 135 171 215 276 339 392
#     4  10  22  47  72  98 126 173 227 278 334 397
#     4  12  24  40  59  98 140 170 214 270 333 403
#
# _framework density 21.670244
#
# number of rings (size 3 to 8) (size 9 to 14) (size 15 to 20)
#    0.000    1.143    2.857    3.429    2.000    2.286 
#    2.571    0.714    6.286    0.000    0.000    0.000 
#    0.000    0.000    0.000    0.000    0.000    0.000 
#
# Total GULP energy -347055.669572 kJ/mol
# GULP energy per Si atom -12394.845342 kJ/mol
# Density = 2.162092 g / cm^3
# Si number density = 21.670244 Si / 1000 Ang^3
#
#
#
# Elastic Constant Matrix: (Units=GPa)
#
#
# Indices 1 2 3 4 5 6 
#
# 1 51.8909 39.5318 52.6081 0.0000 24.7469 0.0000
# 2 39.5318 137.2277 46.6716 0.0000 14.8043 0.0000
# 3 52.6081 46.6716 133.4270 0.0000 17.9536 0.0000
# 4 0.0000 0.0000 0.0000 40.5830 0.0000 3.4320
# 5 24.7469 14.8043 17.9536 0.0000 32.1947 0.0000
# 6 0.0000 0.0000 0.0000 3.4320 0.0000 19.7395
#
#
#
# Elastic Compliance Matrix: (Units=1/GPa)
#
#
# Indices 1 2 3 4 5 6 
#
# 1 0.054098 -0.007340 -0.014726 0.000000 -0.029995 0.000000
# 2 -0.007340 0.009437 -0.000630 0.000000 0.001653 0.000000
# 3 -0.014726 -0.000630 0.012929 0.000000 0.004399 0.000000
# 4 0.000000 0.000000 0.000000 0.025009 0.000000 -0.004348
# 5 -0.029995 0.001653 0.004399 0.000000 0.050904 0.000000
# 6 0.000000 0.000000 0.000000 -0.004348 0.000000 0.051416
#
#
# Mechanical properties :
#
#
# Convention : Reuss Voigt Hill
#
# Bulk Modulus (GPa) = 32.18227 66.68541 49.43384
# Shear Modulus (GPa) = 19.26471 30.75238 25.00855
#
# Velocity S-wave (km/s) = 2.98483 3.77119 3.40082
# Velocity P-wave (km/s) = 5.17321 7.05706 6.18725
#
# Compressibility (1/GPa) = 0.03107301
#
# Stress axis : x y z
#
# Youngs Moduli (GPa) = 18.48510 105.96225 77.34295
#
# Poissons Ratio (x) = 0.77773 1.13898
# Poissons Ratio (y) = 0.13568 0.04870
# Poissons Ratio (z) = 0.27222 0.06672
#
# Static dielectric constant tensor:
#      x y z
#    x 4.051450 0.000000 0.124270 
#    y 0.000000 4.515260 0.000000 
#    z 0.124270 0.000000 3.986240 
# 
# 
# High freq. dielectric constant tensor:
#      x y z
#    x 1.824070 0.000000 -0.006030 
#    y 0.000000 1.867200 0.000000 
#    z -0.006030 0.000000 1.860670 
# 
# From -- ./inp_files/19138.got.cif
#   From: 2010.06.25/outbox.cif.g09.slc.cpg/sg13_10_cif.got.tgz:19138.got - 2010.06.28 04:50:58.
