data_PCOD8121098
_publ_section_title
;
Structure prediction by ZEFSAII (Michael W. Deem and Ramdas Pophale) SiO2 
 PCOD8121098
Probable space group: P 2/C
;
_chemical_formula_sum "Si O2"
_cell_formula_units_Z 28
_cell_length_a 8.558910
_cell_length_b 15.953353
_cell_length_c 19.084109
_cell_angle_alpha 90.000000
_cell_angle_beta 30.248769
_cell_angle_gamma 90.000000
_cell_volume 1312.689624
_symmetry_space_group_name_H-M "P 2/C"
_symmetry_group_IT_number 13
_symmetry_cell_setting 'monoclinic'
loop_
_space_group_symop_operation_xyz
x,y,z
-x,y,1/2-z
-x,-y,-z
x,-y,1/2+z
loop_
_atom_site_type_symbol
_atom_site_label
_atom_site_fract_x
_atom_site_fract_y
_atom_site_fract_z
Si Si1 0.395643 0.366164 0.710549
Si Si2 0.931630 0.751468 0.974212
Si Si3 0.647285 0.474038 0.370244
Si Si4 0.751888 0.797522 0.790244
Si Si5 0.217903 0.058236 0.961431
Si Si6 0.235216 0.319662 0.490971
Si Si7 0.142642 0.015253 0.266099
O O1 0.500000 0.383741 0.750000
O O2 0.611433 0.299128 0.586344
O O3 0.383404 0.451549 0.673061
O O4 0.049264 0.328985 0.845466
O O5 0.143686 0.757760 0.823789
O O6 0.851198 0.845428 0.031256
O O7 0.122091 0.696888 0.955920
O O8 0.500000 0.500000 0.500000
O O9 0.463213 0.398831 0.405009
O O10 0.000000 0.447789 0.250000
O O11 0.695177 0.896249 0.812130
O O12 0.000000 0.768541 0.750000
O O13 0.423439 0.761767 0.942258
O O14 0.586310 0.043299 0.806573
O O15 0.139544 0.033931 0.071793
O O16 0.000000 0.000000 0.000000
O O17 0.000000 0.976239 0.250000
#
# Coordination Sequence:
#
# PCOD8121098 Si02
#       7
#     4   4   4   4   4   4   4
#     4  10  25  44  63  92 130 165 210 261 318 381
#     4  10  24  42  63  94 130 167 216 261 325 378
#     4  12  26  46  69  97 128 164 215 261 319 382
#     4  10  22  39  63  95 127 170 213 265 317 382
#     4  11  22  39  66  96 128 175 221 272 316 390
#     4  11  23  41  64  93 126 165 207 263 316 379
#     4  10  22  40  61  93 135 169 219 269 329 384
#
# _framework density 21.330252999999999
#
# number of rings (size 3 to 8) (size 9 to 14) (size 15 to 20)
#    0.000    1.429    1.429    2.571    4.000   10.286 
#    0.000    0.714    0.000    0.000    0.000    0.000 
#    0.000    0.000    0.000    0.000    0.000    0.000 
#
# Total GULP energy -347199.909478 kJ/mol
# GULP energy per Si atom -12399.996767 kJ/mol
# Density = 2.128170 g / cm^3
# Si number density = 21.330253 Si / 1000 Ang^3
#
#
#
# Elastic Constant Matrix: (Units=GPa)
#
#
# Indices 1 2 3 4 5 6 
#
# 1 82.1992 40.7394 26.6566 0.0000 -12.0616 0.0000
# 2 40.7394 103.3528 36.2599 0.0000 -17.4578 0.0000
# 3 26.6566 36.2599 91.8451 0.0000 -27.9310 0.0000
# 4 0.0000 0.0000 0.0000 34.4580 0.0000 -6.9718
# 5 -12.0616 -17.4578 -27.9310 0.0000 37.6920 0.0000
# 6 0.0000 0.0000 0.0000 -6.9718 0.0000 38.6001
#
#
#
# Elastic Compliance Matrix: (Units=1/GPa)
#
#
# Indices 1 2 3 4 5 6 
#
# 1 0.015601 -0.005225 -0.002172 0.000000 0.000963 0.000000
# 2 -0.005225 0.013163 -0.003014 0.000000 0.002191 0.000000
# 3 -0.002172 -0.003014 0.015584 0.000000 0.009457 0.000000
# 4 0.000000 0.000000 0.000000 0.030122 0.000000 0.005440
# 5 0.000963 0.002191 0.009457 0.000000 0.034862 0.000000
# 6 0.000000 0.000000 0.000000 0.005440 0.000000 0.026889
#
#
# Mechanical properties :
#
#
# Convention : Reuss Voigt Hill
#
# Bulk Modulus (GPa) = 42.50651 53.85656 48.18153
# Shear Modulus (GPa) = 30.32430 33.73276 32.02853
#
# Velocity S-wave (km/s) = 3.77458 3.98106 3.87919
# Velocity P-wave (km/s) = 6.24241 6.81436 6.53464
#
# Compressibility (1/GPa) = 0.02352581
#
# Stress axis : x y z
#
# Youngs Moduli (GPa) = 64.09935 75.97326 64.16713
#
# Poissons Ratio (x) = 0.39694 0.13940
# Poissons Ratio (y) = 0.33490 0.19338
# Poissons Ratio (z) = 0.13925 0.22896
#
# Static dielectric constant tensor:
#      x y z
#    x 4.003100 0.000000 -0.138120 
#    y 0.000000 3.888940 0.000000 
#    z -0.138120 0.000000 4.224720 
# 
# 
# High freq. dielectric constant tensor:
#      x y z
#    x 1.841350 0.000000 -0.008210 
#    y 0.000000 1.837610 0.000000 
#    z -0.008210 0.000000 1.847800 
# 
# From -- ./inp_files/76687.got.cif
#   From: 2010.06.25/outbox.cif.g09.slc.cpg/sg13_39_cif.got.tgz:76687.got - 2010.06.28 04:50:58.
