data_PCOD8121464
_publ_section_title
;
Structure prediction by ZEFSAII (Michael W. Deem and Ramdas Pophale) SiO2 
 PCOD8121464
Probable space group: P 2/C
;
_chemical_formula_sum "Si O2"
_cell_formula_units_Z 18
_cell_length_a 10.952818
_cell_length_b 7.211133
_cell_length_c 18.580392
_cell_angle_alpha 90.000000
_cell_angle_beta 34.542779
_cell_angle_gamma 90.000000
_cell_volume 832.115667
_symmetry_space_group_name_H-M "P 2/C"
_symmetry_group_IT_number 13
_symmetry_cell_setting 'monoclinic'
loop_
_space_group_symop_operation_xyz
x,y,z
-x,y,1/2-z
-x,-y,-z
x,-y,1/2+z
loop_
_atom_site_type_symbol
_atom_site_label
_atom_site_fract_x
_atom_site_fract_y
_atom_site_fract_z
Si Si1 0.876518 0.908638 0.625601
Si Si2 0.190811 0.649125 0.535278
Si Si3 0.688796 0.252102 0.791057
Si Si4 0.259774 0.520820 0.853036
Si Si5 0.000000 0.394788 0.750000
O O1 0.736726 0.739856 0.662156
O O2 0.047934 0.835865 0.602014
O O3 0.713059 0.050240 0.743191
O O4 0.000000 0.000000 0.500000
O O5 0.438567 0.703976 0.424514
O O6 0.128949 0.545679 0.488273
O O7 0.128219 0.522389 0.631997
O O8 0.809381 0.406616 0.684120
O O9 0.819420 0.261916 0.802441
O O10 0.500000 0.451636 0.750000
#
# Coordination Sequence:
#
# PCOD8121464 Si02
#       5
#     4   4   4   4   2
#     4  12  23  39  71 103 134 168 227 282 333 394
#     4  11  24  45  71  99 139 177 222 277 340 399
#     4  11  25  45  68 101 133 176 225 279 330 398
#     4  10  22  42  69  99 131 171 219 278 337 384
#     4  12  24  48  68  92 144 186 218 270 340 408
#
# _framework density 21.631605
#
# number of rings (size 3 to 8) (size 9 to 14) (size 15 to 20)
#    0.000    0.889    4.444    2.667    3.111    0.889 
#    0.000    2.222    0.000    0.000    0.000    0.000 
#    0.000    0.000    0.000    0.000    0.000    0.000 
#
# Total GULP energy -223222.068364 kJ/mol
# GULP energy per Si atom -12401.226020 kJ/mol
# Density = 2.158237 g / cm^3
# Si number density = 21.631605 Si / 1000 Ang^3
#
#
#
# Elastic Constant Matrix: (Units=GPa)
#
#
# Indices 1 2 3 4 5 6 
#
# 1 104.2888 23.0154 23.2285 0.0000 2.1425 0.0000
# 2 23.0154 119.8772 29.9679 0.0000 10.3844 0.0000
# 3 23.2285 29.9679 98.3367 0.0000 1.9821 0.0000
# 4 0.0000 0.0000 0.0000 29.4696 0.0000 3.7192
# 5 2.1425 10.3844 1.9821 0.0000 33.0327 0.0000
# 6 0.0000 0.0000 0.0000 3.7192 0.0000 37.9525
#
#
#
# Elastic Compliance Matrix: (Units=1/GPa)
#
#
# Indices 1 2 3 4 5 6 
#
# 1 0.010362 -0.001484 -0.001994 0.000000 -0.000086 0.000000
# 2 -0.001484 0.009485 -0.002485 0.000000 -0.002736 0.000000
# 3 -0.001994 -0.002485 0.011393 0.000000 0.000227 0.000000
# 4 0.000000 0.000000 0.000000 0.034358 0.000000 -0.003367
# 5 -0.000086 -0.002736 0.000227 0.000000 0.031125 0.000000
# 6 0.000000 0.000000 0.000000 -0.003367 0.000000 0.026679
#
#
# Mechanical properties :
#
#
# Convention : Reuss Voigt Hill
#
# Bulk Modulus (GPa) = 51.77266 52.76960 52.27113
# Shear Modulus (GPa) = 35.26966 36.51033 35.89000
#
# Velocity S-wave (km/s) = 4.04229 4.11277 4.07768
# Velocity P-wave (km/s) = 6.76554 6.85571 6.81078
#
# Compressibility (1/GPa) = 0.01931522
#
# Stress axis : x y z
#
# Youngs Moduli (GPa) = 96.50629 105.43020 87.77455
#
# Poissons Ratio (x) = 0.15641 0.17501
# Poissons Ratio (y) = 0.14317 0.21811
# Poissons Ratio (z) = 0.19242 0.26199
#
# Static dielectric constant tensor:
#      x y z
#    x 4.134740 0.000000 -0.082680 
#    y 0.000000 3.930740 0.000000 
#    z -0.082680 0.000000 4.056290 
# 
# 
# High freq. dielectric constant tensor:
#      x y z
#    x 1.864670 0.000000 -0.018040 
#    y 0.000000 1.846240 0.000000 
#    z -0.018040 0.000000 1.861400 
# 
# From -- ./inp_files/76969.got.cif
#   From: 2010.06.25/outbox.cif.g09.slc.cpg/sg13_39_cif.got.tgz:76969.got - 2010.06.28 04:50:58.
