data_PCOD8121181
_publ_section_title
;
Structure prediction by ZEFSAII (Michael W. Deem and Ramdas Pophale) SiO2 
 PCOD8121181
Probable space group: P 2/C
;
_chemical_formula_sum "Si O2"
_cell_formula_units_Z 28
_cell_length_a 18.382761
_cell_length_b 13.181889
_cell_length_c 9.801119
_cell_angle_alpha 90.000000
_cell_angle_beta 142.869099
_cell_angle_gamma 90.000000
_cell_volume 1433.641834
_symmetry_space_group_name_H-M "P 2/C"
_symmetry_group_IT_number 13
_symmetry_cell_setting 'monoclinic'
loop_
_space_group_symop_operation_xyz
x,y,z
-x,y,1/2-z
-x,-y,-z
x,-y,1/2+z
loop_
_atom_site_type_symbol
_atom_site_label
_atom_site_fract_x
_atom_site_fract_y
_atom_site_fract_z
Si Si1 0.139189 0.404328 0.301530
Si Si2 0.763732 0.800427 0.147277
Si Si3 0.998878 0.904701 0.401176
Si Si4 0.609454 0.857667 0.672128
Si Si5 0.662544 0.092850 0.750023
Si Si6 0.860767 0.593066 0.384880
Si Si7 0.237839 0.799941 0.844617
O O1 0.176258 0.497446 0.261442
O O2 0.162667 0.435483 0.492912
O O3 0.224282 0.310205 0.391593
O O4 0.999627 0.375198 0.069641
O O5 0.746981 0.871122 0.253739
O O6 0.775604 0.684979 0.213093
O O7 0.882084 0.835801 0.245752
O O8 0.650543 0.808953 0.876305
O O9 0.112331 0.832800 0.592620
O O10 0.000000 0.947867 0.250000
O O11 0.000000 0.000000 0.500000
O O12 0.465755 0.851832 0.452399
O O13 0.661690 0.794267 0.623239
O O14 0.654422 0.972629 0.727448
O O15 0.723376 0.118542 0.984441
#
# Coordination Sequence:
#
# PCOD8121181 Si02
#       7
#     4   4   4   4   4   4   4
#     4  10  22  40  63  92 125 165 210 260 321 390
#     4  12  23  40  64  93 130 164 208 266 319 376
#     4  12  26  38  59  94 133 172 203 254 326 388
#     4  11  24  41  64  93 124 177 221 258 296 374
#     4  11  24  43  64  89 128 173 225 256 302 364
#     4  10  22  40  63  92 125 165 210 260 321 390
#     4  12  23  40  64  93 130 164 208 266 319 376
#
# _framework density 19.530681000000001
#
# number of rings (size 3 to 8) (size 9 to 14) (size 15 to 20)
#    0.000    0.857    4.286    3.429    4.000    2.286 
#    0.000    0.000    0.000    5.143    0.000    0.000 
#    0.000    0.000    0.000    0.000    0.000    0.000 
#
# Total GULP energy -347420.233801 kJ/mol
# GULP energy per Si atom -12407.865493 kJ/mol
# Density = 1.948623 g / cm^3
# Si number density = 19.530681 Si / 1000 Ang^3
#
#
#
# Elastic Constant Matrix: (Units=GPa)
#
#
# Indices 1 2 3 4 5 6 
#
# 1 81.3160 34.9710 35.5610 0.0000 -12.9762 0.0000
# 2 34.9710 90.5077 27.5158 0.0000 -9.2808 0.0000
# 3 35.5610 27.5158 94.9643 0.0000 -12.5000 0.0000
# 4 0.0000 0.0000 0.0000 29.5618 0.0000 -10.5961
# 5 -12.9762 -9.2808 -12.5000 0.0000 36.7170 0.0000
# 6 0.0000 0.0000 0.0000 -10.5961 0.0000 31.1556
#
#
#
# Elastic Compliance Matrix: (Units=1/GPa)
#
#
# Indices 1 2 3 4 5 6 
#
# 1 0.016844 -0.004814 -0.004490 0.000000 0.003207 0.000000
# 2 -0.004814 0.013628 -0.002006 0.000000 0.001060 0.000000
# 3 -0.004490 -0.002006 0.013105 0.000000 0.002367 0.000000
# 4 0.000000 0.000000 0.000000 0.038524 0.000000 0.013102
# 5 0.003207 0.001060 0.002367 0.000000 0.029443 0.000000
# 6 0.000000 0.000000 0.000000 0.013102 0.000000 0.036553
#
#
# Mechanical properties :
#
#
# Convention : Reuss Voigt Hill
#
# Bulk Modulus (GPa) = 47.72281 51.43150 49.57716
# Shear Modulus (GPa) = 28.13711 30.73624 29.43668
#
# Velocity S-wave (km/s) = 3.79972 3.97134 3.88648
# Velocity P-wave (km/s) = 6.61350 6.88619 6.75122
#
# Compressibility (1/GPa) = 0.02095434
#
# Stress axis : x y z
#
# Youngs Moduli (GPa) = 59.36988 73.38066 76.30868
#
# Poissons Ratio (x) = 0.35326 0.34265
# Poissons Ratio (y) = 0.28581 0.15310
# Poissons Ratio (z) = 0.26659 0.14722
#
# Static dielectric constant tensor:
#      x y z
#    x 3.676490 0.000000 -0.068290 
#    y 0.000000 3.377610 0.000000 
#    z -0.068290 0.000000 3.659030 
# 
# 
# High freq. dielectric constant tensor:
#      x y z
#    x 1.770570 0.000000 -0.015230 
#    y 0.000000 1.747580 0.000000 
#    z -0.015230 0.000000 1.766240 
# 
# From -- ./inp_files/21979.got.cif
#   From: 2010.06.25/outbox.cif.g09.slc.cpg/sg13_11_cif.got.tgz:21979.got - 2010.06.28 04:50:58.
