data_PCOD8121372
_publ_section_title
;
Structure prediction by ZEFSAII (Michael W. Deem and Ramdas Pophale) SiO2 
 PCOD8121372
Probable space group: P 2/C
;
_chemical_formula_sum "Si O2"
_cell_formula_units_Z 22
_cell_length_a 7.767681
_cell_length_b 12.684575
_cell_length_c 15.463332
_cell_angle_alpha 90.000000
_cell_angle_beta 33.891525
_cell_angle_gamma 90.000000
_cell_volume 849.592245
_symmetry_space_group_name_H-M "P 2/C"
_symmetry_group_IT_number 13
_symmetry_cell_setting 'monoclinic'
loop_
_space_group_symop_operation_xyz
x,y,z
-x,y,1/2-z
-x,-y,-z
x,-y,1/2+z
loop_
_atom_site_type_symbol
_atom_site_label
_atom_site_fract_x
_atom_site_fract_y
_atom_site_fract_z
Si Si1 0.000000 0.873440 0.250000
Si Si2 0.139137 0.926275 0.777167
Si Si3 0.719405 0.163973 0.585142
Si Si4 0.208916 0.574046 0.039783
Si Si5 0.290941 0.212940 0.460694
Si Si6 0.563743 0.620670 0.363755
O O1 0.803624 0.804090 0.398217
O O2 0.781859 0.951165 0.281420
O O3 0.443577 0.866415 0.681395
O O4 0.000000 0.868408 0.750000
O O5 0.861130 0.925711 0.963124
O O6 0.500000 0.111358 0.750000
O O7 0.544610 0.257656 0.604903
O O8 0.010806 0.209932 0.512489
O O9 0.307492 0.587262 0.097567
O O10 0.842574 0.598251 0.180575
O O11 0.403885 0.665943 0.909041
O O12 0.279988 0.460523 0.967357
#
# Coordination Sequence:
#
# PCOD8121372 Si02
#       6
#     2   4   4   4   4   4
#     4  10  26  48  82 106 146 190 258 314 376 446
#     4  10  26  47  75 109 139 199 249 313 363 450
#     4  12  26  45  71 111 156 190 241 309 378 434
#     4  10  22  41  74 101 145 195 248 292 360 443
#     4  12  24  45  76 108 149 195 245 308 378 443
#     4  10  22  43  65 110 141 197 242 299 357 441
#
# _framework density 25.894776
#
# number of rings (size 3 to 8) (size 9 to 14) (size 15 to 20)
#    0.545    0.727    1.818    3.273    5.091    1.455 
#    0.000    0.000    0.000    0.000    0.000    0.000 
#    0.000    0.000    0.000    0.000    0.000    0.000 
#
# Total GULP energy -272551.410846 kJ/mol
# GULP energy per Si atom -12388.700493 kJ/mol
# Density = 2.583584 g / cm^3
# Si number density = 25.894776 Si / 1000 Ang^3
#
#
#
# Elastic Constant Matrix: (Units=GPa)
#
#
# Indices 1 2 3 4 5 6 
#
# 1 50.5060 -27.5543 13.0866 0.0000 9.3135 0.0000
# 2 -27.5543 52.0970 9.4868 0.0000 14.3589 0.0000
# 3 13.0866 9.4868 112.3166 0.0000 11.0575 0.0000
# 4 0.0000 0.0000 0.0000 34.4285 0.0000 -3.1625
# 5 9.3135 14.3589 11.0575 0.0000 39.9409 0.0000
# 6 0.0000 0.0000 0.0000 -3.1625 0.0000 5.5324
#
#
#
# Elastic Compliance Matrix: (Units=1/GPa)
#
#
# Indices 1 2 3 4 5 6 
#
# 1 0.038245 0.025765 -0.004978 0.000000 -0.016803 0.000000
# 2 0.025765 0.038791 -0.004435 0.000000 -0.018726 0.000000
# 3 -0.004978 -0.004435 0.009855 0.000000 0.000027 0.000000
# 4 0.000000 0.000000 0.000000 0.030655 0.000000 0.017524
# 5 -0.016803 -0.018726 0.000027 0.000000 0.035680 0.000000
# 6 0.000000 0.000000 0.000000 0.017524 0.000000 0.190772
#
#
# Mechanical properties :
#
#
# Convention : Reuss Voigt Hill
#
# Bulk Modulus (GPa) = 8.36151 22.77310 15.56731
# Shear Modulus (GPa) = 14.23856 30.64037 22.43947
#
# Velocity S-wave (km/s) = 2.34746 3.44359 2.94694
# Velocity P-wave (km/s) = 3.25322 4.96233 4.19572
#
# Compressibility (1/GPa) = 0.11959563
#
# Stress axis : x y z
#
# Youngs Moduli (GPa) = 26.14743 25.77906 101.46719
#
# Poissons Ratio (x) = -0.66421 0.50512
# Poissons Ratio (y) = -0.67370 0.45001
# Poissons Ratio (z) = 0.13017 0.11433
#
# Static dielectric constant tensor:
#      x y z
#    x 4.706580 0.000000 -0.006250 
#    y 0.000000 4.647940 0.000000 
#    z -0.006250 0.000000 5.091420 
# 
# 
# High freq. dielectric constant tensor:
#      x y z
#    x 2.045610 0.000000 -0.002480 
#    y 0.000000 2.033660 0.000000 
#    z -0.002480 0.000000 2.023970 
# 
# From -- ./inp_files/64591.got.cif
#   From: 2010.06.25/outbox.cif.g09.slc.cpg/sg13_33_cif.got.tgz:64591.got - 2010.06.28 04:50:58.
