data_PCOD8121392
_publ_section_title
;
Structure prediction by ZEFSAII (Michael W. Deem and Ramdas Pophale) SiO2 
 PCOD8121392
Probable space group: P 2/C
;
_chemical_formula_sum "Si O2"
_cell_formula_units_Z 16
_cell_length_a 6.864971
_cell_length_b 9.690566
_cell_length_c 12.409316
_cell_angle_alpha 90.000000
_cell_angle_beta 96.355797
_cell_angle_gamma 90.000000
_cell_volume 820.461334
_symmetry_space_group_name_H-M "P 2/C"
_symmetry_group_IT_number 13
_symmetry_cell_setting 'monoclinic'
loop_
_space_group_symop_operation_xyz
x,y,z
-x,y,1/2-z
-x,-y,-z
x,-y,1/2+z
loop_
_atom_site_type_symbol
_atom_site_label
_atom_site_fract_x
_atom_site_fract_y
_atom_site_fract_z
Si Si1 0.962186 0.782248 0.454765
Si Si2 0.835221 0.347588 0.163442
Si Si3 0.693699 0.046524 0.450743
Si Si4 0.000000 0.611962 0.250000
Si Si5 0.500000 0.190988 0.250000
O O1 0.896923 0.677061 0.544245
O O2 0.919216 0.707562 0.339749
O O3 0.189893 0.829734 0.480744
O O4 0.830975 0.916282 0.449623
O O5 0.830299 0.512329 0.189218
O O6 0.622803 0.285033 0.174797
O O7 0.000000 0.275723 0.250000
O O8 0.643750 0.095549 0.327590
O O9 0.500000 0.000000 0.500000
#
# Coordination Sequence:
#
# PCOD8121392 Si02
#       5
#     4   4   4   2   2
#     4  11  23  43  62  94 129 167 208 260 317 371
#     4  10  22  42  63  86 128 168 205 256 313 375
#     4  11  24  38  65  93 129 163 210 264 309 375
#     4  10  24  42  66  90 128 170 206 256 310 380
#     4  12  22  42  64  96 122 170 212 256 326 364
#
# _framework density 19.501225000000002
#
# number of rings (size 3 to 8) (size 9 to 14) (size 15 to 20)
#    0.750    0.500    5.000    0.750    3.500    0.000 
#    4.500    2.500    0.000    0.000    0.000    0.000 
#    0.000    0.000    0.000    0.000    0.000    0.000 
#
# Total GULP energy -198355.474830 kJ/mol
# GULP energy per Si atom -12397.217177 kJ/mol
# Density = 1.945684 g / cm^3
# Si number density = 19.501225 Si / 1000 Ang^3
#
#
#
# Elastic Constant Matrix: (Units=GPa)
#
#
# Indices 1 2 3 4 5 6 
#
# 1 91.7091 29.2217 36.5549 0.0000 -9.7372 0.0000
# 2 29.2217 92.6369 56.8954 0.0000 1.9016 0.0000
# 3 36.5549 56.8954 148.5319 0.0000 -11.3283 0.0000
# 4 0.0000 0.0000 0.0000 37.9205 0.0000 5.7449
# 5 -9.7372 1.9016 -11.3283 0.0000 31.9672 0.0000
# 6 0.0000 0.0000 0.0000 5.7449 0.0000 11.6832
#
#
#
# Elastic Compliance Matrix: (Units=1/GPa)
#
#
# Indices 1 2 3 4 5 6 
#
# 1 0.012954 -0.003093 -0.001735 0.000000 0.003515 0.000000
# 2 -0.003093 0.015108 -0.005310 0.000000 -0.003722 0.000000
# 3 -0.001735 -0.005310 0.009432 0.000000 0.003130 0.000000
# 4 0.000000 0.000000 0.000000 0.028494 0.000000 -0.014011
# 5 0.003515 -0.003722 0.003130 0.000000 0.033683 0.000000
# 6 0.000000 0.000000 0.000000 -0.014011 0.000000 0.092482
#
#
# Mechanical properties :
#
#
# Convention : Reuss Voigt Hill
#
# Bulk Modulus (GPa) = 58.07639 64.24688 61.16163
# Shear Modulus (GPa) = 22.91797 30.32791 26.62294
#
# Velocity S-wave (km/s) = 3.43185 3.94785 3.69886
# Velocity P-wave (km/s) = 6.74900 7.33467 7.04792
#
# Compressibility (1/GPa) = 0.01721870
#
# Stress axis : x y z
#
# Youngs Moduli (GPa) = 77.19380 66.19000 106.01798
#
# Poissons Ratio (x) = 0.20470 0.18399
# Poissons Ratio (y) = 0.23873 0.56295
# Poissons Ratio (z) = 0.13397 0.35146
#
# Static dielectric constant tensor:
#      x y z
#    x 3.893430 0.000000 0.074840 
#    y 0.000000 3.579780 0.000000 
#    z 0.074840 0.000000 3.540360 
# 
# 
# High freq. dielectric constant tensor:
#      x y z
#    x 1.751070 0.000000 0.000670 
#    y 0.000000 1.760790 0.000000 
#    z 0.000670 0.000000 1.765000 
# 
# From -- ./inp_files/25466.got.cif
#   From: 2010.06.25/outbox.cif.g09.slc.cpg/sg13_13_cif.got.tgz:25466.got - 2010.06.28 04:50:58.
