data_PCOD8121019
_publ_section_title
;
Structure prediction by ZEFSAII (Michael W. Deem and Ramdas Pophale) SiO2 
 PCOD8121019
Probable space group: P 2/C
;
_chemical_formula_sum "Si O2"
_cell_formula_units_Z 26
_cell_length_a 12.780821
_cell_length_b 15.194457
_cell_length_c 8.639278
_cell_angle_alpha 90.000000
_cell_angle_beta 133.967360
_cell_angle_gamma 90.000000
_cell_volume 1207.519793
_symmetry_space_group_name_H-M "P 2/C"
_symmetry_group_IT_number 13
_symmetry_cell_setting 'monoclinic'
loop_
_space_group_symop_operation_xyz
x,y,z
-x,y,1/2-z
-x,-y,-z
x,-y,1/2+z
loop_
_atom_site_type_symbol
_atom_site_label
_atom_site_fract_x
_atom_site_fract_y
_atom_site_fract_z
Si Si1 0.522202 0.268926 0.955600
Si Si2 0.215988 0.296126 0.790753
Si Si3 0.000000 0.022046 0.250000
Si Si4 0.651695 0.402414 0.313409
Si Si5 0.477428 0.095586 0.042915
Si Si6 0.147841 0.890072 0.189859
Si Si7 0.107978 0.454555 0.497555
O O1 0.500000 0.280771 0.750000
O O2 0.375232 0.270994 0.899804
O O3 0.622587 0.348592 0.123838
O O4 0.579672 0.169992 0.061867
O O5 0.110843 0.210716 0.700781
O O6 0.147647 0.358233 0.593329
O O7 0.233570 0.344478 0.972649
O O8 0.878173 0.957689 0.196247
O O9 0.061525 0.083856 0.447000
O O10 0.500000 0.423144 0.250000
O O11 0.739117 0.492735 0.369417
O O12 0.500000 0.101153 0.250000
O O13 0.315037 0.112644 0.822179
O O14 0.500000 0.000000 0.000000
O O15 0.000000 0.438280 0.250000
O O16 0.000000 0.500000 0.500000
#
# Coordination Sequence:
#
# PCOD8121019 Si02
#       7
#     4   4   2   4   4   4   4
#     4  10  22  38  64  96 121 165 220 266 323 391
#     4  10  23  43  63  90 130 167 214 266 326 387
#     4  10  22  40  62  88 124 170 210 252 310 390
#     4  10  23  45  68  91 129 175 217 268 331 396
#     4  11  21  38  63  92 130 164 209 275 330 383
#     4  10  22  40  61  91 123 164 212 255 313 381
#     4  12  26  44  65  97 131 170 219 273 336 395
#
# _framework density 21.531738000000001
#
# number of rings (size 3 to 8) (size 9 to 14) (size 15 to 20)
#    0.000    1.538    1.538    3.692    3.231    5.538 
#    0.000    4.615    0.000    0.000    0.000    0.000 
#    0.000    0.000    0.000    0.000    0.000    0.000 
#
# Total GULP energy -322100.443193 kJ/mol
# GULP energy per Si atom -12388.478584 kJ/mol
# Density = 2.148273 g / cm^3
# Si number density = 21.531738 Si / 1000 Ang^3
#
#
#
# Elastic Constant Matrix: (Units=GPa)
#
#
# Indices 1 2 3 4 5 6 
#
# 1 36.0817 13.6514 15.4041 0.0000 -3.1074 0.0000
# 2 13.6514 134.5275 53.6923 0.0000 8.0182 0.0000
# 3 15.4041 53.6923 125.0294 0.0000 -15.9688 0.0000
# 4 0.0000 0.0000 0.0000 67.4502 0.0000 39.4464
# 5 -3.1074 8.0182 -15.9688 0.0000 37.3873 0.0000
# 6 0.0000 0.0000 0.0000 39.4464 0.0000 72.5461
#
#
#
# Elastic Compliance Matrix: (Units=1/GPa)
#
#
# Indices 1 2 3 4 5 6 
#
# 1 0.029753 -0.002125 -0.002516 0.000000 0.001854 0.000000
# 2 -0.002125 0.009657 -0.004413 0.000000 -0.004132 0.000000
# 3 -0.002516 -0.004413 0.010891 0.000000 0.005389 0.000000
# 4 0.000000 0.000000 0.000000 0.021738 0.000000 -0.011820
# 5 0.001854 -0.004132 0.005389 0.000000 0.030089 0.000000
# 6 0.000000 0.000000 0.000000 -0.011820 0.000000 0.020211
#
#
# Mechanical properties :
#
#
# Convention : Reuss Voigt Hill
#
# Bulk Modulus (GPa) = 31.06354 51.23714 41.15034
# Shear Modulus (GPa) = 33.07322 49.66944 41.37133
#
# Velocity S-wave (km/s) = 3.92346 4.80813 4.38815
# Velocity P-wave (km/s) = 5.91464 7.39404 6.69533
#
# Compressibility (1/GPa) = 0.03219208
#
# Stress axis : x y z
#
# Youngs Moduli (GPa) = 33.61019 103.55543 91.81493
#
# Poissons Ratio (x) = 0.22011 0.23102
# Poissons Ratio (y) = 0.07144 0.40517
# Poissons Ratio (z) = 0.08457 0.45698
#
# Static dielectric constant tensor:
#      x y z
#    x 3.772250 0.000000 0.005140 
#    y 0.000000 3.489850 0.000000 
#    z 0.005140 0.000000 3.909990 
# 
# 
# High freq. dielectric constant tensor:
#      x y z
#    x 1.823420 0.000000 -0.009580 
#    y 0.000000 1.871000 0.000000 
#    z -0.009580 0.000000 1.855880 
# 
# From -- ./inp_files/19938.got.cif
#   From: 2010.06.25/outbox.cif.g09.slc.cpg/sg13_10_cif.got.tgz:19938.got - 2010.06.28 04:50:58.
