data_PCOD8121690
_publ_section_title
;
Structure prediction by ZEFSAII (Michael W. Deem and Ramdas Pophale) SiO2 
 PCOD8121690
Probable space group: P 2/C
;
_chemical_formula_sum "Si O2"
_cell_formula_units_Z 24
_cell_length_a 8.598945
_cell_length_b 8.260115
_cell_length_c 21.882826
_cell_angle_alpha 90.000000
_cell_angle_beta 47.165057
_cell_angle_gamma 90.000000
_cell_volume 1139.791600
_symmetry_space_group_name_H-M "P 2/C"
_symmetry_group_IT_number 13
_symmetry_cell_setting 'monoclinic'
loop_
_space_group_symop_operation_xyz
x,y,z
-x,y,1/2-z
-x,-y,-z
x,-y,1/2+z
loop_
_atom_site_type_symbol
_atom_site_label
_atom_site_fract_x
_atom_site_fract_y
_atom_site_fract_z
Si Si1 0.745639 0.045604 0.006618
Si Si2 0.755929 0.554014 0.063535
Si Si3 0.784634 0.869972 0.118496
Si Si4 0.167847 0.730314 0.577957
Si Si5 0.422710 0.711890 0.621694
Si Si6 0.286506 0.157967 0.279709
O O1 0.963757 0.142411 0.955343
O O2 0.756051 0.916775 0.948997
O O3 0.568334 0.177332 0.039211
O O4 0.687704 0.971555 0.088331
O O5 0.706686 0.683341 0.131709
O O6 0.570785 0.419492 0.116363
O O7 0.728478 0.633189 0.004616
O O8 0.000000 0.500000 0.000000
O O9 0.723913 0.966035 0.197388
O O10 0.245590 0.648246 0.620866
O O11 0.911002 0.736729 0.642074
O O12 0.295346 0.821665 0.704502
O O13 0.500000 0.236310 0.250000
#
# Coordination Sequence:
#
# PCOD8121690 Si02
#       6
#     4   4   4   4   4   4
#     4   9  17  34  62  84 116 155 206 249 294 358
#     4  11  21  38  64  92 122 162 209 254 312 372
#     4   9  18  36  58  89 119 151 205 260 291 366
#     4  10  23  38  59  90 127 160 200 259 312 369
#     4  12  21  36  63  93 122 159 204 255 320 369
#     4  11  21  38  63  86 121 165 207 252 309 372
#
# _framework density 21.056480000000001
#
# number of rings (size 3 to 8) (size 9 to 14) (size 15 to 20)
#    0.000    1.667    3.333    3.500    0.000    0.000 
#    0.000    2.500    0.000    0.000    0.000    0.000 
#    0.000    0.000    0.000    0.000    0.000    0.000 
#
# Total GULP energy -297326.663762 kJ/mol
# GULP energy per Si atom -12388.610990 kJ/mol
# Density = 2.100855 g / cm^3
# Si number density = 21.056480 Si / 1000 Ang^3
#
#
#
# Elastic Constant Matrix: (Units=GPa)
#
#
# Indices 1 2 3 4 5 6 
#
# 1 87.5920 31.9624 22.3431 0.0000 5.9551 0.0000
# 2 31.9624 82.9083 39.5898 0.0000 -1.5078 0.0000
# 3 22.3431 39.5898 75.9696 0.0000 4.3063 0.0000
# 4 0.0000 0.0000 0.0000 30.9806 0.0000 0.7943
# 5 5.9551 -1.5078 4.3063 0.0000 31.6466 0.0000
# 6 0.0000 0.0000 0.0000 0.7943 0.0000 25.1598
#
#
#
# Elastic Compliance Matrix: (Units=1/GPa)
#
#
# Indices 1 2 3 4 5 6 
#
# 1 0.013648 -0.004609 -0.001465 0.000000 -0.002588 0.000000
# 2 -0.004609 0.017730 -0.008043 0.000000 0.002806 0.000000
# 3 -0.001465 -0.008043 0.017930 0.000000 -0.002547 0.000000
# 4 0.000000 0.000000 0.000000 0.032304 0.000000 -0.001020
# 5 -0.002588 0.002806 -0.002547 0.000000 0.032566 0.000000
# 6 0.000000 0.000000 0.000000 -0.001020 0.000000 0.039778
#
#
# Mechanical properties :
#
#
# Convention : Reuss Voigt Hill
#
# Bulk Modulus (GPa) = 47.45361 48.25118 47.85239
# Shear Modulus (GPa) = 26.42472 27.72904 27.07688
#
# Velocity S-wave (km/s) = 3.54636 3.63283 3.58986
# Velocity P-wave (km/s) = 6.27329 6.36879 6.32122
#
# Compressibility (1/GPa) = 0.02107321
#
# Stress axis : x y z
#
# Youngs Moduli (GPa) = 73.27008 56.40129 55.77215
#
# Poissons Ratio (x) = 0.25995 0.08173
# Poissons Ratio (y) = 0.33769 0.44859
# Poissons Ratio (z) = 0.10738 0.45365
#
# Static dielectric constant tensor:
#      x y z
#    x 3.750880 0.000000 -0.121610 
#    y 0.000000 3.727980 0.000000 
#    z -0.121610 0.000000 3.702200 
# 
# 
# High freq. dielectric constant tensor:
#      x y z
#    x 1.825790 0.000000 -0.009230 
#    y 0.000000 1.802840 0.000000 
#    z -0.009230 0.000000 1.812420 
# 
# From -- ./inp_files/84709.got.cif
#   From: 2010.06.25/outbox.cif.g09.slc.cpg/sg13_43_cif.got.tgz:84709.got - 2010.06.28 04:50:58.
