data_PCOD8121917
_publ_section_title
;
Structure prediction by ZEFSAII (Michael W. Deem and Ramdas Pophale) SiO2 
 PCOD8121917
Probable space group: P 2/C
;
_chemical_formula_sum "Si O2"
_cell_formula_units_Z 24
_cell_length_a 26.809106
_cell_length_b 4.846530
_cell_length_c 25.441773
_cell_angle_alpha 90.000000
_cell_angle_beta 164.117263
_cell_angle_gamma 90.000000
_cell_volume 904.663170
_symmetry_space_group_name_H-M "P 2/C"
_symmetry_group_IT_number 13
_symmetry_cell_setting 'monoclinic'
loop_
_space_group_symop_operation_xyz
x,y,z
-x,y,1/2-z
-x,-y,-z
x,-y,1/2+z
loop_
_atom_site_type_symbol
_atom_site_label
_atom_site_fract_x
_atom_site_fract_y
_atom_site_fract_z
Si Si1 0.959800 0.253125 0.496600
Si Si2 0.799252 0.726523 0.056530
Si Si3 0.899087 0.522909 0.759708
Si Si4 0.259247 0.747837 0.068098
Si Si5 0.435315 0.832211 0.046727
Si Si6 0.551717 0.670798 0.603694
O O1 0.754916 0.221887 0.307800
O O2 0.000000 0.500000 0.500000
O O3 0.076254 0.308240 0.667195
O O4 0.000000 0.000000 0.500000
O O5 0.779940 0.670726 0.099193
O O6 0.669604 0.529947 0.889236
O O7 0.000000 0.603291 0.250000
O O8 0.792418 0.043928 0.032105
O O9 0.773554 0.783357 0.648621
O O10 0.087983 0.668716 0.932447
O O11 0.423761 0.912821 0.263827
O O12 0.523977 0.537423 0.122882
O O13 0.433315 0.052683 0.996302
O O14 0.500000 0.500000 0.500000
#
# Coordination Sequence:
#
# PCOD8121917 Si02
#       6
#     4   4   4   4   4   4
#     4  12  28  50  81 116 154 209 267 325 397 474
#     4  10  23  44  76 110 153 205 257 318 388 467
#     4  11  27  50  80 117 158 209 270 322 400 476
#     4  11  24  48  76 112 157 203 259 321 394 461
#     4  12  27  48  81 113 157 210 257 329 399 466
#     4  12  27  52  74 113 160 202 265 337 389 468
#
# _framework density 26.529212999999999
#
# number of rings (size 3 to 8) (size 9 to 14) (size 15 to 20)
#    0.000    0.667    1.667    5.000    2.333   10.000 
#    0.000    5.000    0.000    0.000    0.000    0.000 
#    0.000    0.000    0.000    0.000    0.000    0.000 
#
# Total GULP energy -297358.514166 kJ/mol
# GULP energy per Si atom -12389.938090 kJ/mol
# Density = 2.646883 g / cm^3
# Si number density = 26.529213 Si / 1000 Ang^3
#
#
#
# Elastic Constant Matrix: (Units=GPa)
#
#
# Indices 1 2 3 4 5 6 
#
# 1 135.8381 63.9236 52.0085 0.0000 -17.9417 0.0000
# 2 63.9236 173.5353 31.7555 0.0000 -5.1127 0.0000
# 3 52.0085 31.7555 117.3593 0.0000 -14.8781 0.0000
# 4 0.0000 0.0000 0.0000 32.5499 0.0000 -10.1040
# 5 -17.9417 -5.1127 -14.8781 0.0000 30.1969 0.0000
# 6 0.0000 0.0000 0.0000 -10.1040 0.0000 66.5483
#
#
#
# Elastic Compliance Matrix: (Units=1/GPa)
#
#
# Indices 1 2 3 4 5 6 
#
# 1 0.010703 -0.003207 -0.003347 0.000000 0.004167 0.000000
# 2 -0.003207 0.007025 -0.000608 0.000000 -0.001016 0.000000
# 3 -0.003347 -0.000608 0.010563 0.000000 0.003113 0.000000
# 4 0.000000 0.000000 0.000000 0.032242 0.000000 0.004895
# 5 0.004167 -0.001016 0.003113 0.000000 0.036954 0.000000
# 6 0.000000 0.000000 0.000000 0.004895 0.000000 0.015770
#
#
# Mechanical properties :
#
#
# Convention : Reuss Voigt Hill
#
# Bulk Modulus (GPa) = 71.60089 80.23422 75.91756
# Shear Modulus (GPa) = 37.81079 44.46203 41.13641
#
# Velocity S-wave (km/s) = 3.77935 4.09830 3.94205
# Velocity P-wave (km/s) = 6.78916 7.25976 7.02840
#
# Compressibility (1/GPa) = 0.01396631
#
# Stress axis : x y z
#
# Youngs Moduli (GPa) = 93.43315 142.34159 94.66724
#
# Poissons Ratio (x) = 0.45653 0.31684
# Poissons Ratio (y) = 0.29967 0.05760
# Poissons Ratio (z) = 0.31271 0.08660
#
# Static dielectric constant tensor:
#      x y z
#    x 5.202670 0.000000 -0.165820 
#    y 0.000000 5.008190 0.000000 
#    z -0.165820 0.000000 4.889220 
# 
# 
# High freq. dielectric constant tensor:
#      x y z
#    x 2.076510 0.000000 -0.008920 
#    y 0.000000 2.077340 0.000000 
#    z -0.008920 0.000000 2.060110 
# 
# From -- ./inp_files/89369.got.cif
#   From: 2010.06.25/outbox.cif.g09.slc.cpg/sg13_45_cif.got.tgz:89369.got - 2010.06.28 04:50:58.
