data_PCOD8121757
_publ_section_title
;
Structure prediction by ZEFSAII (Michael W. Deem and Ramdas Pophale) SiO2 
 PCOD8121757
Probable space group: P 2/C
;
_chemical_formula_sum "Si O2"
_cell_formula_units_Z 20
_cell_length_a 20.669282
_cell_length_b 7.427843
_cell_length_c 25.720245
_cell_angle_alpha 90.000000
_cell_angle_beta 167.401775
_cell_angle_gamma 90.000000
_cell_volume 861.280816
_symmetry_space_group_name_H-M "P 2/C"
_symmetry_group_IT_number 13
_symmetry_cell_setting 'monoclinic'
loop_
_space_group_symop_operation_xyz
x,y,z
-x,y,1/2-z
-x,-y,-z
x,-y,1/2+z
loop_
_atom_site_type_symbol
_atom_site_label
_atom_site_fract_x
_atom_site_fract_y
_atom_site_fract_z
Si Si1 0.365708 0.416993 0.092622
Si Si2 0.722638 0.708639 0.087062
Si Si3 0.270854 0.889319 0.930156
Si Si4 0.662797 0.809765 0.626479
Si Si5 0.352026 0.189460 0.684788
O O1 0.500000 0.318951 0.250000
O O2 0.511398 0.612057 0.204488
O O3 0.444800 0.324397 0.099373
O O4 0.007857 0.419413 0.817953
O O5 0.830122 0.916886 0.171372
O O6 0.505016 0.673864 0.965700
O O7 0.345680 0.751892 0.941163
O O8 0.000000 0.801586 0.750000
O O9 0.553763 0.915542 0.189194
O O10 0.500000 0.000000 0.500000
O O11 0.001080 0.819440 0.909385
O O12 0.500000 0.095939 0.750000
#
# Coordination Sequence:
#
# PCOD8121757 Si02
#       5
#     4   4   4   4   4
#     4  10  23  41  63  91 129 176 215 253 323 392
#     4  10  23  42  62  96 131 164 214 274 322 377
#     4  11  21  40  70  93 124 169 215 270 325 380
#     4  10  24  42  63 101 133 161 218 277 322 374
#     4  11  24  40  67  94 125 174 220 259 322 390
#
# _framework density 23.221229999999998
#
# number of rings (size 3 to 8) (size 9 to 14) (size 15 to 20)
#    0.000    1.600    4.000    0.000    2.800    9.600 
#    0.000    7.000    0.000    0.000    0.000    0.000 
#    0.000    0.000    0.000    0.000    0.000    0.000 
#
# Total GULP energy -247810.158312 kJ/mol
# GULP energy per Si atom -12390.507916 kJ/mol
# Density = 2.316838 g / cm^3
# Si number density = 23.221230 Si / 1000 Ang^3
#
#
#
# Elastic Constant Matrix: (Units=GPa)
#
#
# Indices 1 2 3 4 5 6 
#
# 1 226.3713 18.1497 83.5154 0.0000 -1.2824 0.0000
# 2 18.1497 45.6999 33.2319 0.0000 4.7741 0.0000
# 3 83.5154 33.2319 177.6535 0.0000 0.0096 0.0000
# 4 0.0000 0.0000 0.0000 27.4624 0.0000 -8.0214
# 5 -1.2824 4.7741 0.0096 0.0000 55.0937 0.0000
# 6 0.0000 0.0000 0.0000 -8.0214 0.0000 21.9051
#
#
#
# Elastic Compliance Matrix: (Units=1/GPa)
#
#
# Indices 1 2 3 4 5 6 
#
# 1 0.005350 -0.000361 -0.002448 0.000000 0.000156 0.000000
# 2 -0.000361 0.025619 -0.004622 0.000000 -0.002228 0.000000
# 3 -0.002448 -0.004622 0.007644 0.000000 0.000342 0.000000
# 4 0.000000 0.000000 0.000000 0.040775 0.000000 0.014931
# 5 0.000156 -0.002228 0.000342 0.000000 0.018347 0.000000
# 6 0.000000 0.000000 0.000000 0.014931 0.000000 0.051119
#
#
# Mechanical properties :
#
#
# Convention : Reuss Voigt Hill
#
# Bulk Modulus (GPa) = 42.10305 79.94651 61.02478
# Shear Modulus (GPa) = 29.13160 41.88077 35.50618
#
# Velocity S-wave (km/s) = 3.54577 4.25144 3.91454
# Velocity P-wave (km/s) = 5.91049 7.65523 6.83873
#
# Compressibility (1/GPa) = 0.02375125
#
# Stress axis : x y z
#
# Youngs Moduli (GPa) = 186.90222 39.03293 130.81776
#
# Poissons Ratio (x) = 0.01410 0.32020
# Poissons Ratio (y) = 0.06754 0.60469
# Poissons Ratio (z) = 0.45747 0.18042
#
# Static dielectric constant tensor:
#      x y z
#    x 9.391110 0.000000 -0.627610 
#    y 0.000000 3.740430 0.000000 
#    z -0.627610 0.000000 4.244970 
# 
# 
# High freq. dielectric constant tensor:
#      x y z
#    x 1.950830 0.000000 -0.008940 
#    y 0.000000 1.890140 0.000000 
#    z -0.008940 0.000000 1.907740 
# 
# From -- ./inp_files/97663.got.cif
#   From: 2010.06.25/outbox.cif.g09.slc.cpg/sg13_49_cif.got.tgz:97663.got - 2010.06.28 04:50:58.
