data_PCOD8121705
_publ_section_title
;
Structure prediction by ZEFSAII (Michael W. Deem and Ramdas Pophale) SiO2 
 PCOD8121705
Probable space group: P 2/C
;
_chemical_formula_sum "Si O2"
_cell_formula_units_Z 32
_cell_length_a 18.568334
_cell_length_b 5.084606
_cell_length_c 20.406130
_cell_angle_alpha 90.000000
_cell_angle_beta 49.833505
_cell_angle_gamma 90.000000
_cell_volume 1472.254121
_symmetry_space_group_name_H-M "P 2/C"
_symmetry_group_IT_number 13
_symmetry_cell_setting 'monoclinic'
loop_
_space_group_symop_operation_xyz
x,y,z
-x,y,1/2-z
-x,-y,-z
x,-y,1/2+z
loop_
_atom_site_type_symbol
_atom_site_label
_atom_site_fract_x
_atom_site_fract_y
_atom_site_fract_z
Si Si1 0.545043 0.236472 0.392907
Si Si2 0.716426 0.057655 0.727908
Si Si3 0.575300 0.546590 0.254993
Si Si4 0.242366 0.726939 0.497105
Si Si5 0.108628 0.334870 0.187369
Si Si6 0.723422 0.765581 0.605411
Si Si7 0.378156 0.128918 0.019953
Si Si8 0.202391 0.851963 0.187903
O O1 0.529227 0.486556 0.353956
O O2 0.568576 0.305827 0.455435
O O3 0.639243 0.100997 0.312986
O O4 0.455777 0.047784 0.438059
O O5 0.666388 0.272025 0.710943
O O6 0.785785 0.186209 0.740540
O O7 0.773769 0.868105 0.643327
O O8 0.500000 0.681360 0.250000
O O9 0.614360 0.288271 0.192550
O O10 0.143116 0.732223 0.593556
O O11 0.233119 0.504141 0.447529
O O12 0.328173 0.671449 0.498274
O O13 0.266161 0.015044 0.456006
O O14 0.169441 0.574873 0.179361
O O15 0.000000 0.413975 0.250000
O O16 0.124055 0.077560 0.223030
O O17 0.299659 0.933567 0.095906
#
# Coordination Sequence:
#
# PCOD8121705 Si02
#       8
#     4   4   4   4   4   4   4   4
#     4   9  20  38  56  87 130 169 222 268 309 360
#     4  10  23  39  63  91 128 178 225 258 309 358
#     4  11  23  36  59  84 128 173 229 266 301 348
#     4  11  22  38  65  91 123 161 205 256 322 382
#     4  11  24  44  72 103 126 154 197 264 335 398
#     4  11  23  40  59  89 125 169 213 255 302 367
#     4   9  19  38  58  91 127 170 212 264 318 371
#     4  10  23  41  70  95 130 164 210 258 322 390
#
# _framework density 21.735378000000001
#
# number of rings (size 3 to 8) (size 9 to 14) (size 15 to 20)
#    0.000    1.750    1.250    2.625    8.750    2.000 
#    2.250    1.875    0.000    4.500    0.000    0.000 
#    0.000    0.000    0.000    0.000    0.000    0.000 
#
# Total GULP energy -396579.164682 kJ/mol
# GULP energy per Si atom -12393.098896 kJ/mol
# Density = 2.168591 g / cm^3
# Si number density = 21.735378 Si / 1000 Ang^3
#
#
#
# Elastic Constant Matrix: (Units=GPa)
#
#
# Indices 1 2 3 4 5 6 
#
# 1 50.3388 5.2695 17.9447 0.0000 14.5661 0.0000
# 2 5.2695 75.2494 0.5074 0.0000 14.3973 0.0000
# 3 17.9447 0.5074 54.7330 0.0000 15.6185 0.0000
# 4 0.0000 0.0000 0.0000 1.9762 0.0000 -4.4740
# 5 14.5661 14.3973 15.6185 0.0000 23.7098 0.0000
# 6 0.0000 0.0000 0.0000 -4.4740 0.0000 29.1715
#
#
#
# Elastic Compliance Matrix: (Units=1/GPa)
#
#
# Indices 1 2 3 4 5 6 
#
# 1 0.025147 0.000734 -0.004576 0.000000 -0.012881 0.000000
# 2 0.000734 0.015479 0.002988 0.000000 -0.011819 0.000000
# 3 -0.004576 0.002988 0.023963 0.000000 -0.014789 0.000000
# 4 0.000000 0.000000 0.000000 0.775157 0.000000 0.118884
# 5 -0.012881 -0.011819 -0.014789 0.000000 0.067008 0.000000
# 6 0.000000 0.000000 0.000000 0.118884 0.000000 0.052513
#
#
# Mechanical properties :
#
#
# Convention : Reuss Voigt Hill
#
# Bulk Modulus (GPa) = 15.90268 25.30715 20.60491
# Shear Modulus (GPa) = 5.09199 21.41149 13.25174
#
# Velocity S-wave (km/s) = 1.53226 3.14203 2.47186
# Velocity P-wave (km/s) = 3.23462 4.98315 4.20086
#
# Compressibility (1/GPa) = 0.06288248
#
# Stress axis : x y z
#
# Youngs Moduli (GPa) = 39.76642 64.60428 41.73075
#
# Poissons Ratio (x) = -0.04744 0.19095
# Poissons Ratio (y) = -0.02920 -0.12471
# Poissons Ratio (z) = 0.18197 -0.19306
#
# Static dielectric constant tensor:
#      x y z
#    x 3.990820 0.000000 0.542710 
#    y 0.000000 3.845350 0.000000 
#    z 0.542710 0.000000 4.088510 
# 
# 
# High freq. dielectric constant tensor:
#      x y z
#    x 1.826160 0.000000 0.038210 
#    y 0.000000 1.854330 0.000000 
#    z 0.038210 0.000000 1.851240 
# 
# From -- ./inp_files/80669.got.cif
#   From: 2010.06.25/outbox.cif.g09.slc.cpg/sg13_41_cif.got.tgz:80669.got - 2010.06.28 04:50:58.
