data_PCOD8121645
_publ_section_title
;
Structure prediction by ZEFSAII (Michael W. Deem and Ramdas Pophale) SiO2 
 PCOD8121645
Probable space group: P 2/C
;
_chemical_formula_sum "Si O2"
_cell_formula_units_Z 30
_cell_length_a 5.577681
_cell_length_b 16.498490
_cell_length_c 15.266444
_cell_angle_alpha 90.000000
_cell_angle_beta 72.805978
_cell_angle_gamma 90.000000
_cell_volume 1342.084077
_symmetry_space_group_name_H-M "P 2/C"
_symmetry_group_IT_number 13
_symmetry_cell_setting 'monoclinic'
loop_
_space_group_symop_operation_xyz
x,y,z
-x,y,1/2-z
-x,-y,-z
x,-y,1/2+z
loop_
_atom_site_type_symbol
_atom_site_label
_atom_site_fract_x
_atom_site_fract_y
_atom_site_fract_z
Si Si1 0.898619 0.640455 0.414965
Si Si2 0.565301 0.117539 0.531327
Si Si3 0.700778 0.522899 0.905571
Si Si4 0.998070 0.156088 0.353587
Si Si5 0.554260 0.722968 0.144120
Si Si6 0.078432 0.339192 0.393212
Si Si7 0.500000 0.424523 0.250000
Si Si8 0.244238 0.042697 0.440821
O O1 0.917884 0.545996 0.384688
O O2 0.689448 0.680520 0.373593
O O3 0.794484 0.646909 0.525472
O O4 0.182999 0.674036 0.384879
O O5 0.757455 0.119145 0.428265
O O6 0.598693 0.192881 0.590666
O O7 0.302304 0.111383 0.508970
O O8 0.566476 0.033340 0.587656
O O9 0.571281 0.519396 0.824417
O O10 0.819005 0.610501 0.913383
O O11 0.500000 0.500000 0.000000
O O12 0.000000 0.158662 0.250000
O O13 0.025678 0.245615 0.387878
O O14 0.223785 0.094391 0.353699
O O15 0.500000 0.742643 0.250000
O O16 0.266670 0.366874 0.297226
O O17 0.000000 0.000000 0.500000
#
# Coordination Sequence:
#
# PCOD8121645 Si02
#       8
#     4   4   4   4   4   4   2   4
#     4  12  27  49  77 103 151 199 251 310 381 441
#     4  10  22  45  71  98 148 188 238 305 369 443
#     4  12  27  48  72 106 148 197 255 317 378 449
#     4  11  23  41  70 105 141 185 241 300 372 448
#     4  12  28  48  75 113 146 201 253 315 372 453
#     4  12  26  47  72 105 149 195 248 314 385 449
#     4  12  28  44  74 110 142 200 256 312 380 466
#     4   9  21  43  70 101 138 190 236 296 370 445
#
# _framework density 22.353294999999999
#
# number of rings (size 3 to 8) (size 9 to 14) (size 15 to 20)
#    0.000    0.800    2.667    3.600    4.667    4.800 
#    7.200    0.000    0.000    0.000    0.000    0.000 
#    0.000    0.000    0.000    0.000    0.000    0.000 
#
# Total GULP energy -371720.318576 kJ/mol
# GULP energy per Si atom -12390.677286 kJ/mol
# Density = 2.230242 g / cm^3
# Si number density = 22.353295 Si / 1000 Ang^3
#
#
#
# Elastic Constant Matrix: (Units=GPa)
#
#
# Indices 1 2 3 4 5 6 
#
# 1 111.3587 38.0013 27.5183 0.0000 12.8073 0.0000
# 2 38.0013 135.3451 25.8374 0.0000 14.7917 0.0000
# 3 27.5183 25.8374 113.5517 0.0000 15.9642 0.0000
# 4 0.0000 0.0000 0.0000 18.7344 0.0000 9.4212
# 5 12.8073 14.7917 15.9642 0.0000 44.0057 0.0000
# 6 0.0000 0.0000 0.0000 9.4212 0.0000 35.8104
#
#
#
# Elastic Compliance Matrix: (Units=1/GPa)
#
#
# Indices 1 2 3 4 5 6 
#
# 1 0.010420 -0.002418 -0.001752 0.000000 -0.001584 0.000000
# 2 -0.002418 0.008467 -0.001095 0.000000 -0.001745 0.000000
# 3 -0.001752 -0.001095 0.009860 0.000000 -0.002699 0.000000
# 4 0.000000 0.000000 0.000000 0.061516 0.000000 -0.016184
# 5 -0.001584 -0.001745 -0.002699 0.000000 0.024751 0.000000
# 6 0.000000 0.000000 0.000000 -0.016184 0.000000 0.032183
#
#
# Mechanical properties :
#
#
# Convention : Reuss Voigt Hill
#
# Bulk Modulus (GPa) = 54.89675 60.32994 57.61335
# Shear Modulus (GPa) = 30.52480 37.63667 34.08073
#
# Velocity S-wave (km/s) = 3.69936 4.10777 3.90890
# Velocity P-wave (km/s) = 6.54668 7.03891 6.79725
#
# Compressibility (1/GPa) = 0.01821601
#
# Stress axis : x y z
#
# Youngs Moduli (GPa) = 95.96553 118.10193 101.42116
#
# Poissons Ratio (x) = 0.28558 0.17773
# Poissons Ratio (y) = 0.23206 0.11109
# Poissons Ratio (z) = 0.16817 0.12936
#
# Static dielectric constant tensor:
#      x y z
#    x 5.263870 0.000000 0.598350 
#    y 0.000000 5.451420 0.000000 
#    z 0.598350 0.000000 4.278700 
# 
# 
# High freq. dielectric constant tensor:
#      x y z
#    x 1.893980 0.000000 0.015890 
#    y 0.000000 1.896870 0.000000 
#    z 0.015890 0.000000 1.875490 
# 
# From -- ./inp_files/44449.got.cif
#   From: 2010.06.25/outbox.cif.g09.slc.cpg/sg13_23_cif.got.tgz:44449.got - 2010.06.28 04:50:58.
