data_PCOD8121570
_publ_section_title
;
Structure prediction by ZEFSAII (Michael W. Deem and Ramdas Pophale) SiO2 
 PCOD8121570
Probable space group: P 2/C
;
_chemical_formula_sum "Si O2"
_cell_formula_units_Z 16
_cell_length_a 4.922559
_cell_length_b 11.722262
_cell_length_c 13.798602
_cell_angle_alpha 90.000000
_cell_angle_beta 70.014144
_cell_angle_gamma 90.000000
_cell_volume 748.276773
_symmetry_space_group_name_H-M "P 2/C"
_symmetry_group_IT_number 13
_symmetry_cell_setting 'monoclinic'
loop_
_space_group_symop_operation_xyz
x,y,z
-x,y,1/2-z
-x,-y,-z
x,-y,1/2+z
loop_
_atom_site_type_symbol
_atom_site_label
_atom_site_fract_x
_atom_site_fract_y
_atom_site_fract_z
Si Si1 0.374301 0.047275 0.370902
Si Si2 0.215623 0.604576 0.502124
Si Si3 0.315690 0.505619 0.180043
Si Si4 0.766365 0.143128 0.474273
O O1 0.500000 0.035408 0.250000
O O2 0.541267 0.145555 0.411881
O O3 0.039616 0.075656 0.401498
O O4 0.396759 0.923505 0.419425
O O5 0.506619 0.600341 0.401770
O O6 0.279587 0.598432 0.609483
O O7 0.114388 0.734178 0.501693
O O8 0.000000 0.500000 0.500000
O O9 0.500000 0.463649 0.250000
O O10 0.000000 0.553642 0.250000
#
# Coordination Sequence:
#
# PCOD8121570 Si02
#       4
#     4   4   4   4
#     4  10  22  44  65  96 122 169 217 270 319 381
#     4  11  25  43  66  98 137 175 213 274 328 398
#     4  11  24  42  62  92 134 173 219 257 316 392
#     4  10  24  41  67  93 131 164 216 266 327 381
#
# _framework density 21.382460999999999
#
# number of rings (size 3 to 8) (size 9 to 14) (size 15 to 20)
#    0.000    1.500    2.500    0.750    7.000    4.000 
#    0.000    0.000    0.000    0.000    0.000    0.000 
#    0.000    0.000    0.000    0.000    0.000    0.000 
#
# Total GULP energy -198238.205196 kJ/mol
# GULP energy per Si atom -12389.887825 kJ/mol
# Density = 2.133379 g / cm^3
# Si number density = 21.382461 Si / 1000 Ang^3
#
#
#
# Elastic Constant Matrix: (Units=GPa)
#
#
# Indices 1 2 3 4 5 6 
#
# 1 116.1338 28.1766 56.6890 0.0000 -7.6809 0.0000
# 2 28.1766 132.0769 51.0996 0.0000 1.6440 0.0000
# 3 56.6890 51.0996 154.4788 0.0000 -20.9706 0.0000
# 4 0.0000 0.0000 0.0000 5.8423 0.0000 5.6577
# 5 -7.6809 1.6440 -20.9706 0.0000 44.7495 0.0000
# 6 0.0000 0.0000 0.0000 5.6577 0.0000 27.1437
#
#
#
# Elastic Compliance Matrix: (Units=1/GPa)
#
#
# Indices 1 2 3 4 5 6 
#
# 1 0.010577 -0.000879 -0.003567 0.000000 0.000176 0.000000
# 2 -0.000879 0.008890 -0.002865 0.000000 -0.001820 0.000000
# 3 -0.003567 -0.002865 0.009250 0.000000 0.003828 0.000000
# 4 0.000000 0.000000 0.000000 0.214451 0.000000 -0.044699
# 5 0.000176 -0.001820 0.003828 0.000000 0.024237 0.000000
# 6 0.000000 0.000000 0.000000 -0.044699 0.000000 0.046158
#
#
# Mechanical properties :
#
#
# Convention : Reuss Voigt Hill
#
# Bulk Modulus (GPa) = 70.94762 74.95779 72.95271
# Shear Modulus (GPa) = 15.02033 33.32873 24.17453
#
# Velocity S-wave (km/s) = 2.65327 3.95231 3.36605
# Velocity P-wave (km/s) = 6.52984 7.48061 7.02134
#
# Compressibility (1/GPa) = 0.01409490
#
# Stress axis : x y z
#
# Youngs Moduli (GPa) = 94.54801 112.48552 108.11152
#
# Poissons Ratio (x) = 0.09883 0.38561
# Poissons Ratio (y) = 0.08307 0.30978
# Poissons Ratio (z) = 0.33723 0.32231
#
# Static dielectric constant tensor:
#      x y z
#    x 4.060980 0.000000 -0.005530 
#    y 0.000000 3.501650 0.000000 
#    z -0.005530 0.000000 4.110620 
# 
# 
# High freq. dielectric constant tensor:
#      x y z
#    x 1.853530 0.000000 -0.003200 
#    y 0.000000 1.805590 0.000000 
#    z -0.003200 0.000000 1.852530 
# 
# From -- ./inp_files/25776.got.cif
#   From: 2010.06.25/outbox.cif.g09.slc.cpg/sg13_13_cif.got.tgz:25776.got - 2010.06.28 04:50:58.
