data_PCOD8121335
_publ_section_title
;
Structure prediction by ZEFSAII (Michael W. Deem and Ramdas Pophale) SiO2 
 PCOD8121335
Probable space group: P 2/C
;
_chemical_formula_sum "Si O2"
_cell_formula_units_Z 28
_cell_length_a 15.073559
_cell_length_b 8.568498
_cell_length_c 17.350257
_cell_angle_alpha 90.000000
_cell_angle_beta 142.566955
_cell_angle_gamma 90.000000
_cell_volume 1362.107373
_symmetry_space_group_name_H-M "P 2/C"
_symmetry_group_IT_number 13
_symmetry_cell_setting 'monoclinic'
loop_
_space_group_symop_operation_xyz
x,y,z
-x,y,1/2-z
-x,-y,-z
x,-y,1/2+z
loop_
_atom_site_type_symbol
_atom_site_label
_atom_site_fract_x
_atom_site_fract_y
_atom_site_fract_z
Si Si1 0.221997 0.140190 0.215050
Si Si2 0.349553 0.405346 0.402353
Si Si3 0.154499 0.972351 0.322618
Si Si4 0.903814 0.634216 0.249695
Si Si5 0.691086 0.848095 0.310693
Si Si6 0.633603 0.188754 0.948394
Si Si7 0.975818 0.324124 0.960472
O O1 0.338052 0.266846 0.329771
O O2 0.165160 0.025202 0.241846
O O3 0.284351 0.032936 0.188792
O O4 0.080331 0.220665 0.083651
O O5 0.500000 0.500000 0.500000
O O6 0.215979 0.521429 0.296157
O O7 0.322657 0.338329 0.469880
O O8 0.291361 0.035814 0.464825
O O9 0.000000 0.032826 0.250000
O O10 0.169217 0.786186 0.339122
O O11 0.000000 0.548839 0.250000
O O12 0.009416 0.689312 0.392389
O O13 0.539868 0.815691 0.163534
O O14 0.684340 0.802159 0.395539
O O15 0.810497 0.733835 0.357603
O O16 0.000000 0.500000 0.000000
#
# Coordination Sequence:
#
# PCOD8121335 Si02
#       7
#     4   4   4   4   4   4   4
#     4  11  24  40  70  94 124 175 217 276 326 393
#     4  11  25  44  66  99 133 178 217 271 342 404
#     4  10  22  41  66  98 128 166 218 273 327 391
#     4  11  25  41  64  98 134 170 218 271 333 397
#     4  11  24  44  65  96 128 173 222 269 334 389
#     4  10  25  42  68  92 132 170 215 276 327 394
#     4  12  24  42  66  94 133 171 220 274 328 400
#
# _framework density 20.556380999999998
#
# number of rings (size 3 to 8) (size 9 to 14) (size 15 to 20)
#    0.000    1.143    2.857    2.143    8.000    3.429 
#    0.000    0.000    0.000    0.000    0.000    0.000 
#    0.000    0.000    0.000    0.000    0.000    0.000 
#
# Total GULP energy -347123.848304 kJ/mol
# GULP energy per Si atom -12397.280297 kJ/mol
# Density = 2.050959 g / cm^3
# Si number density = 20.556381 Si / 1000 Ang^3
#
#
#
# Elastic Constant Matrix: (Units=GPa)
#
#
# Indices 1 2 3 4 5 6 
#
# 1 94.0816 36.9062 42.3306 0.0000 -3.0778 0.0000
# 2 36.9062 103.5981 34.4955 0.0000 4.2462 0.0000
# 3 42.3306 34.4955 109.2323 0.0000 -4.5396 0.0000
# 4 0.0000 0.0000 0.0000 33.4961 0.0000 2.4211
# 5 -3.0778 4.2462 -4.5396 0.0000 26.3082 0.0000
# 6 0.0000 0.0000 0.0000 2.4211 0.0000 32.4668
#
#
#
# Elastic Compliance Matrix: (Units=1/GPa)
#
#
# Indices 1 2 3 4 5 6 
#
# 1 0.014005 -0.003648 -0.004213 0.000000 0.001500 0.000000
# 2 -0.003648 0.011883 -0.002454 0.000000 -0.002768 0.000000
# 3 -0.004213 -0.002454 0.011642 0.000000 0.001912 0.000000
# 4 0.000000 0.000000 0.000000 0.030016 0.000000 -0.002238
# 5 0.001500 -0.002768 0.001912 0.000000 0.038963 0.000000
# 6 0.000000 0.000000 0.000000 -0.002238 0.000000 0.030968
#
#
# Mechanical properties :
#
#
# Convention : Reuss Voigt Hill
#
# Bulk Modulus (GPa) = 59.17181 59.37518 59.27350
# Shear Modulus (GPa) = 30.53646 31.33285 30.93465
#
# Velocity S-wave (km/s) = 3.85840 3.90839 3.88347
# Velocity P-wave (km/s) = 6.97834 7.02240 7.00040
#
# Compressibility (1/GPa) = 0.01689994
#
# Stress axis : x y z
#
# Youngs Moduli (GPa) = 71.40503 84.15558 85.89706
#
# Poissons Ratio (x) = 0.30698 0.36187
# Poissons Ratio (y) = 0.26047 0.21079
# Poissons Ratio (z) = 0.30082 0.20652
#
# Static dielectric constant tensor:
#      x y z
#    x 3.781770 0.000000 -0.290360 
#    y 0.000000 3.956400 0.000000 
#    z -0.290360 0.000000 4.771550 
# 
# 
# High freq. dielectric constant tensor:
#      x y z
#    x 1.800530 0.000000 -0.012040 
#    y 0.000000 1.809330 0.000000 
#    z -0.012040 0.000000 1.817390 
# 
# From -- ./inp_files/68231.got.cif
#   From: 2010.06.25/outbox.cif.g09.slc.cpg/sg13_35_cif.got.tgz:68231.got - 2010.06.28 04:50:58.
