data_PCOD8121599
_publ_section_title
;
Structure prediction by ZEFSAII (Michael W. Deem and Ramdas Pophale) SiO2 
 PCOD8121599
Probable space group: P 2/C
;
_chemical_formula_sum "Si O2"
_cell_formula_units_Z 18
_cell_length_a 8.941343
_cell_length_b 11.792676
_cell_length_c 9.203563
_cell_angle_alpha 90.000000
_cell_angle_beta 120.974726
_cell_angle_gamma 90.000000
_cell_volume 832.054470
_symmetry_space_group_name_H-M "P 2/C"
_symmetry_group_IT_number 13
_symmetry_cell_setting 'monoclinic'
loop_
_space_group_symop_operation_xyz
x,y,z
-x,y,1/2-z
-x,-y,-z
x,-y,1/2+z
loop_
_atom_site_type_symbol
_atom_site_label
_atom_site_fract_x
_atom_site_fract_y
_atom_site_fract_z
Si Si1 0.500000 0.250000 0.750000
Si Si2 0.220086 0.587824 0.986421
Si Si3 0.779916 0.912175 0.266337
Si Si4 0.158707 0.126794 0.036254
Si Si5 0.841293 0.373206 0.377548
O O1 0.617227 0.330948 0.906850
O O2 0.382772 0.169053 0.789622
O O3 0.250729 0.458731 0.055046
O O4 0.199866 0.585840 0.804375
O O5 0.052001 0.630530 0.993780
O O6 0.947998 0.869470 0.441781
O O7 0.749271 0.041268 0.304320
O O8 0.800140 0.914159 0.104513
O O9 0.232445 0.250000 0.116222
#
# Coordination Sequence:
#
# PCOD8121599 Si02
#       5
#     2   4   4   4   4
#     4  12  24  44  64 104 140 170 210 302 324 388
#     4  10  24  40  70  96 136 173 225 271 339 381
#     4  10  24  40  70  96 136 173 225 271 339 381
#     4  10  22  44  69  97 128 184 226 265 319 421
#     4  10  22  44  69  97 128 184 226 265 319 421
#
# _framework density 21.633199000000001
#
# number of rings (size 3 to 8) (size 9 to 14) (size 15 to 20)
#    0.000    1.778    2.222    0.000    6.222    5.333 
#    0.000    0.000    0.000    0.000    0.000    0.000 
#    0.000    0.000    0.000    0.000    0.000    0.000 
#
# Total GULP energy -223171.703633 kJ/mol
# GULP energy per Si atom -12398.427980 kJ/mol
# Density = 2.158396 g / cm^3
# Si number density = 21.633199 Si / 1000 Ang^3
#
#
#
# Elastic Constant Matrix: (Units=GPa)
#
#
# Indices 1 2 3 4 5 6 
#
# 1 80.1962 59.7769 44.3760 0.0000 4.9515 0.0000
# 2 59.7769 220.1890 77.3195 0.0000 -15.1900 0.0000
# 3 44.3760 77.3195 91.4250 0.0000 -14.6691 0.0000
# 4 0.0000 0.0000 0.0000 29.4629 0.0000 6.8482
# 5 4.9515 -15.1900 -14.6691 0.0000 32.0448 0.0000
# 6 0.0000 0.0000 0.0000 6.8482 0.0000 37.3679
#
#
#
# Elastic Compliance Matrix: (Units=1/GPa)
#
#
# Indices 1 2 3 4 5 6 
#
# 1 0.019916 -0.003013 -0.008463 0.000000 -0.008380 0.000000
# 2 -0.003013 0.006927 -0.004095 0.000000 0.001875 0.000000
# 3 -0.008463 -0.004095 0.019866 0.000000 0.008461 0.000000
# 4 0.000000 0.000000 0.000000 0.035451 0.000000 -0.006497
# 5 -0.008380 0.001875 0.008461 0.000000 0.037263 0.000000
# 6 0.000000 0.000000 0.000000 -0.006497 0.000000 0.027952
#
#
# Mechanical properties :
#
#
# Convention : Reuss Voigt Hill
#
# Bulk Modulus (GPa) = 64.23875 83.86169 74.05022
# Shear Modulus (GPa) = 27.21755 33.79763 30.50759
#
# Velocity S-wave (km/s) = 3.55087 3.95689 3.75936
# Velocity P-wave (km/s) = 6.82426 7.72822 7.29027
#
# Compressibility (1/GPa) = 0.01556693
#
# Stress axis : x y z
#
# Youngs Moduli (GPa) = 50.21187 144.36822 50.33630
#
# Poissons Ratio (x) = 0.43497 0.42600
# Poissons Ratio (y) = 0.15129 0.20612
# Poissons Ratio (z) = 0.42495 0.59117
#
# Static dielectric constant tensor:
#      x y z
#    x 3.876450 0.000000 0.149290 
#    y 0.000000 4.062810 0.000000 
#    z 0.149290 0.000000 3.704090 
# 
# 
# High freq. dielectric constant tensor:
#      x y z
#    x 1.834170 0.000000 -0.007290 
#    y 0.000000 1.865610 0.000000 
#    z -0.007290 0.000000 1.842590 
# 
# From -- ./inp_files/11954.got.cif
#   From: 2010.06.25/outbox.cif.g09.slc.cpg/sg13_6_cif.got.tgz:11954.got - 2010.06.28 04:50:58.
