data_PCOD8121788
_publ_section_title
;
Structure prediction by ZEFSAII (Michael W. Deem and Ramdas Pophale) SiO2 
 PCOD8121788
Probable space group: P 2/C
;
_chemical_formula_sum "Si O2"
_cell_formula_units_Z 32
_cell_length_a 18.660643
_cell_length_b 15.103788
_cell_length_c 13.746437
_cell_angle_alpha 90.000000
_cell_angle_beta 22.518708
_cell_angle_gamma 90.000000
_cell_volume 1483.831136
_symmetry_space_group_name_H-M "P 2/C"
_symmetry_group_IT_number 13
_symmetry_cell_setting 'monoclinic'
loop_
_space_group_symop_operation_xyz
x,y,z
-x,y,1/2-z
-x,-y,-z
x,-y,1/2+z
loop_
_atom_site_type_symbol
_atom_site_label
_atom_site_fract_x
_atom_site_fract_y
_atom_site_fract_z
Si Si1 0.271796 0.048386 0.360716
Si Si2 0.300447 0.383595 0.366111
Si Si3 0.001792 0.410208 0.060644
Si Si4 0.674628 0.882405 0.326912
Si Si5 0.655438 0.426589 0.632814
Si Si6 0.957860 0.688851 0.172562
Si Si7 0.083459 0.890474 0.286563
Si Si8 0.357750 0.681544 0.176333
O O1 0.184409 0.050677 0.577743
O O2 0.137795 0.086895 0.442694
O O3 0.303007 0.945673 0.294621
O O4 0.461991 0.105287 0.129512
O O5 0.320913 0.488368 0.326193
O O6 0.234782 0.365273 0.560290
O O7 0.131005 0.342840 0.518387
O O8 0.486312 0.332605 0.101313
O O9 0.847715 0.405349 0.337134
O O10 0.980138 0.326712 0.015730
O O11 0.198487 0.393377 0.865448
O O12 0.000000 0.500000 0.000000
O O13 0.823640 0.908285 0.224738
O O14 0.712031 0.782242 0.244609
O O15 0.500000 0.451764 0.750000
O O16 0.578701 0.342896 0.792883
O O17 0.899487 0.788929 0.264666
#
# Coordination Sequence:
#
# PCOD8121788 Si02
#       8
#     4   4   4   4   4   4   4   4
#     4  10  23  41  69  98 136 168 227 285 347 427
#     4  11  23  40  65  94 132 174 227 280 336 392
#     4  12  23  42  64  93 134 173 227 276 336 399
#     4  11  23  44  68  99 135 178 220 287 361 411
#     4  12  26  43  62  91 136 185 228 278 343 407
#     4  11  22  39  68  96 127 176 223 288 334 399
#     4  11  21  43  65 103 131 177 224 286 349 418
#     4  12  25  43  65  98 132 176 229 280 338 423
#
# _framework density 21.565795999999999
#
# number of rings (size 3 to 8) (size 9 to 14) (size 15 to 20)
#    0.000    0.750    2.500    6.750    1.750    0.000 
#    4.500    2.500    0.000    0.000    0.000    0.000 
#    0.000    0.000    0.000    0.000    0.000    0.000 
#
# Total GULP energy -396655.994325 kJ/mol
# GULP energy per Si atom -12395.499823 kJ/mol
# Density = 2.151671 g / cm^3
# Si number density = 21.565796 Si / 1000 Ang^3
#
#
#
# Elastic Constant Matrix: (Units=GPa)
#
#
# Indices 1 2 3 4 5 6 
#
# 1 73.3266 34.7348 19.1156 0.0000 -0.4931 0.0000
# 2 34.7348 111.6961 29.1838 0.0000 8.4137 0.0000
# 3 19.1156 29.1838 92.3531 0.0000 -8.6278 0.0000
# 4 0.0000 0.0000 0.0000 41.4754 0.0000 -8.8731
# 5 -0.4931 8.4137 -8.6278 0.0000 34.8344 0.0000
# 6 0.0000 0.0000 0.0000 -8.8731 0.0000 40.8490
#
#
#
# Elastic Compliance Matrix: (Units=1/GPa)
#
#
# Indices 1 2 3 4 5 6 
#
# 1 0.016331 -0.004672 -0.001819 0.000000 0.000909 0.000000
# 2 -0.004672 0.011455 -0.002987 0.000000 -0.003573 0.000000
# 3 -0.001819 -0.002987 0.012503 0.000000 0.003792 0.000000
# 4 0.000000 0.000000 0.000000 0.025286 0.000000 0.005492
# 5 0.000909 -0.003573 0.003792 0.000000 0.030522 0.000000
# 6 0.000000 0.000000 0.000000 0.005492 0.000000 0.025673
#
#
# Mechanical properties :
#
#
# Convention : Reuss Voigt Hill
#
# Bulk Modulus (GPa) = 46.87389 49.27156 48.07272
# Shear Modulus (GPa) = 33.82120 36.38785 35.10453
#
# Velocity S-wave (km/s) = 3.96445 4.11213 4.03896
# Velocity P-wave (km/s) = 6.53745 6.74113 6.64007
#
# Compressibility (1/GPa) = 0.02133384
#
# Stress axis : x y z
#
# Youngs Moduli (GPa) = 61.23348 87.29718 79.98342
#
# Poissons Ratio (x) = 0.40783 0.14549
# Poissons Ratio (y) = 0.28607 0.23888
# Poissons Ratio (z) = 0.11139 0.26073
#
# Static dielectric constant tensor:
#      x y z
#    x 3.059780 0.000000 -1.516120 
#    y 0.000000 3.855770 0.000000 
#    z -1.516120 0.000000 2.092380 
# 
# 
# High freq. dielectric constant tensor:
#      x y z
#    x 1.852830 0.000000 -0.006400 
#    y 0.000000 1.842460 0.000000 
#    z -0.006400 0.000000 1.851920 
# 
# From -- ./inp_files/57862.got.cif
#   From: 2010.06.25/outbox.cif.g09.slc.cpg/sg13_29_cif.got.tgz:57862.got - 2010.06.28 04:50:58.
