data_PCOD8121116
_publ_section_title
;
Structure prediction by ZEFSAII (Michael W. Deem and Ramdas Pophale) SiO2 
 PCOD8121116
Probable space group: P 2/C
;
_chemical_formula_sum "Si O2"
_cell_formula_units_Z 28
_cell_length_a 14.099031
_cell_length_b 9.350978
_cell_length_c 20.284527
_cell_angle_alpha 90.000000
_cell_angle_beta 150.038603
_cell_angle_gamma 90.000000
_cell_volume 1335.592549
_symmetry_space_group_name_H-M "P 2/C"
_symmetry_group_IT_number 13
_symmetry_cell_setting 'monoclinic'
loop_
_space_group_symop_operation_xyz
x,y,z
-x,y,1/2-z
-x,-y,-z
x,-y,1/2+z
loop_
_atom_site_type_symbol
_atom_site_label
_atom_site_fract_x
_atom_site_fract_y
_atom_site_fract_z
Si Si1 0.500000 0.702496 0.250000
Si Si2 0.000000 0.706835 0.750000
Si Si3 0.768833 0.642329 0.039956
Si Si4 0.407001 0.519934 0.307032
Si Si5 0.163549 0.167749 0.480066
Si Si6 0.910180 0.654764 0.927205
Si Si7 0.174138 0.556383 0.287813
Si Si8 0.289267 0.865605 0.593601
O O1 0.358685 0.611993 0.212358
O O2 0.617380 0.791772 0.374557
O O3 0.896594 0.806673 0.632596
O O4 0.844808 0.604419 0.692955
O O5 0.782158 0.665107 0.126381
O O6 0.973486 0.597880 0.132966
O O7 0.631349 0.508583 0.941058
O O8 0.679036 0.785942 0.956696
O O9 0.285638 0.375169 0.229337
O O10 0.342722 0.587224 0.337940
O O11 0.036423 0.258610 0.452475
O O12 0.158576 0.002283 0.498903
O O13 0.847298 0.757438 0.948788
O O14 0.000000 0.500000 0.000000
O O15 0.500000 0.898623 0.750000
#
# Coordination Sequence:
#
# PCOD8121116 Si02
#       8
#     2   2   4   4   4   4   4   4
#     4  12  24  38  68 106 132 182 236 278 344 412
#     4  10  22  42  68  98 134 184 228 278 344 408
#     4  10  22  39  65  97 133 182 225 275 346 403
#     4  12  21  38  68 103 140 169 231 300 334 392
#     4  12  26  45  67  95 144 184 226 279 349 415
#     4  12  24  41  70 101 130 179 233 291 340 399
#     4  10  22  41  68 102 140 174 231 290 344 402
#     4  12  25  45  66  98 140 179 226 284 343 413
#
# _framework density 20.964478
#
# number of rings (size 3 to 8) (size 9 to 14) (size 15 to 20)
#    0.000    0.857    5.000    4.286    2.000    1.143 
#    0.000    0.000    0.000    2.571    0.000    0.000 
#    0.000    0.000    0.000    0.000    0.000    0.000 
#
# Total GULP energy -346875.112022 kJ/mol
# GULP energy per Si atom -12388.396858 kJ/mol
# Density = 2.091676 g / cm^3
# Si number density = 20.964478 Si / 1000 Ang^3
#
#
#
# Elastic Constant Matrix: (Units=GPa)
#
#
# Indices 1 2 3 4 5 6 
#
# 1 119.6211 54.7812 36.0913 0.0000 -16.7061 0.0000
# 2 54.7812 101.1900 49.4550 0.0000 -12.5530 0.0000
# 3 36.0913 49.4550 129.9763 0.0000 -19.8406 0.0000
# 4 0.0000 0.0000 0.0000 146.8062 0.0000 -78.5464
# 5 -16.7061 -12.5530 -19.8406 0.0000 29.7885 0.0000
# 6 0.0000 0.0000 0.0000 -78.5464 0.0000 75.6486
#
#
#
# Elastic Compliance Matrix: (Units=1/GPa)
#
#
# Indices 1 2 3 4 5 6 
#
# 1 0.011590 -0.005544 -0.000527 0.000000 0.003813 0.000000
# 2 -0.005544 0.014931 -0.004070 0.000000 0.000472 0.000000
# 3 -0.000527 -0.004070 0.010109 0.000000 0.004723 0.000000
# 4 0.000000 0.000000 0.000000 0.015325 0.000000 0.015912
# 5 0.003813 0.000472 0.004723 0.000000 0.039053 0.000000
# 6 0.000000 0.000000 0.000000 0.015912 0.000000 0.029741
#
#
# Mechanical properties :
#
#
# Convention : Reuss Voigt Hill
#
# Bulk Modulus (GPa) = 61.16312 70.16027 65.66169
# Shear Modulus (GPa) = 34.13399 64.47932 49.30666
#
# Velocity S-wave (km/s) = 4.03945 5.55187 4.85492
# Velocity P-wave (km/s) = 7.14102 8.63925 7.92562
#
# Compressibility (1/GPa) = 0.01634972
#
# Stress axis : x y z
#
# Youngs Moduli (GPa) = 86.28050 66.97296 98.91742
#
# Poissons Ratio (x) = 0.37130 0.05211
# Poissons Ratio (y) = 0.47835 0.40257
# Poissons Ratio (z) = 0.04545 0.27256
#
# Static dielectric constant tensor:
#      x y z
#    x 3.823140 0.000000 -0.086020 
#    y 0.000000 3.643610 0.000000 
#    z -0.086020 0.000000 4.196910 
# 
# 
# High freq. dielectric constant tensor:
#      x y z
#    x 1.823190 0.000000 -0.006690 
#    y 0.000000 1.790370 0.000000 
#    z -0.006690 0.000000 1.840600 
# 
# From -- ./inp_files/79976.got.cif
#   From: 2010.06.25/outbox.cif.g09.slc.cpg/sg13_40_cif.got.tgz:79976.got - 2010.06.28 04:50:58.
