data_PCOD8121210
_publ_section_title
;
Structure prediction by ZEFSAII (Michael W. Deem and Ramdas Pophale) SiO2 
 PCOD8121210
Probable space group: P 2/C
;
_chemical_formula_sum "Si O2"
_cell_formula_units_Z 28
_cell_length_a 8.230287
_cell_length_b 12.368042
_cell_length_c 13.319144
_cell_angle_alpha 90.000000
_cell_angle_beta 72.228895
_cell_angle_gamma 90.000000
_cell_volume 1291.095825
_symmetry_space_group_name_H-M "P 2/C"
_symmetry_group_IT_number 13
_symmetry_cell_setting 'monoclinic'
loop_
_space_group_symop_operation_xyz
x,y,z
-x,y,1/2-z
-x,-y,-z
x,-y,1/2+z
loop_
_atom_site_type_symbol
_atom_site_label
_atom_site_fract_x
_atom_site_fract_y
_atom_site_fract_z
Si Si1 0.790980 0.300488 0.039374
Si Si2 0.922370 0.881649 0.014188
Si Si3 0.565726 0.745998 0.842039
Si Si4 0.189682 0.072794 0.174225
Si Si5 0.811563 0.348855 0.814699
Si Si6 0.188959 0.419409 0.253872
Si Si7 0.688243 0.862330 0.251002
O O1 0.602990 0.245170 0.057783
O O2 0.801043 0.381044 0.132135
O O3 0.817105 0.369691 0.933449
O O4 0.929067 0.205942 0.025758
O O5 0.814429 0.858194 0.132963
O O6 0.796490 0.884070 0.942420
O O7 0.000000 0.000000 0.000000
O O8 0.500000 0.699967 0.750000
O O9 0.664357 0.857511 0.798910
O O10 0.701156 0.652626 0.846085
O O11 0.000000 0.097452 0.250000
O O12 0.238849 0.948127 0.181720
O O13 0.751614 0.456132 0.767080
O O14 0.683257 0.252956 0.807289
O O15 0.000000 0.310808 0.750000
O O16 0.000000 0.409339 0.250000
O O17 0.500000 0.894291 0.250000
#
# Coordination Sequence:
#
# PCOD8121210 Si02
#       7
#     4   4   4   4   4   4   4
#     4  11  24  44  71 100 136 180 228 276 341 404
#     4  12  25  43  71  96 135 187 221 276 342 405
#     4  10  22  40  66 101 133 169 222 283 327 394
#     4  12  23  42  69  97 137 175 225 277 334 405
#     4  11  24  48  68  94 137 180 224 277 341 404
#     4  10  23  43  71  99 133 174 227 281 335 397
#     4  12  28  45  65 100 140 178 227 281 337 408
#
# _framework density 21.687003000000001
#
# number of rings (size 3 to 8) (size 9 to 14) (size 15 to 20)
#    0.000    0.857    2.857    4.714    4.000    5.143 
#    2.571    0.000    0.000    0.000    0.000    0.000 
#    0.000    0.000    0.000    0.000    0.000    0.000 
#
# Total GULP energy -347063.206973 kJ/mol
# GULP energy per Si atom -12395.114535 kJ/mol
# Density = 2.163764 g / cm^3
# Si number density = 21.687003 Si / 1000 Ang^3
#
#
#
# Elastic Constant Matrix: (Units=GPa)
#
#
# Indices 1 2 3 4 5 6 
#
# 1 95.1608 57.9770 43.8652 0.0000 -13.7526 0.0000
# 2 57.9770 157.6362 55.8428 0.0000 2.9471 0.0000
# 3 43.8652 55.8428 122.3563 0.0000 6.0021 0.0000
# 4 0.0000 0.0000 0.0000 29.3851 0.0000 9.2744
# 5 -13.7526 2.9471 6.0021 0.0000 31.7242 0.0000
# 6 0.0000 0.0000 0.0000 9.2744 0.0000 24.7562
#
#
#
# Elastic Compliance Matrix: (Units=1/GPa)
#
#
# Indices 1 2 3 4 5 6 
#
# 1 0.016550 -0.004767 -0.004170 0.000000 0.008406 0.000000
# 2 -0.004767 0.008940 -0.002250 0.000000 -0.002471 0.000000
# 3 -0.004170 -0.002250 0.010874 0.000000 -0.003656 0.000000
# 4 0.000000 0.000000 0.000000 0.038594 0.000000 -0.014459
# 5 0.008406 -0.002471 -0.003656 0.000000 0.036087 0.000000
# 6 0.000000 0.000000 0.000000 -0.014459 0.000000 0.045811
#
#
# Mechanical properties :
#
#
# Convention : Reuss Voigt Hill
#
# Bulk Modulus (GPa) = 71.47818 76.72481 74.10149
# Shear Modulus (GPa) = 27.18970 31.67098 29.43034
#
# Velocity S-wave (km/s) = 3.54465 3.82562 3.68781
# Velocity P-wave (km/s) = 7.05573 7.41410 7.23713
#
# Compressibility (1/GPa) = 0.01399028
#
# Stress axis : x y z
#
# Youngs Moduli (GPa) = 60.42389 111.85424 91.96157
#
# Poissons Ratio (x) = 0.53318 0.38348
# Poissons Ratio (y) = 0.28803 0.20693
# Poissons Ratio (z) = 0.25197 0.25169
#
# Static dielectric constant tensor:
#      x y z
#    x 4.529670 0.000000 -0.235320 
#    y 0.000000 4.105540 0.000000 
#    z -0.235320 0.000000 4.107490 
# 
# 
# High freq. dielectric constant tensor:
#      x y z
#    x 1.863560 0.000000 -0.003070 
#    y 0.000000 1.853440 0.000000 
#    z -0.003070 0.000000 1.850800 
# 
# From -- ./inp_files/46856.got.cif
#   From: 2010.06.25/outbox.cif.g09.slc.cpg/sg13_24_cif.got.tgz:46856.got - 2010.06.28 04:50:58.
