data_PCOD8121848
_publ_section_title
;
Structure prediction by ZEFSAII (Michael W. Deem and Ramdas Pophale) SiO2 
 PCOD8121848
Probable space group: P 2/C
;
_chemical_formula_sum "Si O2"
_cell_formula_units_Z 30
_cell_length_a 13.636790
_cell_length_b 8.640284
_cell_length_c 22.334616
_cell_angle_alpha 90.000000
_cell_angle_beta 32.093704
_cell_angle_gamma 90.000000
_cell_volume 1398.179607
_symmetry_space_group_name_H-M "P 2/C"
_symmetry_group_IT_number 13
_symmetry_cell_setting 'monoclinic'
loop_
_space_group_symop_operation_xyz
x,y,z
-x,y,1/2-z
-x,-y,-z
x,-y,1/2+z
loop_
_atom_site_type_symbol
_atom_site_label
_atom_site_fract_x
_atom_site_fract_y
_atom_site_fract_z
Si Si1 0.217714 0.807155 0.042328
Si Si2 0.434437 0.329804 0.665245
Si Si3 0.092427 0.813513 0.390030
Si Si4 0.201990 0.840674 0.549424
Si Si5 0.475879 0.663168 0.691951
Si Si6 0.105645 0.832883 0.889982
Si Si7 0.309091 0.589974 0.107796
Si Si8 0.000000 0.363622 0.250000
O O1 0.246988 0.693208 0.083212
O O2 0.017386 0.785028 0.115338
O O3 0.231068 0.984393 0.057427
O O4 0.370805 0.780114 0.912192
O O5 0.280301 0.285479 0.793900
O O6 0.609078 0.218577 0.577076
O O7 0.501063 0.503396 0.643419
O O8 0.340591 0.303299 0.649006
O O9 0.961623 0.761554 0.512195
O O10 0.160886 0.988070 0.366613
O O11 0.130262 0.739570 0.641247
O O12 0.056931 0.821408 0.572471
O O13 0.500000 0.640219 0.750000
O O14 0.277558 0.733510 0.778414
O O15 0.145627 0.471216 0.209641
O O16 0.500000 0.500000 0.000000
#
# Coordination Sequence:
#
# PCOD8121848 Si02
#       8
#     4   4   4   4   4   4   4   2
#     4  11  24  46  70 100 133 179 229 277 341 406
#     4  12  26  43  65 103 132 179 226 279 342 403
#     4  10  23  44  66  95 132 176 227 271 337 400
#     4  11  26  43  70 101 134 176 229 281 337 407
#     4  12  24  41  68  99 139 180 228 281 339 412
#     4  10  23  43  66  95 135 179 219 279 336 398
#     4  12  24  46  70  96 140 178 223 284 344 403
#     4  12  24  46  68  98 138 174 226 286 338 402
#
# _framework density 21.456471000000001
#
# number of rings (size 3 to 8) (size 9 to 14) (size 15 to 20)
#    0.000    0.800    4.000    2.400    1.867    4.800 
#    0.000    0.000    0.000    0.000    0.000    0.000 
#    0.000    0.000    0.000    0.000    0.000    0.000 
#
# Total GULP energy -372042.934036 kJ/mol
# GULP energy per Si atom -12401.431135 kJ/mol
# Density = 2.140763 g / cm^3
# Si number density = 21.456471 Si / 1000 Ang^3
#
#
#
# Elastic Constant Matrix: (Units=GPa)
#
#
# Indices 1 2 3 4 5 6 
#
# 1 74.0193 30.7066 16.0385 0.0000 3.3287 0.0000
# 2 30.7066 89.9462 39.2539 0.0000 -14.0539 0.0000
# 3 16.0385 39.2539 106.9024 0.0000 -21.0617 0.0000
# 4 0.0000 0.0000 0.0000 45.5311 0.0000 9.1386
# 5 3.3287 -14.0539 -21.0617 0.0000 36.3952 0.0000
# 6 0.0000 0.0000 0.0000 9.1386 0.0000 135.7671
#
#
#
# Elastic Compliance Matrix: (Units=1/GPa)
#
#
# Indices 1 2 3 4 5 6 
#
# 1 0.016354 -0.005743 -0.001215 0.000000 -0.004416 0.000000
# 2 -0.005743 0.015477 -0.003996 0.000000 0.004189 0.000000
# 3 -0.001215 -0.003996 0.012102 0.000000 0.005571 0.000000
# 4 0.000000 0.000000 0.000000 0.022264 0.000000 -0.001499
# 5 -0.004416 0.004189 0.005571 0.000000 0.032722 0.000000
# 6 0.000000 0.000000 0.000000 -0.001499 0.000000 0.007466
#
#
# Mechanical properties :
#
#
# Convention : Reuss Voigt Hill
#
# Bulk Modulus (GPa) = 45.40366 49.20732 47.30549
# Shear Modulus (GPa) = 36.86384 55.86327 46.36356
#
# Velocity S-wave (km/s) = 4.14946 5.10805 4.65350
# Velocity P-wave (km/s) = 6.64561 7.60085 7.13922
#
# Compressibility (1/GPa) = 0.02202466
#
# Stress axis : x y z
#
# Youngs Moduli (GPa) = 61.14592 64.61271 82.63399
#
# Poissons Ratio (x) = 0.37107 0.10040
# Poissons Ratio (y) = 0.35116 0.33021
# Poissons Ratio (z) = 0.07429 0.25820
#
# Static dielectric constant tensor:
#      x y z
#    x 3.985870 0.000000 -0.000890 
#    y 0.000000 4.072520 0.000000 
#    z -0.000890 0.000000 4.022460 
# 
# 
# High freq. dielectric constant tensor:
#      x y z
#    x 1.847140 0.000000 -0.008060 
#    y 0.000000 1.841400 0.000000 
#    z -0.008060 0.000000 1.858200 
# 
# From -- ./inp_files/87281.got.cif
#   From: 2010.06.25/outbox.cif.g09.slc.cpg/sg13_44_cif.got.tgz:87281.got - 2010.06.28 04:50:58.
