data_PCOD8121094
_publ_section_title
;
Structure prediction by ZEFSAII (Michael W. Deem and Ramdas Pophale) SiO2 
 PCOD8121094
Probable space group: P 2/C
;
_chemical_formula_sum "Si O2"
_cell_formula_units_Z 28
_cell_length_a 11.766629
_cell_length_b 15.281242
_cell_length_c 8.893517
_cell_angle_alpha 90.000000
_cell_angle_beta 125.709140
_cell_angle_gamma 90.000000
_cell_volume 1298.479697
_symmetry_space_group_name_H-M "P 2/C"
_symmetry_group_IT_number 13
_symmetry_cell_setting 'monoclinic'
loop_
_space_group_symop_operation_xyz
x,y,z
-x,y,1/2-z
-x,-y,-z
x,-y,1/2+z
loop_
_atom_site_type_symbol
_atom_site_label
_atom_site_fract_x
_atom_site_fract_y
_atom_site_fract_z
Si Si1 0.321559 0.994320 0.210019
Si Si2 0.148367 0.401460 0.430141
Si Si3 0.652891 0.291509 0.398284
Si Si4 0.848308 0.070756 0.186621
Si Si5 0.468232 0.861498 0.520371
Si Si6 0.722416 0.750895 0.631905
Si Si7 0.854074 0.415870 0.715667
O O1 0.368252 0.903033 0.318909
O O2 0.177188 0.030490 0.169108
O O3 0.444019 0.065721 0.319531
O O4 0.281249 0.972315 0.007592
O O5 0.262255 0.326715 0.478553
O O6 0.132182 0.418507 0.594407
O O7 0.195664 0.490395 0.384595
O O8 0.000000 0.369740 0.250000
O O9 0.500000 0.335175 0.250000
O O10 0.628218 0.191823 0.436292
O O11 0.745599 0.287539 0.317974
O O12 0.735292 0.345797 0.586067
O O13 0.837985 0.175694 0.181939
O O14 0.000000 0.041624 0.250000
O O15 0.568025 0.793364 0.509040
O O16 0.000000 0.389149 0.750000
#
# Coordination Sequence:
#
# PCOD8121094 Si02
#       7
#     4   4   4   4   4   4   4
#     4  10  23  40  65  87 122 169 220 261 338 390
#     4  11  22  42  69 100 137 170 217 265 325 396
#     4  10  22  43  65  92 135 171 223 268 332 385
#     4  11  24  40  61  90 129 165 215 272 328 386
#     4   9  22  41  65  88 125 169 218 272 324 393
#     4  10  22  39  63  91 131 167 214 272 324 378
#     4  11  23  42  72 100 132 178 219 261 331 395
#
# _framework density 21.563679
#
# number of rings (size 3 to 8) (size 9 to 14) (size 15 to 20)
#    0.000    1.714    0.000    4.286   10.000    4.571 
#    2.571    6.429    0.000    0.000    0.000    0.000 
#    0.000    0.000    0.000    0.000    0.000    0.000 
#
# Total GULP energy -347162.883326 kJ/mol
# GULP energy per Si atom -12398.674404 kJ/mol
# Density = 2.151460 g / cm^3
# Si number density = 21.563679 Si / 1000 Ang^3
#
#
#
# Elastic Constant Matrix: (Units=GPa)
#
#
# Indices 1 2 3 4 5 6 
#
# 1 96.4083 45.9645 34.4638 0.0000 -20.3073 0.0000
# 2 45.9645 114.4709 47.1632 0.0000 -6.5268 0.0000
# 3 34.4638 47.1632 106.2382 0.0000 -15.7593 0.0000
# 4 0.0000 0.0000 0.0000 32.4200 0.0000 -4.1329
# 5 -20.3073 -6.5268 -15.7593 0.0000 37.7673 0.0000
# 6 0.0000 0.0000 0.0000 -4.1329 0.0000 25.1878
#
#
#
# Elastic Compliance Matrix: (Units=1/GPa)
#
#
# Indices 1 2 3 4 5 6 
#
# 1 0.014593 -0.004816 -0.001658 0.000000 0.006322 0.000000
# 2 -0.004816 0.012281 -0.004220 0.000000 -0.002228 0.000000
# 3 -0.001658 -0.004220 0.012348 0.000000 0.003532 0.000000
# 4 0.000000 0.000000 0.000000 0.031504 0.000000 0.005169
# 5 0.006322 -0.002228 0.003532 0.000000 0.030966 0.000000
# 6 0.000000 0.000000 0.000000 0.005169 0.000000 0.040550
#
#
# Mechanical properties :
#
#
# Convention : Reuss Voigt Hill
#
# Bulk Modulus (GPa) = 56.07380 63.58894 59.83137
# Shear Modulus (GPa) = 29.48515 31.71009 30.59762
#
# Velocity S-wave (km/s) = 3.70178 3.83891 3.77097
# Velocity P-wave (km/s) = 6.65817 7.01446 6.83863
#
# Compressibility (1/GPa) = 0.01783364
#
# Stress axis : x y z
#
# Youngs Moduli (GPa) = 68.52502 81.42337 80.98344
#
# Poissons Ratio (x) = 0.39214 0.13428
# Poissons Ratio (y) = 0.33002 0.34178
# Poissons Ratio (z) = 0.11362 0.34364
#
# Static dielectric constant tensor:
#      x y z
#    x 3.866840 0.000000 -0.183240 
#    y 0.000000 3.897650 0.000000 
#    z -0.183240 0.000000 3.779090 
# 
# 
# High freq. dielectric constant tensor:
#      x y z
#    x 1.855090 0.000000 -0.021730 
#    y 0.000000 1.847670 0.000000 
#    z -0.021730 0.000000 1.835690 
# 
# From -- ./inp_files/16860.got.cif
#   From: 2010.06.25/outbox.cif.g09.slc.cpg/sg13_9_cif.got.tgz:16860.got - 2010.06.28 04:50:58.
