data_PCOD8121266
_publ_section_title
;
Structure prediction by ZEFSAII (Michael W. Deem and Ramdas Pophale) SiO2 
 PCOD8121266
Probable space group: P 2/C
;
_chemical_formula_sum "Si O2"
_cell_formula_units_Z 22
_cell_length_a 17.415243
_cell_length_b 5.522720
_cell_length_c 25.984684
_cell_angle_alpha 90.000000
_cell_angle_beta 155.904153
_cell_angle_gamma 90.000000
_cell_volume 1020.331754
_symmetry_space_group_name_H-M "P 2/C"
_symmetry_group_IT_number 13
_symmetry_cell_setting 'monoclinic'
loop_
_space_group_symop_operation_xyz
x,y,z
-x,y,1/2-z
-x,-y,-z
x,-y,1/2+z
loop_
_atom_site_type_symbol
_atom_site_label
_atom_site_fract_x
_atom_site_fract_y
_atom_site_fract_z
Si Si1 0.355240 0.614762 0.234474
Si Si2 0.922616 0.819548 0.795979
Si Si3 0.762394 0.437920 0.949414
Si Si4 0.782251 0.804935 0.045498
Si Si5 0.000000 0.518230 0.750000
Si Si6 0.369041 0.099194 0.300348
O O1 0.230645 0.556030 0.107969
O O2 0.568948 0.683472 0.350294
O O3 0.338194 0.366974 0.256830
O O4 0.282512 0.863186 0.217440
O O5 0.728283 0.898682 0.703387
O O6 0.882039 0.653502 0.722174
O O7 0.030527 0.040774 0.836658
O O8 0.055707 0.706873 0.921279
O O9 0.764290 0.704540 0.975996
O O10 0.822929 0.606518 0.113789
O O11 0.591754 0.945685 0.944021
#
# Coordination Sequence:
#
# PCOD8121266 Si02
#       6
#     4   4   4   4   2   4
#     4  10  22  41  62 101 131 180 209 264 318 392
#     4  11  23  42  66  94 125 175 217 276 322 393
#     4   9  21  38  67  88 139 172 218 255 328 379
#     4  10  22  45  64  95 131 173 216 278 323 390
#     4  10  24  44  68  92 124 170 224 274 344 380
#     4  11  25  40  68  97 136 166 222 262 327 386
#
# _framework density 21.561616000000001
#
# number of rings (size 3 to 8) (size 9 to 14) (size 15 to 20)
#    0.000    1.818    1.818    0.545    7.636    3.636 
#    0.000    3.636    0.000    0.000    0.000    0.000 
#    0.000    0.000    0.000    0.000    0.000    0.000 
#
# Total GULP energy -272579.937059 kJ/mol
# GULP energy per Si atom -12389.997139 kJ/mol
# Density = 2.151254 g / cm^3
# Si number density = 21.561616 Si / 1000 Ang^3
#
#
#
# Elastic Constant Matrix: (Units=GPa)
#
#
# Indices 1 2 3 4 5 6 
#
# 1 136.5353 49.9290 58.5200 0.0000 -0.9834 0.0000
# 2 49.9290 114.7805 34.8405 0.0000 -1.9936 0.0000
# 3 58.5200 34.8405 52.8179 0.0000 -14.1752 0.0000
# 4 0.0000 0.0000 0.0000 -14.2575 0.0000 0.8741
# 5 -0.9834 -1.9936 -14.1752 0.0000 29.6622 0.0000
# 6 0.0000 0.0000 0.0000 0.8741 0.0000 9.7636
#
#
#
# Elastic Compliance Matrix: (Units=1/GPa)
#
#
# Indices 1 2 3 4 5 6 
#
# 1 0.015937 -0.001268 -0.019159 0.000000 -0.008713 0.000000
# 2 -0.001268 0.011249 -0.006680 0.000000 -0.002478 0.000000
# 3 -0.019159 -0.006680 0.050790 0.000000 0.023188 0.000000
# 4 0.000000 0.000000 0.000000 -0.069756 0.000000 0.006245
# 5 -0.008713 -0.002478 0.023188 0.000000 0.044339 0.000000
# 6 0.000000 0.000000 0.000000 0.006245 0.000000 0.101862
#
#
# Mechanical properties :
#
#
# Convention : Reuss Voigt Hill
#
# Bulk Modulus (GPa) = 42.08620 65.63474 53.86047
# Shear Modulus (GPa) = 23.08879 15.75660 19.42269
#
# Velocity S-wave (km/s) = 3.27590 2.70621 3.00459
# Velocity P-wave (km/s) = 5.81980 6.34597 6.08858
#
# Compressibility (1/GPa) = 0.02376075
#
# Stress axis : x y z
#
# Youngs Moduli (GPa) = 62.74759 88.90049 19.68897
#
# Poissons Ratio (x) = 0.11275 0.37722
# Poissons Ratio (y) = 0.07958 0.13152
# Poissons Ratio (z) = 1.20219 0.59385
#
# Static dielectric constant tensor:
#      x y z
#    x 3.841890 0.000000 -0.045900 
#    y 0.000000 4.011560 0.000000 
#    z -0.045900 0.000000 3.825570 
# 
# 
# High freq. dielectric constant tensor:
#      x y z
#    x 1.843570 0.000000 -0.006340 
#    y 0.000000 1.847470 0.000000 
#    z -0.006340 0.000000 1.837520 
# 
# From -- ./inp_files/49001.got.cif
#   From: 2010.06.25/outbox.cif.g09.slc.cpg/sg13_25_cif.got.tgz:49001.got - 2010.06.28 04:50:58.
