data_PCOD8121059
_publ_section_title
;
Structure prediction by ZEFSAII (Michael W. Deem and Ramdas Pophale) SiO2 
 PCOD8121059
Probable space group: P 2/C
;
_chemical_formula_sum "Si O2"
_cell_formula_units_Z 20
_cell_length_a 10.981500
_cell_length_b 6.885951
_cell_length_c 13.525569
_cell_angle_alpha 90.000000
_cell_angle_beta 101.468416
_cell_angle_gamma 90.000000
_cell_volume 1002.357128
_symmetry_space_group_name_H-M "P 2/C"
_symmetry_group_IT_number 13
_symmetry_cell_setting 'monoclinic'
loop_
_space_group_symop_operation_xyz
x,y,z
-x,y,1/2-z
-x,-y,-z
x,-y,1/2+z
loop_
_atom_site_type_symbol
_atom_site_label
_atom_site_fract_x
_atom_site_fract_y
_atom_site_fract_z
Si Si1 0.093096 0.618205 0.190918
Si Si2 0.474640 0.820461 0.634057
Si Si3 0.316811 0.879654 0.983250
Si Si4 0.147923 0.795121 0.389693
Si Si5 0.271438 0.474298 0.066194
O O1 0.177970 0.752497 0.277821
O O2 0.171548 0.466399 0.139444
O O3 0.000000 0.495904 0.250000
O O4 0.000351 0.762487 0.112760
O O5 0.500000 0.885561 0.750000
O O6 0.603990 0.801501 0.596690
O O7 0.403206 0.613205 0.622549
O O8 0.392648 0.981700 0.567724
O O9 0.193236 0.988206 0.923553
O O10 0.278803 0.700223 0.043932
O O11 0.226163 0.641169 0.464491
#
# Coordination Sequence:
#
# PCOD8121059 Si02
#       5
#     4   4   4   4   4
#     4   8  20  36  59  90 119 152 198 242 294 360
#     4  10  24  38  56  88 117 150 204 241 293 358
#     4  10  22  39  59  84 118 154 196 249 291 355
#     4   8  20  39  56  85 122 144 198 243 291 355
#     4  11  20  37  63  82 116 160 190 248 299 347
#
# _framework density 19.952969
#
# number of rings (size 3 to 8) (size 9 to 14) (size 15 to 20)
#    1.200    1.200    0.000    1.200    5.600    1.600 
#    0.000    4.000    0.000    0.000    0.000    0.000 
#    0.000    0.000    0.000    0.000    0.000    0.000 
#
# Total GULP energy -247768.257804 kJ/mol
# GULP energy per Si atom -12388.412890 kJ/mol
# Density = 1.990756 g / cm^3
# Si number density = 19.952969 Si / 1000 Ang^3
#
#
#
# Elastic Constant Matrix: (Units=GPa)
#
#
# Indices 1 2 3 4 5 6 
#
# 1 89.9344 38.2514 38.7044 0.0000 -9.0863 0.0000
# 2 38.2514 87.4886 16.4714 0.0000 1.3314 0.0000
# 3 38.7044 16.4714 90.1193 0.0000 9.4621 0.0000
# 4 0.0000 0.0000 0.0000 13.5066 0.0000 -4.5231
# 5 -9.0863 1.3314 9.4621 0.0000 23.4712 0.0000
# 6 0.0000 0.0000 0.0000 -4.5231 0.0000 30.5456
#
#
#
# Elastic Compliance Matrix: (Units=1/GPa)
#
#
# Indices 1 2 3 4 5 6 
#
# 1 0.018422 -0.006749 -0.007798 0.000000 0.010658 0.000000
# 2 -0.006749 0.014311 0.000671 0.000000 -0.003695 0.000000
# 3 -0.007798 0.000671 0.015291 0.000000 -0.009221 0.000000
# 4 0.000000 0.000000 0.000000 0.077901 0.000000 0.011535
# 5 0.010658 -0.003695 -0.009221 0.000000 0.050658 0.000000
# 6 0.000000 0.000000 0.000000 0.011535 0.000000 0.034446
#
#
# Mechanical properties :
#
#
# Convention : Reuss Voigt Hill
#
# Bulk Modulus (GPa) = 49.32718 50.48853 49.90786
# Shear Modulus (GPa) = 20.36350 25.11233 22.73792
#
# Velocity S-wave (km/s) = 3.19811 3.55149 3.37942
# Velocity P-wave (km/s) = 6.19779 6.49432 6.34779
#
# Compressibility (1/GPa) = 0.02027280
#
# Stress axis : x y z
#
# Youngs Moduli (GPa) = 54.28248 69.87816 65.39862
#
# Poissons Ratio (x) = 0.47158 0.50995
# Poissons Ratio (y) = 0.36633 -0.04387
# Poissons Ratio (z) = 0.42327 -0.04687
#
# Static dielectric constant tensor:
#      x y z
#    x 3.732110 0.000000 0.127030 
#    y 0.000000 3.368820 0.000000 
#    z 0.127030 0.000000 3.692620 
# 
# 
# High freq. dielectric constant tensor:
#      x y z
#    x 1.773630 0.000000 0.007610 
#    y 0.000000 1.752540 0.000000 
#    z 0.007610 0.000000 1.788600 
# 
# From -- ./inp_files/48711.got.cif
#   From: 2010.06.25/outbox.cif.g09.slc.cpg/sg13_25_cif.got.tgz:48711.got - 2010.06.28 04:50:58.
