data_PCOD8121696
_publ_section_title
;
Structure prediction by ZEFSAII (Michael W. Deem and Ramdas Pophale) SiO2 
 PCOD8121696
Probable space group: P 2/C
;
_chemical_formula_sum "Si O2"
_cell_formula_units_Z 20
_cell_length_a 10.835411
_cell_length_b 6.747236
_cell_length_c 18.637115
_cell_angle_alpha 90.000000
_cell_angle_beta 141.897437
_cell_angle_gamma 90.000000
_cell_volume 840.785408
_symmetry_space_group_name_H-M "P 2/C"
_symmetry_group_IT_number 13
_symmetry_cell_setting 'monoclinic'
loop_
_space_group_symop_operation_xyz
x,y,z
-x,y,1/2-z
-x,-y,-z
x,-y,1/2+z
loop_
_atom_site_type_symbol
_atom_site_label
_atom_site_fract_x
_atom_site_fract_y
_atom_site_fract_z
Si Si1 0.814470 0.105984 0.985228
Si Si2 0.016691 0.720796 0.074786
Si Si3 0.705697 0.485213 0.004928
Si Si4 0.000000 0.586682 0.750000
Si Si5 0.288574 0.401757 0.266565
Si Si6 0.500000 0.133818 0.250000
O O1 0.936697 0.251189 0.987785
O O2 0.629632 0.005550 0.860052
O O3 0.724180 0.245557 0.006110
O O4 0.966923 0.939019 0.085653
O O5 0.200335 0.612962 0.199069
O O6 0.811562 0.593665 0.985771
O O7 0.827866 0.547580 0.132945
O O8 0.477787 0.553273 0.904160
O O9 0.882180 0.703714 0.760696
O O10 0.347571 0.265154 0.227222
#
# Coordination Sequence:
#
# PCOD8121696 Si02
#       6
#     4   4   4   2   4   2
#     4  11  23  38  68 105 137 165 223 281 339 397
#     4  10  23  38  67 101 135 172 214 277 347 389
#     4  11  22  46  66  97 132 182 221 278 325 401
#     4  10  26  42  72  90 136 188 230 256 338 396
#     4  11  23  44  70  97 138 177 220 279 333 396
#     4  12  24  40  74 106 130 174 224 272 344 402
#
# _framework density 23.787282000000001
#
# number of rings (size 3 to 8) (size 9 to 14) (size 15 to 20)
#    0.000    1.200    2.000    3.600   11.200    0.000 
#    0.000    5.000    0.000    0.000    0.000    0.000 
#    0.000    0.000    0.000    0.000    0.000    0.000 
#
# Total GULP energy -247778.319752 kJ/mol
# GULP energy per Si atom -12388.915988 kJ/mol
# Density = 2.373314 g / cm^3
# Si number density = 23.787282 Si / 1000 Ang^3
#
#
#
# Elastic Constant Matrix: (Units=GPa)
#
#
# Indices 1 2 3 4 5 6 
#
# 1 135.8244 44.3551 24.4146 0.0000 16.1698 0.0000
# 2 44.3551 83.9324 27.0893 0.0000 -0.5557 0.0000
# 3 24.4146 27.0893 132.0060 0.0000 20.8478 0.0000
# 4 0.0000 0.0000 0.0000 25.4668 0.0000 22.8377
# 5 16.1698 -0.5557 20.8478 0.0000 35.3700 0.0000
# 6 0.0000 0.0000 0.0000 22.8377 0.0000 25.4542
#
#
#
# Elastic Compliance Matrix: (Units=1/GPa)
#
#
# Indices 1 2 3 4 5 6 
#
# 1 0.009549 -0.005067 -0.000027 0.000000 -0.004429 0.000000
# 2 -0.005067 0.015568 -0.002935 0.000000 0.004291 0.000000
# 3 -0.000027 -0.002935 0.009029 0.000000 -0.005355 0.000000
# 4 0.000000 0.000000 0.000000 0.200941 0.000000 -0.180286
# 5 -0.004429 0.004291 -0.005355 0.000000 0.033521 0.000000
# 6 0.000000 0.000000 0.000000 -0.180286 0.000000 0.201041
#
#
# Mechanical properties :
#
#
# Convention : Reuss Voigt Hill
#
# Bulk Modulus (GPa) = 55.28719 60.38676 57.83698
# Shear Modulus (GPa) = 10.16805 34.31846 22.24325
#
# Velocity S-wave (km/s) = 2.06975 3.80244 3.06124
# Velocity P-wave (km/s) = 5.38559 6.68725 6.07141
#
# Compressibility (1/GPa) = 0.01808737
#
# Stress axis : x y z
#
# Youngs Moduli (GPa) = 104.71967 64.23469 110.76020
#
# Poissons Ratio (x) = 0.32549 0.00297
# Poissons Ratio (y) = 0.53063 0.32511
# Poissons Ratio (z) = 0.00280 0.18855
#
# Static dielectric constant tensor:
#      x y z
#    x 4.424210 0.000000 0.226260 
#    y 0.000000 4.262490 0.000000 
#    z 0.226260 0.000000 4.384510 
# 
# 
# High freq. dielectric constant tensor:
#      x y z
#    x 1.939920 0.000000 0.023060 
#    y 0.000000 1.918040 0.000000 
#    z 0.023060 0.000000 1.957860 
# 
# From -- ./inp_files/77119.got.cif
#   From: 2010.06.25/outbox.cif.g09.slc.cpg/sg13_39_cif.got.tgz:77119.got - 2010.06.28 04:50:58.
