data_PCOD8121067
_publ_section_title
;
Structure prediction by ZEFSAII (Michael W. Deem and Ramdas Pophale) SiO2 
 PCOD8121067
Probable space group: P 2/C
;
_chemical_formula_sum "Si O2"
_cell_formula_units_Z 32
_cell_length_a 13.974827
_cell_length_b 9.609518
_cell_length_c 12.394678
_cell_angle_alpha 90.000000
_cell_angle_beta 89.999629
_cell_angle_gamma 90.000000
_cell_volume 1664.498061
_symmetry_space_group_name_H-M "P 2/C"
_symmetry_group_IT_number 13
_symmetry_cell_setting 'monoclinic'
loop_
_space_group_symop_operation_xyz
x,y,z
-x,y,1/2-z
-x,-y,-z
x,-y,1/2+z
loop_
_atom_site_type_symbol
_atom_site_label
_atom_site_fract_x
_atom_site_fract_y
_atom_site_fract_z
Si Si1 0.755498 0.605183 0.927137
Si Si2 0.111838 0.956822 0.255628
Si Si3 0.255501 0.894817 0.072866
Si Si4 0.253779 0.145055 0.925243
Si Si5 0.611838 0.543179 0.744373
Si Si6 0.610249 0.784866 0.254888
Si Si7 0.110249 0.715133 0.745109
Si Si8 0.753780 0.354943 0.074758
O O1 0.663991 0.611734 0.847633
O O2 0.850537 0.659083 0.868202
O O3 0.741608 0.697260 0.033659
O O4 0.770858 0.449376 0.969778
O O5 0.163994 0.888264 0.152370
O O6 0.153421 0.891098 0.366141
O O7 0.000000 0.920296 0.250000
O O8 0.130419 0.121329 0.255856
O O9 0.350538 0.840914 0.131800
O O10 0.241609 0.802741 0.966345
O O11 0.270861 0.050628 0.030229
O O12 0.339006 0.127801 0.839624
O O13 0.500000 0.579702 0.750000
O O14 0.630421 0.378672 0.744139
O O15 0.653422 0.608909 0.633862
O O16 0.500000 0.821525 0.250000
O O17 0.160993 0.627805 0.839624
O O18 0.000000 0.678472 0.750000
#
# Coordination Sequence:
#
# PCOD8121067 Si02
#       8
#     4   4   4   4   4   4   4   4
#     4  11  22  39  61  88 120 155 192 243 298 345
#     4  10  22  39  62  89 116 155 203 240 284 356
#     4  11  22  39  61  88 120 155 192 243 298 345
#     4  11  22  39  61  88 120 155 192 243 298 345
#     4  10  22  39  62  89 116 155 203 240 284 356
#     4  10  22  39  60  89 120 153 199 246 288 346
#     4  10  22  39  60  89 120 153 199 246 288 346
#     4  11  22  39  61  88 120 155 192 243 298 345
#
# _framework density 19.225014999999999
#
# number of rings (size 3 to 8) (size 9 to 14) (size 15 to 20)
#    0.000    1.500    5.000    0.000    0.000    4.000 
#    0.000    2.500    0.000    0.000    0.000    0.000 
#    0.000    0.000    0.000    0.000    0.000    0.000 
#
# Total GULP energy -396917.535237 kJ/mol
# GULP energy per Si atom -12403.672976 kJ/mol
# Density = 1.918126 g / cm^3
# Si number density = 19.225015 Si / 1000 Ang^3
#
#
#
# Elastic Constant Matrix: (Units=GPa)
#
#
# Indices 1 2 3 4 5 6 
#
# 1 145.6250 37.0036 51.2815 0.0000 0.0029 0.0000
# 2 37.0036 53.6595 20.8221 0.0000 0.0005 0.0000
# 3 51.2815 20.8221 95.4482 0.0000 0.0012 0.0000
# 4 0.0000 0.0000 0.0000 48.9142 0.0000 0.0008
# 5 0.0029 0.0005 0.0012 0.0000 15.2520 0.0000
# 6 0.0000 0.0000 0.0000 0.0008 0.0000 26.9371
#
#
#
# Elastic Compliance Matrix: (Units=1/GPa)
#
#
# Indices 1 2 3 4 5 6 
#
# 1 0.009569 -0.005030 -0.004044 0.000000 -0.000001 0.000000
# 2 -0.005030 0.023003 -0.002316 0.000000 0.000000 0.000000
# 3 -0.004044 -0.002316 0.013155 0.000000 0.000000 0.000000
# 4 0.000000 0.000000 0.000000 0.020444 0.000000 -0.000001
# 5 -0.000001 0.000000 0.000000 0.000000 0.065565 0.000000
# 6 0.000000 0.000000 0.000000 -0.000001 0.000000 0.037123
#
#
# Mechanical properties :
#
#
# Convention : Reuss Voigt Hill
#
# Bulk Modulus (GPa) = 43.57664 56.99411 50.28537
# Shear Modulus (GPa) = 25.08932 30.59570 27.84251
#
# Velocity S-wave (km/s) = 3.61645 3.99363 3.80971
# Velocity P-wave (km/s) = 6.33673 7.13972 6.75017
#
# Compressibility (1/GPa) = 0.02294808
#
# Stress axis : x y z
#
# Youngs Moduli (GPa) = 104.50357 43.47236 76.01789
#
# Poissons Ratio (x) = 0.21865 0.30741
# Poissons Ratio (y) = 0.52561 0.17605
# Poissons Ratio (z) = 0.42261 0.10068
#
# Static dielectric constant tensor:
#      x y z
#    x 3.389410 0.000000 0.000010 
#    y 0.000000 3.446010 0.000000 
#    z 0.000010 0.000000 3.585210 
# 
# 
# High freq. dielectric constant tensor:
#      x y z
#    x 1.738570 0.000000 0.000000 
#    y 0.000000 1.748280 0.000000 
#    z 0.000000 0.000000 1.762510 
# 
# From -- ./inp_files/36445.got.cif
#   From: 2010.06.25/outbox.cif.g09.slc.cpg/sg13_19_cif.got.tgz:36445.got - 2010.06.28 04:50:58.
