data_PCOD8121438
_publ_section_title
;
Structure prediction by ZEFSAII (Michael W. Deem and Ramdas Pophale) SiO2 
 PCOD8121438
Probable space group: P 2/C
;
_chemical_formula_sum "Si O2"
_cell_formula_units_Z 30
_cell_length_a 16.005293
_cell_length_b 8.856926
_cell_length_c 26.767594
_cell_angle_alpha 90.000000
_cell_angle_beta 21.639625
_cell_angle_gamma 90.000000
_cell_volume 1399.292814
_symmetry_space_group_name_H-M "P 2/C"
_symmetry_group_IT_number 13
_symmetry_cell_setting 'monoclinic'
loop_
_space_group_symop_operation_xyz
x,y,z
-x,y,1/2-z
-x,-y,-z
x,-y,1/2+z
loop_
_atom_site_type_symbol
_atom_site_label
_atom_site_fract_x
_atom_site_fract_y
_atom_site_fract_z
Si Si1 0.174199 0.333126 0.111318
Si Si2 0.909085 0.106314 0.205425
Si Si3 0.269834 0.831287 0.849402
Si Si4 0.672737 0.662941 0.311719
Si Si5 0.622186 0.324984 0.307083
Si Si6 0.138780 0.324016 0.605123
Si Si7 0.000000 0.917314 0.250000
Si Si8 0.859458 0.895640 0.142022
O O1 0.124015 0.508804 0.134806
O O2 0.000000 0.271002 0.250000
O O3 0.113535 0.229748 0.096832
O O4 0.443697 0.311002 0.971737
O O5 0.686592 0.203425 0.314316
O O6 0.876064 0.017677 0.276289
O O7 0.965951 0.991244 0.128996
O O8 0.500000 0.804699 0.750000
O O9 0.250982 0.709701 0.815169
O O10 0.266358 0.998814 0.827976
O O11 0.063044 0.806026 0.002169
O O12 0.696822 0.490087 0.282760
O O13 0.671937 0.773819 0.264183
O O14 0.896780 0.715085 0.216074
O O15 0.350630 0.315717 0.449460
O O16 0.183271 0.196559 0.622748
#
# Coordination Sequence:
#
# PCOD8121438 Si02
#       8
#     4   4   4   4   4   4   2   4
#     4  11  24  41  63  92 133 177 221 266 326 383
#     4  11  23  42  62 100 132 171 218 273 327 394
#     4  10  22  42  67  94 134 175 212 273 339 402
#     4  11  23  42  68  95 133 174 220 277 321 399
#     4  10  24  43  69  95 134 175 218 276 332 390
#     4  11  23  43  63  97 131 178 220 269 324 389
#     4  12  24  38  66  96 130 174 220 268 320 394
#     4  10  23  41  65 100 130 172 216 275 336 389
#
# _framework density 21.439402000000001
#
# number of rings (size 3 to 8) (size 9 to 14) (size 15 to 20)
#    0.000    1.333    4.000    0.800    1.867    3.733 
#    0.000    0.667    0.000    0.000    0.000    0.000 
#    0.000    0.000    0.000    0.000    0.000    0.000 
#
# Total GULP energy -371751.508758 kJ/mol
# GULP energy per Si atom -12391.716959 kJ/mol
# Density = 2.139060 g / cm^3
# Si number density = 21.439402 Si / 1000 Ang^3
#
#
#
# Elastic Constant Matrix: (Units=GPa)
#
#
# Indices 1 2 3 4 5 6 
#
# 1 90.9155 42.2100 40.7746 0.0000 2.3682 0.0000
# 2 42.2100 124.0012 47.6297 0.0000 10.3181 0.0000
# 3 40.7746 47.6297 130.3884 0.0000 6.9050 0.0000
# 4 0.0000 0.0000 0.0000 17.2430 0.0000 8.5918
# 5 2.3682 10.3181 6.9050 0.0000 33.4798 0.0000
# 6 0.0000 0.0000 0.0000 8.5918 0.0000 22.9088
#
#
#
# Elastic Compliance Matrix: (Units=1/GPa)
#
#
# Indices 1 2 3 4 5 6 
#
# 1 0.014071 -0.003662 -0.003104 0.000000 0.000773 0.000000
# 2 -0.003662 0.010498 -0.002560 0.000000 -0.002448 0.000000
# 3 -0.003104 -0.002560 0.009627 0.000000 -0.000977 0.000000
# 4 0.000000 0.000000 0.000000 0.071323 0.000000 -0.026749
# 5 0.000773 -0.002448 -0.000977 0.000000 0.030770 0.000000
# 6 0.000000 0.000000 0.000000 -0.026749 0.000000 0.053683
#
#
# Mechanical properties :
#
#
# Convention : Reuss Voigt Hill
#
# Bulk Modulus (GPa) = 64.33005 67.39263 65.86134
# Shear Modulus (GPa) = 23.38580 29.03906 26.21243
#
# Velocity S-wave (km/s) = 3.30629 3.68431 3.50040
# Velocity P-wave (km/s) = 6.68177 7.04280 6.86466
#
# Compressibility (1/GPa) = 0.01554483
#
# Stress axis : x y z
#
# Youngs Moduli (GPa) = 71.06714 95.25574 103.87669
#
# Poissons Ratio (x) = 0.34884 0.32238
# Poissons Ratio (y) = 0.26025 0.26592
# Poissons Ratio (z) = 0.22056 0.24385
#
# Static dielectric constant tensor:
#      x y z
#    x 3.869230 0.000000 0.092880 
#    y 0.000000 4.099160 0.000000 
#    z 0.092880 0.000000 3.822700 
# 
# 
# High freq. dielectric constant tensor:
#      x y z
#    x 1.829560 0.000000 0.002030 
#    y 0.000000 1.862340 0.000000 
#    z 0.002030 0.000000 1.827930 
# 
# From -- ./inp_files/97351.got.cif
#   From: 2010.06.25/outbox.cif.g09.slc.cpg/sg13_49_cif.got.tgz:97351.got - 2010.06.28 04:50:58.
