data_PCOD8121773
_publ_section_title
;
Structure prediction by ZEFSAII (Michael W. Deem and Ramdas Pophale) SiO2 
 PCOD8121773
Probable space group: P 2/C
;
_chemical_formula_sum "Si O2"
_cell_formula_units_Z 16
_cell_length_a 8.896775
_cell_length_b 6.417264
_cell_length_c 21.220076
_cell_angle_alpha 90.000000
_cell_angle_beta 29.544479
_cell_angle_gamma 90.000000
_cell_volume 597.397822
_symmetry_space_group_name_H-M "P 2/C"
_symmetry_group_IT_number 13
_symmetry_cell_setting 'monoclinic'
loop_
_space_group_symop_operation_xyz
x,y,z
-x,y,1/2-z
-x,-y,-z
x,-y,1/2+z
loop_
_atom_site_type_symbol
_atom_site_label
_atom_site_fract_x
_atom_site_fract_y
_atom_site_fract_z
Si Si1 0.819617 0.684595 0.100930
Si Si2 0.226086 0.368176 0.226726
Si Si3 0.681732 0.974875 0.546326
Si Si4 0.343807 0.377426 0.000512
O O1 0.500000 0.613167 0.250000
O O2 0.764975 0.865398 0.070379
O O3 0.057870 0.800273 0.062769
O O4 0.000000 0.500000 0.000000
O O5 0.000000 0.378148 0.250000
O O6 0.024841 0.421748 0.362765
O O7 0.497719 0.539194 0.121695
O O8 0.367813 0.139280 0.179647
O O9 0.620882 0.125872 0.507334
O O10 0.500000 0.500000 0.000000
#
# Coordination Sequence:
#
# PCOD8121773 Si02
#       4
#     4   4   4   4
#     4  11  26  46  69  98 134 176 229 291 348 407
#     4  10  23  41  65  97 135 177 222 276 340 410
#     4  11  24  42  70  99 132 178 230 282 345 415
#     4  10  23  42  65  97 136 176 221 275 335 405
#
# _framework density 26.782820999999998
#
# number of rings (size 3 to 8) (size 9 to 14) (size 15 to 20)
#    0.000    1.500    0.000    3.000    0.000   21.000 
#    0.000    0.000    0.000    0.000    0.000    0.000 
#    0.000    0.000    0.000    0.000    0.000    0.000 
#
# Total GULP energy -198221.317784 kJ/mol
# GULP energy per Si atom -12388.832361 kJ/mol
# Density = 2.672186 g / cm^3
# Si number density = 26.782821 Si / 1000 Ang^3
#
#
#
# Elastic Constant Matrix: (Units=GPa)
#
#
# Indices 1 2 3 4 5 6 
#
# 1 40.5351 39.8383 44.0003 0.0000 -2.0539 0.0000
# 2 39.8383 212.1954 138.1642 0.0000 -0.8214 0.0000
# 3 44.0003 138.1642 304.2083 0.0000 13.6029 0.0000
# 4 0.0000 0.0000 0.0000 62.5590 0.0000 -12.4768
# 5 -2.0539 -0.8214 13.6029 0.0000 41.6505 0.0000
# 6 0.0000 0.0000 0.0000 -12.4768 0.0000 37.9085
#
#
#
# Elastic Compliance Matrix: (Units=1/GPa)
#
#
# Indices 1 2 3 4 5 6 
#
# 1 0.031950 -0.004131 -0.002853 0.000000 0.002426 0.000000
# 2 -0.004131 0.007279 -0.002746 0.000000 0.000837 0.000000
# 3 -0.002853 -0.002746 0.005029 0.000000 -0.001837 0.000000
# 4 0.000000 0.000000 0.000000 0.017108 0.000000 0.005631
# 5 0.002426 0.000837 -0.001837 0.000000 0.024746 0.000000
# 6 0.000000 0.000000 0.000000 0.005631 0.000000 0.028233
#
#
# Mechanical properties :
#
#
# Convention : Reuss Voigt Hill
#
# Bulk Modulus (GPa) = 40.32608 111.21602 75.77105
# Shear Modulus (GPa) = 35.19331 50.75268 42.97299
#
# Velocity S-wave (km/s) = 3.62888 4.35785 4.00996
# Velocity P-wave (km/s) = 5.71382 8.18147 7.05635
#
# Compressibility (1/GPa) = 0.02479785
#
# Stress axis : x y z
#
# Youngs Moduli (GPa) = 31.29850 137.37256 198.83487
#
# Poissons Ratio (x) = 0.56750 0.56737
# Poissons Ratio (y) = 0.12930 0.54601
# Poissons Ratio (z) = 0.08931 0.37723
#
# Static dielectric constant tensor:
#      x y z
#    x 5.817410 0.000000 1.075250 
#    y 0.000000 6.018750 0.000000 
#    z 1.075250 0.000000 7.852730 
# 
# 
# High freq. dielectric constant tensor:
#      x y z
#    x 2.074220 0.000000 -0.016420 
#    y 0.000000 2.098560 0.000000 
#    z -0.016420 0.000000 2.098290 
# 
# From -- ./inp_files/20389.got.cif
#   From: 2010.06.25/outbox.cif.g09.slc.cpg/sg13_11_cif.got.tgz:20389.got - 2010.06.28 04:50:58.
