data_PCOD8121927
_publ_section_title
;
Structure prediction by ZEFSAII (Michael W. Deem and Ramdas Pophale) SiO2 
 PCOD8121927
Probable space group: P 2/C
;
_chemical_formula_sum "Si O2"
_cell_formula_units_Z 22
_cell_length_a 13.343939
_cell_length_b 6.288935
_cell_length_c 12.742275
_cell_angle_alpha 90.000000
_cell_angle_beta 67.007829
_cell_angle_gamma 90.000000
_cell_volume 984.372325
_symmetry_space_group_name_H-M "P 2/C"
_symmetry_group_IT_number 13
_symmetry_cell_setting 'monoclinic'
loop_
_space_group_symop_operation_xyz
x,y,z
-x,y,1/2-z
-x,-y,-z
x,-y,1/2+z
loop_
_atom_site_type_symbol
_atom_site_label
_atom_site_fract_x
_atom_site_fract_y
_atom_site_fract_z
Si Si1 0.000000 0.180389 0.250000
Si Si2 0.741611 0.519653 0.519426
Si Si3 0.161465 0.836800 0.178868
Si Si4 0.656558 0.130009 0.442606
Si Si5 0.092709 0.491134 0.874477
Si Si6 0.466121 0.792937 0.880949
O O1 0.066946 0.317869 0.306161
O O2 0.085759 0.020644 0.160296
O O3 0.823314 0.657101 0.414866
O O4 0.739639 0.287288 0.467965
O O5 0.790803 0.521312 0.616543
O O6 0.618246 0.600363 0.574162
O O7 0.894938 0.730540 0.195241
O O8 0.277380 0.953542 0.153340
O O9 0.575397 0.262436 0.401252
O O10 0.586268 0.012446 0.559670
O O11 0.000000 0.500000 0.000000
O O12 0.500000 0.832714 0.750000
#
# Coordination Sequence:
#
# PCOD8121927 Si02
#       6
#     2   4   4   4   4   4
#     4  12  26  46  66  94 138 170 220 288 338 410
#     4  11  25  44  70 101 137 180 229 281 339 404
#     4  11  25  43  70  97 135 178 221 283 343 405
#     4  10  23  45  67  98 145 175 227 282 337 406
#     4  12  26  44  70 103 132 178 230 279 346 410
#     4  10  24  41  68 105 136 184 229 274 342 400
#
# _framework density 22.349267000000001
#
# number of rings (size 3 to 8) (size 9 to 14) (size 15 to 20)
#    0.000    1.091    0.000    5.455    7.636    5.091 
#    0.000    0.000    0.000    0.000    0.000    0.000 
#    0.000    0.000    0.000    0.000    0.000    0.000 
#
# Total GULP energy -272741.743084 kJ/mol
# GULP energy per Si atom -12397.351958 kJ/mol
# Density = 2.229840 g / cm^3
# Si number density = 22.349267 Si / 1000 Ang^3
#
#
#
# Elastic Constant Matrix: (Units=GPa)
#
#
# Indices 1 2 3 4 5 6 
#
# 1 112.6491 60.3891 49.3982 0.0000 19.2414 0.0000
# 2 60.3891 120.4203 58.0218 0.0000 9.5585 0.0000
# 3 49.3982 58.0218 125.4972 0.0000 -3.1171 0.0000
# 4 0.0000 0.0000 0.0000 -157.7238 0.0000 73.9934
# 5 19.2414 9.5585 -3.1171 0.0000 42.1960 0.0000
# 6 0.0000 0.0000 0.0000 73.9934 0.0000 9.6588
#
#
#
# Elastic Compliance Matrix: (Units=1/GPa)
#
#
# Indices 1 2 3 4 5 6 
#
# 1 0.013923 -0.004942 -0.003331 0.000000 -0.005475 0.000000
# 2 -0.004942 0.012777 -0.003985 0.000000 -0.000935 0.000000
# 3 -0.003331 -0.003985 0.011203 0.000000 0.003249 0.000000
# 4 0.000000 0.000000 0.000000 -0.001380 0.000000 0.010573
# 5 -0.005475 -0.000935 0.003249 0.000000 0.026647 0.000000
# 6 0.000000 0.000000 0.000000 0.010573 0.000000 0.022537
#
#
# Mechanical properties :
#
#
# Convention : Reuss Voigt Hill
#
# Bulk Modulus (GPa) = 74.70990 77.13166 75.92078
# Shear Modulus (GPa) = 43.59737 -8.45663 17.57037
#
# Velocity S-wave (km/s) = 4.42150 -1.94732 2.80692
# Velocity P-wave (km/s) = 7.71797 5.43422 6.67450
#
# Compressibility (1/GPa) = 0.01338511
#
# Stress axis : x y z
#
# Youngs Moduli (GPa) = 71.82558 78.26482 89.26413
#
# Poissons Ratio (x) = 0.38681 0.29736
# Poissons Ratio (y) = 0.35499 0.35573
# Poissons Ratio (z) = 0.23927 0.31190
#
# Static dielectric constant tensor:
#      x y z
#    x 4.442620 0.000000 -0.046680 
#    y 0.000000 4.108040 0.000000 
#    z -0.046680 0.000000 4.046480 
# 
# 
# High freq. dielectric constant tensor:
#      x y z
#    x 1.898810 0.000000 -0.014980 
#    y 0.000000 1.885000 0.000000 
#    z -0.014980 0.000000 1.872090 
# 
# From -- ./inp_files/48879.got.cif
#   From: 2010.06.25/outbox.cif.g09.slc.cpg/sg13_25_cif.got.tgz:48879.got - 2010.06.28 04:50:58.
