data_PCOD8121077
_publ_section_title
;
Structure prediction by ZEFSAII (Michael W. Deem and Ramdas Pophale) SiO2 
 PCOD8121077
Probable space group: P 2/C
;
_chemical_formula_sum "Si O2"
_cell_formula_units_Z 16
_cell_length_a 7.707199
_cell_length_b 17.527056
_cell_length_c 5.373382
_cell_angle_alpha 90.000000
_cell_angle_beta 63.538246
_cell_angle_gamma 90.000000
_cell_volume 649.813702
_symmetry_space_group_name_H-M "P 2/C"
_symmetry_group_IT_number 13
_symmetry_cell_setting 'monoclinic'
loop_
_space_group_symop_operation_xyz
x,y,z
-x,y,1/2-z
-x,-y,-z
x,-y,1/2+z
loop_
_atom_site_type_symbol
_atom_site_label
_atom_site_fract_x
_atom_site_fract_y
_atom_site_fract_z
Si Si1 0.784702 0.468469 0.436149
Si Si2 0.500000 0.720994 0.750000
Si Si3 0.000000 0.950907 0.750000
Si Si4 0.701597 0.821508 0.992986
Si Si5 0.817020 0.319418 0.696729
O O1 0.680240 0.511080 0.738956
O O2 0.797195 0.377497 0.476791
O O3 0.000000 0.503238 0.250000
O O4 0.336606 0.775080 0.733949
O O5 0.615044 0.669675 0.476912
O O6 0.191080 0.899507 0.634621
O O7 0.000000 0.000000 0.500000
O O8 0.500000 0.843195 0.250000
O O9 0.833139 0.767038 0.085301
O O10 0.000000 0.340132 0.750000
#
# Coordination Sequence:
#
# PCOD8121077 Si02
#       5
#     4   2   2   4   4
#     4  10  22  39  62 100 140 181 235 292 357 410
#     4  10  24  44  68 104 138 176 252 274 344 410
#     4  12  30  48  76 112 142 178 232 278 350 426
#     4  10  25  46  72 101 143 184 232 283 344 411
#     4  11  23  40  74  98 134 188 237 291 344 413
#
# _framework density 24.622437999999999
#
# number of rings (size 3 to 8) (size 9 to 14) (size 15 to 20)
#    0.000    1.500    0.000    3.750   17.500    1.000 
#    0.000    1.250    0.000    0.000    0.000    0.000 
#    0.000    0.000    0.000    0.000    0.000    0.000 
#
# Total GULP energy -198393.026981 kJ/mol
# GULP energy per Si atom -12399.564186 kJ/mol
# Density = 2.456640 g / cm^3
# Si number density = 24.622438 Si / 1000 Ang^3
#
#
#
# Elastic Constant Matrix: (Units=GPa)
#
#
# Indices 1 2 3 4 5 6 
#
# 1 84.6913 43.8764 37.5261 0.0000 8.4624 0.0000
# 2 43.8764 147.5744 71.3595 0.0000 0.3400 0.0000
# 3 37.5261 71.3595 165.0715 0.0000 25.0438 0.0000
# 4 0.0000 0.0000 0.0000 45.0631 0.0000 9.6913
# 5 8.4624 0.3400 25.0438 0.0000 32.3292 0.0000
# 6 0.0000 0.0000 0.0000 9.6913 0.0000 -24.6347
#
#
#
# Elastic Compliance Matrix: (Units=1/GPa)
#
#
# Indices 1 2 3 4 5 6 
#
# 1 0.014575 -0.003702 -0.001292 0.000000 -0.002776 0.000000
# 2 -0.003702 0.009800 -0.003996 0.000000 0.003961 0.000000
# 3 -0.001292 -0.003996 0.009090 0.000000 -0.006661 0.000000
# 4 0.000000 0.000000 0.000000 0.020460 0.000000 0.008049
# 5 -0.002776 0.003961 -0.006661 0.000000 0.036777 0.000000
# 6 0.000000 0.000000 0.000000 0.008049 0.000000 -0.037427
#
#
# Mechanical properties :
#
#
# Convention : Reuss Voigt Hill
#
# Bulk Modulus (GPa) = 64.57904 78.09570 71.33737
# Shear Modulus (GPa) = 65.43016 26.85652 46.14334
#
# Velocity S-wave (km/s) = 5.16053 3.30621 4.33371
# Velocity P-wave (km/s) = 7.86084 6.80888 7.35369
#
# Compressibility (1/GPa) = 0.01548490
#
# Stress axis : x y z
#
# Youngs Moduli (GPa) = 68.60838 102.03951 110.01551
#
# Poissons Ratio (x) = 0.37780 0.14212
# Poissons Ratio (y) = 0.25402 0.43961
# Poissons Ratio (z) = 0.08863 0.40774
#
# Static dielectric constant tensor:
#      x y z
#    x 4.364080 0.000000 0.184250 
#    y 0.000000 4.142690 0.000000 
#    z 0.184250 0.000000 4.912360 
# 
# 
# High freq. dielectric constant tensor:
#      x y z
#    x 1.973920 0.000000 0.004190 
#    y 0.000000 1.962070 0.000000 
#    z 0.004190 0.000000 2.004820 
# 
# From -- ./inp_files/1495.got.cif
#   From: 2010.06.25/outbox.cif.g09.slc.cpg/sg13_1_cif.got.tgz:1495.got - 2010.06.28 04:50:58.
