data_PCOD8121884
_publ_section_title
;
Structure prediction by ZEFSAII (Michael W. Deem and Ramdas Pophale) SiO2 
 PCOD8121884
Probable space group: P 2/C
;
_chemical_formula_sum "Si O2"
_cell_formula_units_Z 30
_cell_length_a 18.833104
_cell_length_b 6.519605
_cell_length_c 22.392013
_cell_angle_alpha 90.000000
_cell_angle_beta 148.611287
_cell_angle_gamma 90.000000
_cell_volume 1431.996273
_symmetry_space_group_name_H-M "P 2/C"
_symmetry_group_IT_number 13
_symmetry_cell_setting 'monoclinic'
loop_
_space_group_symop_operation_xyz
x,y,z
-x,y,1/2-z
-x,-y,-z
x,-y,1/2+z
loop_
_atom_site_type_symbol
_atom_site_label
_atom_site_fract_x
_atom_site_fract_y
_atom_site_fract_z
Si Si1 0.852587 0.127117 0.828766
Si Si2 0.200902 0.154448 0.841667
Si Si3 0.566262 0.531688 0.983260
Si Si4 0.323454 0.437156 0.727990
Si Si5 0.840966 0.819797 0.925430
Si Si6 0.764173 0.757813 0.560430
Si Si7 0.647671 0.885588 0.352997
Si Si8 0.000000 0.535172 0.250000
O O1 0.812507 0.057845 0.733608
O O2 0.753895 0.311408 0.776319
O O3 0.833171 0.928322 0.855678
O O4 0.006092 0.208426 0.942373
O O5 0.080911 0.322460 0.761474
O O6 0.182974 0.975590 0.877223
O O7 0.348653 0.257597 0.957021
O O8 0.450660 0.552377 0.849563
O O9 0.500000 0.500000 0.000000
O O10 0.663628 0.339372 0.037771
O O11 0.221829 0.596981 0.625048
O O12 0.371370 0.289945 0.709824
O O13 0.761836 0.950094 0.918338
O O14 0.684982 0.783490 0.442219
O O15 0.892229 0.609638 0.638259
O O16 0.500000 0.996524 0.250000
#
# Coordination Sequence:
#
# PCOD8121884 Si02
#       8
#     4   4   4   4   4   4   4   2
#     4  10  23  44  62 101 126 167 224 274 336 386
#     4  11  25  41  69  94 135 170 219 274 333 399
#     4  11  24  43  65 102 130 178 221 266 336 390
#     4  11  23  44  68  93 135 172 220 279 323 397
#     4  10  25  40  69  93 128 175 222 271 332 393
#     4  11  26  45  67  96 138 173 220 279 326 397
#     4  11  25  44  63  96 132 173 223 270 331 394
#     4  10  26  44  64  98 124 178 216 262 340 394
#
# _framework density 20.949774000000001
#
# number of rings (size 3 to 8) (size 9 to 14) (size 15 to 20)
#    0.000    1.333    2.667    0.800    9.333    2.133 
#    0.000    0.000    0.000    0.000    0.000    0.000 
#    0.000    0.000    0.000    0.000    0.000    0.000 
#
# Total GULP energy -372156.950573 kJ/mol
# GULP energy per Si atom -12405.231686 kJ/mol
# Density = 2.090209 g / cm^3
# Si number density = 20.949774 Si / 1000 Ang^3
#
#
#
# Elastic Constant Matrix: (Units=GPa)
#
#
# Indices 1 2 3 4 5 6 
#
# 1 106.2857 24.7560 44.5518 0.0000 0.9849 0.0000
# 2 24.7560 64.2152 23.0499 0.0000 3.1909 0.0000
# 3 44.5518 23.0499 113.1972 0.0000 4.2621 0.0000
# 4 0.0000 0.0000 0.0000 29.8162 0.0000 -0.6363
# 5 0.9849 3.1909 4.2621 0.0000 36.2524 0.0000
# 6 0.0000 0.0000 0.0000 -0.6363 0.0000 7.3941
#
#
#
# Elastic Compliance Matrix: (Units=1/GPa)
#
#
# Indices 1 2 3 4 5 6 
#
# 1 0.011824 -0.003132 -0.004032 0.000000 0.000429 0.000000
# 2 -0.003132 0.017673 -0.002321 0.000000 -0.001198 0.000000
# 3 -0.004032 -0.002321 0.010930 0.000000 -0.000971 0.000000
# 4 0.000000 0.000000 0.000000 0.033601 0.000000 0.002892
# 5 0.000429 -0.001198 -0.000971 0.000000 0.027792 0.000000
# 6 0.000000 0.000000 0.000000 0.002892 0.000000 0.135491
#
#
# Mechanical properties :
#
#
# Convention : Reuss Voigt Hill
#
# Bulk Modulus (GPa) = 46.60513 52.04595 49.32554
# Shear Modulus (GPa) = 18.98008 27.44857 23.21432
#
# Velocity S-wave (km/s) = 3.01322 3.62361 3.33242
# Velocity P-wave (km/s) = 5.86518 6.51187 6.19697
#
# Compressibility (1/GPa) = 0.02145687
#
# Stress axis : x y z
#
# Youngs Moduli (GPa) = 84.57103 56.58423 91.48967
#
# Poissons Ratio (x) = 0.17725 0.36889
# Poissons Ratio (y) = 0.26492 0.21232
# Poissons Ratio (z) = 0.34100 0.13131
#
# Static dielectric constant tensor:
#      x y z
#    x 3.878790 0.000000 0.193040 
#    y 0.000000 3.668320 0.000000 
#    z 0.193040 0.000000 3.859690 
# 
# 
# High freq. dielectric constant tensor:
#      x y z
#    x 1.829180 0.000000 0.009290 
#    y 0.000000 1.813990 0.000000 
#    z 0.009290 0.000000 1.834660 
# 
# From -- ./inp_files/88379.got.cif
#   From: 2010.06.25/outbox.cif.g09.slc.cpg/sg13_45_cif.got.tgz:88379.got - 2010.06.28 04:50:58.
