data_PCOD8121869
_publ_section_title
;
Structure prediction by ZEFSAII (Michael W. Deem and Ramdas Pophale) SiO2 
 PCOD8121869
Probable space group: P 2/C
;
_chemical_formula_sum "Si O2"
_cell_formula_units_Z 30
_cell_length_a 17.449219
_cell_length_b 6.228105
_cell_length_c 14.097111
_cell_angle_alpha 90.000000
_cell_angle_beta 113.308803
_cell_angle_gamma 90.000000
_cell_volume 1406.977341
_symmetry_space_group_name_H-M "P 2/C"
_symmetry_group_IT_number 13
_symmetry_cell_setting 'monoclinic'
loop_
_space_group_symop_operation_xyz
x,y,z
-x,y,1/2-z
-x,-y,-z
x,-y,1/2+z
loop_
_atom_site_type_symbol
_atom_site_label
_atom_site_fract_x
_atom_site_fract_y
_atom_site_fract_z
Si Si1 0.309349 0.581173 0.985105
Si Si2 0.003138 0.053368 0.112160
Si Si3 0.709735 0.536785 0.231271
Si Si4 0.404117 0.809899 0.183445
Si Si5 0.135807 0.257181 0.770919
Si Si6 0.812620 0.956514 0.557605
Si Si7 0.701376 0.802338 0.874761
Si Si8 0.000000 0.574352 0.750000
O O1 0.332787 0.502576 0.891708
O O2 0.222884 0.719303 0.937122
O O3 0.382254 0.726652 0.066570
O O4 0.299947 0.374085 0.044782
O O5 0.911645 0.021071 0.108561
O O6 0.021758 0.291788 0.163412
O O7 0.070078 0.890844 0.185440
O O8 0.000000 0.000000 0.000000
O O9 0.650402 0.688922 0.264024
O O10 0.803868 0.626962 0.275070
O O11 0.719541 0.302453 0.282886
O O12 0.500000 0.765551 0.250000
O O13 0.385048 0.064507 0.175746
O O14 0.082564 0.428711 0.807010
O O15 0.205337 0.127153 0.867078
O O16 0.774542 0.029764 0.437996
#
# Coordination Sequence:
#
# PCOD8121869 Si02
#       8
#     4   4   4   4   4   4   4   2
#     4  10  23  43  71 101 133 182 220 277 342 410
#     4  12  28  39  64  96 136 184 236 286 337 400
#     4  11  25  41  73 101 132 179 238 269 342 418
#     4  10  25  47  70 103 141 169 218 287 346 413
#     4  12  25  43  66  96 134 184 232 286 341 393
#     4  11  22  43  65  93 140 175 232 287 336 392
#     4  10  24  41  68 100 133 176 221 282 342 405
#     4  12  24  46  60  92 138 182 224 290 340 384
#
# _framework density 21.322303999999999
#
# number of rings (size 3 to 8) (size 9 to 14) (size 15 to 20)
#    0.000    1.067    4.000    0.800    9.333    3.200 
#    0.000    1.333    0.000    0.000    0.000    0.000 
#    0.000    0.000    0.000    0.000    0.000    0.000 
#
# Total GULP energy -371721.568484 kJ/mol
# GULP energy per Si atom -12390.718949 kJ/mol
# Density = 2.127377 g / cm^3
# Si number density = 21.322304 Si / 1000 Ang^3
#
#
#
# Elastic Constant Matrix: (Units=GPa)
#
#
# Indices 1 2 3 4 5 6 
#
# 1 106.8996 47.0702 45.2617 0.0000 17.1378 0.0000
# 2 47.0702 120.7621 51.8431 0.0000 -0.2265 0.0000
# 3 45.2617 51.8431 135.4205 0.0000 -4.2789 0.0000
# 4 0.0000 0.0000 0.0000 34.4599 0.0000 -1.1421
# 5 17.1378 -0.2265 -4.2789 0.0000 37.0174 0.0000
# 6 0.0000 0.0000 0.0000 -1.1421 0.0000 29.6037
#
#
#
# Elastic Compliance Matrix: (Units=1/GPa)
#
#
# Indices 1 2 3 4 5 6 
#
# 1 0.013501 -0.003886 -0.003235 0.000000 -0.006648 0.000000
# 2 -0.003886 0.011033 -0.002877 0.000000 0.001534 0.000000
# 3 -0.003235 -0.002877 0.009649 0.000000 0.002595 0.000000
# 4 0.000000 0.000000 0.000000 0.029056 0.000000 0.001121
# 5 -0.006648 0.001534 0.002595 0.000000 0.030402 0.000000
# 6 0.000000 0.000000 0.000000 0.001121 0.000000 0.033823
#
#
# Mechanical properties :
#
#
# Convention : Reuss Voigt Hill
#
# Bulk Modulus (GPa) = 70.48112 72.38136 71.43124
# Shear Modulus (GPa) = 32.85396 34.81001 33.83198
#
# Velocity S-wave (km/s) = 3.92959 4.04488 3.98765
# Velocity P-wave (km/s) = 7.32911 7.47227 7.40103
#
# Compressibility (1/GPa) = 0.01418820
#
# Stress axis : x y z
#
# Youngs Moduli (GPa) = 74.06733 90.63509 103.63979
#
# Poissons Ratio (x) = 0.35223 0.33526
# Poissons Ratio (y) = 0.28784 0.29812
# Poissons Ratio (z) = 0.23960 0.26071
#
# Static dielectric constant tensor:
#      x y z
#    x 3.592540 0.000000 -0.105610 
#    y 0.000000 4.206930 0.000000 
#    z -0.105610 0.000000 4.652120 
# 
# 
# High freq. dielectric constant tensor:
#      x y z
#    x 1.807550 0.000000 0.006530 
#    y 0.000000 1.856790 0.000000 
#    z 0.006530 0.000000 1.847490 
# 
# From -- ./inp_files/54679.got.cif
#   From: 2010.06.25/outbox.cif.g09.slc.cpg/sg13_28_cif.got.tgz:54679.got - 2010.06.28 04:50:58.
