data_PCOD8121300
_publ_section_title
;
Structure prediction by ZEFSAII (Michael W. Deem and Ramdas Pophale) SiO2 
 PCOD8121300
Probable space group: P 2/C
;
_chemical_formula_sum "Si O2"
_cell_formula_units_Z 22
_cell_length_a 11.804576
_cell_length_b 12.457729
_cell_length_c 15.131977
_cell_angle_alpha 90.000000
_cell_angle_beta 29.156418
_cell_angle_gamma 90.000000
_cell_volume 1084.147168
_symmetry_space_group_name_H-M "P 2/C"
_symmetry_group_IT_number 13
_symmetry_cell_setting 'monoclinic'
loop_
_space_group_symop_operation_xyz
x,y,z
-x,y,1/2-z
-x,-y,-z
x,-y,1/2+z
loop_
_atom_site_type_symbol
_atom_site_label
_atom_site_fract_x
_atom_site_fract_y
_atom_site_fract_z
Si Si1 0.368743 0.192271 0.009679
Si Si2 0.120469 0.121875 0.832341
Si Si3 0.577897 0.424794 0.867456
Si Si4 0.500000 0.437622 0.250000
Si Si5 0.965320 0.336504 0.872929
Si Si6 0.979860 0.882987 0.898508
O O1 0.246107 0.150001 0.004060
O O2 0.205290 0.176021 0.206013
O O3 0.600782 0.122750 0.866268
O O4 0.418506 0.318886 0.970434
O O5 0.003444 0.208972 0.848501
O O6 0.053469 0.152872 0.978284
O O7 0.015742 0.010509 0.870421
O O8 0.563137 0.486741 0.787059
O O9 0.846533 0.394031 0.693798
O O10 0.500000 0.500000 0.000000
O O11 0.289280 0.360476 0.418295
O O12 0.000000 0.379213 0.750000
#
# Coordination Sequence:
#
# PCOD8121300 Si02
#       6
#     4   4   4   2   4   4
#     4  10  23  40  66  91 133 164 217 268 324 389
#     4  10  23  41  64  93 132 165 218 264 323 392
#     4  11  25  45  69  97 130 175 224 276 332 393
#     4  12  26  46  70  94 132 180 218 284 330 390
#     4  11  25  43  66  97 132 170 220 273 333 397
#     4  10  22  41  64  97 123 176 209 264 327 391
#
# _framework density 20.292448
#
# number of rings (size 3 to 8) (size 9 to 14) (size 15 to 20)
#    0.000    1.455    1.818    1.636   10.182    2.909 
#    6.545    0.000    0.000    0.000    0.000    0.000 
#    0.000    0.000    0.000    0.000    0.000    0.000 
#
# Total GULP energy -272897.553396 kJ/mol
# GULP energy per Si atom -12404.434245 kJ/mol
# Density = 2.024626 g / cm^3
# Si number density = 20.292448 Si / 1000 Ang^3
#
#
#
# Elastic Constant Matrix: (Units=GPa)
#
#
# Indices 1 2 3 4 5 6 
#
# 1 121.1959 57.9808 58.3030 0.0000 -7.2707 0.0000
# 2 57.9808 92.8461 48.5502 0.0000 -18.2649 0.0000
# 3 58.3030 48.5502 142.9511 0.0000 -14.9595 0.0000
# 4 0.0000 0.0000 0.0000 24.8724 0.0000 -8.2122
# 5 -7.2707 -18.2649 -14.9595 0.0000 34.1632 0.0000
# 6 0.0000 0.0000 0.0000 -8.2122 0.0000 4.5346
#
#
#
# Elastic Compliance Matrix: (Units=1/GPa)
#
#
# Indices 1 2 3 4 5 6 
#
# 1 0.012927 -0.006863 -0.003183 0.000000 -0.002312 0.000000
# 2 -0.006863 0.017723 -0.002496 0.000000 0.006922 0.000000
# 3 -0.003183 -0.002496 0.009360 0.000000 0.002087 0.000000
# 4 0.000000 0.000000 0.000000 0.099999 0.000000 0.181098
# 5 -0.002312 0.006922 0.002087 0.000000 0.033394 0.000000
# 6 0.000000 0.000000 0.000000 0.181098 0.000000 0.548495
#
#
# Mechanical properties :
#
#
# Convention : Reuss Voigt Hill
#
# Bulk Modulus (GPa) = 66.99909 76.29568 71.64738
# Shear Modulus (GPa) = 6.64932 25.52466 16.08699
#
# Velocity S-wave (km/s) = 1.81214 3.55045 2.81865
# Velocity P-wave (km/s) = 6.12102 7.38155 6.78064
#
# Compressibility (1/GPa) = 0.01492558
#
# Stress axis : x y z
#
# Youngs Moduli (GPa) = 77.35678 56.42359 106.83994
#
# Poissons Ratio (x) = 0.38723 0.34012
# Poissons Ratio (y) = 0.53089 0.26665
# Poissons Ratio (z) = 0.24626 0.14082
#
# Static dielectric constant tensor:
#      x y z
#    x 3.773590 0.000000 0.043090 
#    y 0.000000 3.721110 0.000000 
#    z 0.043090 0.000000 3.889880 
# 
# 
# High freq. dielectric constant tensor:
#      x y z
#    x 1.803120 0.000000 0.001570 
#    y 0.000000 1.799930 0.000000 
#    z 0.001570 0.000000 1.805610 
# 
# From -- ./inp_files/51124.got.cif
#   From: 2010.06.25/outbox.cif.g09.slc.cpg/sg13_26_cif.got.tgz:51124.got - 2010.06.28 04:50:58.
