data_PCOD8121126
_publ_section_title
;
Structure prediction by ZEFSAII (Michael W. Deem and Ramdas Pophale) SiO2 
 PCOD8121126
Probable space group: P 2/C
;
_chemical_formula_sum "Si O2"
_cell_formula_units_Z 26
_cell_length_a 12.511497
_cell_length_b 16.295868
_cell_length_c 13.393506
_cell_angle_alpha 90.000000
_cell_angle_beta 26.763367
_cell_angle_gamma 90.000000
_cell_volume 1229.672658
_symmetry_space_group_name_H-M "P 2/C"
_symmetry_group_IT_number 13
_symmetry_cell_setting 'monoclinic'
loop_
_space_group_symop_operation_xyz
x,y,z
-x,y,1/2-z
-x,-y,-z
x,-y,1/2+z
loop_
_atom_site_type_symbol
_atom_site_label
_atom_site_fract_x
_atom_site_fract_y
_atom_site_fract_z
Si Si1 0.281379 0.650615 0.164325
Si Si2 0.677600 0.229043 0.368112
Si Si3 0.031168 0.190482 0.557761
Si Si4 0.000000 0.288139 0.250000
Si Si5 0.382779 0.082444 0.558971
Si Si6 0.000000 0.546504 0.250000
Si Si7 0.243180 0.586353 0.415692
Si Si8 0.500000 0.137374 0.250000
O O1 0.214650 0.597218 0.122730
O O2 0.252039 0.593673 0.287992
O O3 0.115605 0.729521 0.293718
O O4 0.552562 0.685433 0.935388
O O5 0.777460 0.235710 0.397102
O O6 0.485099 0.158212 0.536095
O O7 0.893140 0.197755 0.120075
O O8 0.269388 0.194268 0.426473
O O9 0.898607 0.102141 0.690088
O O10 0.923507 0.339927 0.409871
O O11 0.454810 0.081054 0.383295
O O12 0.500000 0.000000 0.500000
O O13 0.878271 0.496489 0.442108
O O14 0.500000 0.595733 0.250000
#
# Coordination Sequence:
#
# PCOD8121126 Si02
#       8
#     4   4   4   2   4   2   4   2
#     4  11  23  42  65  94 129 172 230 281 336 414
#     4  10  22  39  68  94 125 175 226 272 335 400
#     4  10  22  40  67  95 130 172 222 275 323 395
#     4  11  20  42  62  97 118 174 222 279 340 398
#     4  10  23  44  62 101 139 174 214 271 329 398
#     4  11  28  38  64  95 128 176 226 279 352 416
#     4  11  23  43  63  87 134 174 215 291 349 398
#     4  10  22  40  68  94 134 178 214 264 336 382
#
# _framework density 21.143839
#
# number of rings (size 3 to 8) (size 9 to 14) (size 15 to 20)
#    0.000    1.538    3.077    0.923    6.462    4.308 
#    5.538    0.000    0.000    0.000    0.000    0.000 
#    0.000    0.000    0.000    0.000    0.000    0.000 
#
# Total GULP energy -322157.717233 kJ/mol
# GULP energy per Si atom -12390.681432 kJ/mol
# Density = 2.109571 g / cm^3
# Si number density = 21.143839 Si / 1000 Ang^3
#
#
#
# Elastic Constant Matrix: (Units=GPa)
#
#
# Indices 1 2 3 4 5 6 
#
# 1 157.9144 59.9096 38.5630 0.0000 -5.1768 0.0000
# 2 59.9096 102.0910 37.4931 0.0000 1.5998 0.0000
# 3 38.5630 37.4931 96.5824 0.0000 -7.1844 0.0000
# 4 0.0000 0.0000 0.0000 18.2232 0.0000 0.2003
# 5 -5.1768 1.5998 -7.1844 0.0000 33.1140 0.0000
# 6 0.0000 0.0000 0.0000 0.2003 0.0000 28.1446
#
#
#
# Elastic Compliance Matrix: (Units=1/GPa)
#
#
# Indices 1 2 3 4 5 6 
#
# 1 0.008417 -0.004381 -0.001572 0.000000 0.001186 0.000000
# 2 -0.004381 0.013781 -0.003762 0.000000 -0.002167 0.000000
# 3 -0.001572 -0.003762 0.012641 0.000000 0.002679 0.000000
# 4 0.000000 0.000000 0.000000 0.054879 0.000000 -0.000391
# 5 0.001186 -0.002167 0.002679 0.000000 0.031070 0.000000
# 6 0.000000 0.000000 0.000000 -0.000391 0.000000 0.035534
#
#
# Mechanical properties :
#
#
# Convention : Reuss Voigt Hill
#
# Bulk Modulus (GPa) = 64.89089 69.83549 67.36319
# Shear Modulus (GPa) = 27.64124 30.60451 29.12288
#
# Velocity S-wave (km/s) = 3.61958 3.80866 3.71532
# Velocity P-wave (km/s) = 6.94444 7.24166 7.09461
#
# Compressibility (1/GPa) = 0.01541048
#
# Stress axis : x y z
#
# Youngs Moduli (GPa) = 118.80305 72.56113 79.10667
#
# Poissons Ratio (x) = 0.31787 0.12435
# Poissons Ratio (y) = 0.52045 0.29760
# Poissons Ratio (z) = 0.18675 0.27297
#
# Static dielectric constant tensor:
#      x y z
#    x 4.000810 0.000000 -0.199800 
#    y 0.000000 3.739510 0.000000 
#    z -0.199800 0.000000 4.192130 
# 
# 
# High freq. dielectric constant tensor:
#      x y z
#    x 1.843230 0.000000 -0.012480 
#    y 0.000000 1.804760 0.000000 
#    z -0.012480 0.000000 1.832540 
# 
# From -- ./inp_files/34753.got.cif
#   From: 2010.06.25/outbox.cif.g09.slc.cpg/sg13_18_cif.got.tgz:34753.got - 2010.06.28 04:50:58.
