data_PCOD8121666
_publ_section_title
;
Structure prediction by ZEFSAII (Michael W. Deem and Ramdas Pophale) SiO2 
 PCOD8121666
Probable space group: P 2/C
;
_chemical_formula_sum "Si O2"
_cell_formula_units_Z 20
_cell_length_a 10.480586
_cell_length_b 12.950550
_cell_length_c 10.277404
_cell_angle_alpha 90.000000
_cell_angle_beta 141.855584
_cell_angle_gamma 90.000000
_cell_volume 861.582062
_symmetry_space_group_name_H-M "P 2/C"
_symmetry_group_IT_number 13
_symmetry_cell_setting 'monoclinic'
loop_
_space_group_symop_operation_xyz
x,y,z
-x,y,1/2-z
-x,-y,-z
x,-y,1/2+z
loop_
_atom_site_type_symbol
_atom_site_label
_atom_site_fract_x
_atom_site_fract_y
_atom_site_fract_z
Si Si1 0.500000 0.369252 0.250000
Si Si2 0.000000 0.681349 0.750000
Si Si3 0.822426 0.682716 0.192290
Si Si4 0.008983 0.839114 0.986219
Si Si5 0.792431 0.541546 0.393801
Si Si6 0.355283 0.004552 0.257251
O O1 0.631797 0.291902 0.444574
O O2 0.642128 0.445381 0.280712
O O3 0.059362 0.755174 0.677047
O O4 0.818517 0.604438 0.551744
O O5 0.935115 0.785084 0.332797
O O6 0.713555 0.621320 0.221831
O O7 0.000000 0.620664 0.250000
O O8 0.215241 0.903245 0.113494
O O9 0.806471 0.904641 0.849376
O O10 0.000000 0.500000 0.500000
O O11 0.500000 0.025494 0.250000
O O12 0.500000 0.000000 0.500000
#
# Coordination Sequence:
#
# PCOD8121666 Si02
#       6
#     2   2   4   4   4   4
#     4  12  24  44  70  96 142 190 238 282 372 406
#     4  10  22  46  72  98 144 186 240 304 354 422
#     4  11  24  42  66 101 136 181 235 293 343 423
#     4  10  25  47  71 102 147 179 235 303 356 427
#     4  11  22  44  68  98 138 187 237 296 351 420
#     4  11  25  47  77 106 143 189 239 293 378 448
#
# _framework density 23.21311
#
# number of rings (size 3 to 8) (size 9 to 14) (size 15 to 20)
#    0.000    1.200    2.000    3.000    2.800    3.200 
#   18.000    0.000    0.000    0.000    0.000    0.000 
#    0.000    0.000    0.000    0.000    0.000    0.000 
#
# Total GULP energy -247805.725138 kJ/mol
# GULP energy per Si atom -12390.286257 kJ/mol
# Density = 2.316028 g / cm^3
# Si number density = 23.213110 Si / 1000 Ang^3
#
#
#
# Elastic Constant Matrix: (Units=GPa)
#
#
# Indices 1 2 3 4 5 6 
#
# 1 118.9584 30.4187 67.8478 0.0000 -0.5609 0.0000
# 2 30.4187 90.2158 57.0065 0.0000 -6.9193 0.0000
# 3 67.8478 57.0065 192.8402 0.0000 -20.5511 0.0000
# 4 0.0000 0.0000 0.0000 34.9119 0.0000 -2.9653
# 5 -0.5609 -6.9193 -20.5511 0.0000 45.8936 0.0000
# 6 0.0000 0.0000 0.0000 -2.9653 0.0000 24.8441
#
#
#
# Elastic Compliance Matrix: (Units=1/GPa)
#
#
# Indices 1 2 3 4 5 6 
#
# 1 0.010803 -0.001545 -0.003523 0.000000 -0.001678 0.000000
# 2 -0.001545 0.013855 -0.003498 0.000000 0.000503 0.000000
# 3 -0.003523 -0.003498 0.007769 0.000000 0.002909 0.000000
# 4 0.000000 0.000000 0.000000 0.028937 0.000000 0.003454
# 5 -0.001678 0.000503 0.002909 0.000000 0.023147 0.000000
# 6 0.000000 0.000000 0.000000 0.003454 0.000000 0.040663
#
#
# Mechanical properties :
#
#
# Convention : Reuss Voigt Hill
#
# Bulk Modulus (GPa) = 65.38534 79.17340 72.27937
# Shear Modulus (GPa) = 33.92014 37.57934 35.74974
#
# Velocity S-wave (km/s) = 3.82678 4.02790 3.92863
# Velocity P-wave (km/s) = 6.91044 7.47082 7.19609
#
# Compressibility (1/GPa) = 0.01529395
#
# Stress axis : x y z
#
# Youngs Moduli (GPa) = 92.56893 72.17751 128.71223
#
# Poissons Ratio (x) = 0.11152 0.45344
# Poissons Ratio (y) = 0.14303 0.45029
# Poissons Ratio (z) = 0.32611 0.25251
#
# Static dielectric constant tensor:
#      x y z
#    x 4.275100 0.000000 -0.422470 
#    y 0.000000 4.368950 0.000000 
#    z -0.422470 0.000000 4.438280 
# 
# 
# High freq. dielectric constant tensor:
#      x y z
#    x 1.918330 0.000000 -0.014210 
#    y 0.000000 1.916940 0.000000 
#    z -0.014210 0.000000 1.934020 
# 
# From -- ./inp_files/34630.got.cif
#   From: 2010.06.25/outbox.cif.g09.slc.cpg/sg13_18_cif.got.tgz:34630.got - 2010.06.28 04:50:58.
