data_PCOD8121814
_publ_section_title
;
Structure prediction by ZEFSAII (Michael W. Deem and Ramdas Pophale) SiO2 
 PCOD8121814
Probable space group: P 2/C
;
_chemical_formula_sum "Si O2"
_cell_formula_units_Z 28
_cell_length_a 9.067009
_cell_length_b 15.182107
_cell_length_c 13.745325
_cell_angle_alpha 90.000000
_cell_angle_beta 43.052174
_cell_angle_gamma 90.000000
_cell_volume 1291.689541
_symmetry_space_group_name_H-M "P 2/C"
_symmetry_group_IT_number 13
_symmetry_cell_setting 'monoclinic'
loop_
_space_group_symop_operation_xyz
x,y,z
-x,y,1/2-z
-x,-y,-z
x,-y,1/2+z
loop_
_atom_site_type_symbol
_atom_site_label
_atom_site_fract_x
_atom_site_fract_y
_atom_site_fract_z
Si Si1 0.836067 0.614125 0.103619
Si Si2 0.248862 0.355920 0.643024
Si Si3 0.692920 0.442709 0.087240
Si Si4 0.116505 0.800271 0.503831
Si Si5 0.503008 0.176538 0.533443
Si Si6 0.326611 0.134365 0.251357
Si Si7 0.711430 0.936450 0.212244
O O1 0.740844 0.593917 0.257717
O O2 0.717308 0.548612 0.085586
O O3 0.788716 0.713623 0.094158
O O4 0.092529 0.602169 0.974420
O O5 0.334322 0.418405 0.513914
O O6 0.401591 0.272407 0.573435
O O7 0.000000 0.326144 0.750000
O O8 0.500000 0.408026 0.250000
O O9 0.268057 0.820073 0.522080
O O10 0.107156 0.879499 0.429855
O O11 0.866263 0.793293 0.657601
O O12 0.538339 0.137211 0.411264
O O13 0.334410 0.108763 0.662229
O O14 0.500000 0.156633 0.250000
O O15 0.218526 0.037501 0.311252
O O16 0.500000 0.928011 0.250000
#
# Coordination Sequence:
#
# PCOD8121814 Si02
#       7
#     4   4   4   4   4   4   4
#     4  10  23  44  65  95 130 175 215 268 333 395
#     4  10  23  42  66  98 131 168 226 266 330 400
#     4  10  24  42  68  95 132 167 219 279 322 391
#     4  11  23  42  68  94 131 175 224 268 329 389
#     4  11  23  40  67  96 129 177 216 277 319 394
#     4  11  25  40  63  97 138 173 222 274 327 382
#     4   9  20  41  65  96 130 177 222 269 326 388
#
# _framework density 21.677036000000001
#
# number of rings (size 3 to 8) (size 9 to 14) (size 15 to 20)
#    0.000    1.714    1.429    1.286    8.000    0.571 
#    0.000    5.714    0.000    0.000    0.000    0.000 
#    0.000    0.000    0.000    0.000    0.000    0.000 
#
# Total GULP energy -347183.177760 kJ/mol
# GULP energy per Si atom -12399.399206 kJ/mol
# Density = 2.162770 g / cm^3
# Si number density = 21.677036 Si / 1000 Ang^3
#
#
#
# Elastic Constant Matrix: (Units=GPa)
#
#
# Indices 1 2 3 4 5 6 
#
# 1 98.2328 35.3274 45.7665 0.0000 16.8591 0.0000
# 2 35.3274 83.9745 33.3842 0.0000 9.3347 0.0000
# 3 45.7665 33.3842 115.7734 0.0000 21.6216 0.0000
# 4 0.0000 0.0000 0.0000 43.9180 0.0000 -9.1841
# 5 16.8591 9.3347 21.6216 0.0000 37.2804 0.0000
# 6 0.0000 0.0000 0.0000 -9.1841 0.0000 48.0565
#
#
#
# Elastic Compliance Matrix: (Units=1/GPa)
#
#
# Indices 1 2 3 4 5 6 
#
# 1 0.013907 -0.004010 -0.003762 0.000000 -0.003103 0.000000
# 2 -0.004010 0.014659 -0.002574 0.000000 -0.000364 0.000000
# 3 -0.003762 -0.002574 0.011696 0.000000 -0.004437 0.000000
# 4 0.000000 0.000000 0.000000 0.023718 0.000000 0.004533
# 5 -0.003103 -0.000364 -0.004437 0.000000 0.030892 0.000000
# 6 0.000000 0.000000 0.000000 0.004533 0.000000 0.021675
#
#
# Mechanical properties :
#
#
# Convention : Reuss Voigt Hill
#
# Bulk Modulus (GPa) = 51.09731 58.54852 54.82291
# Shear Modulus (GPa) = 34.77980 38.08448 36.43214
#
# Velocity S-wave (km/s) = 4.00991 4.19609 4.10406
# Velocity P-wave (km/s) = 6.71285 7.10945 6.91400
#
# Compressibility (1/GPa) = 0.01957050
#
# Stress axis : x y z
#
# Youngs Moduli (GPa) = 71.90468 68.21684 85.50279
#
# Poissons Ratio (x) = 0.27356 0.32164
# Poissons Ratio (y) = 0.28835 0.22006
# Poissons Ratio (z) = 0.27049 0.17557
#
# Static dielectric constant tensor:
#      x y z
#    x 3.841390 0.000000 0.164280 
#    y 0.000000 3.953780 0.000000 
#    z 0.164280 0.000000 4.067430 
# 
# 
# High freq. dielectric constant tensor:
#      x y z
#    x 1.846050 0.000000 0.003230 
#    y 0.000000 1.846550 0.000000 
#    z 0.003230 0.000000 1.864740 
# 
# From -- ./inp_files/47875.got.cif
#   From: 2010.06.25/outbox.cif.g09.slc.cpg/sg13_24_cif.got.tgz:47875.got - 2010.06.28 04:50:58.
