data_PCOD8121426
_publ_section_title
;
Structure prediction by ZEFSAII (Michael W. Deem and Ramdas Pophale) SiO2 
 PCOD8121426
Probable space group: P 2/C
;
_chemical_formula_sum "Si O2"
_cell_formula_units_Z 22
_cell_length_a 10.700290
_cell_length_b 5.352911
_cell_length_c 25.411824
_cell_angle_alpha 90.000000
_cell_angle_beta 41.430159
_cell_angle_gamma 90.000000
_cell_volume 963.134377
_symmetry_space_group_name_H-M "P 2/C"
_symmetry_group_IT_number 13
_symmetry_cell_setting 'monoclinic'
loop_
_space_group_symop_operation_xyz
x,y,z
-x,y,1/2-z
-x,-y,-z
x,-y,1/2+z
loop_
_atom_site_type_symbol
_atom_site_label
_atom_site_fract_x
_atom_site_fract_y
_atom_site_fract_z
Si Si1 0.186317 0.905788 0.505266
Si Si2 0.195009 0.254806 0.405122
Si Si3 0.500000 0.053899 0.750000
Si Si4 0.484523 0.366462 0.852524
Si Si5 0.289743 0.948949 0.082721
Si Si6 0.213669 0.446782 0.168162
O O1 0.394177 0.785126 0.430236
O O2 0.165614 0.025199 0.569319
O O3 0.014362 0.705293 0.553042
O O4 0.165012 0.125642 0.470476
O O5 0.304743 0.509391 0.380762
O O6 0.318623 0.102737 0.324270
O O7 0.575906 0.204233 0.777062
O O8 0.647878 0.543490 0.824432
O O9 0.227023 0.164979 0.142923
O O10 0.270178 0.667147 0.110167
O O11 0.500000 0.000000 0.000000
O O12 0.000000 0.504637 0.250000
#
# Coordination Sequence:
#
# PCOD8121426 Si02
#       6
#     4   4   2   4   4   4
#     4  10  23  40  70  98 130 175 236 289 344 421
#     4  10  22  42  66  97 134 173 229 290 350 411
#     4  10  24  38  62  96 126 186 210 290 352 416
#     4  11  23  43  65  96 139 175 235 285 357 420
#     4  12  25  48  74 106 139 194 238 294 357 426
#     4  12  29  46  73 105 148 188 239 296 362 428
#
# _framework density 22.842089999999999
#
# number of rings (size 3 to 8) (size 9 to 14) (size 15 to 20)
#    0.000    1.091    1.818    3.273    7.636    2.909 
#    0.000    0.000    0.000    0.000    0.000    0.000 
#    0.000    0.000    0.000    0.000    0.000    0.000 
#
# Total GULP energy -272704.112238 kJ/mol
# GULP energy per Si atom -12395.641465 kJ/mol
# Density = 2.279010 g / cm^3
# Si number density = 22.842090 Si / 1000 Ang^3
#
#
#
# Elastic Constant Matrix: (Units=GPa)
#
#
# Indices 1 2 3 4 5 6 
#
# 1 81.8631 -10.9464 27.8091 0.0000 -1.7845 0.0000
# 2 -10.9464 59.4536 6.4558 0.0000 10.2261 0.0000
# 3 27.8091 6.4558 94.9574 0.0000 5.0368 0.0000
# 4 0.0000 0.0000 0.0000 8.8905 0.0000 -22.1473
# 5 -1.7845 10.2261 5.0368 0.0000 37.3082 0.0000
# 6 0.0000 0.0000 0.0000 -22.1473 0.0000 7.7846
#
#
#
# Elastic Compliance Matrix: (Units=1/GPa)
#
#
# Indices 1 2 3 4 5 6 
#
# 1 0.014106 0.002994 -0.004358 0.000000 0.000442 0.000000
# 2 0.002994 0.018373 -0.001880 0.000000 -0.004639 0.000000
# 3 -0.004358 -0.001880 0.012005 0.000000 -0.001314 0.000000
# 4 0.000000 0.000000 0.000000 -0.018478 0.000000 -0.052570
# 5 0.000442 -0.004639 -0.001314 0.000000 0.028274 0.000000
# 6 0.000000 0.000000 0.000000 -0.052570 0.000000 -0.021103
#
#
# Mechanical properties :
#
#
# Convention : Reuss Voigt Hill
#
# Bulk Modulus (GPa) = 26.31823 31.43458 28.87641
# Shear Modulus (GPa) = 95.54715 24.99370 60.27043
#
# Velocity S-wave (km/s) = 6.47458 3.31145 5.14227
# Velocity P-wave (km/s) = 8.21221 5.33034 6.92290
#
# Compressibility (1/GPa) = 0.03799648
#
# Stress axis : x y z
#
# Youngs Moduli (GPa) = 70.89186 54.42714 83.29971
#
# Poissons Ratio (x) = -0.16297 0.36303
# Poissons Ratio (y) = -0.21227 0.15660
# Poissons Ratio (z) = 0.30895 0.10232
#
# Static dielectric constant tensor:
#      x y z
#    x 4.092890 0.000000 -0.284560 
#    y 0.000000 3.780700 0.000000 
#    z -0.284560 0.000000 4.139230 
# 
# 
# High freq. dielectric constant tensor:
#      x y z
#    x 1.909250 0.000000 -0.000310 
#    y 0.000000 1.892370 0.000000 
#    z -0.000310 0.000000 1.912800 
# 
# From -- ./inp_files/85743.got.cif
#   From: 2010.06.25/outbox.cif.g09.slc.cpg/sg13_43_cif.got.tgz:85743.got - 2010.06.28 04:50:58.
