data_PCOD8121670
_publ_section_title
;
Structure prediction by ZEFSAII (Michael W. Deem and Ramdas Pophale) SiO2 
 PCOD8121670
Probable space group: P 2/C
;
_chemical_formula_sum "Si O2"
_cell_formula_units_Z 16
_cell_length_a 18.737424
_cell_length_b 7.729407
_cell_length_c 13.757794
_cell_angle_alpha 90.000000
_cell_angle_beta 160.564054
_cell_angle_gamma 90.000000
_cell_volume 663.019971
_symmetry_space_group_name_H-M "P 2/C"
_symmetry_group_IT_number 13
_symmetry_cell_setting 'monoclinic'
loop_
_space_group_symop_operation_xyz
x,y,z
-x,y,1/2-z
-x,-y,-z
x,-y,1/2+z
loop_
_atom_site_type_symbol
_atom_site_label
_atom_site_fract_x
_atom_site_fract_y
_atom_site_fract_z
Si Si1 0.500000 0.002967 0.750000
Si Si2 0.687866 0.256745 0.711384
Si Si3 0.294968 0.861720 0.801870
Si Si4 0.000000 0.464686 0.250000
Si Si5 0.166275 0.277157 0.809237
O O1 0.429807 0.128512 0.574083
O O2 0.299676 0.882360 0.526187
O O3 0.433571 0.265905 0.410184
O O4 0.715562 0.337820 0.638723
O O5 0.745671 0.053258 0.791632
O O6 0.836692 0.349269 0.979928
O O7 0.067478 0.776968 0.527565
O O8 0.853252 0.576824 0.134481
#
# Coordination Sequence:
#
# PCOD8121670 Si02
#       5
#     2   4   4   2   4
#     4  10  22  46  76 104 138 188 232 294 346 400
#     4  10  24  47  68 103 136 181 238 287 335 415
#     4  10  24  45  77 101 135 178 244 297 331 409
#     4  12  28  42  74  98 152 194 214 284 366 420
#     4  11  26  47  67 107 143 181 232 291 346 416
#
# _framework density 24.132003999999998
#
# number of rings (size 3 to 8) (size 9 to 14) (size 15 to 20)
#    0.000    1.500    0.000    3.750   17.500    1.000 
#    4.500    0.000    0.000    0.000    0.000    0.000 
#    0.000    0.000    0.000    0.000    0.000    0.000 
#
# Total GULP energy -198377.220237 kJ/mol
# GULP energy per Si atom -12398.576265 kJ/mol
# Density = 2.407708 g / cm^3
# Si number density = 24.132004 Si / 1000 Ang^3
#
#
#
# Elastic Constant Matrix: (Units=GPa)
#
#
# Indices 1 2 3 4 5 6 
#
# 1 169.9376 55.4451 67.7749 0.0000 5.2958 0.0000
# 2 55.4451 43.9650 25.5679 0.0000 -5.9807 0.0000
# 3 67.7749 25.5679 117.9751 0.0000 2.0318 0.0000
# 4 0.0000 0.0000 0.0000 30.1925 0.0000 4.2707
# 5 5.2958 -5.9807 2.0318 0.0000 45.6059 0.0000
# 6 0.0000 0.0000 0.0000 4.2707 0.0000 10.1671
#
#
#
# Elastic Compliance Matrix: (Units=1/GPa)
#
#
# Indices 1 2 3 4 5 6 
#
# 1 0.011753 -0.012950 -0.003896 0.000000 -0.002889 0.000000
# 2 -0.012950 0.040921 -0.001549 0.000000 0.006939 0.000000
# 3 -0.003896 -0.001549 0.011054 0.000000 -0.000243 0.000000
# 4 0.000000 0.000000 0.000000 0.035213 0.000000 -0.014791
# 5 -0.002889 0.006939 -0.000243 0.000000 0.023183 0.000000
# 6 0.000000 0.000000 0.000000 -0.014791 0.000000 0.104569
#
#
# Mechanical properties :
#
#
# Convention : Reuss Voigt Hill
#
# Bulk Modulus (GPa) = 37.11912 69.93926 53.52919
# Shear Modulus (GPa) = 18.35112 29.39910 23.87511
#
# Velocity S-wave (km/s) = 2.76061 3.49415 3.14881
# Velocity P-wave (km/s) = 5.05731 6.73228 5.95399
#
# Compressibility (1/GPa) = 0.02694029
#
# Stress axis : x y z
#
# Youngs Moduli (GPa) = 85.08138 24.43721 90.46270
#
# Poissons Ratio (x) = 0.31646 0.35243
# Poissons Ratio (y) = 1.10180 0.14009
# Poissons Ratio (z) = 0.33147 0.03784
#
# Static dielectric constant tensor:
#      x y z
#    x 4.680520 0.000000 0.214140 
#    y 0.000000 4.140760 0.000000 
#    z 0.214140 0.000000 4.573230 
# 
# 
# High freq. dielectric constant tensor:
#      x y z
#    x 1.971840 0.000000 0.001890 
#    y 0.000000 1.934130 0.000000 
#    z 0.001890 0.000000 1.975070 
# 
# From -- ./inp_files/56943.got.cif
#   From: 2010.06.25/outbox.cif.g09.slc.cpg/sg13_29_cif.got.tgz:56943.got - 2010.06.28 04:50:58.
