data_PCOD8121333
_publ_section_title
;
Structure prediction by ZEFSAII (Michael W. Deem and Ramdas Pophale) SiO2 
 PCOD8121333
Probable space group: P 2/C
;
_chemical_formula_sum "Si O2"
_cell_formula_units_Z 32
_cell_length_a 22.670743
_cell_length_b 13.010680
_cell_length_c 16.274257
_cell_angle_alpha 90.000000
_cell_angle_beta 161.977198
_cell_angle_gamma 90.000000
_cell_volume 1485.186040
_symmetry_space_group_name_H-M "P 2/C"
_symmetry_group_IT_number 13
_symmetry_cell_setting 'monoclinic'
loop_
_space_group_symop_operation_xyz
x,y,z
-x,y,1/2-z
-x,-y,-z
x,-y,1/2+z
loop_
_atom_site_type_symbol
_atom_site_label
_atom_site_fract_x
_atom_site_fract_y
_atom_site_fract_z
Si Si1 0.524122 0.330137 0.878073
Si Si2 0.093299 0.017544 0.291638
Si Si3 0.721473 0.091166 0.723891
Si Si4 0.894787 0.444482 0.432666
Si Si5 0.523733 0.105577 0.628077
Si Si6 0.294051 0.848483 0.468854
Si Si7 0.684408 0.516088 0.298741
Si Si8 0.846460 0.671601 0.112719
O O1 0.500000 0.345604 0.750000
O O2 0.556375 0.211223 0.941692
O O3 0.338208 0.379338 0.677930
O O4 0.703830 0.394249 0.146203
O O5 0.288726 0.076128 0.571554
O O6 0.000000 0.969573 0.250000
O O7 0.128560 0.926430 0.274867
O O8 0.936861 0.090837 0.043070
O O9 0.576342 0.127144 0.602483
O O10 0.729672 0.173915 0.660223
O O11 0.643605 0.979955 0.588055
O O12 0.857440 0.521009 0.461727
O O13 0.000000 0.500000 0.500000
O O14 0.036899 0.357900 0.651908
O O15 0.295780 0.755570 0.536994
O O16 0.500000 0.901823 0.750000
O O17 0.719203 0.419439 0.405665
O O18 0.500000 0.500000 0.000000
O O19 0.000000 0.715254 0.250000
#
# Coordination Sequence:
#
# PCOD8121333 Si02
#       8
#     4   4   4   4   4   4   4   4
#     4  11  24  39  69  94 128 179 216 269 337 405
#     4  10  22  43  65  90 131 177 219 280 334 395
#     4  10  23  42  65  91 137 177 219 287 334 389
#     4  10  22  41  66  96 128 166 218 274 328 395
#     4  10  23  43  65  97 133 173 229 269 338 408
#     4  12  24  37  63  97 127 170 221 273 331 394
#     4   9  21  44  65  90 129 170 210 270 333 394
#     4  10  23  41  62  93 129 166 213 272 331 396
#
# _framework density 21.546120999999999
#
# number of rings (size 3 to 8) (size 9 to 14) (size 15 to 20)
#    0.000    1.750    1.250    1.500    3.500    7.500 
#    0.000    8.125    0.000    0.000    0.000    0.000 
#    0.000    0.000    0.000    0.000    0.000    0.000 
#
# Total GULP energy -396565.259333 kJ/mol
# GULP energy per Si atom -12392.664354 kJ/mol
# Density = 2.149708 g / cm^3
# Si number density = 21.546121 Si / 1000 Ang^3
#
#
#
# Elastic Constant Matrix: (Units=GPa)
#
#
# Indices 1 2 3 4 5 6 
#
# 1 141.2728 49.1073 35.4214 0.0000 -14.3640 0.0000
# 2 49.1073 72.7306 17.7318 0.0000 1.8132 0.0000
# 3 35.4214 17.7318 87.5564 0.0000 -8.4032 0.0000
# 4 0.0000 0.0000 0.0000 21.3486 0.0000 0.2760
# 5 -14.3640 1.8132 -8.4032 0.0000 35.4965 0.0000
# 6 0.0000 0.0000 0.0000 0.2760 0.0000 33.6873
#
#
#
# Elastic Compliance Matrix: (Units=1/GPa)
#
#
# Indices 1 2 3 4 5 6 
#
# 1 0.010358 -0.006482 -0.002501 0.000000 0.003931 0.000000
# 2 -0.006482 0.018595 -0.001521 0.000000 -0.003933 0.000000
# 3 -0.002501 -0.001521 0.012945 0.000000 0.002130 0.000000
# 4 0.000000 0.000000 0.000000 0.046846 0.000000 -0.000384
# 5 0.003931 -0.003933 0.002130 0.000000 0.030468 0.000000
# 6 0.000000 0.000000 0.000000 -0.000384 0.000000 0.029688
#
#
# Mechanical properties :
#
#
# Convention : Reuss Voigt Hill
#
# Bulk Modulus (GPa) = 47.86666 56.23121 52.04893
# Shear Modulus (GPa) = 28.26907 31.39312 29.83110
#
# Velocity S-wave (km/s) = 3.62612 3.82123 3.72495
# Velocity P-wave (km/s) = 6.30839 6.75454 6.53527
#
# Compressibility (1/GPa) = 0.02089137
#
# Stress axis : x y z
#
# Youngs Moduli (GPa) = 96.53984 53.77783 77.24830
#
# Poissons Ratio (x) = 0.34861 0.19316
# Poissons Ratio (y) = 0.62580 0.11748
# Poissons Ratio (z) = 0.24140 0.08179
#
# Static dielectric constant tensor:
#      x y z
#    x 4.427720 0.000000 0.005690 
#    y 0.000000 3.605120 0.000000 
#    z 0.005690 0.000000 4.022790 
# 
# 
# High freq. dielectric constant tensor:
#      x y z
#    x 1.871500 0.000000 -0.006830 
#    y 0.000000 1.808650 0.000000 
#    z -0.006830 0.000000 1.854160 
# 
# From -- ./inp_files/57892.got.cif
#   From: 2010.06.25/outbox.cif.g09.slc.cpg/sg13_29_cif.got.tgz:57892.got - 2010.06.28 04:50:58.
