data_PCOD8121434
_publ_section_title
;
Structure prediction by ZEFSAII (Michael W. Deem and Ramdas Pophale) SiO2 
 PCOD8121434
Probable space group: P 2/C
;
_chemical_formula_sum "Si O2"
_cell_formula_units_Z 18
_cell_length_a 4.928627
_cell_length_b 13.649905
_cell_length_c 12.034581
_cell_angle_alpha 90.000000
_cell_angle_beta 87.272249
_cell_angle_gamma 90.000000
_cell_volume 808.712573
_symmetry_space_group_name_H-M "P 2/C"
_symmetry_group_IT_number 13
_symmetry_cell_setting 'monoclinic'
loop_
_space_group_symop_operation_xyz
x,y,z
-x,y,1/2-z
-x,-y,-z
x,-y,1/2+z
loop_
_atom_site_type_symbol
_atom_site_label
_atom_site_fract_x
_atom_site_fract_y
_atom_site_fract_z
Si Si1 0.245502 0.564127 0.535355
Si Si2 0.782827 0.819476 0.599117
Si Si3 0.000000 0.344279 0.250000
Si Si4 0.000000 0.984081 0.750000
Si Si5 0.710117 0.221818 0.535727
Si Si6 0.500000 0.888078 0.250000
O O1 0.500000 0.500000 0.500000
O O2 0.195336 0.590118 0.667048
O O3 0.292076 0.661220 0.462032
O O4 0.000000 0.500000 0.500000
O O5 0.859793 0.919986 0.657306
O O6 0.473907 0.821112 0.561858
O O7 0.810325 0.724729 0.677729
O O8 0.981623 0.811647 0.490037
O O9 0.747082 0.049023 0.798386
O O10 0.618293 0.182144 0.654507
#
# Coordination Sequence:
#
# PCOD8121434 Si02
#       6
#     4   4   2   2   4   2
#     4  11  24  41  65  95 124 164 216 262 319 387
#     4  10  22  42  67  89 122 167 224 266 307 372
#     4   9  22  42  65  92 126 164 211 272 318 371
#     4  11  24  40  65  98 122 170 219 262 318 391
#     4  11  24  42  62  91 129 170 207 268 328 376
#     4  12  26  40  60  94 138 168 206 262 338 394
#
# _framework density 22.257597000000001
#
# number of rings (size 3 to 8) (size 9 to 14) (size 15 to 20)
#    0.000    1.333    0.000    5.333    0.000   18.667 
#    0.000    0.000    0.000    0.000    0.000    0.000 
#    0.000    0.000    0.000    0.000    0.000    0.000 
#
# Total GULP energy -223164.278066 kJ/mol
# GULP energy per Si atom -12398.015448 kJ/mol
# Density = 2.220694 g / cm^3
# Si number density = 22.257597 Si / 1000 Ang^3
#
#
#
# Elastic Constant Matrix: (Units=GPa)
#
#
# Indices 1 2 3 4 5 6 
#
# 1 111.7484 49.3308 19.1380 0.0000 -8.3914 0.0000
# 2 49.3308 146.5862 61.7624 0.0000 -17.8047 0.0000
# 3 19.1380 61.7624 124.2183 0.0000 -24.3097 0.0000
# 4 0.0000 0.0000 0.0000 25.4175 0.0000 -10.4244
# 5 -8.3914 -17.8047 -24.3097 0.0000 44.1798 0.0000
# 6 0.0000 0.0000 0.0000 -10.4244 0.0000 38.7735
#
#
#
# Elastic Compliance Matrix: (Units=1/GPa)
#
#
# Indices 1 2 3 4 5 6 
#
# 1 0.010533 -0.003584 0.000300 0.000000 0.000722 0.000000
# 2 -0.003584 0.009911 -0.004177 0.000000 0.001015 0.000000
# 3 0.000300 -0.004177 0.010941 0.000000 0.004394 0.000000
# 4 0.000000 0.000000 0.000000 0.044219 0.000000 0.011888
# 5 0.000722 0.001015 0.004394 0.000000 0.025599 0.000000
# 6 0.000000 0.000000 0.000000 0.011888 0.000000 0.028987
#
#
# Mechanical properties :
#
#
# Convention : Reuss Voigt Hill
#
# Bulk Modulus (GPa) = 60.73748 71.44614 66.09181
# Shear Modulus (GPa) = 33.20065 38.49559 35.84812
#
# Velocity S-wave (km/s) = 3.86638 4.16330 4.01758
# Velocity P-wave (km/s) = 6.87601 7.43506 7.16099
#
# Compressibility (1/GPa) = 0.01646430
#
# Stress axis : x y z
#
# Youngs Moduli (GPa) = 94.93570 100.89548 91.40029
#
# Poissons Ratio (x) = 0.36158 -0.02744
# Poissons Ratio (y) = 0.34022 0.38179
# Poissons Ratio (z) = -0.02850 0.42146
#
# Static dielectric constant tensor:
#      x y z
#    x 4.170120 0.000000 -0.202040 
#    y 0.000000 -1.998610 0.000000 
#    z -0.202040 0.000000 4.006660 
# 
# 
# High freq. dielectric constant tensor:
#      x y z
#    x 1.893990 0.000000 -0.015990 
#    y 0.000000 1.885900 0.000000 
#    z -0.015990 0.000000 1.865950 
# 
# From -- ./inp_files/25744.got.cif
#   From: 2010.06.25/outbox.cif.g09.slc.cpg/sg13_13_cif.got.tgz:25744.got - 2010.06.28 04:50:58.
