data_PCOD8121680
_publ_section_title
;
Structure prediction by ZEFSAII (Michael W. Deem and Ramdas Pophale) SiO2 
 PCOD8121680
Probable space group: P 2/C
;
_chemical_formula_sum "Si O2"
_cell_formula_units_Z 20
_cell_length_a 10.762152
_cell_length_b 10.876925
_cell_length_c 8.084764
_cell_angle_alpha 90.000000
_cell_angle_beta 103.398461
_cell_angle_gamma 90.000000
_cell_volume 920.636469
_symmetry_space_group_name_H-M "P 2/C"
_symmetry_group_IT_number 13
_symmetry_cell_setting 'monoclinic'
loop_
_space_group_symop_operation_xyz
x,y,z
-x,y,1/2-z
-x,-y,-z
x,-y,1/2+z
loop_
_atom_site_type_symbol
_atom_site_label
_atom_site_fract_x
_atom_site_fract_y
_atom_site_fract_z
Si Si1 0.092926 0.746786 0.432953
Si Si2 0.360310 0.845333 0.414925
Si Si3 0.623803 0.582326 0.204423
Si Si4 0.197224 0.474171 0.467570
Si Si5 0.000000 0.295107 0.250000
Si Si6 0.500000 0.968798 0.750000
O O1 0.215121 0.831020 0.431876
O O2 0.119997 0.601313 0.463789
O O3 0.000000 0.769038 0.250000
O O4 0.034838 0.785933 0.596078
O O5 0.413400 0.718707 0.359894
O O6 0.381008 0.948490 0.279636
O O7 0.449552 0.879282 0.594550
O O8 0.500000 0.521541 0.250000
O O9 0.660550 0.497253 0.061393
O O10 0.761223 0.585978 0.345242
O O11 0.120758 0.378501 0.333706
#
# Coordination Sequence:
#
# PCOD8121680 Si02
#       6
#     4   4   4   4   2   2
#     4  11  23  41  64  97 135 175 223 260 312 392
#     4  10  23  44  70  96 118 169 220 276 337 392
#     4  11  22  38  57  95 135 170 215 263 315 388
#     4  11  21  37  59  89 137 180 212 249 312 387
#     4  12  20  38  64  90 134 190 210 252 308 388
#     4  10  22  50  74  86 126 160 216 288 352 382
#
# _framework density 21.7241
#
# number of rings (size 3 to 8) (size 9 to 14) (size 15 to 20)
#    0.000    1.200    4.000    3.600    0.000    1.600 
#   14.400    1.000    0.000    0.000    0.000    0.000 
#    0.000    0.000    0.000    0.000    0.000    0.000 
#
# Total GULP energy -247865.982851 kJ/mol
# GULP energy per Si atom -12393.299143 kJ/mol
# Density = 2.167466 g / cm^3
# Si number density = 21.724100 Si / 1000 Ang^3
#
#
#
# Elastic Constant Matrix: (Units=GPa)
#
#
# Indices 1 2 3 4 5 6 
#
# 1 106.1977 25.3606 33.0448 0.0000 -15.1810 0.0000
# 2 25.3606 60.6144 28.1809 0.0000 9.3577 0.0000
# 3 33.0448 28.1809 117.8105 0.0000 -3.3683 0.0000
# 4 0.0000 0.0000 0.0000 16.5437 0.0000 8.3145
# 5 -15.1810 9.3577 -3.3683 0.0000 38.7017 0.0000
# 6 0.0000 0.0000 0.0000 8.3145 0.0000 24.2853
#
#
#
# Elastic Compliance Matrix: (Units=1/GPa)
#
#
# Indices 1 2 3 4 5 6 
#
# 1 0.012063 -0.004996 -0.002024 0.000000 0.005764 0.000000
# 2 -0.004996 0.021601 -0.003981 0.000000 -0.007529 0.000000
# 3 -0.002024 -0.003981 0.010038 0.000000 0.001042 0.000000
# 4 0.000000 0.000000 0.000000 0.073008 0.000000 -0.024996
# 5 0.005764 -0.007529 0.001042 0.000000 0.030011 0.000000
# 6 0.000000 0.000000 0.000000 -0.024996 0.000000 0.049735
#
#
# Mechanical properties :
#
#
# Convention : Reuss Voigt Hill
#
# Bulk Modulus (GPa) = 46.08152 50.86612 48.47382
# Shear Modulus (GPa) = 22.15414 29.10856 25.63135
#
# Velocity S-wave (km/s) = 3.19689 3.66446 3.43863
# Velocity P-wave (km/s) = 5.90635 6.43194 6.17474
#
# Compressibility (1/GPa) = 0.02170067
#
# Stress axis : x y z
#
# Youngs Moduli (GPa) = 82.89733 46.29355 99.62206
#
# Poissons Ratio (x) = 0.23128 0.20161
# Poissons Ratio (y) = 0.41416 0.39660
# Poissons Ratio (z) = 0.16776 0.18430
#
# Static dielectric constant tensor:
#      x y z
#    x 3.975650 0.000000 -0.322470 
#    y 0.000000 3.496930 0.000000 
#    z -0.322470 0.000000 4.356590 
# 
# 
# High freq. dielectric constant tensor:
#      x y z
#    x 1.865600 0.000000 -0.012670 
#    y 0.000000 1.805460 0.000000 
#    z -0.012670 0.000000 1.881960 
# 
# From -- ./inp_files/15027.got.cif
#   From: 2010.06.25/outbox.cif.g09.slc.cpg/sg13_8_cif.got.tgz:15027.got - 2010.06.28 04:50:58.
