data_PCOD8121778
_publ_section_title
;
Structure prediction by ZEFSAII (Michael W. Deem and Ramdas Pophale) SiO2 
 PCOD8121778
Probable space group: P 2/C
;
_chemical_formula_sum "Si O2"
_cell_formula_units_Z 22
_cell_length_a 10.146155
_cell_length_b 6.668729
_cell_length_c 22.009665
_cell_angle_alpha 90.000000
_cell_angle_beta 135.519723
_cell_angle_gamma 90.000000
_cell_volume 1043.440314
_symmetry_space_group_name_H-M "P 2/C"
_symmetry_group_IT_number 13
_symmetry_cell_setting 'monoclinic'
loop_
_space_group_symop_operation_xyz
x,y,z
-x,y,1/2-z
-x,-y,-z
x,-y,1/2+z
loop_
_atom_site_type_symbol
_atom_site_label
_atom_site_fract_x
_atom_site_fract_y
_atom_site_fract_z
Si Si1 0.531905 0.569936 0.078899
Si Si2 0.491223 0.023003 0.623607
Si Si3 0.139912 0.488993 0.134727
Si Si4 0.785073 0.678505 0.968458
Si Si5 0.500000 0.751241 0.250000
Si Si6 0.176796 0.708674 0.769966
O O1 0.526695 0.810942 0.083139
O O2 0.365779 0.494383 0.067771
O O3 0.731461 0.485383 0.167355
O O4 0.500000 0.500000 0.000000
O O5 0.451535 0.113589 0.676482
O O6 0.305299 0.894299 0.545739
O O7 0.673741 0.885319 0.686258
O O8 0.160311 0.341004 0.084136
O O9 0.326541 0.611766 0.210559
O O10 0.098330 0.347700 0.178057
O O11 0.969435 0.646370 0.070100
O O12 0.000000 0.786978 0.750000
#
# Coordination Sequence:
#
# PCOD8121778 Si02
#       6
#     4   4   4   4   2   4
#     4  11  23  44  64  91 134 177 215 280 336 396
#     4  11  23  42  68  97 130 178 223 276 331 406
#     4  11  21  43  67  96 133 176 216 284 334 390
#     4  10  23  41  66  97 133 171 226 274 338 396
#     4  12  20  42  70  96 130 170 224 276 336 382
#     4  11  24  43  65  97 132 172 223 273 335 397
#
# _framework density 21.084102000000001
#
# number of rings (size 3 to 8) (size 9 to 14) (size 15 to 20)
#    0.000    1.091    3.636    3.273    0.000    4.364 
#    9.818    0.000    0.000    0.000    0.000    0.000 
#    0.000    0.000    0.000    0.000    0.000    0.000 
#
# Total GULP energy -272923.164280 kJ/mol
# GULP energy per Si atom -12405.598376 kJ/mol
# Density = 2.103611 g / cm^3
# Si number density = 21.084102 Si / 1000 Ang^3
#
#
#
# Elastic Constant Matrix: (Units=GPa)
#
#
# Indices 1 2 3 4 5 6 
#
# 1 98.2331 21.9730 30.7163 0.0000 -14.7654 0.0000
# 2 21.9730 112.7094 29.5472 0.0000 -14.5467 0.0000
# 3 30.7163 29.5472 99.4336 0.0000 -14.2942 0.0000
# 4 0.0000 0.0000 0.0000 21.6503 0.0000 -2.9282
# 5 -14.7654 -14.5467 -14.2942 0.0000 43.4165 0.0000
# 6 0.0000 0.0000 0.0000 -2.9282 0.0000 -25.3715
#
#
#
# Elastic Compliance Matrix: (Units=1/GPa)
#
#
# Indices 1 2 3 4 5 6 
#
# 1 0.011749 -0.001190 -0.002896 0.000000 0.002644 0.000000
# 2 -0.001190 0.009986 -0.002285 0.000000 0.002189 0.000000
# 3 -0.002896 -0.002285 0.011944 0.000000 0.002182 0.000000
# 4 0.000000 0.000000 0.000000 0.045479 0.000000 -0.005249
# 5 0.002644 0.002189 0.002182 0.000000 0.025383 0.000000
# 6 0.000000 0.000000 0.000000 -0.005249 0.000000 -0.038809
#
#
# Mechanical properties :
#
#
# Convention : Reuss Voigt Hill
#
# Bulk Modulus (GPa) = 47.76209 52.76102 50.26155
# Shear Modulus (GPa) = 58.51136 23.14840 40.82988
#
# Velocity S-wave (km/s) = 5.27368 3.31706 4.40537
# Velocity P-wave (km/s) = 7.73204 6.30468 7.05455
#
# Compressibility (1/GPa) = 0.02093711
#
# Stress axis : x y z
#
# Youngs Moduli (GPa) = 85.11453 100.14098 83.72287
#
# Poissons Ratio (x) = 0.11919 0.24243
# Poissons Ratio (y) = 0.10130 0.19131
# Poissons Ratio (z) = 0.24646 0.22883
#
# Static dielectric constant tensor:
#      x y z
#    x 3.904170 0.000000 0.056510 
#    y 0.000000 3.765400 0.000000 
#    z 0.056510 0.000000 3.851880 
# 
# 
# High freq. dielectric constant tensor:
#      x y z
#    x 1.835290 0.000000 -0.000400 
#    y 0.000000 1.819000 0.000000 
#    z -0.000400 0.000000 1.833060 
# 
# From -- ./inp_files/65435.got.cif
#   From: 2010.06.25/outbox.cif.g09.slc.cpg/sg13_33_cif.got.tgz:65435.got - 2010.06.28 04:50:58.
