data_PCOD8121755
_publ_section_title
;
Structure prediction by ZEFSAII (Michael W. Deem and Ramdas Pophale) SiO2 
 PCOD8121755
Probable space group: P 2/C
;
_chemical_formula_sum "Si O2"
_cell_formula_units_Z 24
_cell_length_a 8.341177
_cell_length_b 15.856829
_cell_length_c 17.810997
_cell_angle_alpha 90.000000
_cell_angle_beta 29.220535
_cell_angle_gamma 90.000000
_cell_volume 1150.019511
_symmetry_space_group_name_H-M "P 2/C"
_symmetry_group_IT_number 13
_symmetry_cell_setting 'monoclinic'
loop_
_space_group_symop_operation_xyz
x,y,z
-x,y,1/2-z
-x,-y,-z
x,-y,1/2+z
loop_
_atom_site_type_symbol
_atom_site_label
_atom_site_fract_x
_atom_site_fract_y
_atom_site_fract_z
Si Si1 0.779273 0.080507 0.078292
Si Si2 0.274326 0.251846 0.578416
Si Si3 0.690580 0.585427 0.932181
Si Si4 0.889734 0.243777 0.583760
Si Si5 0.607408 0.085532 0.417696
Si Si6 0.203427 0.583160 0.432285
O O1 0.500000 0.069825 0.250000
O O2 0.595351 0.086534 0.075239
O O3 0.992961 0.163227 0.011865
O O4 0.000000 0.000000 0.000000
O O5 0.501676 0.333380 0.478788
O O6 0.493113 0.169361 0.510033
O O7 0.000000 0.272040 0.750000
O O8 0.071647 0.235657 0.587142
O O9 0.000000 0.579198 0.750000
O O10 0.500000 0.500000 0.000000
O O11 0.727979 0.591418 0.007102
O O12 0.500000 0.239651 0.750000
O O13 0.001712 0.331696 0.500126
O O14 0.000000 0.088238 0.250000
O O15 0.500000 0.000000 0.500000
O O16 0.500000 0.581171 0.250000
O O17 0.000000 0.500000 0.500000
#
# Coordination Sequence:
#
# PCOD8121755 Si02
#       6
#     4   4   4   4   4   4
#     4  11  24  40  63  90 123 162 206 258 314 376
#     4  11  23  41  64  93 128 168 212 263 322 384
#     4  12  25  42  66  97 132 170 214 268 323 386
#     4  10  23  41  62  90 123 163 209 259 313 374
#     4  11  24  41  63  92 126 165 211 263 321 385
#     4  11  23  41  65  92 126 168 210 259 314 377
#
# _framework density 20.869212000000001
#
# number of rings (size 3 to 8) (size 9 to 14) (size 15 to 20)
#    0.000    1.000    0.000    7.000    0.000   11.333 
#    0.000    0.000    0.000    0.000    0.000    0.000 
#    0.000    0.000    0.000    0.000    0.000    0.000 
#
# Total GULP energy -297328.268777 kJ/mol
# GULP energy per Si atom -12388.677866 kJ/mol
# Density = 2.082171 g / cm^3
# Si number density = 20.869212 Si / 1000 Ang^3
#
#
#
# Elastic Constant Matrix: (Units=GPa)
#
#
# Indices 1 2 3 4 5 6 
#
# 1 83.4519 34.8248 38.3325 0.0000 -6.7544 0.0000
# 2 34.8248 219.5528 81.2101 0.0000 -23.9417 0.0000
# 3 38.3325 81.2101 160.8997 0.0000 -3.4863 0.0000
# 4 0.0000 0.0000 0.0000 47.1838 0.0000 -7.5121
# 5 -6.7544 -23.9417 -3.4863 0.0000 40.8406 0.0000
# 6 0.0000 0.0000 0.0000 -7.5121 0.0000 41.2129
#
#
#
# Elastic Compliance Matrix: (Units=1/GPa)
#
#
# Indices 1 2 3 4 5 6 
#
# 1 0.013782 -0.001014 -0.002740 0.000000 0.001451 0.000000
# 2 -0.001014 0.006081 -0.002759 0.000000 0.003161 0.000000
# 3 -0.002740 -0.002759 0.008231 0.000000 -0.001368 0.000000
# 4 0.000000 0.000000 0.000000 0.021827 0.000000 0.003979
# 5 0.001451 0.003161 -0.001368 0.000000 0.026462 0.000000
# 6 0.000000 0.000000 0.000000 0.003979 0.000000 0.024989
#
#
# Mechanical properties :
#
#
# Convention : Reuss Voigt Hill
#
# Bulk Modulus (GPa) = 66.37011 85.84880 76.10945
# Shear Modulus (GPa) = 41.86848 46.48328 44.17588
#
# Velocity S-wave (km/s) = 4.48396 4.72461 4.60586
# Velocity P-wave (km/s) = 7.66027 8.42547 8.05196
#
# Compressibility (1/GPa) = 0.01506702
#
# Stress axis : x y z
#
# Youngs Moduli (GPa) = 72.55691 164.44970 121.49580
#
# Poissons Ratio (x) = 0.16682 0.33290
# Poissons Ratio (y) = 0.07360 0.33521
# Poissons Ratio (z) = 0.19881 0.45372
#
# Static dielectric constant tensor:
#      x y z
#    x 3.946490 0.000000 0.054630 
#    y 0.000000 4.599550 0.000000 
#    z 0.054630 0.000000 4.029490 
# 
# 
# High freq. dielectric constant tensor:
#      x y z
#    x 1.825610 0.000000 -0.000380 
#    y 0.000000 1.853790 0.000000 
#    z -0.000380 0.000000 1.824630 
# 
# From -- ./inp_files/64597.got.cif
#   From: 2010.06.25/outbox.cif.g09.slc.cpg/sg13_33_cif.got.tgz:64597.got - 2010.06.28 04:50:58.
