data_PCOD8121470
_publ_section_title
;
Structure prediction by ZEFSAII (Michael W. Deem and Ramdas Pophale) SiO2 
 PCOD8121470
Probable space group: P 2/C
;
_chemical_formula_sum "Si O2"
_cell_formula_units_Z 20
_cell_length_a 4.999239
_cell_length_b 11.514087
_cell_length_c 16.669770
_cell_angle_alpha 90.000000
_cell_angle_beta 109.917889
_cell_angle_gamma 90.000000
_cell_volume 902.141907
_symmetry_space_group_name_H-M "P 2/C"
_symmetry_group_IT_number 13
_symmetry_cell_setting 'monoclinic'
loop_
_space_group_symop_operation_xyz
x,y,z
-x,y,1/2-z
-x,-y,-z
x,-y,1/2+z
loop_
_atom_site_type_symbol
_atom_site_label
_atom_site_fract_x
_atom_site_fract_y
_atom_site_fract_z
Si Si1 0.710072 0.611626 0.844630
Si Si2 0.696529 0.268558 0.086436
Si Si3 0.155182 0.174472 0.559054
Si Si4 0.188652 0.358010 0.691272
Si Si5 0.615320 0.943988 0.932289
O O1 0.500000 0.637519 0.750000
O O2 0.538296 0.637060 0.909270
O O3 0.805091 0.477857 0.857422
O O4 0.986177 0.691475 0.860246
O O5 0.622508 0.145975 0.126140
O O6 0.652915 0.246772 0.985976
O O7 0.061696 0.257526 0.621904
O O8 0.889766 0.134359 0.478500
O O9 0.307306 0.058413 0.612959
O O10 0.500000 0.318684 0.750000
O O11 0.000000 0.375300 0.750000
O O12 0.500000 0.000000 0.000000
#
# Coordination Sequence:
#
# PCOD8121470 Si02
#       5
#     4   4   4   4   4
#     4  11  23  42  63  92 135 172 210 264 330 388
#     4  11  21  40  69  96 123 170 215 263 327 379
#     4  10  22  42  70  95 130 166 223 270 316 391
#     4  11  26  44  66  93 131 177 212 265 330 383
#     4   9  20  40  69  93 128 164 209 271 331 363
#
# _framework density 22.169463
#
# number of rings (size 3 to 8) (size 9 to 14) (size 15 to 20)
#    0.000    1.600    2.000    3.000    5.600    1.600 
#    0.000    1.000    8.800    0.000    0.000    0.000 
#    0.000    0.000    0.000    0.000    0.000    0.000 
#
# Total GULP energy -247797.884088 kJ/mol
# GULP energy per Si atom -12389.894204 kJ/mol
# Density = 2.211900 g / cm^3
# Si number density = 22.169463 Si / 1000 Ang^3
#
#
#
# Elastic Constant Matrix: (Units=GPa)
#
#
# Indices 1 2 3 4 5 6 
#
# 1 130.6794 61.1852 24.0618 0.0000 -10.4733 0.0000
# 2 61.1852 171.1673 59.7954 0.0000 -2.6594 0.0000
# 3 24.0618 59.7954 46.0828 0.0000 -12.0431 0.0000
# 4 0.0000 0.0000 0.0000 18.5577 0.0000 3.9770
# 5 -10.4733 -2.6594 -12.0431 0.0000 37.8376 0.0000
# 6 0.0000 0.0000 0.0000 3.9770 0.0000 35.5783
#
#
#
# Elastic Compliance Matrix: (Units=1/GPa)
#
#
# Indices 1 2 3 4 5 6 
#
# 1 0.009398 -0.003339 0.000048 0.000000 0.002382 0.000000
# 2 -0.003339 0.012456 -0.015742 0.000000 -0.005059 0.000000
# 3 0.000048 -0.015742 0.045608 0.000000 0.013423 0.000000
# 4 0.000000 0.000000 0.000000 0.055208 0.000000 -0.006171
# 5 0.002382 -0.005059 0.013423 0.000000 0.031005 0.000000
# 6 0.000000 0.000000 0.000000 -0.006171 0.000000 0.028797
#
#
# Mechanical properties :
#
#
# Convention : Reuss Voigt Hill
#
# Bulk Modulus (GPa) = 34.01609 70.89048 52.45329
# Shear Modulus (GPa) = 21.70732 31.92053 26.81393
#
# Velocity S-wave (km/s) = 3.13254 3.79864 3.48156
# Velocity P-wave (km/s) = 5.33486 7.16140 6.31452
#
# Compressibility (1/GPa) = 0.02939785
#
# Stress axis : x y z
#
# Youngs Moduli (GPa) = 106.40844 80.28008 21.92574
#
# Poissons Ratio (x) = 0.26807 -0.00106
# Poissons Ratio (y) = 0.35532 0.34515
# Poissons Ratio (z) = -0.00514 1.26373
#
# Static dielectric constant tensor:
#      x y z
#    x 3.683740 0.000000 0.027640 
#    y 0.000000 4.791530 0.000000 
#    z 0.027640 0.000000 3.403970 
# 
# 
# High freq. dielectric constant tensor:
#      x y z
#    x 1.896470 0.000000 -0.015680 
#    y 0.000000 1.894620 0.000000 
#    z -0.015680 0.000000 1.811060 
# 
# From -- ./inp_files/43515.got.cif
#   From: 2010.06.25/outbox.cif.g09.slc.cpg/sg13_22_cif.got.tgz:43515.got - 2010.06.28 04:50:58.
