data_PCOD8121818
_publ_section_title
;
Structure prediction by ZEFSAII (Michael W. Deem and Ramdas Pophale) SiO2 
 PCOD8121818
Probable space group: P 2/C
;
_chemical_formula_sum "Si O2"
_cell_formula_units_Z 22
_cell_length_a 16.142734
_cell_length_b 11.848247
_cell_length_c 13.443260
_cell_angle_alpha 90.000000
_cell_angle_beta 157.921595
_cell_angle_gamma 90.000000
_cell_volume 966.449703
_symmetry_space_group_name_H-M "P 2/C"
_symmetry_group_IT_number 13
_symmetry_cell_setting 'monoclinic'
loop_
_space_group_symop_operation_xyz
x,y,z
-x,y,1/2-z
-x,-y,-z
x,-y,1/2+z
loop_
_atom_site_type_symbol
_atom_site_label
_atom_site_fract_x
_atom_site_fract_y
_atom_site_fract_z
Si Si1 0.942021 0.159352 0.798517
Si Si2 0.886682 0.458404 0.027152
Si Si3 0.292868 0.975486 0.199122
Si Si4 0.583933 0.254292 0.732785
Si Si5 0.500000 0.915081 0.750000
Si Si6 0.167043 0.655615 0.672305
O O1 0.675887 0.152521 0.513970
O O2 0.000000 0.189781 0.750000
O O3 0.992689 0.263726 0.925330
O O4 0.070497 0.045215 0.980984
O O5 0.000000 0.514487 0.250000
O O6 0.067989 0.395306 0.162473
O O7 0.713050 0.370974 0.879151
O O8 0.766307 0.555001 0.829243
O O9 0.260736 0.840863 0.147819
O O10 0.500000 0.000000 0.500000
O O11 0.344090 0.011582 0.144603
O O12 0.500000 0.220951 0.750000
O O13 0.376854 0.268566 0.429706
#
# Coordination Sequence:
#
# PCOD8121818 Si02
#       6
#     4   4   4   4   2   4
#     4  10  23  42  67  97 141 178 226 276 334 407
#     4  11  25  43  68 100 134 175 229 285 344 400
#     4  11  23  40  65  99 135 177 223 278 337 401
#     4  12  24  44  70  99 135 179 229 281 339 405
#     4  10  24  42  60 102 132 178 228 268 336 402
#     4  11  24  45  68  99 135 179 225 284 341 408
#
# _framework density 22.763731
#
# number of rings (size 3 to 8) (size 9 to 14) (size 15 to 20)
#    0.000    1.091    4.545    1.091    2.545    4.364 
#    0.000    3.636    2.000    0.000    0.000    0.000 
#    0.000    0.000    0.000    0.000    0.000    0.000 
#
# Total GULP energy -272682.239075 kJ/mol
# GULP energy per Si atom -12394.647231 kJ/mol
# Density = 2.271192 g / cm^3
# Si number density = 22.763731 Si / 1000 Ang^3
#
#
#
# Elastic Constant Matrix: (Units=GPa)
#
#
# Indices 1 2 3 4 5 6 
#
# 1 78.5200 27.3812 9.9162 0.0000 -18.8478 0.0000
# 2 27.3812 115.8254 35.6145 0.0000 -7.8070 0.0000
# 3 9.9162 35.6145 117.5471 0.0000 -15.8761 0.0000
# 4 0.0000 0.0000 0.0000 7.1682 0.0000 -6.4600
# 5 -18.8478 -7.8070 -15.8761 0.0000 33.4448 0.0000
# 6 0.0000 0.0000 0.0000 -6.4600 0.0000 25.0086
#
#
#
# Elastic Compliance Matrix: (Units=1/GPa)
#
#
# Indices 1 2 3 4 5 6 
#
# 1 0.015880 -0.003442 0.000858 0.000000 0.008554 0.000000
# 2 -0.003442 0.010293 -0.002955 0.000000 -0.000940 0.000000
# 3 0.000858 -0.002955 0.009940 0.000000 0.004512 0.000000
# 4 0.000000 0.000000 0.000000 0.181835 0.000000 0.046970
# 5 0.008554 -0.000940 0.004512 0.000000 0.036643 0.000000
# 6 0.000000 0.000000 0.000000 0.046970 0.000000 0.052119
#
#
# Mechanical properties :
#
#
# Convention : Reuss Voigt Hill
#
# Bulk Modulus (GPa) = 39.94232 50.85735 45.39984
# Shear Modulus (GPa) = 15.33124 29.05635 22.19380
#
# Velocity S-wave (km/s) = 2.59799 3.57659 3.12583
# Velocity P-wave (km/s) = 5.15597 6.28060 5.74586
#
# Compressibility (1/GPa) = 0.02503610
#
# Stress axis : x y z
#
# Youngs Moduli (GPa) = 62.97031 97.15759 100.60802
#
# Poissons Ratio (x) = 0.33437 -0.08635
# Poissons Ratio (y) = 0.21671 0.29730
# Poissons Ratio (z) = -0.05405 0.28710
#
# Static dielectric constant tensor:
#      x y z
#    x 4.048310 0.000000 -0.195030 
#    y 0.000000 4.126900 0.000000 
#    z -0.195030 0.000000 4.492170 
# 
# 
# High freq. dielectric constant tensor:
#      x y z
#    x 1.902790 0.000000 -0.021670 
#    y 0.000000 1.894710 0.000000 
#    z -0.021670 0.000000 1.901550 
# 
# From -- ./inp_files/55738.got.cif
#   From: 2010.06.25/outbox.cif.g09.slc.cpg/sg13_28_cif.got.tgz:55738.got - 2010.06.28 04:50:58.
