data_PCOD8121718
_publ_section_title
;
Structure prediction by ZEFSAII (Michael W. Deem and Ramdas Pophale) SiO2 
 PCOD8121718
Probable space group: P 2/C
;
_chemical_formula_sum "Si O2"
_cell_formula_units_Z 20
_cell_length_a 11.727058
_cell_length_b 6.661969
_cell_length_c 16.205685
_cell_angle_alpha 90.000000
_cell_angle_beta 129.694034
_cell_angle_gamma 90.000000
_cell_volume 974.200939
_symmetry_space_group_name_H-M "P 2/C"
_symmetry_group_IT_number 13
_symmetry_cell_setting 'monoclinic'
loop_
_space_group_symop_operation_xyz
x,y,z
-x,y,1/2-z
-x,-y,-z
x,-y,1/2+z
loop_
_atom_site_type_symbol
_atom_site_label
_atom_site_fract_x
_atom_site_fract_y
_atom_site_fract_z
Si Si1 0.402362 0.114832 0.389975
Si Si2 0.863713 0.604876 0.481172
Si Si3 0.662217 0.094250 0.800564
Si Si4 0.861443 0.890848 0.629110
Si Si5 0.306448 0.777241 0.546937
O O1 0.266147 0.222975 0.374968
O O2 0.520118 0.258639 0.397790
O O3 0.500000 0.000000 0.500000
O O4 0.329359 0.958396 0.291793
O O5 0.778675 0.729717 0.371832
O O6 0.915292 0.751990 0.578617
O O7 0.757760 0.442362 0.473025
O O8 0.000000 0.500000 0.500000
O O9 0.500000 0.174881 0.750000
O O10 0.701710 0.895724 0.870794
O O11 0.000000 0.944577 0.750000
O O12 0.789214 0.099065 0.564428
#
# Coordination Sequence:
#
# PCOD8121718 Si02
#       5
#     4   4   4   4   4
#     4   9  19  40  64  88 116 162 207 257 311 355
#     4  11  25  40  60  97 130 163 209 250 310 383
#     4   9  20  40  65  89 121 164 211 252 305 372
#     4  10  23  40  61  90 127 163 208 260 310 364
#     4   9  21  41  63  87 122 168 206 251 311 373
#
# _framework density 20.529644999999999
#
# number of rings (size 3 to 8) (size 9 to 14) (size 15 to 20)
#    0.000    2.400    0.000    1.200    5.600    5.600 
#    3.600    0.000    0.000    0.000    0.000    0.000 
#    0.000    0.000    0.000    0.000    0.000    0.000 
#
# Total GULP energy -247905.454174 kJ/mol
# GULP energy per Si atom -12395.272709 kJ/mol
# Density = 2.048292 g / cm^3
# Si number density = 20.529645 Si / 1000 Ang^3
#
#
#
# Elastic Constant Matrix: (Units=GPa)
#
#
# Indices 1 2 3 4 5 6 
#
# 1 110.8305 8.6726 37.4727 0.0000 -2.8039 0.0000
# 2 8.6726 46.4184 29.4348 0.0000 -5.1605 0.0000
# 3 37.4727 29.4348 153.1043 0.0000 -7.0889 0.0000
# 4 0.0000 0.0000 0.0000 20.0579 0.0000 6.3834
# 5 -2.8039 -5.1605 -7.0889 0.0000 30.6864 0.0000
# 6 0.0000 0.0000 0.0000 6.3834 0.0000 28.2624
#
#
#
# Elastic Compliance Matrix: (Units=1/GPa)
#
#
# Indices 1 2 3 4 5 6 
#
# 1 0.009845 -0.000326 -0.002333 0.000000 0.000306 0.000000
# 2 -0.000326 0.024834 -0.004551 0.000000 0.003095 0.000000
# 3 -0.002333 -0.004551 0.008018 0.000000 0.000874 0.000000
# 4 0.000000 0.000000 0.000000 0.053717 0.000000 -0.012133
# 5 0.000306 0.003095 0.000874 0.000000 0.033338 0.000000
# 6 0.000000 0.000000 0.000000 -0.012133 0.000000 0.038123
#
#
# Mechanical properties :
#
#
# Convention : Reuss Voigt Hill
#
# Bulk Modulus (GPa) = 35.36490 51.27926 43.32208
# Shear Modulus (GPa) = 26.07963 31.45289 28.76626
#
# Velocity S-wave (km/s) = 3.56805 3.91842 3.74733
# Velocity P-wave (km/s) = 5.85135 6.74569 6.31437
#
# Compressibility (1/GPa) = 0.02827662
#
# Stress axis : x y z
#
# Youngs Moduli (GPa) = 101.57712 40.26683 124.72118
#
# Poissons Ratio (x) = 0.01313 0.29093
# Poissons Ratio (y) = 0.03313 0.56765
# Poissons Ratio (z) = 0.23694 0.18327
#
# Static dielectric constant tensor:
#      x y z
#    x 4.556080 0.000000 0.029250 
#    y 0.000000 3.301110 0.000000 
#    z 0.029250 0.000000 3.937040 
# 
# 
# High freq. dielectric constant tensor:
#      x y z
#    x 1.816480 0.000000 -0.001130 
#    y 0.000000 1.763270 0.000000 
#    z -0.001130 0.000000 1.820800 
# 
# From -- ./inp_files/65486.got.cif
#   From: 2010.06.25/outbox.cif.g09.slc.cpg/sg13_33_cif.got.tgz:65486.got - 2010.06.28 04:50:58.
