data_PCOD8121885
_publ_section_title
;
Structure prediction by ZEFSAII (Michael W. Deem and Ramdas Pophale) SiO2 
 PCOD8121885
Probable space group: P 2/C
;
_chemical_formula_sum "Si O2"
_cell_formula_units_Z 22
_cell_length_a 15.821568
_cell_length_b 11.201871
_cell_length_c 12.959451
_cell_angle_alpha 90.000000
_cell_angle_beta 155.571635
_cell_angle_gamma 90.000000
_cell_volume 949.861325
_symmetry_space_group_name_H-M "P 2/C"
_symmetry_group_IT_number 13
_symmetry_cell_setting 'monoclinic'
loop_
_space_group_symop_operation_xyz
x,y,z
-x,y,1/2-z
-x,-y,-z
x,-y,1/2+z
loop_
_atom_site_type_symbol
_atom_site_label
_atom_site_fract_x
_atom_site_fract_y
_atom_site_fract_z
Si Si1 0.285505 0.105808 0.692913
Si Si2 0.351127 0.842683 0.760674
Si Si3 0.997532 0.742949 0.991958
Si Si4 0.500000 0.243648 0.750000
Si Si5 0.788233 0.689090 0.073734
Si Si6 0.152118 0.424061 0.325032
O O1 0.399934 0.161864 0.724402
O O2 0.067632 0.167511 0.477754
O O3 0.238885 0.968335 0.611733
O O4 0.425445 0.124096 0.950016
O O5 0.221368 0.777201 0.704500
O O6 0.372753 0.758017 0.680978
O O7 0.978335 0.607345 0.924169
O O8 0.175996 0.750967 0.276508
O O9 0.325152 0.324986 0.508441
O O10 0.733899 0.551470 0.039255
O O11 0.000000 0.691398 0.250000
O O12 0.000000 0.405159 0.250000
#
# Coordination Sequence:
#
# PCOD8121885 Si02
#       6
#     4   4   4   2   4   4
#     4  11  24  40  68  93 131 173 214 267 324 389
#     4  10  23  44  63  97 132 166 218 269 321 391
#     4  11  21  42  66  98 126 170 217 265 329 382
#     4  12  24  42  60  96 128 174 216 270 324 382
#     4   9  22  42  66  95 132 170 215 269 329 384
#     4  11  22  42  66  93 130 172 219 270 322 386
#
# _framework density 23.161276000000001
#
# number of rings (size 3 to 8) (size 9 to 14) (size 15 to 20)
#    0.000    1.455    3.636    1.091    0.000    5.091 
#    9.818    1.818    0.000    0.000    0.000    0.000 
#    0.000    0.000    0.000    0.000    0.000    0.000 
#
# Total GULP energy -272606.046308 kJ/mol
# GULP energy per Si atom -12391.183923 kJ/mol
# Density = 2.310856 g / cm^3
# Si number density = 23.161276 Si / 1000 Ang^3
#
#
#
# Elastic Constant Matrix: (Units=GPa)
#
#
# Indices 1 2 3 4 5 6 
#
# 1 105.6239 59.4600 1.6698 0.0000 -0.2103 0.0000
# 2 59.4600 167.0698 20.4217 0.0000 -24.8476 0.0000
# 3 1.6698 20.4217 57.1479 0.0000 -19.9256 0.0000
# 4 0.0000 0.0000 0.0000 34.8852 0.0000 -9.9709
# 5 -0.2103 -24.8476 -19.9256 0.0000 26.3404 0.0000
# 6 0.0000 0.0000 0.0000 -9.9709 0.0000 24.0489
#
#
#
# Elastic Compliance Matrix: (Units=1/GPa)
#
#
# Indices 1 2 3 4 5 6 
#
# 1 0.012322 -0.005081 -0.000246 0.000000 -0.004881 0.000000
# 2 -0.005081 0.009061 -0.000168 0.000000 0.008380 0.000000
# 3 -0.000246 -0.000168 0.023782 0.000000 0.017831 0.000000
# 4 0.000000 0.000000 0.000000 0.032519 0.000000 0.013483
# 5 -0.004881 0.008380 0.017831 0.000000 0.059319 0.000000
# 6 0.000000 0.000000 0.000000 0.013483 0.000000 0.047172
#
#
# Mechanical properties :
#
#
# Convention : Reuss Voigt Hill
#
# Bulk Modulus (GPa) = 29.26085 54.77160 42.01623
# Shear Modulus (GPa) = 24.20640 33.60758 28.90699
#
# Velocity S-wave (km/s) = 3.23634 3.81336 3.53664
# Velocity P-wave (km/s) = 5.16006 6.56416 5.90400
#
# Compressibility (1/GPa) = 0.03417536
#
# Stress axis : x y z
#
# Youngs Moduli (GPa) = 81.15419 110.36599 42.04778
#
# Poissons Ratio (x) = 0.56081 0.01035
# Poissons Ratio (y) = 0.41237 0.00705
# Poissons Ratio (z) = 0.01997 0.01850
#
# Static dielectric constant tensor:
#      x y z
#    x 4.127230 0.000000 -0.137080 
#    y 0.000000 4.414150 0.000000 
#    z -0.137080 0.000000 3.932430 
# 
# 
# High freq. dielectric constant tensor:
#      x y z
#    x 1.929340 0.000000 -0.001930 
#    y 0.000000 1.915830 0.000000 
#    z -0.001930 0.000000 1.906400 
# 
# From -- ./inp_files/37263.got.cif
#   From: 2010.06.25/outbox.cif.g09.slc.cpg/sg13_19_cif.got.tgz:37263.got - 2010.06.28 04:50:58.
