data_PCOD8121671
_publ_section_title
;
Structure prediction by ZEFSAII (Michael W. Deem and Ramdas Pophale) SiO2 
 PCOD8121671
Probable space group: P 2/C
;
_chemical_formula_sum "Si O2"
_cell_formula_units_Z 16
_cell_length_a 5.840491
_cell_length_b 10.871725
_cell_length_c 10.851553
_cell_angle_alpha 90.000000
_cell_angle_beta 105.527155
_cell_angle_gamma 90.000000
_cell_volume 663.885365
_symmetry_space_group_name_H-M "P 2/C"
_symmetry_group_IT_number 13
_symmetry_cell_setting 'monoclinic'
loop_
_space_group_symop_operation_xyz
x,y,z
-x,y,1/2-z
-x,-y,-z
x,-y,1/2+z
loop_
_atom_site_type_symbol
_atom_site_label
_atom_site_fract_x
_atom_site_fract_y
_atom_site_fract_z
Si Si1 0.365041 0.728057 0.842833
Si Si2 0.877217 0.869292 0.484198
Si Si3 0.000000 0.467654 0.250000
Si Si4 0.227111 0.672704 0.420422
Si Si5 0.500000 0.793101 0.250000
O O1 0.500000 0.797896 0.750000
O O2 0.219296 0.621784 0.750090
O O3 0.199149 0.827036 0.889201
O O4 0.537402 0.657974 0.963669
O O5 0.640416 0.878379 0.367017
O O6 0.063338 0.773753 0.458520
O O7 0.000000 0.000000 0.500000
O O8 0.925750 0.547849 0.119061
O O9 0.307098 0.709947 0.293599
#
# Coordination Sequence:
#
# PCOD8121671 Si02
#       5
#     4   4   2   4   2
#     4  11  27  45  71 112 146 192 237 299 366 428
#     4  11  25  51  74 105 144 190 245 301 361 432
#     4  12  24  46  74 108 152 186 246 298 354 438
#     4  11  24  48  73 107 144 195 238 297 364 423
#     4  10  22  46  76 106 136 190 244 292 368 420
#
# _framework density 24.100546999999999
#
# number of rings (size 3 to 8) (size 9 to 14) (size 15 to 20)
#    0.000    1.000    2.500    2.250    1.750    8.000 
#   22.500    0.000    0.000    0.000    0.000    0.000 
#    0.000    0.000    0.000    0.000    0.000    0.000 
#
# Total GULP energy -198390.394690 kJ/mol
# GULP energy per Si atom -12399.399668 kJ/mol
# Density = 2.404569 g / cm^3
# Si number density = 24.100547 Si / 1000 Ang^3
#
#
#
# Elastic Constant Matrix: (Units=GPa)
#
#
# Indices 1 2 3 4 5 6 
#
# 1 142.8931 77.9128 64.4633 0.0000 -24.4418 0.0000
# 2 77.9128 142.8758 58.5140 0.0000 -6.8209 0.0000
# 3 64.4633 58.5140 109.9662 0.0000 -22.6420 0.0000
# 4 0.0000 0.0000 0.0000 26.7088 0.0000 11.5918
# 5 -24.4418 -6.8209 -22.6420 0.0000 68.2077 0.0000
# 6 0.0000 0.0000 0.0000 11.5918 0.0000 27.6101
#
#
#
# Elastic Compliance Matrix: (Units=1/GPa)
#
#
# Indices 1 2 3 4 5 6 
#
# 1 0.011720 -0.004689 -0.003872 0.000000 0.002446 0.000000
# 2 -0.004689 0.010860 -0.003384 0.000000 -0.001717 0.000000
# 3 -0.003872 -0.003384 0.013748 0.000000 0.002838 0.000000
# 4 0.000000 0.000000 0.000000 0.045783 0.000000 -0.019222
# 5 0.002446 -0.001717 0.002838 0.000000 0.016308 0.000000
# 6 0.000000 0.000000 0.000000 -0.019222 0.000000 0.044289
#
#
# Mechanical properties :
#
#
# Convention : Reuss Voigt Hill
#
# Bulk Modulus (GPa) = 80.38916 88.61279 84.50097
# Shear Modulus (GPa) = 29.28399 37.49497 33.38948
#
# Velocity S-wave (km/s) = 3.48958 3.94861 3.72617
# Velocity P-wave (km/s) = 7.04729 7.59187 7.32464
#
# Compressibility (1/GPa) = 0.01243949
#
# Stress axis : x y z
#
# Youngs Moduli (GPa) = 85.32668 92.08465 72.73669
#
# Poissons Ratio (x) = 0.43174 0.28163
# Poissons Ratio (y) = 0.40005 0.24611
# Poissons Ratio (z) = 0.33037 0.31158
#
# Static dielectric constant tensor:
#      x y z
#    x 4.693720 0.000000 0.224600 
#    y 0.000000 4.055540 0.000000 
#    z 0.224600 0.000000 4.735140 
# 
# 
# High freq. dielectric constant tensor:
#      x y z
#    x 1.981050 0.000000 0.013260 
#    y 0.000000 1.924860 0.000000 
#    z 0.013260 0.000000 1.970780 
# 
# From -- ./inp_files/25877.got.cif
#   From: 2010.06.25/outbox.cif.g09.slc.cpg/sg13_13_cif.got.tgz:25877.got - 2010.06.28 04:50:58.
