data_PCOD8121969
_publ_section_title
;
Structure prediction by ZEFSAII (Michael W. Deem and Ramdas Pophale) SiO2 
 PCOD8121969
Probable space group: P 2/C
;
_chemical_formula_sum "Si O2"
_cell_formula_units_Z 30
_cell_length_a 17.042122
_cell_length_b 6.237683
_cell_length_c 13.591490
_cell_angle_alpha 90.000000
_cell_angle_beta 112.812246
_cell_angle_gamma 90.000000
_cell_volume 1331.807527
_symmetry_space_group_name_H-M "P 2/C"
_symmetry_group_IT_number 13
_symmetry_cell_setting 'monoclinic'
loop_
_space_group_symop_operation_xyz
x,y,z
-x,y,1/2-z
-x,-y,-z
x,-y,1/2+z
loop_
_atom_site_type_symbol
_atom_site_label
_atom_site_fract_x
_atom_site_fract_y
_atom_site_fract_z
Si Si1 0.480195 0.558415 0.099842
Si Si2 0.882709 0.069810 0.383686
Si Si3 0.175082 0.627353 0.466432
Si Si4 0.373016 0.137623 0.771752
Si Si5 0.697177 0.724270 0.454114
Si Si6 0.765834 0.035288 0.649149
Si Si7 0.953614 0.311380 0.032582
Si Si8 0.500000 0.199151 0.250000
O O1 0.401892 0.724090 0.062711
O O2 0.454684 0.344394 0.145568
O O3 0.563036 0.661713 0.191569
O O4 0.500000 0.500000 0.000000
O O5 0.847903 0.225191 0.451842
O O6 0.974835 0.153029 0.387639
O O7 0.819823 0.076560 0.260938
O O8 0.893366 0.828477 0.430593
O O9 0.266205 0.516497 0.529825
O O10 0.181340 0.764222 0.369256
O O11 0.106659 0.432993 0.417549
O O12 0.426498 0.930144 0.769005
O O13 0.299622 0.178364 0.654470
O O14 0.325600 0.107319 0.852576
O O15 0.751116 0.870240 0.553839
O O16 0.000000 0.500000 0.000000
#
# Coordination Sequence:
#
# PCOD8121969 Si02
#       8
#     4   4   4   4   4   4   4   2
#     4  12  26  44  70 101 132 183 243 288 358 420
#     4  10  23  47  72 103 139 183 231 282 352 419
#     4  11  24  43  69 100 139 180 228 287 347 412
#     4  12  26  46  69 100 138 186 238 294 355 418
#     4  12  26  45  65 100 138 180 229 290 351 414
#     4  12  27  41  69 105 140 181 232 291 351 422
#     4   9  20  45  75  97 136 181 224 283 346 417
#     4  12  24  46  72  94 136 184 238 304 348 424
#
# _framework density 22.525776
#
# number of rings (size 3 to 8) (size 9 to 14) (size 15 to 20)
#    0.000    0.800    2.667    4.000    5.600    5.333 
#    0.000   16.000    0.000    0.000    0.000    0.000 
#    0.000    0.000    0.000    0.000    0.000    0.000 
#
# Total GULP energy -372038.879986 kJ/mol
# GULP energy per Si atom -12401.296000 kJ/mol
# Density = 2.247451 g / cm^3
# Si number density = 22.525776 Si / 1000 Ang^3
#
#
#
# Elastic Constant Matrix: (Units=GPa)
#
#
# Indices 1 2 3 4 5 6 
#
# 1 123.6183 52.7754 43.8211 0.0000 -7.4413 0.0000
# 2 52.7754 121.8026 45.2379 0.0000 -8.5596 0.0000
# 3 43.8211 45.2379 95.0652 0.0000 -2.6298 0.0000
# 4 0.0000 0.0000 0.0000 29.9381 0.0000 0.7500
# 5 -7.4413 -8.5596 -2.6298 0.0000 36.4151 0.0000
# 6 0.0000 0.0000 0.0000 0.7500 0.0000 48.5756
#
#
#
# Elastic Compliance Matrix: (Units=1/GPa)
#
#
# Indices 1 2 3 4 5 6 
#
# 1 0.010772 -0.003344 -0.003342 0.000000 0.001174 0.000000
# 2 -0.003344 0.011159 -0.003722 0.000000 0.001671 0.000000
# 3 -0.003342 -0.003722 0.013815 0.000000 -0.000560 0.000000
# 4 0.000000 0.000000 0.000000 0.033415 0.000000 -0.000516
# 5 0.001174 0.001671 -0.000560 0.000000 0.028053 0.000000
# 6 0.000000 0.000000 0.000000 -0.000516 0.000000 0.020594
#
#
# Mechanical properties :
#
#
# Convention : Reuss Voigt Hill
#
# Bulk Modulus (GPa) = 66.97841 69.35052 68.16447
# Shear Modulus (GPa) = 34.81833 36.22921 35.52377
#
# Velocity S-wave (km/s) = 3.93582 4.01477 3.97549
# Velocity P-wave (km/s) = 7.10302 7.23500 7.16931
#
# Compressibility (1/GPa) = 0.01493018
#
# Stress axis : x y z
#
# Youngs Moduli (GPa) = 92.83081 89.61562 72.38264
#
# Poissons Ratio (x) = 0.29965 0.24190
# Poissons Ratio (y) = 0.31041 0.26944
# Poissons Ratio (z) = 0.31023 0.33359
#
# Static dielectric constant tensor:
#      x y z
#    x 4.461770 0.000000 0.070960 
#    y 0.000000 4.315800 0.000000 
#    z 0.070960 0.000000 3.893730 
# 
# 
# High freq. dielectric constant tensor:
#      x y z
#    x 1.908380 0.000000 0.003650 
#    y 0.000000 1.899170 0.000000 
#    z 0.003650 0.000000 1.870400 
# 
# From -- ./inp_files/54750.got.cif
#   From: 2010.06.25/outbox.cif.g09.slc.cpg/sg13_28_cif.got.tgz:54750.got - 2010.06.28 04:50:58.
