data_PCOD8121018
_publ_section_title
;
Structure prediction by ZEFSAII (Michael W. Deem and Ramdas Pophale) SiO2 
 PCOD8121018
Probable space group: P 2/C
;
_chemical_formula_sum "Si O2"
_cell_formula_units_Z 26
_cell_length_a 15.008914
_cell_length_b 6.425015
_cell_length_c 12.947162
_cell_angle_alpha 90.000000
_cell_angle_beta 76.493819
_cell_angle_gamma 90.000000
_cell_volume 1213.998814
_symmetry_space_group_name_H-M "P 2/C"
_symmetry_group_IT_number 13
_symmetry_cell_setting 'monoclinic'
loop_
_space_group_symop_operation_xyz
x,y,z
-x,y,1/2-z
-x,-y,-z
x,-y,1/2+z
loop_
_atom_site_type_symbol
_atom_site_label
_atom_site_fract_x
_atom_site_fract_y
_atom_site_fract_z
Si Si1 0.584070 0.119720 0.355335
Si Si2 0.035331 0.221781 0.599578
Si Si3 0.873001 0.428389 0.730684
Si Si4 0.267673 0.133799 0.794007
Si Si5 0.090990 0.854926 0.861103
Si Si6 0.420735 0.803732 0.410199
Si Si7 0.500000 0.547235 0.750000
O O1 0.595411 0.221884 0.464341
O O2 0.580885 0.309957 0.275267
O O3 0.668789 0.966110 0.311833
O O4 0.489798 0.992308 0.369088
O O5 0.101857 0.313058 0.669269
O O6 0.086431 0.241534 0.477166
O O7 0.942240 0.355577 0.621424
O O8 0.003718 0.982316 0.634698
O O9 0.768019 0.363491 0.732171
O O10 0.888064 0.677346 0.730494
O O11 0.323578 0.146017 0.884852
O O12 0.177352 0.003525 0.836085
O O13 0.459228 0.589965 0.353321
#
# Coordination Sequence:
#
# PCOD8121018 Si02
#       7
#     4   4   4   4   4   4   2
#     4  11  24  43  66  92 128 178 210 271 320 382
#     4   9  21  43  64  89 123 170 213 253 316 389
#     4  10  22  38  64  95 123 162 212 261 316 383
#     4  11  23  41  58  98 129 161 215 271 318 380
#     4  10  22  41  66  91 128 167 210 267 316 375
#     4  11  24  43  66  90 130 173 220 259 327 389
#     4  12  20  44  68  94 120 176 222 270 318 396
#
# _framework density 21.416826
#
# number of rings (size 3 to 8) (size 9 to 14) (size 15 to 20)
#    0.000    1.538    3.077    0.923    4.308    4.923 
#    2.769    0.000    0.000    0.000    0.000    0.000 
#    0.000    0.000    0.000    0.000    0.000    0.000 
#
# Total GULP energy -322295.043853 kJ/mol
# GULP energy per Si atom -12395.963225 kJ/mol
# Density = 2.136808 g / cm^3
# Si number density = 21.416826 Si / 1000 Ang^3
#
#
#
# Elastic Constant Matrix: (Units=GPa)
#
#
# Indices 1 2 3 4 5 6 
#
# 1 109.3085 35.8235 31.3905 0.0000 15.5612 0.0000
# 2 35.8235 108.7488 33.0088 0.0000 16.4733 0.0000
# 3 31.3905 33.0088 93.9084 0.0000 15.4522 0.0000
# 4 0.0000 0.0000 0.0000 31.8825 0.0000 -0.9334
# 5 15.5612 16.4733 15.4522 0.0000 23.5748 0.0000
# 6 0.0000 0.0000 0.0000 -0.9334 0.0000 29.9309
#
#
#
# Elastic Compliance Matrix: (Units=1/GPa)
#
#
# Indices 1 2 3 4 5 6 
#
# 1 0.011162 -0.002362 -0.002197 0.000000 -0.004277 0.000000
# 2 -0.002362 0.011447 -0.002437 0.000000 -0.004842 0.000000
# 3 -0.002197 -0.002437 0.013138 0.000000 -0.005458 0.000000
# 4 0.000000 0.000000 0.000000 0.031394 0.000000 0.000979
# 5 -0.004277 -0.004842 -0.005458 0.000000 0.052203 0.000000
# 6 0.000000 0.000000 0.000000 0.000979 0.000000 0.033441
#
#
# Mechanical properties :
#
#
# Convention : Reuss Voigt Hill
#
# Bulk Modulus (GPa) = 45.96844 56.93459 51.45151
# Shear Modulus (GPa) = 28.73084 31.19382 29.96233
#
# Velocity S-wave (km/s) = 3.66663 3.82057 3.74439
# Velocity P-wave (km/s) = 6.27980 6.79000 6.53988
#
# Compressibility (1/GPa) = 0.02175405
#
# Stress axis : x y z
#
# Youngs Moduli (GPa) = 89.58590 87.35977 76.11586
#
# Poissons Ratio (x) = 0.20637 0.16723
# Poissons Ratio (y) = 0.21162 0.18551
# Poissons Ratio (z) = 0.19683 0.21292
#
# Static dielectric constant tensor:
#      x y z
#    x 3.854930 0.000000 0.026250 
#    y 0.000000 4.118850 0.000000 
#    z 0.026250 0.000000 3.810590 
# 
# 
# High freq. dielectric constant tensor:
#      x y z
#    x 1.833030 0.000000 0.006130 
#    y 0.000000 1.848940 0.000000 
#    z 0.006130 0.000000 1.834460 
# 
# From -- ./inp_files/52193.got.cif
#   From: 2010.06.25/outbox.cif.g09.slc.cpg/sg13_27_cif.got.tgz:52193.got - 2010.06.28 04:50:58.
