data_PCOD8121111
_publ_section_title
;
Structure prediction by ZEFSAII (Michael W. Deem and Ramdas Pophale) SiO2 
 PCOD8121111
Probable space group: P 2/C
;
_chemical_formula_sum "Si O2"
_cell_formula_units_Z 20
_cell_length_a 8.971803
_cell_length_b 5.489752
_cell_length_c 23.346549
_cell_angle_alpha 90.000000
_cell_angle_beta 51.520749
_cell_angle_gamma 90.000000
_cell_volume 900.170080
_symmetry_space_group_name_H-M "P 2/C"
_symmetry_group_IT_number 13
_symmetry_cell_setting 'monoclinic'
loop_
_space_group_symop_operation_xyz
x,y,z
-x,y,1/2-z
-x,-y,-z
x,-y,1/2+z
loop_
_atom_site_type_symbol
_atom_site_label
_atom_site_fract_x
_atom_site_fract_y
_atom_site_fract_z
Si Si1 0.339343 0.461700 0.492128
Si Si2 0.806867 0.230678 0.193783
Si Si3 0.187245 0.835275 0.454028
Si Si4 0.456148 0.778139 0.852577
Si Si5 0.970893 0.717396 0.121262
O O1 0.500000 0.500000 0.500000
O O2 0.201426 0.693128 0.511265
O O3 0.435997 0.421922 0.407190
O O4 0.194951 0.256589 0.550437
O O5 0.676690 0.271760 0.169735
O O6 0.675935 0.209335 0.281626
O O7 0.936567 0.476234 0.169196
O O8 0.920631 0.974573 0.163508
O O9 0.156772 0.668501 0.405026
O O10 0.387429 0.973200 0.398722
O O11 0.000000 0.000000 0.500000
#
# Coordination Sequence:
#
# PCOD8121111 Si02
#       5
#     4   4   4   4   4
#     4  12  25  41  68  99 142 180 230 287 350 417
#     4  10  23  39  71  98 134 172 232 287 339 405
#     4  11  21  41  69  97 129 175 230 291 334 404
#     4  10  22  39  65 101 132 173 226 287 340 403
#     4  11  22  42  67 101 128 176 227 282 341 405
#
# _framework density 22.218021
#
# number of rings (size 3 to 8) (size 9 to 14) (size 15 to 20)
#    0.000    1.200    4.000    3.000    2.800    2.400 
#    0.000    1.000    0.000    0.000    0.000    0.000 
#    0.000    0.000    0.000    0.000    0.000    0.000 
#
# Total GULP energy -247808.291415 kJ/mol
# GULP energy per Si atom -12390.414571 kJ/mol
# Density = 2.216745 g / cm^3
# Si number density = 22.218021 Si / 1000 Ang^3
#
#
#
# Elastic Constant Matrix: (Units=GPa)
#
#
# Indices 1 2 3 4 5 6 
#
# 1 76.2031 39.3446 23.5809 0.0000 4.2988 0.0000
# 2 39.3446 141.5111 63.2775 0.0000 -10.9669 0.0000
# 3 23.5809 63.2775 158.5951 0.0000 -12.8379 0.0000
# 4 0.0000 0.0000 0.0000 33.1719 0.0000 -10.9165
# 5 4.2988 -10.9669 -12.8379 0.0000 14.0516 0.0000
# 6 0.0000 0.0000 0.0000 -10.9165 0.0000 16.7417
#
#
#
# Elastic Compliance Matrix: (Units=1/GPa)
#
#
# Indices 1 2 3 4 5 6 
#
# 1 0.016580 -0.004775 -0.001374 0.000000 -0.010054 0.000000
# 2 -0.004775 0.010175 -0.002795 0.000000 0.006848 0.000000
# 3 -0.001374 -0.002795 0.008080 0.000000 0.005621 0.000000
# 4 0.000000 0.000000 0.000000 0.038382 0.000000 0.025027
# 5 -0.010054 0.006848 0.005621 0.000000 0.084722 0.000000
# 6 0.000000 0.000000 0.000000 0.025027 0.000000 0.076051
#
#
# Mechanical properties :
#
#
# Convention : Reuss Voigt Hill
#
# Bulk Modulus (GPa) = 59.00779 69.85724 64.43252
# Shear Modulus (GPa) = 19.41545 29.46679 24.44112
#
# Velocity S-wave (km/s) = 2.95932 3.64573 3.32031
# Velocity P-wave (km/s) = 6.18813 7.01654 6.61531
#
# Compressibility (1/GPa) = 0.01694691
#
# Stress axis : x y z
#
# Youngs Moduli (GPa) = 60.31203 98.28269 123.76276
#
# Poissons Ratio (x) = 0.46926 0.17007
# Poissons Ratio (y) = 0.28797 0.34596
# Poissons Ratio (z) = 0.08288 0.27473
#
# Static dielectric constant tensor:
#      x y z
#    x 3.490180 0.000000 -0.063990 
#    y 0.000000 4.117370 0.000000 
#    z -0.063990 0.000000 4.627640 
# 
# 
# High freq. dielectric constant tensor:
#      x y z
#    x 1.818350 0.000000 -0.013360 
#    y 0.000000 1.882240 0.000000 
#    z -0.013360 0.000000 1.888030 
# 
# From -- ./inp_files/62414.got.cif
#   From: 2010.06.25/outbox.cif.g09.slc.cpg/sg13_32_cif.got.tgz:62414.got - 2010.06.28 04:50:58.
