data_PCOD8121061
_publ_section_title
;
Structure prediction by ZEFSAII (Michael W. Deem and Ramdas Pophale) SiO2 
 PCOD8121061
Probable space group: P 2/C
;
_chemical_formula_sum "Si O2"
_cell_formula_units_Z 28
_cell_length_a 29.932855
_cell_length_b 8.458426
_cell_length_c 9.860777
_cell_angle_alpha 90.000000
_cell_angle_beta 147.173345
_cell_angle_gamma 90.000000
_cell_volume 1353.404444
_symmetry_space_group_name_H-M "P 2/C"
_symmetry_group_IT_number 13
_symmetry_cell_setting 'monoclinic'
loop_
_space_group_symop_operation_xyz
x,y,z
-x,y,1/2-z
-x,-y,-z
x,-y,1/2+z
loop_
_atom_site_type_symbol
_atom_site_label
_atom_site_fract_x
_atom_site_fract_y
_atom_site_fract_z
Si Si1 0.530309 0.827930 0.529594
Si Si2 0.610933 0.696589 0.476987
Si Si3 0.923367 0.169752 0.725466
Si Si4 0.588393 0.327051 0.431359
Si Si5 0.780873 0.397701 0.326492
Si Si6 0.756739 0.677417 0.463409
Si Si7 0.100494 0.905886 0.629193
O O1 0.581404 0.819866 0.518058
O O2 0.444596 0.731162 0.297049
O O3 0.593542 0.736527 0.790779
O O4 0.500000 0.000000 0.500000
O O5 0.593727 0.514468 0.468920
O O6 0.707945 0.719593 0.692557
O O7 0.870750 0.330199 0.593491
O O8 0.895859 0.067537 0.523556
O O9 0.905777 0.076188 0.818278
O O10 0.021328 0.204022 0.965683
O O11 0.500000 0.258669 0.250000
O O12 0.663680 0.254585 0.711449
O O13 0.773264 0.567288 0.375730
O O14 0.770860 0.418708 0.138983
O O15 0.817388 0.824507 0.607965
#
# Coordination Sequence:
#
# PCOD8121061 Si02
#       7
#     4   4   4   4   4   4   4
#     4  11  24  40  59  90 121 156 206 264 308 351
#     4  10  23  41  60  86 118 160 210 249 303 377
#     4   9  19  38  62  84 124 157 198 244 303 364
#     4  11  22  38  66  80 119 164 204 245 304 372
#     4  10  22  39  59  90 121 156 197 254 295 362
#     4  10  23  37  61  91 119 154 206 247 300 352
#     4   9  19  39  60  89 116 161 200 244 301 364
#
# _framework density 20.688569999999999
#
# number of rings (size 3 to 8) (size 9 to 14) (size 15 to 20)
#    0.000    2.000    1.429    1.286   10.000    2.857 
#    5.143    0.000    0.000    0.000    0.000    0.000 
#    0.000    0.000    0.000    0.000    0.000    0.000 
#
# Total GULP energy -347011.857860 kJ/mol
# GULP energy per Si atom -12393.280638 kJ/mol
# Density = 2.064148 g / cm^3
# Si number density = 20.688570 Si / 1000 Ang^3
#
#
#
# Elastic Constant Matrix: (Units=GPa)
#
#
# Indices 1 2 3 4 5 6 
#
# 1 60.3771 13.3543 18.0789 0.0000 2.1792 0.0000
# 2 13.3543 39.6250 20.2059 0.0000 1.6291 0.0000
# 3 18.0789 20.2059 129.8883 0.0000 19.5529 0.0000
# 4 0.0000 0.0000 0.0000 29.2913 0.0000 0.1932
# 5 2.1792 1.6291 19.5529 0.0000 32.6590 0.0000
# 6 0.0000 0.0000 0.0000 0.1932 0.0000 29.1722
#
#
#
# Elastic Compliance Matrix: (Units=1/GPa)
#
#
# Indices 1 2 3 4 5 6 
#
# 1 0.018244 -0.005269 -0.001732 0.000000 0.000082 0.000000
# 2 -0.005269 0.028983 -0.003968 0.000000 0.001282 0.000000
# 3 -0.001732 -0.003968 0.009353 0.000000 -0.005286 0.000000
# 4 0.000000 0.000000 0.000000 0.034141 0.000000 -0.000226
# 5 0.000082 0.001282 -0.005286 0.000000 0.033715 0.000000
# 6 0.000000 0.000000 0.000000 -0.000226 0.000000 0.034281
#
#
# Mechanical properties :
#
#
# Convention : Reuss Voigt Hill
#
# Bulk Modulus (GPa) = 28.86686 37.01872 32.94279
# Shear Modulus (GPa) = 26.01433 30.10792 28.06112
#
# Velocity S-wave (km/s) = 3.54987 3.81897 3.68687
# Velocity P-wave (km/s) = 5.54846 6.11377 5.83796
#
# Compressibility (1/GPa) = 0.03464179
#
# Stress axis : x y z
#
# Youngs Moduli (GPa) = 54.81388 34.50290 106.91647
#
# Poissons Ratio (x) = 0.18178 0.18519
# Poissons Ratio (y) = 0.28879 0.42428
# Poissons Ratio (z) = 0.09494 0.13692
#
# Static dielectric constant tensor:
#      x y z
#    x 3.917200 0.000000 0.137890 
#    y 0.000000 3.195140 0.000000 
#    z 0.137890 0.000000 4.261210 
# 
# 
# High freq. dielectric constant tensor:
#      x y z
#    x 1.815560 0.000000 0.000300 
#    y 0.000000 1.766040 0.000000 
#    z 0.000300 0.000000 1.829610 
# 
# From -- ./inp_files/24616.got.cif
#   From: 2010.06.25/outbox.cif.g09.slc.cpg/sg13_13_cif.got.tgz:24616.got - 2010.06.28 04:50:58.
