data_PCOD8121789
_publ_section_title
;
Structure prediction by ZEFSAII (Michael W. Deem and Ramdas Pophale) SiO2 
 PCOD8121789
Probable space group: P 2/C
;
_chemical_formula_sum "Si O2"
_cell_formula_units_Z 16
_cell_length_a 10.298084
_cell_length_b 7.063620
_cell_length_c 25.038991
_cell_angle_alpha 90.000000
_cell_angle_beta 157.337656
_cell_angle_gamma 90.000000
_cell_volume 701.777101
_symmetry_space_group_name_H-M "P 2/C"
_symmetry_group_IT_number 13
_symmetry_cell_setting 'monoclinic'
loop_
_space_group_symop_operation_xyz
x,y,z
-x,y,1/2-z
-x,-y,-z
x,-y,1/2+z
loop_
_atom_site_type_symbol
_atom_site_label
_atom_site_fract_x
_atom_site_fract_y
_atom_site_fract_z
Si Si1 0.171422 0.399295 0.515809
Si Si2 0.724248 0.675419 0.746495
Si Si3 0.104280 0.993336 0.846307
Si Si4 0.532175 0.933587 0.201202
O O1 0.521039 0.512457 0.638560
O O2 0.259170 0.179732 0.561976
O O3 0.000000 0.500000 0.500000
O O4 0.928276 0.414985 0.373145
O O5 0.985687 0.773016 0.804592
O O6 0.465263 0.839875 0.670355
O O7 0.000000 0.081632 0.750000
O O8 0.911942 0.106266 0.821406
O O9 0.500000 0.000000 0.000000
O O10 0.500000 0.864878 0.250000
#
# Coordination Sequence:
#
# PCOD8121789 Si02
#       4
#     4   4   4   4
#     4  12  23  42  66 107 143 168 224 288 338 403
#     4  10  26  41  69  99 138 179 224 273 344 393
#     4  10  23  46  67  96 136 180 226 274 335 407
#     4  10  23  41  70 100 134 176 225 277 339 394
#
# _framework density 22.799261000000001
#
# number of rings (size 3 to 8) (size 9 to 14) (size 15 to 20)
#    1.500    0.000    0.000    5.250    0.000   10.000 
#    0.000    6.250    0.000    0.000    0.000    0.000 
#    0.000    0.000    0.000    0.000    0.000    0.000 
#
# Total GULP energy -198267.167701 kJ/mol
# GULP energy per Si atom -12391.697981 kJ/mol
# Density = 2.274737 g / cm^3
# Si number density = 22.799261 Si / 1000 Ang^3
#
#
#
# Elastic Constant Matrix: (Units=GPa)
#
#
# Indices 1 2 3 4 5 6 
#
# 1 137.2665 7.9891 35.0362 0.0000 15.3630 0.0000
# 2 7.9891 101.7147 49.5333 0.0000 -4.7735 0.0000
# 3 35.0362 49.5333 126.7999 0.0000 13.0539 0.0000
# 4 0.0000 0.0000 0.0000 45.9215 0.0000 1.1877
# 5 15.3630 -4.7735 13.0539 0.0000 19.5380 0.0000
# 6 0.0000 0.0000 0.0000 1.1877 0.0000 22.0322
#
#
#
# Elastic Compliance Matrix: (Units=1/GPa)
#
#
# Indices 1 2 3 4 5 6 
#
# 1 0.008334 -0.000074 -0.001716 0.000000 -0.005425 0.000000
# 2 -0.000074 0.012986 -0.005783 0.000000 0.007095 0.000000
# 3 -0.001716 -0.005783 0.011411 0.000000 -0.007688 0.000000
# 4 0.000000 0.000000 0.000000 0.021807 0.000000 -0.001176
# 5 -0.005425 0.007095 -0.007688 0.000000 0.062318 0.000000
# 6 0.000000 0.000000 0.000000 -0.001176 0.000000 0.045451
#
#
# Mechanical properties :
#
#
# Convention : Reuss Voigt Hill
#
# Bulk Modulus (GPa) = 56.85961 61.21092 59.03527
# Shear Modulus (GPa) = 27.27539 35.71318 31.49429
#
# Velocity S-wave (km/s) = 3.46255 3.96209 3.72072
# Velocity P-wave (km/s) = 6.40149 6.91643 6.66393
#
# Compressibility (1/GPa) = 0.01758718
#
# Stress axis : x y z
#
# Youngs Moduli (GPa) = 119.98340 77.00355 87.63457
#
# Poissons Ratio (x) = 0.00568 0.15034
# Poissons Ratio (y) = 0.00885 0.50679
# Poissons Ratio (z) = 0.20584 0.44531
#
# Static dielectric constant tensor:
#      x y z
#    x 3.945440 0.000000 0.189540 
#    y 0.000000 5.137760 0.000000 
#    z 0.189540 0.000000 3.920610 
# 
# 
# High freq. dielectric constant tensor:
#      x y z
#    x 1.891520 0.000000 0.006920 
#    y 0.000000 1.885810 0.000000 
#    z 0.006920 0.000000 1.898510 
# 
# From -- ./inp_files/14630.got.cif
#   From: 2010.06.25/outbox.cif.g09.slc.cpg/sg13_8_cif.got.tgz:14630.got - 2010.06.28 04:50:58.
