data_PCOD8121259
_publ_section_title
;
Structure prediction by ZEFSAII (Michael W. Deem and Ramdas Pophale) SiO2 
 PCOD8121259
Probable space group: P 2/C
;
_chemical_formula_sum "Si O2"
_cell_formula_units_Z 16
_cell_length_a 7.997550
_cell_length_b 7.025037
_cell_length_c 15.926600
_cell_angle_alpha 90.000000
_cell_angle_beta 128.639937
_cell_angle_gamma 90.000000
_cell_volume 698.919541
_symmetry_space_group_name_H-M "P 2/C"
_symmetry_group_IT_number 13
_symmetry_cell_setting 'monoclinic'
loop_
_space_group_symop_operation_xyz
x,y,z
-x,y,1/2-z
-x,-y,-z
x,-y,1/2+z
loop_
_atom_site_type_symbol
_atom_site_label
_atom_site_fract_x
_atom_site_fract_y
_atom_site_fract_z
Si Si1 0.000000 0.067917 0.750000
Si Si2 0.917515 0.293400 0.312560
Si Si3 0.500000 0.564012 0.750000
Si Si4 0.602996 0.794299 0.042878
Si Si5 0.269631 0.469944 0.522872
O O1 0.209345 0.197563 0.828370
O O2 0.029585 0.932632 0.676597
O O3 0.660706 0.312276 0.242001
O O4 0.000000 0.389288 0.250000
O O5 0.028448 0.393966 0.428790
O O6 0.348684 0.435391 0.642852
O O7 0.411996 0.657842 0.007245
O O8 0.707516 0.695866 0.992598
O O9 0.500000 0.000000 0.000000
#
# Coordination Sequence:
#
# PCOD8121259 Si02
#       5
#     2   4   2   4   4
#     4  10  22  40  76  96 134 180 230 282 342 402
#     4  10  22  45  69  98 134 180 222 282 338 394
#     4  12  24  42  68 104 144 176 230 276 336 420
#     4  11  21  43  70 101 131 182 231 278 339 403
#     4  11  24  40  69  99 140 179 224 282 339 404
#
# _framework density 22.892475999999998
#
# number of rings (size 3 to 8) (size 9 to 14) (size 15 to 20)
#    0.750    0.500    2.500    5.250    5.250    0.000 
#    0.000    6.250    0.000    0.000    0.000    0.000 
#    0.000    0.000    0.000    0.000    0.000    0.000 
#
# Total GULP energy -198241.655007 kJ/mol
# GULP energy per Si atom -12390.103438 kJ/mol
# Density = 2.284037 g / cm^3
# Si number density = 22.892476 Si / 1000 Ang^3
#
#
#
# Elastic Constant Matrix: (Units=GPa)
#
#
# Indices 1 2 3 4 5 6 
#
# 1 95.7127 4.1807 15.8544 0.0000 22.5769 0.0000
# 2 4.1807 86.9031 21.3281 0.0000 6.3874 0.0000
# 3 15.8544 21.3281 153.3760 0.0000 15.8834 0.0000
# 4 0.0000 0.0000 0.0000 30.9899 0.0000 4.2490
# 5 22.5769 6.3874 15.8834 0.0000 43.9692 0.0000
# 6 0.0000 0.0000 0.0000 4.2490 0.0000 4.6840
#
#
#
# Elastic Compliance Matrix: (Units=1/GPa)
#
#
# Indices 1 2 3 4 5 6 
#
# 1 0.011945 0.000013 -0.000625 0.000000 -0.005910 0.000000
# 2 0.000013 0.011973 -0.001543 0.000000 -0.001188 0.000000
# 3 -0.000625 -0.001543 0.007005 0.000000 -0.001986 0.000000
# 4 0.000000 0.000000 0.000000 0.036852 0.000000 -0.033430
# 5 -0.005910 -0.001188 -0.001986 0.000000 0.026667 0.000000
# 6 0.000000 0.000000 0.000000 -0.033430 0.000000 0.243816
#
#
# Mechanical properties :
#
#
# Convention : Reuss Voigt Hill
#
# Bulk Modulus (GPa) = 37.57617 46.52424 42.05021
# Shear Modulus (GPa) = 14.22728 35.57055 24.89891
#
# Velocity S-wave (km/s) = 2.49566 3.94612 3.30153
# Velocity P-wave (km/s) = 4.97537 6.41323 5.73950
#
# Compressibility (1/GPa) = 0.02661261
#
# Stress axis : x y z
#
# Youngs Moduli (GPa) = 83.71857 83.52464 142.76158
#
# Poissons Ratio (x) = -0.00108 0.08916
# Poissons Ratio (y) = -0.00109 0.22030
# Poissons Ratio (z) = 0.05229 0.12889
#
# Static dielectric constant tensor:
#      x y z
#    x 4.042090 0.000000 0.314920 
#    y 0.000000 4.272260 0.000000 
#    z 0.314920 0.000000 4.262750 
# 
# 
# High freq. dielectric constant tensor:
#      x y z
#    x 1.891660 0.000000 0.030810 
#    y 0.000000 1.879900 0.000000 
#    z 0.030810 0.000000 1.917530 
# 
# From -- ./inp_files/62231.got.cif
#   From: 2010.06.25/outbox.cif.g09.slc.cpg/sg13_32_cif.got.tgz:62231.got - 2010.06.28 04:50:58.
