data_PCOD8121254
_publ_section_title
;
Structure prediction by ZEFSAII (Michael W. Deem and Ramdas Pophale) SiO2 
 PCOD8121254
Probable space group: P 2/C
;
_chemical_formula_sum "Si O2"
_cell_formula_units_Z 30
_cell_length_a 9.374177
_cell_length_b 11.609903
_cell_length_c 13.591972
_cell_angle_alpha 90.000000
_cell_angle_beta 72.924394
_cell_angle_gamma 90.000000
_cell_volume 1414.050451
_symmetry_space_group_name_H-M "P 2/C"
_symmetry_group_IT_number 13
_symmetry_cell_setting 'monoclinic'
loop_
_space_group_symop_operation_xyz
x,y,z
-x,y,1/2-z
-x,-y,-z
x,-y,1/2+z
loop_
_atom_site_type_symbol
_atom_site_label
_atom_site_fract_x
_atom_site_fract_y
_atom_site_fract_z
Si Si1 0.338889 0.668551 0.258750
Si Si2 0.309492 0.722830 0.041482
Si Si3 0.500000 0.866036 0.750000
Si Si4 0.769791 0.793090 0.037006
Si Si5 0.642592 0.029887 0.038651
Si Si6 0.051667 0.631486 0.980423
Si Si7 0.159804 0.451301 0.267996
Si Si8 0.393061 0.695092 0.615739
O O1 0.500000 0.612516 0.250000
O O2 0.345041 0.718767 0.148646
O O3 0.694196 0.770944 0.158117
O O4 0.208396 0.575065 0.300242
O O5 0.282702 0.855568 0.019313
O O6 0.156867 0.654685 0.052365
O O7 0.436367 0.662563 0.946868
O O8 0.404460 0.948258 0.839347
O O9 0.391366 0.786884 0.704817
O O10 0.769673 0.930670 0.017475
O O11 0.666968 0.745066 0.972582
O O12 0.929275 0.731894 0.999354
O O13 0.500000 0.000000 0.000000
O O14 0.144888 0.640050 0.859785
O O15 0.000000 0.500000 0.000000
O O16 0.290879 0.413298 0.166475
O O17 0.000000 0.463176 0.250000
#
# Coordination Sequence:
#
# PCOD8121254 Si02
#       8
#     4   4   2   4   4   4   4   4
#     4  12  26  41  67 104 136 181 232 287 349 419
#     4  11  26  45  70 101 140 179 235 287 347 412
#     4  10  22  40  72  98 140 176 236 282 346 404
#     4  12  25  43  71 101 139 181 233 280 356 412
#     4  11  22  43  72 102 136 184 231 293 342 404
#     4  12  26  48  67  98 144 182 228 289 351 418
#     4  12  25  41  70  98 139 186 226 283 356 415
#     4  11  23  44  66 104 131 185 231 283 339 418
#
# _framework density 21.215651000000001
#
# number of rings (size 3 to 8) (size 9 to 14) (size 15 to 20)
#    0.000    0.533    6.667    2.400    5.600    1.067 
#    0.000    0.000    0.000    0.000    0.000    0.000 
#    0.000    0.000    0.000    0.000    0.000    0.000 
#
# Total GULP energy -371943.053547 kJ/mol
# GULP energy per Si atom -12398.101785 kJ/mol
# Density = 2.116736 g / cm^3
# Si number density = 21.215651 Si / 1000 Ang^3
#
#
#
# Elastic Constant Matrix: (Units=GPa)
#
#
# Indices 1 2 3 4 5 6 
#
# 1 129.0711 66.7512 46.9450 0.0000 6.5914 0.0000
# 2 66.7512 113.5880 47.0835 0.0000 -3.7951 0.0000
# 3 46.9450 47.0835 131.6197 0.0000 14.9857 0.0000
# 4 0.0000 0.0000 0.0000 34.6163 0.0000 -3.8098
# 5 6.5914 -3.7951 14.9857 0.0000 35.6036 0.0000
# 6 0.0000 0.0000 0.0000 -3.8098 0.0000 34.7067
#
#
#
# Elastic Compliance Matrix: (Units=1/GPa)
#
#
# Indices 1 2 3 4 5 6 
#
# 1 0.011703 -0.006244 -0.001700 0.000000 -0.002117 0.000000
# 2 -0.006244 0.013939 -0.003214 0.000000 0.003994 0.000000
# 3 -0.001700 -0.003214 0.009828 0.000000 -0.004164 0.000000
# 4 0.000000 0.000000 0.000000 0.029241 0.000000 0.003210
# 5 -0.002117 0.003994 -0.004164 0.000000 0.030658 0.000000
# 6 0.000000 0.000000 0.000000 0.003210 0.000000 0.029165
#
#
# Mechanical properties :
#
#
# Convention : Reuss Voigt Hill
#
# Bulk Modulus (GPa) = 76.01810 77.31535 76.66672
# Shear Modulus (GPa) = 33.06164 35.21859 34.14011
#
# Velocity S-wave (km/s) = 3.95189 4.07876 4.01583
# Velocity P-wave (km/s) = 7.53208 7.66182 7.59723
#
# Compressibility (1/GPa) = 0.01315476
#
# Stress axis : x y z
#
# Youngs Moduli (GPa) = 85.44904 71.74360 101.75271
#
# Poissons Ratio (x) = 0.44793 0.17294
# Poissons Ratio (y) = 0.53350 0.32704
# Poissons Ratio (z) = 0.14523 0.23059
#
# Static dielectric constant tensor:
#      x y z
#    x 3.925950 0.000000 0.087320 
#    y 0.000000 3.885870 0.000000 
#    z 0.087320 0.000000 4.184450 
# 
# 
# High freq. dielectric constant tensor:
#      x y z
#    x 1.832610 0.000000 0.013750 
#    y 0.000000 1.822240 0.000000 
#    z 0.013750 0.000000 1.851060 
# 
# From -- ./inp_files/47197.got.cif
#   From: 2010.06.25/outbox.cif.g09.slc.cpg/sg13_24_cif.got.tgz:47197.got - 2010.06.28 04:50:58.
