data_PCOD8121082
_publ_section_title
;
Structure prediction by ZEFSAII (Michael W. Deem and Ramdas Pophale) SiO2 
 PCOD8121082
Probable space group: P 2/C
;
_chemical_formula_sum "Si O2"
_cell_formula_units_Z 20
_cell_length_a 8.918025
_cell_length_b 11.888475
_cell_length_c 17.257263
_cell_angle_alpha 90.000000
_cell_angle_beta 148.818534
_cell_angle_gamma 90.000000
_cell_volume 947.299052
_symmetry_space_group_name_H-M "P 2/C"
_symmetry_group_IT_number 13
_symmetry_cell_setting 'monoclinic'
loop_
_space_group_symop_operation_xyz
x,y,z
-x,y,1/2-z
-x,-y,-z
x,-y,1/2+z
loop_
_atom_site_type_symbol
_atom_site_label
_atom_site_fract_x
_atom_site_fract_y
_atom_site_fract_z
Si Si1 0.301292 0.940970 0.348920
Si Si2 0.420071 0.631289 0.805267
Si Si3 0.147387 0.542607 0.987852
Si Si4 0.651111 0.784257 0.396792
Si Si5 0.726616 0.868979 0.786103
O O1 0.472819 0.836199 0.389124
O O2 0.000000 0.894812 0.250000
O O3 0.500000 0.000000 0.500000
O O4 0.210526 0.030895 0.244000
O O5 0.500000 0.622057 0.750000
O O6 0.410972 0.763326 0.822848
O O7 0.104486 0.577135 0.683475
O O8 0.655616 0.560050 0.958541
O O9 0.351689 0.649699 0.095377
O O10 0.000000 0.500000 0.000000
O O11 0.500000 0.819272 0.250000
O O12 0.979261 0.830771 0.541145
O O13 0.500000 0.912067 0.750000
#
# Coordination Sequence:
#
# PCOD8121082 Si02
#       5
#     4   4   4   4   4
#     4  12  26  45  61  83 123 171 209 254 313 370
#     4   8  15  29  51  83 117 147 183 241 302 353
#     4   9  16  31  55  90 122 147 187 250 309 356
#     4  11  23  38  64  95 122 158 210 259 306 368
#     4  10  22  39  62  90 120 158 208 257 309 366
#
# _framework density 21.112656999999999
#
# number of rings (size 3 to 8) (size 9 to 14) (size 15 to 20)
#    0.000    2.000    2.000    3.600    2.800    1.600 
#    0.000    0.000    0.000    2.400    0.000    0.000 
#    0.000    0.000    0.000    0.000    0.000    0.000 
#
# Total GULP energy -247927.745641 kJ/mol
# GULP energy per Si atom -12396.387282 kJ/mol
# Density = 2.106460 g / cm^3
# Si number density = 21.112657 Si / 1000 Ang^3
#
#
#
# Elastic Constant Matrix: (Units=GPa)
#
#
# Indices 1 2 3 4 5 6 
#
# 1 85.7289 41.7009 33.4375 0.0000 23.1554 0.0000
# 2 41.7009 116.8022 24.8632 0.0000 13.9404 0.0000
# 3 33.4375 24.8632 74.5422 0.0000 22.2224 0.0000
# 4 0.0000 0.0000 0.0000 33.5857 0.0000 15.9922
# 5 23.1554 13.9404 22.2224 0.0000 30.6299 0.0000
# 6 0.0000 0.0000 0.0000 15.9922 0.0000 19.8124
#
#
#
# Elastic Compliance Matrix: (Units=1/GPa)
#
#
# Indices 1 2 3 4 5 6 
#
# 1 0.017645 -0.004457 -0.003900 0.000000 -0.008481 0.000000
# 2 -0.004457 0.010495 -0.001380 0.000000 -0.000406 0.000000
# 3 -0.003900 -0.001380 0.018577 0.000000 -0.009901 0.000000
# 4 0.000000 0.000000 0.000000 0.048363 0.000000 -0.039038
# 5 -0.008481 -0.000406 -0.009901 0.000000 0.046427 0.000000
# 6 0.000000 0.000000 0.000000 -0.039038 0.000000 0.081984
#
#
# Mechanical properties :
#
#
# Convention : Reuss Voigt Hill
#
# Bulk Modulus (GPa) = 36.70848 53.00849 44.85849
# Shear Modulus (GPa) = 19.83768 28.61037 24.22403
#
# Velocity S-wave (km/s) = 3.06863 3.68520 3.39096
# Velocity P-wave (km/s) = 5.47540 6.57796 6.05184
#
# Compressibility (1/GPa) = 0.02724166
#
# Stress axis : x y z
#
# Youngs Moduli (GPa) = 56.67475 95.28350 53.83079
#
# Poissons Ratio (x) = 0.42469 0.20993
# Poissons Ratio (y) = 0.25261 0.07430
# Poissons Ratio (z) = 0.22102 0.13152
#
# Static dielectric constant tensor:
#      x y z
#    x 3.556530 0.000000 0.470460 
#    y 0.000000 4.179450 0.000000 
#    z 0.470460 0.000000 4.145340 
# 
# 
# High freq. dielectric constant tensor:
#      x y z
#    x 1.785190 0.000000 0.035670 
#    y 0.000000 1.840120 0.000000 
#    z 0.035670 0.000000 1.829550 
# 
# From -- ./inp_files/64483.got.cif
#   From: 2010.06.25/outbox.cif.g09.slc.cpg/sg13_33_cif.got.tgz:64483.got - 2010.06.28 04:50:58.
