data_PCOD8121143
_publ_section_title
;
Structure prediction by ZEFSAII (Michael W. Deem and Ramdas Pophale) SiO2 
 PCOD8121143
Probable space group: P 2/C
;
_chemical_formula_sum "Si O2"
_cell_formula_units_Z 16
_cell_length_a 11.381010
_cell_length_b 13.068490
_cell_length_c 13.617355
_cell_angle_alpha 90.000000
_cell_angle_beta 159.408378
_cell_angle_gamma 90.000000
_cell_volume 712.323437
_symmetry_space_group_name_H-M "P 2/C"
_symmetry_group_IT_number 13
_symmetry_cell_setting 'monoclinic'
loop_
_space_group_symop_operation_xyz
x,y,z
-x,y,1/2-z
-x,-y,-z
x,-y,1/2+z
loop_
_atom_site_type_symbol
_atom_site_label
_atom_site_fract_x
_atom_site_fract_y
_atom_site_fract_z
Si Si1 0.650485 0.704548 0.570653
Si Si2 0.000000 0.112590 0.250000
Si Si3 0.500000 0.022542 0.250000
Si Si4 0.206211 0.572818 0.088049
Si Si5 0.607140 0.215165 0.434104
O O1 0.361157 0.660238 0.276999
O O2 0.522836 0.714974 0.580985
O O3 0.729661 0.816747 0.592220
O O4 0.966861 0.628267 0.821570
O O5 0.178265 0.046104 0.474034
O O6 0.439437 0.100187 0.296011
O O7 0.500000 0.520313 0.250000
O O8 0.000000 0.500000 0.000000
O O9 0.500000 0.274565 0.250000
O O10 0.000000 0.200873 0.750000
#
# Coordination Sequence:
#
# PCOD8121143 Si02
#       5
#     4   2   2   4   4
#     4  12  25  44  72  98 138 179 225 283 343 409
#     4  12  22  40  68  94 138 186 222 286 328 398
#     4  10  22  40  60 102 138 182 236 270 332 384
#     4  12  26  48  72 106 135 174 229 288 355 425
#     4  10  22  43  61  99 142 177 239 271 328 402
#
# _framework density 22.461704999999998
#
# number of rings (size 3 to 8) (size 9 to 14) (size 15 to 20)
#    0.750    0.000    3.750    3.750    0.000    5.000 
#    0.000    0.000    0.000    0.000    0.000    0.000 
#    0.000    0.000    0.000    0.000    0.000    0.000 
#
# Total GULP energy -198264.979416 kJ/mol
# GULP energy per Si atom -12391.561214 kJ/mol
# Density = 2.241058 g / cm^3
# Si number density = 22.461705 Si / 1000 Ang^3
#
#
#
# Elastic Constant Matrix: (Units=GPa)
#
#
# Indices 1 2 3 4 5 6 
#
# 1 122.1439 22.4699 31.0312 0.0000 9.8374 0.0000
# 2 22.4699 56.7918 31.2211 0.0000 9.1142 0.0000
# 3 31.0312 31.2211 123.7101 0.0000 -12.5276 0.0000
# 4 0.0000 0.0000 0.0000 64.7788 0.0000 52.3409
# 5 9.8374 9.1142 -12.5276 0.0000 42.2067 0.0000
# 6 0.0000 0.0000 0.0000 52.3409 0.0000 64.3017
#
#
#
# Elastic Compliance Matrix: (Units=1/GPa)
#
#
# Indices 1 2 3 4 5 6 
#
# 1 0.009286 -0.002206 -0.002004 0.000000 -0.002283 0.000000
# 2 -0.002206 0.022633 -0.005775 0.000000 -0.006087 0.000000
# 3 -0.002004 -0.005775 0.010534 0.000000 0.004841 0.000000
# 4 0.000000 0.000000 0.000000 0.045098 0.000000 -0.036709
# 5 -0.002283 -0.006087 0.004841 0.000000 0.026976 0.000000
# 6 0.000000 0.000000 0.000000 -0.036709 0.000000 0.045433
#
#
# Mechanical properties :
#
#
# Convention : Reuss Voigt Hill
#
# Bulk Modulus (GPa) = 44.47858 52.45446 48.46652
# Shear Modulus (GPa) = 26.67766 48.78568 37.73167
#
# Velocity S-wave (km/s) = 3.45003 4.66547 4.10301
# Velocity P-wave (km/s) = 5.97622 7.24056 6.63856
#
# Compressibility (1/GPa) = 0.02248273
#
# Stress axis : x y z
#
# Youngs Moduli (GPa) = 107.69155 44.18379 94.93412
#
# Poissons Ratio (x) = 0.09748 0.19021
# Poissons Ratio (y) = 0.23759 0.54824
# Poissons Ratio (z) = 0.21577 0.25516
#
# Static dielectric constant tensor:
#      x y z
#    x 3.930360 0.000000 -0.223900 
#    y 0.000000 3.904250 0.000000 
#    z -0.223900 0.000000 4.213330 
# 
# 
# High freq. dielectric constant tensor:
#      x y z
#    x 1.882320 0.000000 -0.020640 
#    y 0.000000 1.874630 0.000000 
#    z -0.020640 0.000000 1.902480 
# 
# From -- ./inp_files/25513.got.cif
#   From: 2010.06.25/outbox.cif.g09.slc.cpg/sg13_13_cif.got.tgz:25513.got - 2010.06.28 04:50:58.
