data_PCOD8121276
_publ_section_title
;
Structure prediction by ZEFSAII (Michael W. Deem and Ramdas Pophale) SiO2 
 PCOD8121276
Probable space group: P 2/C
;
_chemical_formula_sum "Si O2"
_cell_formula_units_Z 20
_cell_length_a 22.930510
_cell_length_b 5.083852
_cell_length_c 15.212404
_cell_angle_alpha 90.000000
_cell_angle_beta 33.443630
_cell_angle_gamma 90.000000
_cell_volume 977.344615
_symmetry_space_group_name_H-M "P 2/C"
_symmetry_group_IT_number 13
_symmetry_cell_setting 'monoclinic'
loop_
_space_group_symop_operation_xyz
x,y,z
-x,y,1/2-z
-x,-y,-z
x,-y,1/2+z
loop_
_atom_site_type_symbol
_atom_site_label
_atom_site_fract_x
_atom_site_fract_y
_atom_site_fract_z
Si Si1 0.852002 0.458083 0.581498
Si Si2 0.017324 0.040794 0.625009
Si Si3 0.806344 0.720473 0.327955
Si Si4 0.703261 0.534498 0.109956
Si Si5 0.613530 0.951583 0.650102
O O1 0.892756 0.753135 0.516253
O O2 0.807701 0.434953 0.735180
O O3 0.755215 0.401143 0.637764
O O4 0.946638 0.251725 0.446334
O O5 0.000000 0.060526 0.750000
O O6 0.910206 0.101097 0.707596
O O7 0.797331 0.507351 0.419091
O O8 0.703047 0.909853 0.461894
O O9 0.626033 0.769622 0.180600
O O10 0.629793 0.273407 0.204476
O O11 0.500000 0.927330 0.750000
#
# Coordination Sequence:
#
# PCOD8121276 Si02
#       5
#     4   4   4   4   4
#     4  12  24  39  63  93 127 163 201 248 298 375
#     4  12  23  39  62  91 131 164 198 243 305 366
#     4  10  25  39  64  91 125 161 211 243 308 360
#     4  10  22  41  63  88 126 157 205 251 312 355
#     4  10  22  43  66  86 120 163 206 262 313 352
#
# _framework density 20.463609999999999
#
# number of rings (size 3 to 8) (size 9 to 14) (size 15 to 20)
#    1.200    0.000    2.000    4.800    5.600    0.000 
#    0.000    2.000    0.000    0.000    0.000    0.000 
#    0.000    0.000    0.000    0.000    0.000    0.000 
#
# Total GULP energy -247989.573825 kJ/mol
# GULP energy per Si atom -12399.478691 kJ/mol
# Density = 2.041703 g / cm^3
# Si number density = 20.463610 Si / 1000 Ang^3
#
#
#
# Elastic Constant Matrix: (Units=GPa)
#
#
# Indices 1 2 3 4 5 6 
#
# 1 105.7325 -1.2541 34.3723 0.0000 4.8231 0.0000
# 2 -1.2541 83.0653 -1.4402 0.0000 -1.4178 0.0000
# 3 34.3723 -1.4402 34.0444 0.0000 -10.2903 0.0000
# 4 0.0000 0.0000 0.0000 17.9273 0.0000 -9.3456
# 5 4.8231 -1.4178 -10.2903 0.0000 33.8774 0.0000
# 6 0.0000 0.0000 0.0000 -9.3456 0.0000 34.6533
#
#
#
# Elastic Compliance Matrix: (Units=1/GPa)
#
#
# Indices 1 2 3 4 5 6 
#
# 1 0.015750 -0.000212 -0.018268 0.000000 -0.007800 0.000000
# 2 -0.000212 0.012067 0.000976 0.000000 0.000832 0.000000
# 3 -0.018268 0.000976 0.053576 0.000000 0.018915 0.000000
# 4 0.000000 0.000000 0.000000 0.064906 0.000000 0.017504
# 5 -0.007800 0.000832 0.018915 0.000000 0.036409 0.000000
# 6 0.000000 0.000000 0.000000 0.017504 0.000000 0.033578
#
#
# Mechanical properties :
#
#
# Convention : Reuss Voigt Hill
#
# Bulk Modulus (GPa) = 21.55912 31.79980 26.67946
# Shear Modulus (GPa) = 18.74372 30.03588 24.38980
#
# Velocity S-wave (km/s) = 3.02976 3.83531 3.45608
# Velocity P-wave (km/s) = 4.77467 5.93179 5.38440
#
# Compressibility (1/GPa) = 0.04638408
#
# Stress axis : x y z
#
# Youngs Moduli (GPa) = 63.49246 82.87310 18.66497
#
# Poissons Ratio (x) = 0.01758 0.34098
# Poissons Ratio (y) = 0.01347 -0.01822
# Poissons Ratio (z) = 1.15990 -0.08088
#
# Static dielectric constant tensor:
#      x y z
#    x 3.670310 0.000000 0.054420 
#    y 0.000000 3.738330 0.000000 
#    z 0.054420 0.000000 3.446170 
# 
# 
# High freq. dielectric constant tensor:
#      x y z
#    x 1.803520 0.000000 -0.003030 
#    y 0.000000 1.811970 0.000000 
#    z -0.003030 0.000000 1.771460 
# 
# From -- ./inp_files/56187.got.cif
#   From: 2010.06.25/outbox.cif.g09.slc.cpg/sg13_29_cif.got.tgz:56187.got - 2010.06.28 04:50:58.
