data_PCOD8121150
_publ_section_title
;
Structure prediction by ZEFSAII (Michael W. Deem and Ramdas Pophale) SiO2 
 PCOD8121150
Probable space group: P 2/C
;
_chemical_formula_sum "Si O2"
_cell_formula_units_Z 28
_cell_length_a 15.574001
_cell_length_b 17.457842
_cell_length_c 9.585252
_cell_angle_alpha 90.000000
_cell_angle_beta 34.960278
_cell_angle_gamma 90.000000
_cell_volume 1493.328241
_symmetry_space_group_name_H-M "P 2/C"
_symmetry_group_IT_number 13
_symmetry_cell_setting 'monoclinic'
loop_
_space_group_symop_operation_xyz
x,y,z
-x,y,1/2-z
-x,-y,-z
x,-y,1/2+z
loop_
_atom_site_type_symbol
_atom_site_label
_atom_site_fract_x
_atom_site_fract_y
_atom_site_fract_z
Si Si1 0.348951 0.870323 0.531294
Si Si2 0.355190 0.890572 0.848060
Si Si3 0.362455 0.697373 0.532624
Si Si4 0.109526 0.016974 0.231201
Si Si5 0.171576 0.576081 0.160638
Si Si6 0.645542 0.283953 0.136475
Si Si7 0.180247 0.442759 0.341129
O O1 0.384490 0.895553 0.643118
O O2 0.301953 0.781676 0.575245
O O3 0.213075 0.912643 0.637176
O O4 0.500000 0.890459 0.250000
O O5 0.500000 0.915329 0.750000
O O6 0.308978 0.804138 0.950116
O O7 0.213226 0.943365 0.067140
O O8 0.403321 0.699570 0.640594
O O9 0.239057 0.631287 0.678123
O O10 0.500000 0.675624 0.250000
O O11 0.000000 0.038448 0.250000
O O12 0.000000 0.000000 0.500000
O O13 0.239998 0.519215 0.185116
O O14 0.996003 0.569575 0.415591
O O15 0.219582 0.665029 0.107085
O O16 0.235405 0.548403 0.926207
O O17 0.500000 0.309164 0.250000
#
# Coordination Sequence:
#
# PCOD8121150 Si02
#       7
#     4   4   4   4   4   4   4
#     4  10  22  40  62  82 114 154 190 230 284 341
#     4  10  22  40  61  84 113 152 193 231 280 342
#     4   9  19  36  57  79 106 145 183 224 271 325
#     4  12  25  40  59  88 118 146 187 238 285 334
#     4   9  18  33  53  78 106 144 177 224 268 326
#     4   9  19  36  56  81 106 140 187 227 266 320
#     4   9  18  33  54  76 108 141 183 217 274 323
#
# _framework density 18.750063999999998
#
# number of rings (size 3 to 8) (size 9 to 14) (size 15 to 20)
#    0.000    2.286    1.429    0.429    2.000    4.000 
#    2.571    2.857    6.286    0.000    0.000    0.000 
#    0.000    0.000    0.000    0.000    0.000    0.000 
#
# Total GULP energy -346955.045879 kJ/mol
# GULP energy per Si atom -12391.251639 kJ/mol
# Density = 1.870739 g / cm^3
# Si number density = 18.750064 Si / 1000 Ang^3
#
#
#
# Elastic Constant Matrix: (Units=GPa)
#
#
# Indices 1 2 3 4 5 6 
#
# 1 103.7890 49.9545 35.3502 0.0000 4.1975 0.0000
# 2 49.9545 112.2687 67.4549 0.0000 4.5873 0.0000
# 3 35.3502 67.4549 120.1217 0.0000 11.9492 0.0000
# 4 0.0000 0.0000 0.0000 34.1534 0.0000 0.3202
# 5 4.1975 4.5873 11.9492 0.0000 17.1466 0.0000
# 6 0.0000 0.0000 0.0000 0.3202 0.0000 27.4851
#
#
#
# Elastic Compliance Matrix: (Units=1/GPa)
#
#
# Indices 1 2 3 4 5 6 
#
# 1 0.012337 -0.005027 -0.000689 0.000000 -0.001195 0.000000
# 2 -0.005027 0.015542 -0.007475 0.000000 0.002282 0.000000
# 3 -0.000689 -0.007475 0.013442 0.000000 -0.007199 0.000000
# 4 0.000000 0.000000 0.000000 0.029283 0.000000 -0.000341
# 5 -0.001195 0.002282 -0.007199 0.000000 0.063019 0.000000
# 6 0.000000 0.000000 0.000000 -0.000341 0.000000 0.036387
#
#
# Mechanical properties :
#
#
# Convention : Reuss Voigt Hill
#
# Bulk Modulus (GPa) = 66.94038 71.29983 69.12011
# Shear Modulus (GPa) = 24.82955 27.98498 26.40727
#
# Velocity S-wave (km/s) = 3.64296 3.86752 3.75691
# Velocity P-wave (km/s) = 7.31258 7.61922 7.46747
#
# Compressibility (1/GPa) = 0.01493867
#
# Stress axis : x y z
#
# Youngs Moduli (GPa) = 81.05461 64.34119 74.39569
#
# Poissons Ratio (x) = 0.32343 0.05126
# Poissons Ratio (y) = 0.40744 0.55614
# Poissons Ratio (z) = 0.05585 0.48098
#
# Static dielectric constant tensor:
#      x y z
#    x 3.544670 0.000000 0.227190 
#    y 0.000000 3.764410 0.000000 
#    z 0.227190 0.000000 3.542630 
# 
# 
# High freq. dielectric constant tensor:
#      x y z
#    x 1.723030 0.000000 0.012850 
#    y 0.000000 1.738390 0.000000 
#    z 0.012850 0.000000 1.731380 
# 
# From -- ./inp_files/20084.got.cif
#   From: 2010.06.25/outbox.cif.g09.slc.cpg/sg13_11_cif.got.tgz:20084.got - 2010.06.28 04:50:58.
