data_PCOD8121973
_publ_section_title
;
Structure prediction by ZEFSAII (Michael W. Deem and Ramdas Pophale) SiO2 
 PCOD8121973
Probable space group: P 2/C
;
_chemical_formula_sum "Si O2"
_cell_formula_units_Z 16
_cell_length_a 7.782767
_cell_length_b 8.842600
_cell_length_c 9.464426
_cell_angle_alpha 90.000000
_cell_angle_beta 113.887438
_cell_angle_gamma 90.000000
_cell_volume 595.548752
_symmetry_space_group_name_H-M "P 2/C"
_symmetry_group_IT_number 13
_symmetry_cell_setting 'monoclinic'
loop_
_space_group_symop_operation_xyz
x,y,z
-x,y,1/2-z
-x,-y,-z
x,-y,1/2+z
loop_
_atom_site_type_symbol
_atom_site_label
_atom_site_fract_x
_atom_site_fract_y
_atom_site_fract_z
Si Si1 0.699149 0.644509 0.405408
Si Si2 0.575618 0.169980 0.527000
Si Si3 0.950525 0.170548 0.512926
Si Si4 0.704701 0.650802 0.724414
O O1 0.499889 0.739303 0.359008
O O2 0.770870 0.600685 0.588021
O O3 0.664518 0.494308 0.306399
O O4 0.858276 0.744038 0.381481
O O5 0.801639 0.175966 0.592882
O O6 0.491854 0.255866 0.360996
O O7 0.500000 0.000000 0.500000
O O8 0.863563 0.241970 0.342303
O O9 0.000000 0.000000 0.500000
#
# Coordination Sequence:
#
# PCOD8121973 Si02
#       4
#     4   4   4   4
#     4  10  24  47  76 114 162 203 266 330 402 473
#     4  10  23  47  79 111 157 212 270 322 402 482
#     4  12  22  44  79 111 156 210 266 331 396 473
#     4  10  24  48  77 113 164 200 265 331 399 476
#
# _framework density 26.865981999999999
#
# number of rings (size 3 to 8) (size 9 to 14) (size 15 to 20)
#    1.500    0.000    2.500    2.250    0.000    1.000 
#    4.500   10.000    0.000    0.000    0.000    0.000 
#    0.000    0.000    0.000    0.000    0.000    0.000 
#
# Total GULP energy -198338.461449 kJ/mol
# GULP energy per Si atom -12396.153841 kJ/mol
# Density = 2.680483 g / cm^3
# Si number density = 26.865982 Si / 1000 Ang^3
#
#
#
# Elastic Constant Matrix: (Units=GPa)
#
#
# Indices 1 2 3 4 5 6 
#
# 1 251.8647 105.9812 66.6915 0.0000 20.7419 0.0000
# 2 105.9812 258.5383 71.7485 0.0000 -4.3355 0.0000
# 3 66.6915 71.7485 82.9890 0.0000 -21.8033 0.0000
# 4 0.0000 0.0000 0.0000 35.8330 0.0000 13.2067
# 5 20.7419 -4.3355 -21.8033 0.0000 53.8635 0.0000
# 6 0.0000 0.0000 0.0000 13.2067 0.0000 48.6690
#
#
#
# Elastic Compliance Matrix: (Units=1/GPa)
#
#
# Indices 1 2 3 4 5 6 
#
# 1 0.006218 -0.001191 -0.005172 0.000000 -0.004584 0.000000
# 2 -0.001191 0.005433 -0.003922 0.000000 -0.000692 0.000000
# 3 -0.005172 -0.003922 0.022422 0.000000 0.010752 0.000000
# 4 0.000000 0.000000 0.000000 0.031008 0.000000 -0.008414
# 5 -0.004584 -0.000692 0.010752 0.000000 0.024627 0.000000
# 6 0.000000 0.000000 0.000000 -0.008414 0.000000 0.022830
#
#
# Mechanical properties :
#
#
# Convention : Reuss Voigt Hill
#
# Bulk Modulus (GPa) = 74.05444 120.24826 97.15135
# Shear Modulus (GPa) = 36.33454 50.93782 43.63618
#
# Velocity S-wave (km/s) = 3.68154 4.35903 4.03453
# Velocity P-wave (km/s) = 6.75987 8.37798 7.61204
#
# Compressibility (1/GPa) = 0.01350358
#
# Stress axis : x y z
#
# Youngs Moduli (GPa) = 160.81118 184.06971 44.59914
#
# Poissons Ratio (x) = 0.21915 0.23068
# Poissons Ratio (y) = 0.19146 0.17491
# Poissons Ratio (z) = 0.83177 0.72190
#
# Static dielectric constant tensor:
#      x y z
#    x 6.599380 0.000000 0.624040 
#    y 0.000000 4.863700 0.000000 
#    z 0.624040 0.000000 5.639780 
# 
# 
# High freq. dielectric constant tensor:
#      x y z
#    x 2.104520 0.000000 -0.010270 
#    y 0.000000 2.082440 0.000000 
#    z -0.010270 0.000000 2.103270 
# 
# From -- ./inp_files/28322.got.cif
#   From: 2010.06.25/outbox.cif.g09.slc.cpg/sg13_15_cif.got.tgz:28322.got - 2010.06.28 04:50:58.
