data_PCOD8121710
_publ_section_title
;
Structure prediction by ZEFSAII (Michael W. Deem and Ramdas Pophale) SiO2 
 PCOD8121710
Probable space group: P 2/C
;
_chemical_formula_sum "Si O2"
_cell_formula_units_Z 28
_cell_length_a 9.790275
_cell_length_b 10.724269
_cell_length_c 17.204186
_cell_angle_alpha 90.000000
_cell_angle_beta 51.007907
_cell_angle_gamma 90.000000
_cell_volume 1403.937713
_symmetry_space_group_name_H-M "P 2/C"
_symmetry_group_IT_number 13
_symmetry_cell_setting 'monoclinic'
loop_
_space_group_symop_operation_xyz
x,y,z
-x,y,1/2-z
-x,-y,-z
x,-y,1/2+z
loop_
_atom_site_type_symbol
_atom_site_label
_atom_site_fract_x
_atom_site_fract_y
_atom_site_fract_z
Si Si1 0.711506 0.659420 0.686316
Si Si2 0.862874 0.696372 0.468092
Si Si3 0.072108 0.983175 0.059732
Si Si4 0.854738 0.137817 0.243929
Si Si5 0.374106 0.114348 0.033427
Si Si6 0.581129 0.634053 0.450172
Si Si7 0.862016 0.559302 0.233073
O O1 0.500000 0.663656 0.750000
O O2 0.828402 0.645641 0.566921
O O3 0.787917 0.783972 0.695383
O O4 0.761195 0.552605 0.728633
O O5 0.864994 0.843302 0.455927
O O6 0.689018 0.655766 0.488200
O O7 0.040816 0.639521 0.368060
O O8 0.230279 0.081242 0.018981
O O9 0.928750 0.010453 0.178496
O O10 0.000000 0.000000 0.000000
O O11 0.689647 0.113209 0.355632
O O12 0.000000 0.200822 0.250000
O O13 0.445854 0.251799 0.985442
O O14 0.500000 0.000000 0.000000
O O15 0.500000 0.500000 0.500000
O O16 0.707156 0.637294 0.329609
O O17 0.000000 0.513353 0.250000
#
# Coordination Sequence:
#
# PCOD8121710 Si02
#       7
#     4   4   4   4   4   4   4
#     4  12  23  41  64  96 133 169 220 278 338 385
#     4  11  23  41  68  94 133 174 218 279 333 397
#     4  11  23  43  63  98 132 172 222 272 330 396
#     4  10  23  39  66  91 125 172 220 262 323 402
#     4  11  23  40  70  95 129 173 222 272 327 386
#     4  11  23  44  68  99 134 172 227 277 329 395
#     4  10  24  42  67  91 129 176 223 270 334 398
#
# _framework density 19.943905000000001
#
# number of rings (size 3 to 8) (size 9 to 14) (size 15 to 20)
#    0.000    1.143    2.857    3.429    2.000    5.143 
#    5.143    0.000    0.000    0.000    0.000    0.000 
#    0.000    0.000    0.000    0.000    0.000    0.000 
#
# Total GULP energy -346894.446650 kJ/mol
# GULP energy per Si atom -12389.087380 kJ/mol
# Density = 1.989851 g / cm^3
# Si number density = 19.943905 Si / 1000 Ang^3
#
#
#
# Elastic Constant Matrix: (Units=GPa)
#
#
# Indices 1 2 3 4 5 6 
#
# 1 95.1648 49.4532 61.6344 0.0000 7.2039 0.0000
# 2 49.4532 119.6063 37.9178 0.0000 -4.1607 0.0000
# 3 61.6344 37.9178 150.1632 0.0000 3.1013 0.0000
# 4 0.0000 0.0000 0.0000 31.1638 0.0000 4.0507
# 5 7.2039 -4.1607 3.1013 0.0000 33.2110 0.0000
# 6 0.0000 0.0000 0.0000 4.0507 0.0000 32.3777
#
#
#
# Elastic Compliance Matrix: (Units=1/GPa)
#
#
# Indices 1 2 3 4 5 6 
#
# 1 0.017319 -0.005510 -0.005636 0.000000 -0.003921 0.000000
# 2 -0.005510 0.010903 -0.000545 0.000000 0.002612 0.000000
# 3 -0.005636 -0.000545 0.009104 0.000000 0.000304 0.000000
# 4 0.000000 0.000000 0.000000 0.032619 0.000000 -0.004081
# 5 -0.003921 0.002612 0.000304 0.000000 0.031260 0.000000
# 6 0.000000 0.000000 0.000000 -0.004081 0.000000 0.031396
#
#
# Mechanical properties :
#
#
# Convention : Reuss Voigt Hill
#
# Bulk Modulus (GPa) = 71.72435 73.66054 72.69244
# Shear Modulus (GPa) = 31.12725 33.74577 32.43651
#
# Velocity S-wave (km/s) = 3.95491 4.11790 4.03722
# Velocity P-wave (km/s) = 7.54295 7.72162 7.63281
#
# Compressibility (1/GPa) = 0.01394227
#
# Stress axis : x y z
#
# Youngs Moduli (GPa) = 57.74147 91.71923 109.84013
#
# Poissons Ratio (x) = 0.50540 0.61906
# Poissons Ratio (y) = 0.31817 0.05990
# Poissons Ratio (z) = 0.32543 0.05002
#
# Static dielectric constant tensor:
#      x y z
#    x 5.016480 0.000000 0.373310 
#    y 0.000000 4.013260 0.000000 
#    z 0.373310 0.000000 3.991800 
# 
# 
# High freq. dielectric constant tensor:
#      x y z
#    x 1.786080 0.000000 0.000170 
#    y 0.000000 1.777410 0.000000 
#    z 0.000170 0.000000 1.797730 
# 
# From -- ./inp_files/47118.got.cif
#   From: 2010.06.25/outbox.cif.g09.slc.cpg/sg13_24_cif.got.tgz:47118.got - 2010.06.28 04:50:58.
