data_PCOD8121790
_publ_section_title
;
Structure prediction by ZEFSAII (Michael W. Deem and Ramdas Pophale) SiO2 
 PCOD8121790
Probable space group: P 2/C
;
_chemical_formula_sum "Si O2"
_cell_formula_units_Z 20
_cell_length_a 5.415213
_cell_length_b 8.864772
_cell_length_c 17.158538
_cell_angle_alpha 90.000000
_cell_angle_beta 102.251970
_cell_angle_gamma 90.000000
_cell_volume 804.928741
_symmetry_space_group_name_H-M "P 2/C"
_symmetry_group_IT_number 13
_symmetry_cell_setting 'monoclinic'
loop_
_space_group_symop_operation_xyz
x,y,z
-x,y,1/2-z
-x,-y,-z
x,-y,1/2+z
loop_
_atom_site_type_symbol
_atom_site_label
_atom_site_fract_x
_atom_site_fract_y
_atom_site_fract_z
Si Si1 0.694993 0.062237 0.102834
Si Si2 0.161583 0.143979 0.049974
Si Si3 0.966942 0.662523 0.658838
Si Si4 0.722308 0.592686 0.056642
Si Si5 0.277739 0.776592 0.297464
O O1 0.761150 0.946275 0.175066
O O2 0.408959 0.041200 0.053781
O O3 0.714568 0.233034 0.137239
O O4 0.900007 0.041319 0.043963
O O5 0.186306 0.231472 0.136071
O O6 0.144206 0.274024 0.983342
O O7 0.941684 0.520744 0.599141
O O8 0.000000 0.610018 0.750000
O O9 0.613432 0.669793 0.127235
O O10 0.500000 0.500000 0.000000
O O11 0.500000 0.770928 0.250000
O O12 0.000000 0.721447 0.250000
#
# Coordination Sequence:
#
# PCOD8121790 Si02
#       5
#     4   4   4   4   4
#     4  10  23  44  75 101 140 184 244 298 360 420
#     4  10  23  43  73 105 143 189 240 298 354 436
#     4  10  23  41  72 104 142 191 247 294 359 422
#     4  12  25  49  71 108 155 196 242 294 367 441
#     4  12  29  50  76 110 147 187 243 309 366 428
#
# _framework density 24.846920999999998
#
# number of rings (size 3 to 8) (size 9 to 14) (size 15 to 20)
#    1.200    0.000    2.000    3.000    2.800    8.000 
#    0.000    0.000    0.000    0.000    0.000    0.000 
#    0.000    0.000    0.000    0.000    0.000    0.000 
#
# Total GULP energy -247798.732825 kJ/mol
# GULP energy per Si atom -12389.936641 kJ/mol
# Density = 2.479037 g / cm^3
# Si number density = 24.846921 Si / 1000 Ang^3
#
#
#
# Elastic Constant Matrix: (Units=GPa)
#
#
# Indices 1 2 3 4 5 6 
#
# 1 187.0925 39.5858 83.6979 0.0000 -14.7696 0.0000
# 2 39.5858 68.7266 38.2053 0.0000 5.2064 0.0000
# 3 83.6979 38.2053 146.1339 0.0000 -12.7256 0.0000
# 4 0.0000 0.0000 0.0000 54.7649 0.0000 1.2331
# 5 -14.7696 5.2064 -12.7256 0.0000 43.8570 0.0000
# 6 0.0000 0.0000 0.0000 1.2331 0.0000 25.3672
#
#
#
# Elastic Compliance Matrix: (Units=1/GPa)
#
#
# Indices 1 2 3 4 5 6 
#
# 1 0.007611 -0.002562 -0.003529 0.000000 0.001843 0.000000
# 2 -0.002562 0.018395 -0.003701 0.000000 -0.004120 0.000000
# 3 -0.003529 -0.003701 0.010020 0.000000 0.002158 0.000000
# 4 0.000000 0.000000 0.000000 0.018280 0.000000 -0.000889
# 5 0.001843 -0.004120 0.002158 0.000000 0.024538 0.000000
# 6 0.000000 0.000000 0.000000 -0.000889 0.000000 0.039464
#
#
# Mechanical properties :
#
#
# Convention : Reuss Voigt Hill
#
# Bulk Modulus (GPa) = 60.81596 80.54788 70.68192
# Shear Modulus (GPa) = 34.87417 40.82876 37.85146
#
# Velocity S-wave (km/s) = 3.75048 4.05805 3.90729
# Velocity P-wave (km/s) = 6.57907 7.37869 6.99032
#
# Compressibility (1/GPa) = 0.01644305
#
# Stress axis : x y z
#
# Youngs Moduli (GPa) = 131.38397 54.36131 99.80259
#
# Poissons Ratio (x) = 0.13927 0.35221
# Poissons Ratio (y) = 0.33659 0.36935
# Poissons Ratio (z) = 0.46366 0.20118
#
# Static dielectric constant tensor:
#      x y z
#    x 4.370410 0.000000 -0.157110 
#    y 0.000000 4.677210 0.000000 
#    z -0.157110 0.000000 4.529010 
# 
# 
# High freq. dielectric constant tensor:
#      x y z
#    x 1.981850 0.000000 -0.018040 
#    y 0.000000 2.010660 0.000000 
#    z -0.018040 0.000000 2.003660 
# 
# From -- ./inp_files/60701.got.cif
#   From: 2010.06.25/outbox.cif.g09.slc.cpg/sg13_31_cif.got.tgz:60701.got - 2010.06.28 04:50:58.
