data_PCOD8121315
_publ_section_title
;
Structure prediction by ZEFSAII (Michael W. Deem and Ramdas Pophale) SiO2 
 PCOD8121315
Probable space group: P 2/C
;
_chemical_formula_sum "Si O2"
_cell_formula_units_Z 28
_cell_length_a 8.077605
_cell_length_b 17.329720
_cell_length_c 10.316769
_cell_angle_alpha 90.000000
_cell_angle_beta 118.988740
_cell_angle_gamma 90.000000
_cell_volume 1263.235791
_symmetry_space_group_name_H-M "P 2/C"
_symmetry_group_IT_number 13
_symmetry_cell_setting 'monoclinic'
loop_
_space_group_symop_operation_xyz
x,y,z
-x,y,1/2-z
-x,-y,-z
x,-y,1/2+z
loop_
_atom_site_type_symbol
_atom_site_label
_atom_site_fract_x
_atom_site_fract_y
_atom_site_fract_z
Si Si1 0.328761 0.225049 0.866814
Si Si2 0.194958 0.956224 0.056791
Si Si3 0.932205 0.642353 0.589613
Si Si4 0.747418 0.213122 0.945034
Si Si5 0.312866 0.340644 0.094305
Si Si6 0.375528 0.485912 0.581579
Si Si7 0.780230 0.060483 0.652564
O O1 0.533433 0.197607 0.901477
O O2 0.220729 0.244884 0.690966
O O3 0.239998 0.149422 0.901973
O O4 0.327146 0.298395 0.961248
O O5 0.147932 0.868577 0.994732
O O6 0.310440 0.952623 0.237839
O O7 0.311607 0.002458 0.989265
O O8 0.000000 0.000000 0.000000
O O9 0.814300 0.720413 0.568327
O O10 0.794882 0.575776 0.483502
O O11 0.000000 0.606798 0.750000
O O12 0.110176 0.677453 0.578553
O O13 0.500000 0.318848 0.250000
O O14 0.286968 0.431707 0.073957
O O15 0.500000 0.457688 0.750000
O O16 0.500000 0.500000 0.500000
O O17 0.000000 0.040369 0.750000
#
# Coordination Sequence:
#
# PCOD8121315 Si02
#       7
#     4   4   4   4   4   4   4
#     4  10  22  41  65  93 136 172 230 279 340 407
#     4   9  19  36  59  89 127 169 221 278 336 401
#     4  12  26  44  70 101 139 179 230 279 351 409
#     4  10  23  41  65  95 131 184 221 281 339 416
#     4  11  25  45  67 100 138 176 226 286 338 408
#     4  11  25  47  74 103 142 180 226 283 346 413
#     4   9  19  36  60  89 126 165 223 271 341 397
#
# _framework density 22.165299999999998
#
# number of rings (size 3 to 8) (size 9 to 14) (size 15 to 20)
#    0.000    1.714    0.000    3.857   10.000    2.286 
#    2.571    0.000    0.000    0.000    0.000    0.000 
#    0.000    0.000    0.000    0.000    0.000    0.000 
#
# Total GULP energy -346867.243689 kJ/mol
# GULP energy per Si atom -12388.115846 kJ/mol
# Density = 2.211485 g / cm^3
# Si number density = 22.165300 Si / 1000 Ang^3
#
#
#
# Elastic Constant Matrix: (Units=GPa)
#
#
# Indices 1 2 3 4 5 6 
#
# 1 76.7499 14.0327 34.8930 0.0000 -4.6327 0.0000
# 2 14.0327 126.5607 62.6187 0.0000 5.4105 0.0000
# 3 34.8930 62.6187 117.8532 0.0000 -8.1505 0.0000
# 4 0.0000 0.0000 0.0000 37.1510 0.0000 -9.7924
# 5 -4.6327 5.4105 -8.1505 0.0000 27.1130 0.0000
# 6 0.0000 0.0000 0.0000 -9.7924 0.0000 21.6383
#
#
#
# Elastic Compliance Matrix: (Units=1/GPa)
#
#
# Indices 1 2 3 4 5 6 
#
# 1 0.015133 0.000623 -0.004740 0.000000 0.001037 0.000000
# 2 0.000623 0.011172 -0.006400 0.000000 -0.004047 0.000000
# 3 -0.004740 -0.006400 0.013604 0.000000 0.004557 0.000000
# 4 0.000000 0.000000 0.000000 0.030563 0.000000 0.013831
# 5 0.001037 -0.004047 0.004557 0.000000 0.039237 0.000000
# 6 0.000000 0.000000 0.000000 0.013831 0.000000 0.052474
#
#
# Mechanical properties :
#
#
# Convention : Reuss Voigt Hill
#
# Bulk Modulus (GPa) = 52.98054 60.47250 56.72652
# Shear Modulus (GPa) = 26.38402 31.15507 28.76954
#
# Velocity S-wave (km/s) = 3.45386 3.75317 3.60662
# Velocity P-wave (km/s) = 6.31347 6.79143 6.55680
#
# Compressibility (1/GPa) = 0.01887485
#
# Stress axis : x y z
#
# Youngs Moduli (GPa) = 66.08151 89.50977 73.50676
#
# Poissons Ratio (x) = -0.05575 0.34840
# Poissons Ratio (y) = -0.04116 0.47046
# Poissons Ratio (z) = 0.31320 0.57289
#
# Static dielectric constant tensor:
#      x y z
#    x 5.084010 0.000000 -1.742880 
#    y 0.000000 4.055590 0.000000 
#    z -1.742880 0.000000 6.477150 
# 
# 
# High freq. dielectric constant tensor:
#      x y z
#    x 1.877320 0.000000 -0.005630 
#    y 0.000000 1.879400 0.000000 
#    z -0.005630 0.000000 1.866990 
# 
# From -- ./inp_files/30465.got.cif
#   From: 2010.06.25/outbox.cif.g09.slc.cpg/sg13_16_cif.got.tgz:30465.got - 2010.06.28 04:50:58.
