data_PCOD8121747
_publ_section_title
;
Structure prediction by ZEFSAII (Michael W. Deem and Ramdas Pophale) SiO2 
 PCOD8121747
Probable space group: P 2/C
;
_chemical_formula_sum "Si O2"
_cell_formula_units_Z 24
_cell_length_a 12.128399
_cell_length_b 7.329416
_cell_length_c 18.329747
_cell_angle_alpha 90.000000
_cell_angle_beta 43.878385
_cell_angle_gamma 90.000000
_cell_volume 1129.390116
_symmetry_space_group_name_H-M "P 2/C"
_symmetry_group_IT_number 13
_symmetry_cell_setting 'monoclinic'
loop_
_space_group_symop_operation_xyz
x,y,z
-x,y,1/2-z
-x,-y,-z
x,-y,1/2+z
loop_
_atom_site_type_symbol
_atom_site_label
_atom_site_fract_x
_atom_site_fract_y
_atom_site_fract_z
Si Si1 0.224876 0.547053 0.841529
Si Si2 0.379204 0.251331 0.682072
Si Si3 0.176614 0.216044 0.637714
Si Si4 0.734805 0.110813 0.503750
Si Si5 0.316425 0.946343 0.821049
Si Si6 0.120907 0.478326 0.047970
O O1 0.367722 0.442098 0.732123
O O2 0.239936 0.763517 0.825630
O O3 0.061842 0.478991 0.882467
O O4 0.230066 0.495989 0.924119
O O5 0.293368 0.274817 0.646312
O O6 0.561139 0.199868 0.583755
O O7 0.289473 0.097717 0.772219
O O8 0.245447 0.031764 0.570507
O O9 0.182986 0.380036 0.577547
O O10 0.000000 0.179752 0.750000
O O11 0.770771 0.011165 0.563532
O O12 0.861413 0.272444 0.430841
O O13 0.500000 0.910328 0.750000
#
# Coordination Sequence:
#
# PCOD8121747 Si02
#       6
#     4   4   4   4   4   4
#     4  11  23  41  68  99 136 177 229 284 342 407
#     4  11  25  44  69 104 136 177 233 284 343 415
#     4  12  26  46  66 100 145 185 226 287 343 409
#     4  11  25  44  72  99 138 180 232 282 344 411
#     4  10  23  40  70 102 131 177 230 283 340 401
#     4  11  25  41  67  99 135 181 229 282 345 408
#
# _framework density 21.250408
#
# number of rings (size 3 to 8) (size 9 to 14) (size 15 to 20)
#    0.000    1.000    5.000    0.500    4.667    3.333 
#    0.000    0.000    0.000    0.000    0.000    0.000 
#    0.000    0.000    0.000    0.000    0.000    0.000 
#
# Total GULP energy -297764.983169 kJ/mol
# GULP energy per Si atom -12406.874299 kJ/mol
# Density = 2.120204 g / cm^3
# Si number density = 21.250408 Si / 1000 Ang^3
#
#
#
# Elastic Constant Matrix: (Units=GPa)
#
#
# Indices 1 2 3 4 5 6 
#
# 1 102.4234 47.0196 42.2586 0.0000 25.8036 0.0000
# 2 47.0196 144.0395 50.9889 0.0000 8.2266 0.0000
# 3 42.2586 50.9889 102.6610 0.0000 9.9680 0.0000
# 4 0.0000 0.0000 0.0000 47.4786 0.0000 3.0498
# 5 25.8036 8.2266 9.9680 0.0000 28.3392 0.0000
# 6 0.0000 0.0000 0.0000 3.0498 0.0000 36.3957
#
#
#
# Elastic Compliance Matrix: (Units=1/GPa)
#
#
# Indices 1 2 3 4 5 6 
#
# 1 0.015827 -0.003135 -0.003776 0.000000 -0.012173 0.000000
# 2 -0.003135 0.009072 -0.003352 0.000000 0.001399 0.000000
# 3 -0.003776 -0.003352 0.012975 0.000000 -0.000152 0.000000
# 4 0.000000 0.000000 0.000000 0.021176 0.000000 -0.001774
# 5 -0.012173 0.001399 -0.000152 0.000000 0.046018 0.000000
# 6 0.000000 0.000000 0.000000 -0.001774 0.000000 0.027624
#
#
# Mechanical properties :
#
#
# Convention : Reuss Voigt Hill
#
# Bulk Modulus (GPa) = 57.63867 69.96200 63.80034
# Shear Modulus (GPa) = 31.44650 36.36647 33.90649
#
# Velocity S-wave (km/s) = 3.85100 4.14131 3.99879
# Velocity P-wave (km/s) = 6.85245 7.47405 7.16999
#
# Compressibility (1/GPa) = 0.01734946
#
# Stress axis : x y z
#
# Youngs Moduli (GPa) = 63.18279 110.22596 77.07363
#
# Poissons Ratio (x) = 0.34551 0.29104
# Poissons Ratio (y) = 0.19805 0.25832
# Poissons Ratio (z) = 0.23859 0.36943
#
# Static dielectric constant tensor:
#      x y z
#    x 3.747900 0.000000 0.120300 
#    y 0.000000 3.900490 0.000000 
#    z 0.120300 0.000000 3.863260 
# 
# 
# High freq. dielectric constant tensor:
#      x y z
#    x 1.833720 0.000000 0.004540 
#    y 0.000000 1.847020 0.000000 
#    z 0.004540 0.000000 1.831360 
# 
# From -- ./inp_files/78987.got.cif
#   From: 2010.06.25/outbox.cif.g09.slc.cpg/sg13_40_cif.got.tgz:78987.got - 2010.06.28 04:50:58.
