data_PCOD8121308
_publ_section_title
;
Structure prediction by ZEFSAII (Michael W. Deem and Ramdas Pophale) SiO2 
 PCOD8121308
Probable space group: P 2/C
;
_chemical_formula_sum "Si O2"
_cell_formula_units_Z 26
_cell_length_a 24.992203
_cell_length_b 8.330093
_cell_length_c 12.565108
_cell_angle_alpha 90.000000
_cell_angle_beta 151.412834
_cell_angle_gamma 90.000000
_cell_volume 1251.694041
_symmetry_space_group_name_H-M "P 2/C"
_symmetry_group_IT_number 13
_symmetry_cell_setting 'monoclinic'
loop_
_space_group_symop_operation_xyz
x,y,z
-x,y,1/2-z
-x,-y,-z
x,-y,1/2+z
loop_
_atom_site_type_symbol
_atom_site_label
_atom_site_fract_x
_atom_site_fract_y
_atom_site_fract_z
Si Si1 0.248177 0.644965 0.979181
Si Si2 0.537691 0.826731 0.195807
Si Si3 0.185845 0.291907 0.808287
Si Si4 0.000000 0.025105 0.750000
Si Si5 0.787212 0.176549 0.884073
Si Si6 0.656828 0.084587 0.276801
Si Si7 0.041379 0.171036 0.033505
O O1 0.226073 0.472153 0.892525
O O2 0.164644 0.778399 0.784391
O O3 0.374857 0.683074 0.167907
O O4 0.231463 0.661460 0.077991
O O5 0.500000 0.833495 0.250000
O O6 0.594202 0.996367 0.264335
O O7 0.429555 0.794718 0.931893
O O8 0.219111 0.223390 0.750745
O O9 0.051943 0.297553 0.589915
O O10 0.239078 0.182312 0.993663
O O11 0.951771 0.150472 0.580712
O O12 0.904206 0.903809 0.622565
O O13 0.693122 0.046497 0.751487
O O14 0.000000 0.000000 0.000000
#
# Coordination Sequence:
#
# PCOD8121308 Si02
#       7
#     4   4   4   2   4   4   4
#     4  11  26  42  61  98 140 171 211 269 337 393
#     4  10  22  41  65  91 128 172 228 275 310 383
#     4  12  24  41  68  97 137 171 206 274 339 391
#     4  12  22  36  72  94 124 168 216 276 312 374
#     4  11  22  41  65  97 129 169 221 269 322 390
#     4  10  22  41  66  96 122 171 232 275 313 382
#     4  12  22  40  65  96 126 169 221 261 316 392
#
# _framework density 20.771849
#
# number of rings (size 3 to 8) (size 9 to 14) (size 15 to 20)
#    0.000    0.923    4.615    2.308    2.154    3.077 
#    0.000    3.846    0.000    0.000    0.000    0.000 
#    0.000    0.000    0.000    0.000    0.000    0.000 
#
# Total GULP energy -322357.662409 kJ/mol
# GULP energy per Si atom -12398.371631 kJ/mol
# Density = 2.072457 g / cm^3
# Si number density = 20.771849 Si / 1000 Ang^3
#
#
#
# Elastic Constant Matrix: (Units=GPa)
#
#
# Indices 1 2 3 4 5 6 
#
# 1 121.9446 29.1888 25.2411 0.0000 -0.1986 0.0000
# 2 29.1888 88.1616 26.5182 0.0000 -5.3984 0.0000
# 3 25.2411 26.5182 91.2401 0.0000 4.9256 0.0000
# 4 0.0000 0.0000 0.0000 35.6554 0.0000 0.2946
# 5 -0.1986 -5.3984 4.9256 0.0000 34.1977 0.0000
# 6 0.0000 0.0000 0.0000 0.2946 0.0000 23.5980
#
#
#
# Elastic Compliance Matrix: (Units=1/GPa)
#
#
# Indices 1 2 3 4 5 6 
#
# 1 0.009172 -0.002498 -0.001807 0.000000 -0.000081 0.000000
# 2 -0.002498 0.013326 -0.003321 0.000000 0.002567 0.000000
# 3 -0.001807 -0.003321 0.012552 0.000000 -0.002343 0.000000
# 4 0.000000 0.000000 0.000000 0.028049 0.000000 -0.000350
# 5 -0.000081 0.002567 -0.002343 0.000000 0.029984 0.000000
# 6 0.000000 0.000000 0.000000 -0.000350 0.000000 0.042381
#
#
# Mechanical properties :
#
#
# Convention : Reuss Voigt Hill
#
# Bulk Modulus (GPa) = 50.50962 51.47139 50.99051
# Shear Modulus (GPa) = 31.78342 33.38343 32.58343
#
# Velocity S-wave (km/s) = 3.91592 4.01327 3.96490
# Velocity P-wave (km/s) = 6.69441 6.80502 6.74994
#
# Compressibility (1/GPa) = 0.01979821
#
# Stress axis : x y z
#
# Youngs Moduli (GPa) = 109.02365 75.04178 79.67145
#
# Poissons Ratio (x) = 0.18747 0.14397
# Poissons Ratio (y) = 0.27236 0.26455
# Poissons Ratio (z) = 0.19701 0.24918
#
# Static dielectric constant tensor:
#      x y z
#    x 3.610940 0.000000 0.101520 
#    y 0.000000 3.368390 0.000000 
#    z 0.101520 0.000000 4.080720 
# 
# 
# High freq. dielectric constant tensor:
#      x y z
#    x 1.826520 0.000000 0.001390 
#    y 0.000000 1.785360 0.000000 
#    z 0.001390 0.000000 1.827020 
# 
# From -- ./inp_files/41675.got.cif
#   From: 2010.06.25/outbox.cif.g09.slc.cpg/sg13_21_cif.got.tgz:41675.got - 2010.06.28 04:50:58.
