data_PCOD8121897
_publ_section_title
;
Structure prediction by ZEFSAII (Michael W. Deem and Ramdas Pophale) SiO2 
 PCOD8121897
Probable space group: P 2/C
;
_chemical_formula_sum "Si O2"
_cell_formula_units_Z 22
_cell_length_a 11.269165
_cell_length_b 5.576746
_cell_length_c 24.262874
_cell_angle_alpha 90.000000
_cell_angle_beta 37.834827
_cell_angle_gamma 90.000000
_cell_volume 935.297077
_symmetry_space_group_name_H-M "P 2/C"
_symmetry_group_IT_number 13
_symmetry_cell_setting 'monoclinic'
loop_
_space_group_symop_operation_xyz
x,y,z
-x,y,1/2-z
-x,-y,-z
x,-y,1/2+z
loop_
_atom_site_type_symbol
_atom_site_label
_atom_site_fract_x
_atom_site_fract_y
_atom_site_fract_z
Si Si1 0.628355 0.883843 0.532284
Si Si2 0.728676 0.449839 0.656598
Si Si3 0.000000 0.932157 0.250000
Si Si4 0.306371 0.252329 0.080692
Si Si5 0.019915 0.358438 0.640659
Si Si6 0.339354 0.945873 0.856386
O O1 0.490487 0.682023 0.552791
O O2 0.852486 0.802057 0.447991
O O3 0.565815 0.938502 0.617823
O O4 0.609475 0.130456 0.505262
O O5 0.500000 0.447273 0.750000
O O6 0.784009 0.695705 0.603422
O O7 0.845236 0.475902 0.670961
O O8 0.782617 0.196244 0.606023
O O9 0.187080 0.074061 0.162894
O O10 0.921104 0.784789 0.226516
O O11 0.166226 0.464307 0.116900
O O12 0.500000 0.943061 0.750000
#
# Coordination Sequence:
#
# PCOD8121897 Si02
#       6
#     4   4   2   4   4   4
#     4  10  24  43  69  98 139 179 234 291 359 418
#     4  10  25  43  69  99 139 188 237 290 349 416
#     4  10  24  38  68 102 126 184 224 298 350 418
#     4  10  23  44  69 101 136 180 228 295 357 420
#     4  11  24  42  67 100 139 178 239 291 357 426
#     4  10  24  44  68 102 133 191 235 288 346 422
#
# _framework density 23.521939
#
# number of rings (size 3 to 8) (size 9 to 14) (size 15 to 20)
#    0.000    1.818    0.000    1.091   12.727    5.818 
#    0.000    0.000    0.000    0.000    0.000    0.000 
#    0.000    0.000    0.000    0.000    0.000    0.000 
#
# Total GULP energy -272576.593144 kJ/mol
# GULP energy per Si atom -12389.845143 kJ/mol
# Density = 2.346840 g / cm^3
# Si number density = 23.521939 Si / 1000 Ang^3
#
#
#
# Elastic Constant Matrix: (Units=GPa)
#
#
# Indices 1 2 3 4 5 6 
#
# 1 121.5941 31.4596 70.8107 0.0000 13.3150 0.0000
# 2 31.4596 146.6656 16.4607 0.0000 9.6602 0.0000
# 3 70.8107 16.4607 89.8245 0.0000 27.5825 0.0000
# 4 0.0000 0.0000 0.0000 29.4708 0.0000 -34.7993
# 5 13.3150 9.6602 27.5825 0.0000 43.1322 0.0000
# 6 0.0000 0.0000 0.0000 -34.7993 0.0000 49.1277
#
#
#
# Elastic Compliance Matrix: (Units=1/GPa)
#
#
# Indices 1 2 3 4 5 6 
#
# 1 0.016384 -0.002245 -0.013819 0.000000 0.004282 0.000000
# 2 -0.002245 0.007299 0.000898 0.000000 -0.001516 0.000000
# 3 -0.013819 0.000898 0.025651 0.000000 -0.012339 0.000000
# 4 0.000000 0.000000 0.000000 0.207429 0.000000 0.146931
# 5 0.004282 -0.001516 -0.012339 0.000000 0.030092 0.000000
# 6 0.000000 0.000000 0.000000 0.146931 0.000000 0.124433
#
#
# Mechanical properties :
#
#
# Convention : Reuss Voigt Hill
#
# Bulk Modulus (GPa) = 52.62997 66.17180 59.40088
# Shear Modulus (GPa) = 11.16185 40.30303 25.73244
#
# Velocity S-wave (km/s) = 2.18073 4.14384 3.31112
# Velocity P-wave (km/s) = 5.36323 7.14761 6.31872
#
# Compressibility (1/GPa) = 0.01900058
#
# Stress axis : x y z
#
# Youngs Moduli (GPa) = 61.03622 137.00661 38.98473
#
# Poissons Ratio (x) = 0.30763 0.53874
# Poissons Ratio (y) = 0.13705 -0.03501
# Poissons Ratio (z) = 0.84347 -0.12303
#
# Static dielectric constant tensor:
#      x y z
#    x 4.194040 0.000000 0.101870 
#    y 0.000000 5.205640 0.000000 
#    z 0.101870 0.000000 4.291780 
# 
# 
# High freq. dielectric constant tensor:
#      x y z
#    x 1.934420 0.000000 0.006200 
#    y 0.000000 1.935840 0.000000 
#    z 0.006200 0.000000 1.920240 
# 
# From -- ./inp_files/72165.got.cif
#   From: 2010.06.25/outbox.cif.g09.slc.cpg/sg13_37_cif.got.tgz:72165.got - 2010.06.28 04:50:58.
