data_PCOD8121759
_publ_section_title
;
Structure prediction by ZEFSAII (Michael W. Deem and Ramdas Pophale) SiO2 
 PCOD8121759
Probable space group: P 2/C
;
_chemical_formula_sum "Si O2"
_cell_formula_units_Z 16
_cell_length_a 6.610010
_cell_length_b 8.659208
_cell_length_c 21.330453
_cell_angle_alpha 90.000000
_cell_angle_beta 37.451984
_cell_angle_gamma 90.000000
_cell_volume 742.425308
_symmetry_space_group_name_H-M "P 2/C"
_symmetry_group_IT_number 13
_symmetry_cell_setting 'monoclinic'
loop_
_space_group_symop_operation_xyz
x,y,z
-x,y,1/2-z
-x,-y,-z
x,-y,1/2+z
loop_
_atom_site_type_symbol
_atom_site_label
_atom_site_fract_x
_atom_site_fract_y
_atom_site_fract_z
Si Si1 0.362851 0.428551 0.596155
Si Si2 0.397133 0.906550 0.464113
Si Si3 0.616222 0.101342 0.156213
Si Si4 0.368894 0.557615 0.717015
O O1 0.500000 0.500000 0.500000
O O2 0.371972 0.244220 0.591300
O O3 0.564294 0.483006 0.609302
O O4 0.006099 0.502279 0.692844
O O5 0.008924 0.861569 0.561729
O O6 0.500000 0.000000 0.500000
O O7 0.478446 0.998152 0.380280
O O8 0.500000 0.018216 0.250000
O O9 0.404642 0.258197 0.204092
O O10 0.500000 0.490385 0.750000
#
# Coordination Sequence:
#
# PCOD8121759 Si02
#       4
#     4   4   4   4
#     4  11  23  40  65  95 127 166 212 261 315 377
#     4  11  25  42  66  97 129 168 213 264 319 378
#     4  10  23  43  66  93 129 170 210 261 321 378
#     4  10  23  41  63  92 126 167 212 260 314 377
#
# _framework density 21.550986999999999
#
# number of rings (size 3 to 8) (size 9 to 14) (size 15 to 20)
#    0.000    1.500    0.000    4.500    0.000   18.000 
#    0.000    0.000    0.000    0.000    0.000    0.000 
#    0.000    0.000    0.000    0.000    0.000    0.000 
#
# Total GULP energy -198291.233766 kJ/mol
# GULP energy per Si atom -12393.202110 kJ/mol
# Density = 2.150194 g / cm^3
# Si number density = 21.550987 Si / 1000 Ang^3
#
#
#
# Elastic Constant Matrix: (Units=GPa)
#
#
# Indices 1 2 3 4 5 6 
#
# 1 165.2763 87.9250 81.7158 0.0000 53.6924 0.0000
# 2 87.9250 159.1508 68.7936 0.0000 15.2103 0.0000
# 3 81.7158 68.7936 133.8653 0.0000 34.9411 0.0000
# 4 0.0000 0.0000 0.0000 47.6133 0.0000 1.3760
# 5 53.6924 15.2103 34.9411 0.0000 65.7052 0.0000
# 6 0.0000 0.0000 0.0000 1.3760 0.0000 42.3347
#
#
#
# Elastic Compliance Matrix: (Units=1/GPa)
#
#
# Indices 1 2 3 4 5 6 
#
# 1 0.012716 -0.004885 -0.003292 0.000000 -0.007510 0.000000
# 2 -0.004885 0.009963 -0.002994 0.000000 0.003277 0.000000
# 3 -0.003292 -0.002994 0.011769 0.000000 -0.002875 0.000000
# 4 0.000000 0.000000 0.000000 0.021022 0.000000 -0.000683
# 5 -0.007510 0.003277 -0.002875 0.000000 0.022127 0.000000
# 6 0.000000 0.000000 0.000000 -0.000683 0.000000 0.023644
#
#
# Mechanical properties :
#
#
# Convention : Reuss Voigt Hill
#
# Bulk Modulus (GPa) = 82.59423 103.90681 93.25052
# Shear Modulus (GPa) = 39.17985 45.78782 42.48383
#
# Velocity S-wave (km/s) = 4.26844 4.61437 4.44477
# Velocity P-wave (km/s) = 7.91839 8.75836 8.34895
#
# Compressibility (1/GPa) = 0.01210738
#
# Stress axis : x y z
#
# Youngs Moduli (GPa) = 78.63827 100.37467 84.97163
#
# Poissons Ratio (x) = 0.49029 0.27973
# Poissons Ratio (y) = 0.38412 0.25436
# Poissons Ratio (z) = 0.25888 0.30047
#
# Static dielectric constant tensor:
#      x y z
#    x 3.167690 0.000000 -0.464250 
#    y 0.000000 3.818180 0.000000 
#    z -0.464250 0.000000 3.449690 
# 
# 
# High freq. dielectric constant tensor:
#      x y z
#    x 1.869890 0.000000 0.029100 
#    y 0.000000 1.838360 0.000000 
#    z 0.029100 0.000000 1.858310 
# 
# From -- ./inp_files/54968.got.cif
#   From: 2010.06.25/outbox.cif.g09.slc.cpg/sg13_28_cif.got.tgz:54968.got - 2010.06.28 04:50:58.
