data_PCOD8121641
_publ_section_title
;
Structure prediction by ZEFSAII (Michael W. Deem and Ramdas Pophale) SiO2 
 PCOD8121641
Probable space group: P 2/C
;
_chemical_formula_sum "Si O2"
_cell_formula_units_Z 20
_cell_length_a 11.192460
_cell_length_b 12.336275
_cell_length_c 14.557306
_cell_angle_alpha 90.000000
_cell_angle_beta 28.274033
_cell_angle_gamma 90.000000
_cell_volume 952.103175
_symmetry_space_group_name_H-M "P 2/C"
_symmetry_group_IT_number 13
_symmetry_cell_setting 'monoclinic'
loop_
_space_group_symop_operation_xyz
x,y,z
-x,y,1/2-z
-x,-y,-z
x,-y,1/2+z
loop_
_atom_site_type_symbol
_atom_site_label
_atom_site_fract_x
_atom_site_fract_y
_atom_site_fract_z
Si Si1 0.248322 0.721854 0.710561
Si Si2 0.054697 0.810821 0.023502
Si Si3 0.500000 0.977541 0.750000
Si Si4 0.674558 0.363164 0.047478
Si Si5 0.000000 0.450297 0.250000
Si Si6 0.496835 0.097796 0.571805
O O1 0.056128 0.761121 0.919954
O O2 0.516782 0.691457 0.572913
O O3 0.303315 0.812428 0.596397
O O4 0.122413 0.619657 0.747591
O O5 0.113525 0.721590 0.061924
O O6 0.264465 0.904432 0.880535
O O7 0.783565 0.856329 0.230236
O O8 0.590010 0.054320 0.606598
O O9 0.500000 0.394699 0.250000
O O10 0.787440 0.475419 0.938130
O O11 0.500000 0.000000 0.500000
#
# Coordination Sequence:
#
# PCOD8121641 Si02
#       6
#     4   4   2   4   2   4
#     4  11  25  44  64 101 135 175 229 274 344 402
#     4  11  23  47  68  96 134 178 231 278 329 416
#     4  12  24  44  70 100 130 180 230 276 338 404
#     4  10  22  45  70  93 131 179 230 274 341 406
#     4  12  26  38  70 100 136 176 220 290 338 398
#     4  12  26  41  69  99 137 182 224 281 340 400
#
# _framework density 21.006125999999998
#
# number of rings (size 3 to 8) (size 9 to 14) (size 15 to 20)
#    0.000    0.800    5.000    2.400    2.800    7.200 
#    0.000    0.000    0.000    0.000    0.000    0.000 
#    0.000    0.000    0.000    0.000    0.000    0.000 
#
# Total GULP energy -248112.262173 kJ/mol
# GULP energy per Si atom -12405.613109 kJ/mol
# Density = 2.095832 g / cm^3
# Si number density = 21.006126 Si / 1000 Ang^3
#
#
#
# Elastic Constant Matrix: (Units=GPa)
#
#
# Indices 1 2 3 4 5 6 
#
# 1 95.5937 50.9141 25.8664 0.0000 32.0683 0.0000
# 2 50.9141 122.5144 57.4871 0.0000 20.1978 0.0000
# 3 25.8664 57.4871 85.2995 0.0000 5.5761 0.0000
# 4 0.0000 0.0000 0.0000 39.3824 0.0000 18.1575
# 5 32.0683 20.1978 5.5761 0.0000 30.0707 0.0000
# 6 0.0000 0.0000 0.0000 18.1575 0.0000 23.5028
#
#
#
# Elastic Compliance Matrix: (Units=1/GPa)
#
#
# Indices 1 2 3 4 5 6 
#
# 1 0.018881 -0.004215 -0.001775 0.000000 -0.016975 0.000000
# 2 -0.004215 0.014333 -0.008144 0.000000 -0.003622 0.000000
# 3 -0.001775 -0.008144 0.017481 0.000000 0.004122 0.000000
# 4 0.000000 0.000000 0.000000 0.039441 0.000000 -0.030471
# 5 -0.016975 -0.003622 0.004122 0.000000 0.053025 0.000000
# 6 0.000000 0.000000 0.000000 -0.030471 0.000000 0.066089
#
#
# Mechanical properties :
#
#
# Convention : Reuss Voigt Hill
#
# Bulk Modulus (GPa) = 44.59255 63.54919 54.07087
# Shear Modulus (GPa) = 20.40872 29.86719 25.13796
#
# Velocity S-wave (km/s) = 3.12037 3.77481 3.46308
# Velocity P-wave (km/s) = 5.85292 7.02263 6.46429
#
# Compressibility (1/GPa) = 0.02242527
#
# Stress axis : x y z
#
# Youngs Moduli (GPa) = 52.96465 69.77084 57.20441
#
# Poissons Ratio (x) = 0.29408 0.10154
# Poissons Ratio (y) = 0.22324 0.46590
# Poissons Ratio (z) = 0.09402 0.56825
#
# Static dielectric constant tensor:
#      x y z
#    x 4.071100 0.000000 0.285400 
#    y 0.000000 3.981260 0.000000 
#    z 0.285400 0.000000 3.980750 
# 
# 
# High freq. dielectric constant tensor:
#      x y z
#    x 1.830620 0.000000 0.013330 
#    y 0.000000 1.834000 0.000000 
#    z 0.013330 0.000000 1.831260 
# 
# From -- ./inp_files/33652.got.cif
#   From: 2010.06.25/outbox.cif.g09.slc.cpg/sg13_17_cif.got.tgz:33652.got - 2010.06.28 04:50:58.
