data_PCOD8121004
_publ_section_title
;
Structure prediction by ZEFSAII (Michael W. Deem and Ramdas Pophale) SiO2 
 PCOD8121004
Probable space group: P 2/C
;
_chemical_formula_sum "Si O2"
_cell_formula_units_Z 22
_cell_length_a 16.365446
_cell_length_b 7.221468
_cell_length_c 8.725147
_cell_angle_alpha 90.000000
_cell_angle_beta 102.476906
_cell_angle_gamma 90.000000
_cell_volume 1006.807339
_symmetry_space_group_name_H-M "P 2/C"
_symmetry_group_IT_number 13
_symmetry_cell_setting 'monoclinic'
loop_
_space_group_symop_operation_xyz
x,y,z
-x,y,1/2-z
-x,-y,-z
x,-y,1/2+z
loop_
_atom_site_type_symbol
_atom_site_label
_atom_site_fract_x
_atom_site_fract_y
_atom_site_fract_z
Si Si1 0.617360 0.108362 0.045451
Si Si2 0.074944 0.625170 0.682307
Si Si3 0.735203 0.757918 0.070080
Si Si4 0.500000 0.012521 0.750000
Si Si5 0.920380 0.753660 0.157237
Si Si6 0.259638 0.619680 0.768439
O O1 0.679688 0.277216 0.089521
O O2 0.666561 0.913393 0.073306
O O3 0.547088 0.118083 0.148286
O O4 0.569779 0.136244 0.864682
O O5 0.059770 0.661682 0.497978
O O6 0.078660 0.405883 0.713249
O O7 0.166820 0.697422 0.769587
O O8 0.000000 0.720080 0.750000
O O9 0.829035 0.850371 0.117270
O O10 0.729397 0.599516 0.197475
O O11 0.718700 0.664520 0.898719
O O12 0.000000 0.881694 0.250000
#
# Coordination Sequence:
#
# PCOD8121004 Si02
#       6
#     4   4   4   2   4   4
#     4  11  22  46  63  88 120 152 195 242 306 357
#     4   9  16  29  49  80 117 155 193 234 279 332
#     4  10  22  38  62  91 121 157 200 241 289 349
#     4  10  24  42  70  82 116 158 188 246 306 368
#     4   9  16  29  49  80 117 155 193 234 279 332
#     4  10  22  38  62  91 121 157 200 241 289 349
#
# _framework density 21.851251999999999
#
# number of rings (size 3 to 8) (size 9 to 14) (size 15 to 20)
#    0.000    2.182    1.818    2.182    2.545    1.455 
#    0.000    6.364    0.000    4.364    0.000    0.000 
#    0.000    0.000    0.000    0.000    0.000    0.000 
#
# Total GULP energy -272549.890246 kJ/mol
# GULP energy per Si atom -12388.631375 kJ/mol
# Density = 2.180152 g / cm^3
# Si number density = 21.851252 Si / 1000 Ang^3
#
#
#
# Elastic Constant Matrix: (Units=GPa)
#
#
# Indices 1 2 3 4 5 6 
#
# 1 122.2431 30.0750 45.0915 0.0000 21.8340 0.0000
# 2 30.0750 46.9843 14.2261 0.0000 5.3568 0.0000
# 3 45.0915 14.2261 93.9997 0.0000 28.7893 0.0000
# 4 0.0000 0.0000 0.0000 -29.7598 0.0000 -27.2263
# 5 21.8340 5.3568 28.7893 0.0000 51.3037 0.0000
# 6 0.0000 0.0000 0.0000 -27.2263 0.0000 -15.0574
#
#
#
# Elastic Compliance Matrix: (Units=1/GPa)
#
#
# Indices 1 2 3 4 5 6 
#
# 1 0.011464 -0.005900 -0.003986 0.000000 -0.002026 0.000000
# 2 -0.005900 0.025354 -0.001165 0.000000 0.000518 0.000000
# 3 -0.003986 -0.001165 0.014696 0.000000 -0.006429 0.000000
# 4 0.000000 0.000000 0.000000 0.051362 0.000000 -0.092871
# 5 -0.002026 0.000518 -0.006429 0.000000 0.023907 0.000000
# 6 0.000000 0.000000 0.000000 -0.092871 0.000000 0.101513
#
#
# Mechanical properties :
#
#
# Convention : Reuss Voigt Hill
#
# Bulk Modulus (GPa) = 34.00084 49.11248 41.55666
# Shear Modulus (GPa) = 19.21575 12.88626 16.05101
#
# Velocity S-wave (km/s) = 2.96867 2.43106 2.71321
# Velocity P-wave (km/s) = 5.22920 5.51405 5.37351
#
# Compressibility (1/GPa) = 0.02941104
#
# Stress axis : x y z
#
# Youngs Moduli (GPa) = 87.22775 39.44077 68.04788
#
# Poissons Ratio (x) = 0.23272 0.27123
# Poissons Ratio (y) = 0.51469 0.07930
# Poissons Ratio (z) = 0.34767 0.04596
#
# Static dielectric constant tensor:
#      x y z
#    x 4.565930 0.000000 0.338100 
#    y 0.000000 3.247350 0.000000 
#    z 0.338100 0.000000 4.113120 
# 
# 
# High freq. dielectric constant tensor:
#      x y z
#    x 1.885120 0.000000 0.015930 
#    y 0.000000 1.794050 0.000000 
#    z 0.015930 0.000000 1.875650 
# 
# From -- ./inp_files/17998.got.cif
#   From: 2010.06.25/outbox.cif.g09.slc.cpg/sg13_9_cif.got.tgz:17998.got - 2010.06.28 04:50:58.
