data_PCOD8121239
_publ_section_title
;
Structure prediction by ZEFSAII (Michael W. Deem and Ramdas Pophale) SiO2 
 PCOD8121239
Probable space group: P 2/C
;
_chemical_formula_sum "Si O2"
_cell_formula_units_Z 28
_cell_length_a 19.743069
_cell_length_b 9.047748
_cell_length_c 14.667201
_cell_angle_alpha 90.000000
_cell_angle_beta 29.634129
_cell_angle_gamma 90.000000
_cell_volume 1295.487744
_symmetry_space_group_name_H-M "P 2/C"
_symmetry_group_IT_number 13
_symmetry_cell_setting 'monoclinic'
loop_
_space_group_symop_operation_xyz
x,y,z
-x,y,1/2-z
-x,-y,-z
x,-y,1/2+z
loop_
_atom_site_type_symbol
_atom_site_label
_atom_site_fract_x
_atom_site_fract_y
_atom_site_fract_z
Si Si1 0.333205 0.653521 0.680525
Si Si2 0.357024 0.295045 0.943485
Si Si3 0.862213 0.161032 0.593051
Si Si4 0.500000 0.004609 0.750000
Si Si5 0.789007 0.421595 0.556776
Si Si6 0.065912 0.840835 0.017492
Si Si7 0.453531 0.133670 0.492160
Si Si8 0.000000 0.658205 0.250000
O O1 0.319833 0.642646 0.586433
O O2 0.322280 0.492306 0.742490
O O3 0.210225 0.758894 0.853044
O O4 0.477957 0.720587 0.544389
O O5 0.500000 0.371070 0.750000
O O6 0.370272 0.114311 0.922970
O O7 0.256194 0.343282 0.982532
O O8 0.874982 0.298229 0.509748
O O9 0.987203 0.181928 0.515687
O O10 0.897304 0.009213 0.500272
O O11 0.711090 0.153093 0.815590
O O12 0.486466 0.897032 0.678981
O O13 0.873780 0.558827 0.423494
O O14 0.962750 0.767935 0.210845
O O15 0.500000 0.000000 0.500000
#
# Coordination Sequence:
#
# PCOD8121239 Si02
#       8
#     4   4   4   2   4   4   4   2
#     4  11  24  45  70  92 145 176 219 286 348 404
#     4  10  22  41  67  99 131 174 230 274 340 410
#     4  11  24  43  70  99 133 178 231 278 350 402
#     4  10  22  40  68  98 136 178 228 282 336 408
#     4  11  26  43  69 101 136 184 224 283 350 418
#     4  10  24  45  65  99 132 177 226 289 331 409
#     4  12  21  43  69 100 135 181 223 282 345 401
#     4  10  26  46  64  96 138 178 226 282 344 410
#
# _framework density 21.613482999999999
#
# number of rings (size 3 to 8) (size 9 to 14) (size 15 to 20)
#    0.429    0.857    2.857    1.714    4.000    6.286 
#    3.857    0.000    0.000    0.000    0.000    0.000 
#    0.000    0.000    0.000    0.000    0.000    0.000 
#
# Total GULP energy -346924.780048 kJ/mol
# GULP energy per Si atom -12390.170716 kJ/mol
# Density = 2.156429 g / cm^3
# Si number density = 21.613483 Si / 1000 Ang^3
#
#
#
# Elastic Constant Matrix: (Units=GPa)
#
#
# Indices 1 2 3 4 5 6 
#
# 1 80.3854 52.1471 21.0620 0.0000 5.0350 0.0000
# 2 52.1471 119.1925 35.0868 0.0000 9.2653 0.0000
# 3 21.0620 35.0868 66.8228 0.0000 10.8576 0.0000
# 4 0.0000 0.0000 0.0000 25.4013 0.0000 -5.1253
# 5 5.0350 9.2653 10.8576 0.0000 39.9120 0.0000
# 6 0.0000 0.0000 0.0000 -5.1253 0.0000 -2.9383
#
#
#
# Elastic Compliance Matrix: (Units=1/GPa)
#
#
# Indices 1 2 3 4 5 6 
#
# 1 0.017546 -0.007152 -0.001763 0.000000 -0.000074 0.000000
# 2 -0.007152 0.012872 -0.004358 0.000000 -0.000900 0.000000
# 3 -0.001763 -0.004358 0.018423 0.000000 -0.003778 0.000000
# 4 0.000000 0.000000 0.000000 0.029119 0.000000 -0.050793
# 5 -0.000074 -0.000900 -0.003778 0.000000 0.026301 0.000000
# 6 0.000000 0.000000 0.000000 -0.050793 0.000000 -0.251732
#
#
# Mechanical properties :
#
#
# Convention : Reuss Voigt Hill
#
# Bulk Modulus (GPa) = 44.85431 53.66584 49.26007
# Shear Modulus (GPa) = -44.05523 23.01533 -10.51995
#
# Velocity S-wave (km/s) = -4.51968 3.26676 -2.20859
# Velocity P-wave (km/s) = 2.53745 6.25401 4.04191
#
# Compressibility (1/GPa) = 0.02229440
#
# Stress axis : x y z
#
# Youngs Moduli (GPa) = 56.99274 77.69071 54.28055
#
# Poissons Ratio (x) = 0.55562 0.09571
# Poissons Ratio (y) = 0.40760 0.23656
# Poissons Ratio (z) = 0.10049 0.33858
#
# Static dielectric constant tensor:
#      x y z
#    x 4.425230 0.000000 0.344830 
#    y 0.000000 4.260110 0.000000 
#    z 0.344830 0.000000 4.264390 
# 
# 
# High freq. dielectric constant tensor:
#      x y z
#    x 1.849740 0.000000 0.008480 
#    y 0.000000 1.856120 0.000000 
#    z 0.008480 0.000000 1.846060 
# 
# From -- ./inp_files/57497.got.cif
#   From: 2010.06.25/outbox.cif.g09.slc.cpg/sg13_29_cif.got.tgz:57497.got - 2010.06.28 04:50:58.
