data_PCOD8121617
_publ_section_title
;
Structure prediction by ZEFSAII (Michael W. Deem and Ramdas Pophale) SiO2 
 PCOD8121617
Probable space group: P 2/C
;
_chemical_formula_sum "Si O2"
_cell_formula_units_Z 24
_cell_length_a 14.511073
_cell_length_b 14.365140
_cell_length_c 8.241131
_cell_angle_alpha 90.000000
_cell_angle_beta 44.236272
_cell_angle_gamma 90.000000
_cell_volume 1198.434747
_symmetry_space_group_name_H-M "P 2/C"
_symmetry_group_IT_number 13
_symmetry_cell_setting 'monoclinic'
loop_
_space_group_symop_operation_xyz
x,y,z
-x,y,1/2-z
-x,-y,-z
x,-y,1/2+z
loop_
_atom_site_type_symbol
_atom_site_label
_atom_site_fract_x
_atom_site_fract_y
_atom_site_fract_z
Si Si1 0.906045 0.723249 0.022378
Si Si2 0.631000 0.627179 0.352335
Si Si3 0.755433 0.895711 0.597893
Si Si4 0.500000 0.488351 0.750000
Si Si5 0.502788 0.190562 0.930696
Si Si6 0.252629 0.907719 0.260529
Si Si7 0.000000 0.764424 0.250000
O O1 0.784541 0.652676 0.160612
O O2 0.859256 0.830359 0.066814
O O3 0.970367 0.705616 0.121392
O O4 0.000000 0.702205 0.750000
O O5 0.601977 0.553748 0.528226
O O6 0.595819 0.577524 0.229776
O O7 0.542383 0.720123 0.489892
O O8 0.706075 0.911502 0.478628
O O9 0.877163 0.826932 0.453999
O O10 0.803402 0.992640 0.615119
O O11 0.638331 0.849366 0.845786
O O12 0.500000 0.224586 0.750000
O O13 0.613743 0.111160 0.808313
#
# Coordination Sequence:
#
# PCOD8121617 Si02
#       7
#     4   4   4   2   4   4   2
#     4  10  24  43  65  92 135 171 222 254 317 381
#     4  10  23  42  68 102 119 166 197 270 328 391
#     4  11  23  38  58  88 128 168 224 259 314 365
#     4  10  22  44  72  96 128 142 210 260 340 402
#     4  11  22  37  62  90 124 164 207 268 322 373
#     4  10  23  37  58  90 122 173 216 271 312 353
#     4  10  26  38  62  94 124 190 210 266 304 370
#
# _framework density 20.026119999999999
#
# number of rings (size 3 to 8) (size 9 to 14) (size 15 to 20)
#    0.000    1.667    0.833    2.000   15.167    1.333 
#    3.000    0.833    0.000    0.000    0.000    0.000 
#    0.000    0.000    0.000    0.000    0.000    0.000 
#
# Total GULP energy -297596.407129 kJ/mol
# GULP energy per Si atom -12399.850297 kJ/mol
# Density = 1.998054 g / cm^3
# Si number density = 20.026120 Si / 1000 Ang^3
#
#
#
# Elastic Constant Matrix: (Units=GPa)
#
#
# Indices 1 2 3 4 5 6 
#
# 1 121.6600 46.9880 66.8816 0.0000 4.9767 0.0000
# 2 46.9880 85.5293 36.2417 0.0000 5.7847 0.0000
# 3 66.8816 36.2417 105.2555 0.0000 5.4187 0.0000
# 4 0.0000 0.0000 0.0000 37.9927 0.0000 -10.0898
# 5 4.9767 5.7847 5.4187 0.0000 29.5521 0.0000
# 6 0.0000 0.0000 0.0000 -10.0898 0.0000 42.2292
#
#
#
# Elastic Compliance Matrix: (Units=1/GPa)
#
#
# Indices 1 2 3 4 5 6 
#
# 1 0.014025 -0.004594 -0.007324 0.000000 -0.000120 0.000000
# 2 -0.004594 0.015293 -0.002254 0.000000 -0.001807 0.000000
# 3 -0.007324 -0.002254 0.014986 0.000000 -0.001073 0.000000
# 4 0.000000 0.000000 0.000000 0.028104 0.000000 0.006715
# 5 -0.000120 -0.001807 -0.001073 0.000000 0.034409 0.000000
# 6 0.000000 0.000000 0.000000 0.006715 0.000000 0.025285
#
#
# Mechanical properties :
#
#
# Convention : Reuss Voigt Hill
#
# Bulk Modulus (GPa) = 62.65296 68.07415 65.36355
# Shear Modulus (GPa) = 30.16333 32.77700 31.47017
#
# Velocity S-wave (km/s) = 3.88519 4.05002 3.96846
# Velocity P-wave (km/s) = 7.17494 7.47908 7.32859
#
# Compressibility (1/GPa) = 0.01596094
#
# Stress axis : x y z
#
# Youngs Moduli (GPa) = 71.30158 65.39080 66.73001
#
# Poissons Ratio (x) = 0.30037 0.48873
# Poissons Ratio (y) = 0.32752 0.15039
# Poissons Ratio (z) = 0.52221 0.14738
#
# Static dielectric constant tensor:
#      x y z
#    x 3.903450 0.000000 0.171490 
#    y 0.000000 3.606690 0.000000 
#    z 0.171490 0.000000 3.561280 
# 
# 
# High freq. dielectric constant tensor:
#      x y z
#    x 1.795130 0.000000 0.007780 
#    y 0.000000 1.773410 0.000000 
#    z 0.007780 0.000000 1.780840 
# 
# From -- ./inp_files/19535.got.cif
#   From: 2010.06.25/outbox.cif.g09.slc.cpg/sg13_10_cif.got.tgz:19535.got - 2010.06.28 04:50:58.
