data_PCOD8121646
_publ_section_title
;
Structure prediction by ZEFSAII (Michael W. Deem and Ramdas Pophale) SiO2 
 PCOD8121646
Probable space group: P 2/C
;
_chemical_formula_sum "Si O2"
_cell_formula_units_Z 32
_cell_length_a 17.696015
_cell_length_b 11.935012
_cell_length_c 13.592465
_cell_angle_alpha 90.000000
_cell_angle_beta 30.483531
_cell_angle_gamma 90.000000
_cell_volume 1456.308693
_symmetry_space_group_name_H-M "P 2/C"
_symmetry_group_IT_number 13
_symmetry_cell_setting 'monoclinic'
loop_
_space_group_symop_operation_xyz
x,y,z
-x,y,1/2-z
-x,-y,-z
x,-y,1/2+z
loop_
_atom_site_type_symbol
_atom_site_label
_atom_site_fract_x
_atom_site_fract_y
_atom_site_fract_z
Si Si1 0.835226 0.572963 0.931444
Si Si2 0.423113 0.224330 0.499868
Si Si3 0.646002 0.970954 0.540595
Si Si4 0.624190 0.432710 0.300193
Si Si5 0.130795 0.759308 0.450736
Si Si6 0.863714 0.001748 0.963979
Si Si7 0.819648 0.671132 0.741164
Si Si8 0.675733 0.117127 0.329384
O O1 0.786982 0.598724 0.874453
O O2 0.000000 0.513553 0.750000
O O3 0.699212 0.500407 0.126934
O O4 0.851532 0.690948 0.968886
O O5 0.371267 0.164716 0.455338
O O6 0.538626 0.325555 0.350622
O O7 0.277285 0.263156 0.722062
O O8 0.513614 0.132324 0.462909
O O9 0.500000 0.024781 0.750000
O O10 0.758572 0.021827 0.490937
O O11 0.679720 0.008424 0.392301
O O12 0.500000 0.500000 0.500000
O O13 0.767948 0.403439 0.206407
O O14 0.103332 0.888895 0.510900
O O15 0.991886 0.711054 0.543307
O O16 0.000000 0.052357 0.750000
O O17 0.800299 0.098935 0.105272
O O18 0.713841 0.779245 0.857165
#
# Coordination Sequence:
#
# PCOD8121646 Si02
#       8
#     4   4   4   4   4   4   4   4
#     4  10  22  45  72 105 133 173 237 292 350 428
#     4  11  23  43  65  98 141 177 233 296 348 413
#     4  12  23  41  65  95 136 189 224 275 359 408
#     4  11  24  48  69 101 138 178 234 298 352 428
#     4  11  21  42  70 100 140 174 234 296 336 424
#     4  12  25  39  66 103 141 187 236 280 347 429
#     4  10  25  43  71 102 135 181 229 283 361 408
#     4  11  23  43  64  99 144 178 234 288 336 425
#
# _framework density 21.973364
#
# number of rings (size 3 to 8) (size 9 to 14) (size 15 to 20)
#    0.000    1.000    3.750    3.750    1.750    3.500 
#    2.250    2.500    0.000    0.000    0.000    0.000 
#    0.000    0.000    0.000    0.000    0.000    0.000 
#
# Total GULP energy -396559.807968 kJ/mol
# GULP energy per Si atom -12392.493999 kJ/mol
# Density = 2.192335 g / cm^3
# Si number density = 21.973364 Si / 1000 Ang^3
#
#
#
# Elastic Constant Matrix: (Units=GPa)
#
#
# Indices 1 2 3 4 5 6 
#
# 1 79.2253 38.1460 47.2452 0.0000 -10.5604 0.0000
# 2 38.1460 72.6616 25.7552 0.0000 1.2794 0.0000
# 3 47.2452 25.7552 159.4995 0.0000 2.1029 0.0000
# 4 0.0000 0.0000 0.0000 23.6480 0.0000 -8.4480
# 5 -10.5604 1.2794 2.1029 0.0000 30.9698 0.0000
# 6 0.0000 0.0000 0.0000 -8.4480 0.0000 30.1798
#
#
#
# Elastic Compliance Matrix: (Units=1/GPa)
#
#
# Indices 1 2 3 4 5 6 
#
# 1 0.021149 -0.009530 -0.004830 0.000000 0.007933 0.000000
# 2 -0.009530 0.018899 -0.000176 0.000000 -0.004019 0.000000
# 3 -0.004830 -0.000176 0.007757 0.000000 -0.002167 0.000000
# 4 0.000000 0.000000 0.000000 0.046985 0.000000 0.013152
# 5 0.007933 -0.004019 -0.002167 0.000000 0.035308 0.000000
# 6 0.000000 0.000000 0.000000 0.013152 0.000000 0.036816
#
#
# Mechanical properties :
#
#
# Convention : Reuss Voigt Hill
#
# Bulk Modulus (GPa) = 53.38347 59.29769 56.34058
# Shear Modulus (GPa) = 24.72417 30.30884 27.51651
#
# Velocity S-wave (km/s) = 3.35802 3.71798 3.54258
# Velocity P-wave (km/s) = 6.27554 6.74359 6.51377
#
# Compressibility (1/GPa) = 0.01873239
#
# Stress axis : x y z
#
# Youngs Moduli (GPa) = 47.28385 52.91351 128.91104
#
# Poissons Ratio (x) = 0.50429 0.62266
# Poissons Ratio (y) = 0.45063 0.02265
# Poissons Ratio (z) = 0.22839 0.00930
#
# Static dielectric constant tensor:
#      x y z
#    x 3.993150 0.000000 -0.099990 
#    y 0.000000 3.883000 0.000000 
#    z -0.099990 0.000000 4.095860 
# 
# 
# High freq. dielectric constant tensor:
#      x y z
#    x 1.866060 0.000000 -0.006510 
#    y 0.000000 1.854160 0.000000 
#    z -0.006510 0.000000 1.876150 
# 
# From -- ./inp_files/55807.got.cif
#   From: 2010.06.25/outbox.cif.g09.slc.cpg/sg13_28_cif.got.tgz:55807.got - 2010.06.28 04:50:58.
