data_PCOD8121459
_publ_section_title
;
Structure prediction by ZEFSAII (Michael W. Deem and Ramdas Pophale) SiO2 
 PCOD8121459
Probable space group: P 2/C
;
_chemical_formula_sum "Si O2"
_cell_formula_units_Z 22
_cell_length_a 25.914720
_cell_length_b 5.413760
_cell_length_c 16.765501
_cell_angle_alpha 90.000000
_cell_angle_beta 24.561693
_cell_angle_gamma 90.000000
_cell_volume 977.718115
_symmetry_space_group_name_H-M "P 2/C"
_symmetry_group_IT_number 13
_symmetry_cell_setting 'monoclinic'
loop_
_space_group_symop_operation_xyz
x,y,z
-x,y,1/2-z
-x,-y,-z
x,-y,1/2+z
loop_
_atom_site_type_symbol
_atom_site_label
_atom_site_fract_x
_atom_site_fract_y
_atom_site_fract_z
Si Si1 0.513848 0.243491 0.886201
Si Si2 0.690070 0.379285 0.064717
Si Si3 0.500000 0.069741 0.250000
Si Si4 0.948731 0.547189 0.658767
Si Si5 0.042168 0.954847 0.103286
Si Si6 0.305053 0.113562 0.285996
O O1 0.570462 0.488944 0.770422
O O2 0.473794 0.079362 0.867276
O O3 0.616419 0.125140 0.800000
O O4 0.392484 0.298185 0.111011
O O5 0.629350 0.217557 0.079921
O O6 0.749324 0.229778 0.055670
O O7 0.797714 0.548378 0.875128
O O8 0.000000 0.500000 0.500000
O O9 0.997676 0.320947 0.643560
O O10 0.990833 0.823734 0.621002
O O11 0.000000 0.025778 0.250000
O O12 0.191229 0.963874 0.889936
#
# Coordination Sequence:
#
# PCOD8121459 Si02
#       6
#     4   4   2   4   4   4
#     4  10  22  42  68  99 134 177 227 297 349 414
#     4  11  23  44  65 100 141 179 236 289 354 422
#     4  10  24  38  66  98 136 186 218 286 362 418
#     4  12  29  46  73 105 150 190 241 296 363 426
#     4  12  25  48  74 106 140 196 238 296 357 430
#     4  10  23  41  71  99 132 173 241 287 350 423
#
# _framework density 22.501372
#
# number of rings (size 3 to 8) (size 9 to 14) (size 15 to 20)
#    0.000    1.091    1.818    3.273    7.636    2.909 
#    0.000    0.000    0.000    0.000    0.000    0.000 
#    0.000    0.000    0.000    0.000    0.000    0.000 
#
# Total GULP energy -272708.832186 kJ/mol
# GULP energy per Si atom -12395.856008 kJ/mol
# Density = 2.245016 g / cm^3
# Si number density = 22.501372 Si / 1000 Ang^3
#
#
#
# Elastic Constant Matrix: (Units=GPa)
#
#
# Indices 1 2 3 4 5 6 
#
# 1 84.7458 11.6385 24.7004 0.0000 -11.9444 0.0000
# 2 11.6385 70.3558 -3.6193 0.0000 -11.3271 0.0000
# 3 24.7004 -3.6193 112.1472 0.0000 -3.9149 0.0000
# 4 0.0000 0.0000 0.0000 28.7082 0.0000 4.1865
# 5 -11.9444 -11.3271 -3.9149 0.0000 36.0376 0.0000
# 6 0.0000 0.0000 0.0000 4.1865 0.0000 16.4809
#
#
#
# Elastic Compliance Matrix: (Units=1/GPa)
#
#
# Indices 1 2 3 4 5 6 
#
# 1 0.013388 -0.001789 -0.002882 0.000000 0.003562 0.000000
# 2 -0.001789 0.015258 0.001037 0.000000 0.004315 0.000000
# 3 -0.002882 0.001037 0.009600 0.000000 0.000414 0.000000
# 4 0.000000 0.000000 0.000000 0.036173 0.000000 -0.009189
# 5 0.003562 0.004315 0.000414 0.000000 0.030331 0.000000
# 6 0.000000 0.000000 0.000000 -0.009189 0.000000 0.063010
#
#
# Mechanical properties :
#
#
# Convention : Reuss Voigt Hill
#
# Bulk Modulus (GPa) = 32.28291 36.96534 34.62413
# Shear Modulus (GPa) = 26.97550 31.88061 29.42806
#
# Velocity S-wave (km/s) = 3.46618 3.76816 3.62032
# Velocity P-wave (km/s) = 5.51339 5.94943 5.73556
#
# Compressibility (1/GPa) = 0.03097614
#
# Stress axis : x y z
#
# Youngs Moduli (GPa) = 74.69492 65.54117 104.17161
#
# Poissons Ratio (x) = 0.11729 0.30023
# Poissons Ratio (y) = 0.13367 -0.10805
# Poissons Ratio (z) = 0.21528 -0.06798
#
# Static dielectric constant tensor:
#      x y z
#    x 4.043420 0.000000 0.007050 
#    y 0.000000 4.100850 0.000000 
#    z 0.007050 0.000000 4.150360 
# 
# 
# High freq. dielectric constant tensor:
#      x y z
#    x 1.894600 0.000000 -0.000250 
#    y 0.000000 1.878730 0.000000 
#    z -0.000250 0.000000 1.898150 
# 
# From -- ./inp_files/58173.got.cif
#   From: 2010.06.25/outbox.cif.g09.slc.cpg/sg13_30_cif.got.tgz:58173.got - 2010.06.28 04:50:58.
