data_PCOD8121101
_publ_section_title
;
Structure prediction by ZEFSAII (Michael W. Deem and Ramdas Pophale) SiO2 
 PCOD8121101
Probable space group: P 2/C
;
_chemical_formula_sum "Si O2"
_cell_formula_units_Z 32
_cell_length_a 18.184545
_cell_length_b 11.526098
_cell_length_c 14.946986
_cell_angle_alpha 90.000000
_cell_angle_beta 26.891168
_cell_angle_gamma 90.000000
_cell_volume 1416.975391
_symmetry_space_group_name_H-M "P 2/C"
_symmetry_group_IT_number 13
_symmetry_cell_setting 'monoclinic'
loop_
_space_group_symop_operation_xyz
x,y,z
-x,y,1/2-z
-x,-y,-z
x,-y,1/2+z
loop_
_atom_site_type_symbol
_atom_site_label
_atom_site_fract_x
_atom_site_fract_y
_atom_site_fract_z
Si Si1 0.307936 0.767178 0.024861
Si Si2 0.592843 0.214040 0.554556
Si Si3 0.209394 0.992213 0.191594
Si Si4 0.345249 0.261190 0.286893
Si Si5 0.109379 0.949335 0.047066
Si Si6 0.137013 0.347236 0.857053
Si Si7 0.234954 0.400946 0.241856
Si Si8 0.710263 0.140327 0.717422
O O1 0.460313 0.757455 0.928924
O O2 0.320014 0.701147 0.917896
O O3 0.283268 0.905172 0.034350
O O4 0.150596 0.718312 0.246995
O O5 0.500000 0.226340 0.750000
O O6 0.660049 0.340062 0.450662
O O7 0.474781 0.167878 0.605318
O O8 0.740818 0.121963 0.391744
O O9 0.280905 0.948280 0.208257
O O10 0.013491 0.976554 0.402481
O O11 0.236685 0.149781 0.380214
O O12 0.291324 0.362018 0.279078
O O13 0.000000 0.913347 0.250000
O O14 0.208337 0.069993 0.954090
O O15 0.253622 0.460228 0.722994
O O16 0.197994 0.262426 0.869175
O O17 0.951795 0.375060 0.076727
#
# Coordination Sequence:
#
# PCOD8121101 Si02
#       8
#     4   4   4   4   4   4   4   4
#     4  10  22  39  64 100 132 167 211 270 323 385
#     4  12  26  43  64  97 136 172 215 268 328 390
#     4  11  21  38  63  93 135 172 215 261 322 389
#     4  11  22  38  67  99 132 169 215 264 327 387
#     4  12  22  36  62 100 138 175 212 264 324 389
#     4  10  24  46  69  93 126 166 226 273 321 385
#     4  11  24  46  70  93 126 173 221 273 324 383
#     4  11  23  40  64  94 131 176 216 266 323 386
#
# _framework density 22.583314000000001
#
# number of rings (size 3 to 8) (size 9 to 14) (size 15 to 20)
#    0.000    1.000    1.250    6.750    1.750    2.000 
#    4.500    0.000    0.000    0.000    0.000    0.000 
#    0.000    0.000    0.000    0.000    0.000    0.000 
#
# Total GULP energy -396624.859228 kJ/mol
# GULP energy per Si atom -12394.526851 kJ/mol
# Density = 2.253191 g / cm^3
# Si number density = 22.583314 Si / 1000 Ang^3
#
#
#
# Elastic Constant Matrix: (Units=GPa)
#
#
# Indices 1 2 3 4 5 6 
#
# 1 88.2861 23.6610 20.6177 0.0000 -3.9826 0.0000
# 2 23.6610 111.4955 30.7284 0.0000 3.4322 0.0000
# 3 20.6177 30.7284 72.9124 0.0000 -5.7383 0.0000
# 4 0.0000 0.0000 0.0000 39.7361 0.0000 -4.3516
# 5 -3.9826 3.4322 -5.7383 0.0000 35.5768 0.0000
# 6 0.0000 0.0000 0.0000 -4.3516 0.0000 22.9494
#
#
#
# Elastic Compliance Matrix: (Units=1/GPa)
#
#
# Indices 1 2 3 4 5 6 
#
# 1 0.012519 -0.001971 -0.002617 0.000000 0.001170 0.000000
# 2 -0.001971 0.010559 -0.004042 0.000000 -0.001891 0.000000
# 3 -0.002617 -0.004042 0.016374 0.000000 0.002738 0.000000
# 4 0.000000 0.000000 0.000000 0.025700 0.000000 0.004873
# 5 0.001170 -0.001891 0.002738 0.000000 0.028863 0.000000
# 6 0.000000 0.000000 0.000000 0.004873 0.000000 0.044498
#
#
# Mechanical properties :
#
#
# Convention : Reuss Voigt Hill
#
# Bulk Modulus (GPa) = 45.06112 46.96759 46.01435
# Shear Modulus (GPa) = 30.64265 32.83159 31.73712
#
# Velocity S-wave (km/s) = 3.68757 3.81701 3.75285
# Velocity P-wave (km/s) = 6.17475 6.34576 6.26084
#
# Compressibility (1/GPa) = 0.02219208
#
# Stress axis : x y z
#
# Youngs Moduli (GPa) = 79.87781 94.70215 61.07266
#
# Poissons Ratio (x) = 0.18670 0.15984
# Poissons Ratio (y) = 0.15747 0.24683
# Poissons Ratio (z) = 0.20906 0.38275
#
# Static dielectric constant tensor:
#      x y z
#    x 4.134600 0.000000 -0.171570 
#    y 0.000000 4.102490 0.000000 
#    z -0.171570 0.000000 4.144150 
# 
# 
# High freq. dielectric constant tensor:
#      x y z
#    x 1.895650 0.000000 -0.011160 
#    y 0.000000 1.876900 0.000000 
#    z -0.011160 0.000000 1.900000 
# 
# From -- ./inp_files/55782.got.cif
#   From: 2010.06.25/outbox.cif.g09.slc.cpg/sg13_28_cif.got.tgz:55782.got - 2010.06.28 04:50:58.
