data_PCOD8121170
_publ_section_title
;
Structure prediction by ZEFSAII (Michael W. Deem and Ramdas Pophale) SiO2 
 PCOD8121170
Probable space group: P 2/C
;
_chemical_formula_sum "Si O2"
_cell_formula_units_Z 24
_cell_length_a 8.143884
_cell_length_b 5.542663
_cell_length_c 25.264497
_cell_angle_alpha 90.000000
_cell_angle_beta 108.804832
_cell_angle_gamma 90.000000
_cell_volume 1079.536519
_symmetry_space_group_name_H-M "P 2/C"
_symmetry_group_IT_number 13
_symmetry_cell_setting 'monoclinic'
loop_
_space_group_symop_operation_xyz
x,y,z
-x,y,1/2-z
-x,-y,-z
x,-y,1/2+z
loop_
_atom_site_type_symbol
_atom_site_label
_atom_site_fract_x
_atom_site_fract_y
_atom_site_fract_z
Si Si1 0.466335 0.865280 0.143636
Si Si2 0.500000 0.407125 0.750000
Si Si3 0.834560 0.282682 0.524266
Si Si4 0.820936 0.365281 0.643636
Si Si5 0.000000 0.907124 0.250000
Si Si6 0.298509 0.250000 0.298509
Si Si7 0.786028 0.217318 0.975734
O O1 0.416894 0.748967 0.194562
O O2 0.632213 0.750000 0.132213
O O3 0.300419 0.839193 0.089441
O O4 0.518787 0.141850 0.161474
O O5 0.660038 0.555861 0.742275
O O6 0.878462 0.339193 0.589441
O O7 0.724015 0.519347 0.492359
O O8 0.008548 0.250000 0.508548
O O9 0.739297 0.019347 0.507641
O O10 0.804161 0.641851 0.661474
O O11 0.972230 0.248968 0.694562
O O12 0.824513 0.055860 0.242275
#
# Coordination Sequence:
#
# PCOD8121170 Si02
#       7
#     4   2   4   4   2   4   4
#     4  10  23  40  62  94 125 166 212 261 322 384
#     4  10  22  40  62  96 126 164 210 264 326 390
#     4  10  24  44  65  93 127 170 218 267 321 383
#     4  10  23  40  62  94 125 166 212 261 322 384
#     4  10  22  40  62  96 126 164 210 264 326 390
#     4  10  22  40  62  94 128 166 212 266 324 396
#     4  10  24  44  65  93 127 170 218 267 321 383
#
# _framework density 22.231763000000001
#
# number of rings (size 3 to 8) (size 9 to 14) (size 15 to 20)
#    0.000    2.000    0.000    1.000    9.333    8.000 
#    3.000    0.000    0.000    0.000    0.000    0.000 
#    0.000    0.000    0.000    0.000    0.000    0.000 
#
# Total GULP energy -297419.919884 kJ/mol
# GULP energy per Si atom -12392.496662 kJ/mol
# Density = 2.218116 g / cm^3
# Si number density = 22.231763 Si / 1000 Ang^3
#
#
#
# Elastic Constant Matrix: (Units=GPa)
#
#
# Indices 1 2 3 4 5 6 
#
# 1 24.0629 21.4735 17.0284 0.0000 1.1075 0.0000
# 2 21.4735 177.3950 77.7927 0.0000 0.9103 0.0000
# 3 17.0284 77.7927 163.5715 0.0000 1.1475 0.0000
# 4 0.0000 0.0000 0.0000 19.6058 0.0000 0.0418
# 5 1.1075 0.9103 1.1475 0.0000 37.7752 0.0000
# 6 0.0000 0.0000 0.0000 0.0418 0.0000 17.0093
#
#
#
# Elastic Compliance Matrix: (Units=1/GPa)
#
#
# Indices 1 2 3 4 5 6 
#
# 1 0.047637 -0.004535 -0.002794 0.000000 -0.001202 0.000000
# 2 -0.004535 0.007555 -0.003121 0.000000 0.000046 0.000000
# 3 -0.002794 -0.003121 0.007889 0.000000 -0.000083 0.000000
# 4 0.000000 0.000000 0.000000 0.051006 0.000000 -0.000125
# 5 -0.001202 0.000046 -0.000083 0.000000 0.026509 0.000000
# 6 0.000000 0.000000 0.000000 -0.000125 0.000000 0.058792
#
#
# Mechanical properties :
#
#
# Convention : Reuss Voigt Hill
#
# Bulk Modulus (GPa) = 23.70736 66.40206 45.05471
# Shear Modulus (GPa) = 21.33578 31.46038 26.39808
#
# Velocity S-wave (km/s) = 3.10126 3.76588 3.44961
# Velocity P-wave (km/s) = 4.84878 6.98871 6.01468
#
# Compressibility (1/GPa) = 0.04218100
#
# Stress axis : x y z
#
# Youngs Moduli (GPa) = 20.99196 132.37089 126.75375
#
# Poissons Ratio (x) = 0.60031 0.35415
# Poissons Ratio (y) = 0.09520 0.39561
# Poissons Ratio (z) = 0.05865 0.41314
#
# Static dielectric constant tensor:
#      x y z
#    x 3.582720 0.000000 0.004330 
#    y 0.000000 4.707070 0.000000 
#    z 0.004330 0.000000 3.850430 
# 
# 
# High freq. dielectric constant tensor:
#      x y z
#    x 1.848080 0.000000 0.000360 
#    y 0.000000 1.896270 0.000000 
#    z 0.000360 0.000000 1.870100 
# 
# From -- ./inp_files/84328.got.cif
#   From: 2010.06.25/outbox.cif.g09.slc.cpg/sg13_43_cif.got.tgz:84328.got - 2010.06.28 04:50:58.
