data_PCOD8121522
_publ_section_title
;
Structure prediction by ZEFSAII (Michael W. Deem and Ramdas Pophale) SiO2 
 PCOD8121522
Probable space group: P 2/C
;
_chemical_formula_sum "Si O2"
_cell_formula_units_Z 28
_cell_length_a 14.083069
_cell_length_b 6.474799
_cell_length_c 17.104801
_cell_angle_alpha 90.000000
_cell_angle_beta 57.914540
_cell_angle_gamma 90.000000
_cell_volume 1321.468028
_symmetry_space_group_name_H-M "P 2/C"
_symmetry_group_IT_number 13
_symmetry_cell_setting 'monoclinic'
loop_
_space_group_symop_operation_xyz
x,y,z
-x,y,1/2-z
-x,-y,-z
x,-y,1/2+z
loop_
_atom_site_type_symbol
_atom_site_label
_atom_site_fract_x
_atom_site_fract_y
_atom_site_fract_z
Si Si1 0.798500 0.548985 0.576551
Si Si2 0.602600 0.664213 0.256674
Si Si3 0.468469 0.342590 0.084034
Si Si4 0.298965 0.852313 0.005819
Si Si5 0.860897 0.138183 0.498858
Si Si6 0.294431 0.989672 0.172328
Si Si7 0.107222 0.107250 0.363888
O O1 0.693549 0.429819 0.658686
O O2 0.768964 0.694842 0.517303
O O3 0.875693 0.382369 0.500103
O O4 0.867293 0.663782 0.614323
O O5 0.500000 0.747563 0.250000
O O6 0.562957 0.477325 0.328112
O O7 0.644591 0.862821 0.286024
O O8 0.367039 0.185344 0.108989
O O9 0.500000 0.500000 0.000000
O O10 0.569542 0.188201 0.063108
O O11 0.251868 0.077413 0.999836
O O12 0.272839 0.833379 0.109773
O O13 0.975490 0.064837 0.406077
O O14 0.848379 0.052825 0.591721
O O15 0.174948 0.073455 0.254304
#
# Coordination Sequence:
#
# PCOD8121522 Si02
#       7
#     4   4   4   4   4   4   4
#     4  11  22  43  68 101 129 179 226 279 335 399
#     4  12  25  39  68 100 134 173 229 281 330 407
#     4  12  26  44  63  97 135 179 222 277 339 411
#     4  11  26  40  67  98 135 177 223 270 346 402
#     4  10  23  42  69  96 134 175 221 289 326 401
#     4  12  26  43  69  97 137 182 219 282 341 400
#     4  10  22  43  68  99 130 174 233 271 340 394
#
# _framework density 21.188555999999998
#
# number of rings (size 3 to 8) (size 9 to 14) (size 15 to 20)
#    0.000    0.857    5.714    0.857    4.000    1.143 
#    0.000    0.000    3.143    0.000    0.000    0.000 
#    0.000    0.000    0.000    0.000    0.000    0.000 
#
# Total GULP energy -347074.450278 kJ/mol
# GULP energy per Si atom -12395.516081 kJ/mol
# Density = 2.114033 g / cm^3
# Si number density = 21.188556 Si / 1000 Ang^3
#
#
#
# Elastic Constant Matrix: (Units=GPa)
#
#
# Indices 1 2 3 4 5 6 
#
# 1 72.9521 20.7935 40.3640 0.0000 -5.8594 0.0000
# 2 20.7935 92.6263 38.7367 0.0000 -0.7848 0.0000
# 3 40.3640 38.7367 102.8528 0.0000 -7.0910 0.0000
# 4 0.0000 0.0000 0.0000 32.2473 0.0000 5.2296
# 5 -5.8594 -0.7848 -7.0910 0.0000 31.2525 0.0000
# 6 0.0000 0.0000 0.0000 5.2296 0.0000 20.2458
#
#
#
# Elastic Compliance Matrix: (Units=1/GPa)
#
#
# Indices 1 2 3 4 5 6 
#
# 1 0.017738 -0.001316 -0.006338 0.000000 0.001855 0.000000
# 2 -0.001316 0.012931 -0.004417 0.000000 -0.000924 0.000000
# 3 -0.006338 -0.004417 0.014003 0.000000 0.001878 0.000000
# 4 0.000000 0.000000 0.000000 0.032366 0.000000 -0.008360
# 5 0.001855 -0.000924 0.001878 0.000000 0.032748 0.000000
# 6 0.000000 0.000000 0.000000 -0.008360 0.000000 0.051553
#
#
# Mechanical properties :
#
#
# Convention : Reuss Voigt Hill
#
# Bulk Modulus (GPa) = 48.70884 52.02440 50.36662
# Shear Modulus (GPa) = 25.99768 27.98492 26.99130
#
# Velocity S-wave (km/s) = 3.50661 3.63816 3.57299
# Velocity P-wave (km/s) = 6.27959 6.50036 6.39093
#
# Compressibility (1/GPa) = 0.02053016
#
# Stress axis : x y z
#
# Youngs Moduli (GPa) = 56.37500 77.33347 71.41279
#
# Poissons Ratio (x) = 0.10176 0.45261
# Poissons Ratio (y) = 0.07418 0.31546
# Poissons Ratio (z) = 0.35730 0.34162
#
# Static dielectric constant tensor:
#      x y z
#    x 3.819650 0.000000 -0.048740 
#    y 0.000000 4.022560 0.000000 
#    z -0.048740 0.000000 3.866640 
# 
# 
# High freq. dielectric constant tensor:
#      x y z
#    x 1.824130 0.000000 -0.007060 
#    y 0.000000 1.836780 0.000000 
#    z -0.007060 0.000000 1.833500 
# 
# From -- ./inp_files/67278.got.cif
#   From: 2010.06.25/outbox.cif.g09.slc.cpg/sg13_34_cif.got.tgz:67278.got - 2010.06.28 04:50:58.
