data_PCOD8121424
_publ_section_title
;
Structure prediction by ZEFSAII (Michael W. Deem and Ramdas Pophale) SiO2 
 PCOD8121424
Probable space group: P 2/C
;
_chemical_formula_sum "Si O2"
_cell_formula_units_Z 26
_cell_length_a 8.932873
_cell_length_b 19.839759
_cell_length_c 9.776019
_cell_angle_alpha 90.000000
_cell_angle_beta 136.598066
_cell_angle_gamma 90.000000
_cell_volume 1190.466407
_symmetry_space_group_name_H-M "P 2/C"
_symmetry_group_IT_number 13
_symmetry_cell_setting 'monoclinic'
loop_
_space_group_symop_operation_xyz
x,y,z
-x,y,1/2-z
-x,-y,-z
x,-y,1/2+z
loop_
_atom_site_type_symbol
_atom_site_label
_atom_site_fract_x
_atom_site_fract_y
_atom_site_fract_z
Si Si1 0.964497 0.864502 0.493426
Si Si2 0.686913 0.165411 0.067689
Si Si3 0.553643 0.297399 0.522064
Si Si4 0.602518 0.952262 0.180790
Si Si5 0.000000 0.773657 0.250000
Si Si6 0.156723 0.504868 0.978946
Si Si7 0.500000 0.607244 0.750000
Si Si8 0.500000 0.381857 0.750000
O O1 0.811017 0.827919 0.504848
O O2 0.862933 0.937604 0.375228
O O3 0.015692 0.818875 0.396561
O O4 0.185258 0.875994 0.727306
O O5 0.622498 0.238547 0.077003
O O6 0.467648 0.124230 0.896972
O O7 0.437883 0.346785 0.337698
O O8 0.589493 0.335287 0.688259
O O9 0.785455 0.272480 0.617322
O O10 0.500000 0.982150 0.250000
O O11 0.500000 0.000000 0.000000
O O12 0.000000 0.506624 0.750000
O O13 0.300393 0.438106 0.069309
O O14 0.301221 0.571872 0.069873
O O15 0.000000 0.500000 0.000000
#
# Coordination Sequence:
#
# PCOD8121424 Si02
#       8
#     4   4   4   4   2   4   2   2
#     4  10  22  42  66  96 128 183 215 269 340 395
#     4  10  22  45  67  91 141 175 217 276 337 407
#     4  12  24  43  67 102 137 174 223 284 340 409
#     4  10  22  42  67  96 132 179 226 274 327 397
#     4  12  24  38  68 100 138 172 222 282 348 402
#     4  11  24  47  69  94 137 179 225 281 334 400
#     4  11  26  42  66 100 133 172 224 282 337 398
#     4  11  26  44  70 104 133 184 232 270 345 416
#
# _framework density 21.840178999999999
#
# number of rings (size 3 to 8) (size 9 to 14) (size 15 to 20)
#    0.000    1.231    1.538    3.692    4.308    4.308 
#   12.462    1.538    0.000    0.000    0.000    0.000 
#    0.000    0.000    0.000    0.000    0.000    0.000 
#
# Total GULP energy -322243.650232 kJ/mol
# GULP energy per Si atom -12393.986547 kJ/mol
# Density = 2.179047 g / cm^3
# Si number density = 21.840179 Si / 1000 Ang^3
#
#
#
# Elastic Constant Matrix: (Units=GPa)
#
#
# Indices 1 2 3 4 5 6 
#
# 1 110.1175 41.2966 57.9215 0.0000 -15.7341 0.0000
# 2 41.2966 90.0220 60.4555 0.0000 -14.6495 0.0000
# 3 57.9215 60.4555 172.4901 0.0000 -17.3797 0.0000
# 4 0.0000 0.0000 0.0000 4.9409 0.0000 -14.2022
# 5 -15.7341 -14.6495 -17.3797 0.0000 43.3164 0.0000
# 6 0.0000 0.0000 0.0000 -14.2022 0.0000 5.9742
#
#
#
# Elastic Compliance Matrix: (Units=1/GPa)
#
#
# Indices 1 2 3 4 5 6 
#
# 1 0.012055 -0.003407 -0.002635 0.000000 0.002169 0.000000
# 2 -0.003407 0.015873 -0.004171 0.000000 0.002457 0.000000
# 3 -0.002635 -0.004171 0.008239 0.000000 0.000938 0.000000
# 4 0.000000 0.000000 0.000000 -0.034697 0.000000 -0.082483
# 5 0.002169 0.002457 0.000938 0.000000 0.025081 0.000000
# 6 0.000000 0.000000 0.000000 -0.082483 0.000000 -0.028696
#
#
# Mechanical properties :
#
#
# Convention : Reuss Voigt Hill
#
# Bulk Modulus (GPa) = 63.53865 76.88631 70.21248
# Shear Modulus (GPa) = 212.49787 25.04337 118.77062
#
# Velocity S-wave (km/s) = 9.87461 3.38992 7.38240
# Velocity P-wave (km/s) = 12.61611 7.11355 10.24131
#
# Compressibility (1/GPa) = 0.01573845
#
# Stress axis : x y z
#
# Youngs Moduli (GPa) = 82.95205 63.00131 121.37618
#
# Poissons Ratio (x) = 0.21467 0.31986
# Poissons Ratio (y) = 0.28265 0.50631
# Poissons Ratio (z) = 0.21860 0.26281
#
# Static dielectric constant tensor:
#      x y z
#    x 4.024700 0.000000 0.012110 
#    y 0.000000 3.907710 0.000000 
#    z 0.012110 0.000000 4.274280 
# 
# 
# High freq. dielectric constant tensor:
#      x y z
#    x 1.860890 0.000000 -0.006560 
#    y 0.000000 1.853930 0.000000 
#    z -0.006560 0.000000 1.885600 
# 
# From -- ./inp_files/13704.got.cif
#   From: 2010.06.25/outbox.cif.g09.slc.cpg/sg13_7_cif.got.tgz:13704.got - 2010.06.28 04:50:58.
