data_PCOD8121694
_publ_section_title
;
Structure prediction by ZEFSAII (Michael W. Deem and Ramdas Pophale) SiO2 
 PCOD8121694
Probable space group: P 2/C
;
_chemical_formula_sum "Si O2"
_cell_formula_units_Z 28
_cell_length_a 18.046448
_cell_length_b 9.327044
_cell_length_c 12.736880
_cell_angle_alpha 90.000000
_cell_angle_beta 140.375505
_cell_angle_gamma 90.000000
_cell_volume 1367.261418
_symmetry_space_group_name_H-M "P 2/C"
_symmetry_group_IT_number 13
_symmetry_cell_setting 'monoclinic'
loop_
_space_group_symop_operation_xyz
x,y,z
-x,y,1/2-z
-x,-y,-z
x,-y,1/2+z
loop_
_atom_site_type_symbol
_atom_site_label
_atom_site_fract_x
_atom_site_fract_y
_atom_site_fract_z
Si Si1 0.898381 0.514600 0.490163
Si Si2 0.965820 0.936739 0.352246
Si Si3 0.365671 0.114782 0.084677
Si Si4 0.768135 0.865181 0.639819
Si Si5 0.194925 0.807704 0.583753
Si Si6 0.210383 0.306271 0.800888
Si Si7 0.143800 0.569358 0.825144
O O1 0.849620 0.353304 0.441043
O O2 0.806773 0.615965 0.329417
O O3 0.902941 0.585663 0.609863
O O4 0.040268 0.538189 0.621621
O O5 0.902759 0.785931 0.297527
O O6 0.084522 0.900529 0.417563
O O7 0.881131 0.056908 0.211297
O O8 0.000000 0.000000 0.500000
O O9 0.500000 0.139357 0.250000
O O10 0.296414 0.176900 0.109753
O O11 0.324525 0.205590 0.936441
O O12 0.341871 0.946885 0.032749
O O13 0.761869 0.877322 0.759600
O O14 0.773279 0.700541 0.613617
O O15 0.223381 0.427822 0.905003
#
# Coordination Sequence:
#
# PCOD8121694 Si02
#       7
#     4   4   4   4   4   4   4
#     4  11  21  33  64  99 135 165 193 249 323 395
#     4   9  19  33  58  95 125 162 189 248 318 399
#     4  11  27  46  64  87 121 173 233 271 301 363
#     4  10  23  38  62  93 128 160 205 267 319 379
#     4  11  20  39  65  89 128 167 203 254 334 372
#     4  11  20  38  63  88 131 161 212 255 315 385
#     4  11  21  34  60 101 132 163 197 245 317 402
#
# _framework density 20.478892999999999
#
# number of rings (size 3 to 8) (size 9 to 14) (size 15 to 20)
#    0.000    1.429    4.286    2.143    0.000    8.571 
#    0.000    1.429    0.000    0.000    0.000    0.000 
#    0.000    0.000    0.000    0.000    0.000    0.000 
#
# Total GULP energy -346888.361514 kJ/mol
# GULP energy per Si atom -12388.870054 kJ/mol
# Density = 2.043228 g / cm^3
# Si number density = 20.478893 Si / 1000 Ang^3
#
#
#
# Elastic Constant Matrix: (Units=GPa)
#
#
# Indices 1 2 3 4 5 6 
#
# 1 52.3570 36.1790 44.1663 0.0000 16.4793 0.0000
# 2 36.1790 134.0493 45.6228 0.0000 5.3966 0.0000
# 3 44.1663 45.6228 115.7285 0.0000 16.6290 0.0000
# 4 0.0000 0.0000 0.0000 28.9450 0.0000 -8.0621
# 5 16.4793 5.3966 16.6290 0.0000 23.0985 0.0000
# 6 0.0000 0.0000 0.0000 -8.0621 0.0000 21.3612
#
#
#
# Elastic Compliance Matrix: (Units=1/GPa)
#
#
# Indices 1 2 3 4 5 6 
#
# 1 0.036602 -0.006101 -0.008941 0.000000 -0.018251 0.000000
# 2 -0.006101 0.009638 -0.001978 0.000000 0.003525 0.000000
# 3 -0.008941 -0.001978 0.013217 0.000000 -0.002674 0.000000
# 4 0.000000 0.000000 0.000000 0.038607 0.000000 0.014571
# 5 -0.018251 0.003525 -0.002674 0.000000 0.057416 0.000000
# 6 0.000000 0.000000 0.000000 0.014571 0.000000 0.052313
#
#
# Mechanical properties :
#
#
# Convention : Reuss Voigt Hill
#
# Bulk Modulus (GPa) = 39.34242 61.56344 50.45293
# Shear Modulus (GPa) = 19.97567 26.42537 23.20052
#
# Velocity S-wave (km/s) = 3.12657 3.59607 3.36951
# Velocity P-wave (km/s) = 5.68215 6.88255 6.31095
#
# Compressibility (1/GPa) = 0.02541785
#
# Stress axis : x y z
#
# Youngs Moduli (GPa) = 27.32066 103.75958 75.65988
#
# Poissons Ratio (x) = 0.63302 0.67649
# Poissons Ratio (y) = 0.16668 0.14962
# Poissons Ratio (z) = 0.24428 0.20518
#
# Static dielectric constant tensor:
#      x y z
#    x 3.657790 0.000000 -0.323920 
#    y 0.000000 3.900990 0.000000 
#    z -0.323920 0.000000 3.672040 
# 
# 
# High freq. dielectric constant tensor:
#      x y z
#    x 1.781540 0.000000 -0.039560 
#    y 0.000000 1.817770 0.000000 
#    z -0.039560 0.000000 1.778840 
# 
# From -- ./inp_files/57504.got.cif
#   From: 2010.06.25/outbox.cif.g09.slc.cpg/sg13_29_cif.got.tgz:57504.got - 2010.06.28 04:50:58.
