data_PCOD8121021
_publ_section_title
;
Structure prediction by ZEFSAII (Michael W. Deem and Ramdas Pophale) SiO2 
 PCOD8121021
Probable space group: P 2/C
;
_chemical_formula_sum "Si O2"
_cell_formula_units_Z 18
_cell_length_a 10.729321
_cell_length_b 5.093645
_cell_length_c 26.283047
_cell_angle_alpha 90.000000
_cell_angle_beta 38.722491
_cell_angle_gamma 90.000000
_cell_volume 898.541066
_symmetry_space_group_name_H-M "P 2/C"
_symmetry_group_IT_number 13
_symmetry_cell_setting 'monoclinic'
loop_
_space_group_symop_operation_xyz
x,y,z
-x,y,1/2-z
-x,-y,-z
x,-y,1/2+z
loop_
_atom_site_type_symbol
_atom_site_label
_atom_site_fract_x
_atom_site_fract_y
_atom_site_fract_z
Si Si1 0.500000 0.754985 0.750000
Si Si2 0.417676 0.470444 0.382602
Si Si3 0.107004 0.019173 0.329981
Si Si4 0.831096 0.021956 0.512047
Si Si5 0.133377 0.512241 0.255445
O O1 0.575601 0.569877 0.680398
O O2 0.679382 0.939539 0.711390
O O3 0.310599 0.229310 0.444086
O O4 0.637981 0.500688 0.335483
O O5 0.299332 0.730296 0.432334
O O6 0.069825 0.230227 0.297536
O O7 0.104232 0.727600 0.308550
O O8 0.927238 0.053089 0.426352
O O9 0.000000 0.000000 0.500000
O O10 0.000000 0.586968 0.250000
#
# Coordination Sequence:
#
# PCOD8121021 Si02
#       5
#     2   4   4   4   4
#     4  10  22  38  64  98 124 168 206 260 316 380
#     4  11  24  39  64  92 131 164 209 254 317 373
#     4  11  24  40  67  93 130 163 212 259 319 371
#     4  12  24  39  61 100 136 158 197 258 333 384
#     4  11  25  46  66  89 124 174 223 258 296 368
#
# _framework density 20.032473
#
# number of rings (size 3 to 8) (size 9 to 14) (size 15 to 20)
#    0.000    0.889    2.222    5.333    6.222    1.778 
#    0.000    6.667    0.000    0.000    0.000    0.000 
#    0.000    0.000    0.000    0.000    0.000    0.000 
#
# Total GULP energy -223316.764387 kJ/mol
# GULP energy per Si atom -12406.486910 kJ/mol
# Density = 1.998688 g / cm^3
# Si number density = 20.032473 Si / 1000 Ang^3
#
#
#
# Elastic Constant Matrix: (Units=GPa)
#
#
# Indices 1 2 3 4 5 6 
#
# 1 122.6348 23.7906 47.7924 0.0000 -15.4719 0.0000
# 2 23.7906 118.2880 51.5961 0.0000 -8.7866 0.0000
# 3 47.7924 51.5961 155.1459 0.0000 -5.3265 0.0000
# 4 0.0000 0.0000 0.0000 50.0826 0.0000 2.6022
# 5 -15.4719 -8.7866 -5.3265 0.0000 19.0234 0.0000
# 6 0.0000 0.0000 0.0000 2.6022 0.0000 23.7500
#
#
#
# Elastic Compliance Matrix: (Units=1/GPa)
#
#
# Indices 1 2 3 4 5 6 
#
# 1 0.010237 -0.000285 -0.002804 0.000000 0.007409 0.000000
# 2 -0.000285 0.010159 -0.003168 0.000000 0.003573 0.000000
# 3 -0.002804 -0.003168 0.008314 0.000000 -0.001416 0.000000
# 4 0.000000 0.000000 0.000000 0.020081 0.000000 -0.002200
# 5 0.007409 0.003573 -0.001416 0.000000 0.059846 0.000000
# 6 0.000000 0.000000 0.000000 -0.002200 0.000000 0.042346
#
#
# Mechanical properties :
#
#
# Convention : Reuss Voigt Hill
#
# Bulk Modulus (GPa) = 61.74701 71.38076 66.56389
# Shear Modulus (GPa) = 29.60375 36.76384 33.18380
#
# Velocity S-wave (km/s) = 3.84837 4.28859 4.07443
# Velocity P-wave (km/s) = 7.11597 7.76096 7.44545
#
# Compressibility (1/GPa) = 0.01619512
#
# Stress axis : x y z
#
# Youngs Moduli (GPa) = 97.68235 98.43971 120.27510
#
# Poissons Ratio (x) = 0.02810 0.33729
# Poissons Ratio (y) = 0.02788 0.38100
# Poissons Ratio (z) = 0.27393 0.31183
#
# Static dielectric constant tensor:
#      x y z
#    x 3.384730 0.000000 0.074720 
#    y 0.000000 3.802090 0.000000 
#    z 0.074720 0.000000 3.952350 
# 
# 
# High freq. dielectric constant tensor:
#      x y z
#    x 1.763950 0.000000 -0.006370 
#    y 0.000000 1.801290 0.000000 
#    z -0.006370 0.000000 1.799470 
# 
# From -- ./inp_files/48446.got.cif
#   From: 2010.06.25/outbox.cif.g09.slc.cpg/sg13_25_cif.got.tgz:48446.got - 2010.06.28 04:50:58.
