data_PCOD8121729
_publ_section_title
;
Structure prediction by ZEFSAII (Michael W. Deem and Ramdas Pophale) SiO2 
 PCOD8121729
Probable space group: P 2/C
;
_chemical_formula_sum "Si O2"
_cell_formula_units_Z 22
_cell_length_a 16.988397
_cell_length_b 5.516607
_cell_length_c 14.864802
_cell_angle_alpha 90.000000
_cell_angle_beta 46.567526
_cell_angle_gamma 90.000000
_cell_volume 1011.651493
_symmetry_space_group_name_H-M "P 2/C"
_symmetry_group_IT_number 13
_symmetry_cell_setting 'monoclinic'
loop_
_space_group_symop_operation_xyz
x,y,z
-x,y,1/2-z
-x,-y,-z
x,-y,1/2+z
loop_
_atom_site_type_symbol
_atom_site_label
_atom_site_fract_x
_atom_site_fract_y
_atom_site_fract_z
Si Si1 0.000000 0.265736 0.750000
Si Si2 0.995160 0.093564 0.103719
Si Si3 0.226199 0.708142 0.693654
Si Si4 0.596181 0.027247 0.354836
Si Si5 0.816985 0.391313 0.466528
Si Si6 0.657496 0.522407 0.248580
O O1 0.099910 0.410870 0.632936
O O2 0.952544 0.108782 0.705716
O O3 0.902874 0.299462 0.183884
O O4 0.114552 0.178797 0.039542
O O5 0.000000 0.000000 0.000000
O O6 0.249131 0.700261 0.568736
O O7 0.274848 0.478526 0.710402
O O8 0.288275 0.946960 0.683582
O O9 0.596545 0.783092 0.292909
O O10 0.500000 0.000000 0.500000
O O11 0.580006 0.279705 0.309595
O O12 0.734213 0.506446 0.601969
#
# Coordination Sequence:
#
# PCOD8121729 Si02
#       6
#     2   4   4   4   4   4
#     4  12  24  38  64  92 150 176 226 268 322 396
#     4  12  24  39  62  94 138 181 225 270 331 406
#     4  10  23  40  64  98 131 182 219 277 331 396
#     4  10  23  47  72  95 131 173 228 288 351 393
#     4  12  24  41  60 102 136 180 227 270 330 412
#     4  10  25  41  71  98 131 176 222 279 343 402
#
# _framework density 21.746621000000001
#
# number of rings (size 3 to 8) (size 9 to 14) (size 15 to 20)
#    1.091    0.000    3.636    2.727    7.636    1.455 
#    0.000    0.909    0.000    0.000    0.000    0.000 
#    0.000    0.000    0.000    0.000    0.000    0.000 
#
# Total GULP energy -272588.244027 kJ/mol
# GULP energy per Si atom -12390.374729 kJ/mol
# Density = 2.169712 g / cm^3
# Si number density = 21.746621 Si / 1000 Ang^3
#
#
#
# Elastic Constant Matrix: (Units=GPa)
#
#
# Indices 1 2 3 4 5 6 
#
# 1 37.4871 -2.8535 11.5859 0.0000 24.9330 0.0000
# 2 -2.8535 131.0166 49.5415 0.0000 4.4040 0.0000
# 3 11.5859 49.5415 167.8680 0.0000 12.4456 0.0000
# 4 0.0000 0.0000 0.0000 20.0480 0.0000 -21.5851
# 5 24.9330 4.4040 12.4456 0.0000 42.1357 0.0000
# 6 0.0000 0.0000 0.0000 -21.5851 0.0000 -3.1191
#
#
#
# Elastic Compliance Matrix: (Units=1/GPa)
#
#
# Indices 1 2 3 4 5 6 
#
# 1 0.044966 0.002588 -0.001917 0.000000 -0.026312 0.000000
# 2 0.002588 0.008741 -0.002635 0.000000 -0.001667 0.000000
# 3 -0.001917 -0.002635 0.006914 0.000000 -0.000633 0.000000
# 4 0.000000 0.000000 0.000000 0.005902 0.000000 -0.040846
# 5 -0.026312 -0.001667 -0.000633 0.000000 0.039664 0.000000
# 6 0.000000 0.000000 0.000000 -0.040846 0.000000 -0.037937
#
#
# Mechanical properties :
#
#
# Convention : Reuss Voigt Hill
#
# Bulk Modulus (GPa) = 17.63826 50.32439 33.98132
# Shear Modulus (GPa) = 54.90073 30.35277 42.62675
#
# Velocity S-wave (km/s) = 5.02995 3.74002 4.43217
# Velocity P-wave (km/s) = 6.47011 6.46853 6.46932
#
# Compressibility (1/GPa) = 0.05669495
#
# Stress axis : x y z
#
# Youngs Moduli (GPa) = 22.23921 114.39899 144.63756
#
# Poissons Ratio (x) = -0.29612 0.27721
# Poissons Ratio (y) = -0.05757 0.38109
# Poissons Ratio (z) = 0.04262 0.30142
#
# Static dielectric constant tensor:
#      x y z
#    x 3.840320 0.000000 0.130840 
#    y 0.000000 4.097990 0.000000 
#    z 0.130840 0.000000 3.914930 
# 
# 
# High freq. dielectric constant tensor:
#      x y z
#    x 1.827640 0.000000 0.011240 
#    y 0.000000 1.853750 0.000000 
#    z 0.011240 0.000000 1.861660 
# 
# From -- ./inp_files/56467.got.cif
#   From: 2010.06.25/outbox.cif.g09.slc.cpg/sg13_29_cif.got.tgz:56467.got - 2010.06.28 04:50:58.
