data_PCOD8121457
_publ_section_title
;
Structure prediction by ZEFSAII (Michael W. Deem and Ramdas Pophale) SiO2 
 PCOD8121457
Probable space group: P 2/C
;
_chemical_formula_sum "Si O2"
_cell_formula_units_Z 24
_cell_length_a 14.016900
_cell_length_b 6.092805
_cell_length_c 19.169448
_cell_angle_alpha 90.000000
_cell_angle_beta 39.690520
_cell_angle_gamma 90.000000
_cell_volume 1045.527165
_symmetry_space_group_name_H-M "P 2/C"
_symmetry_group_IT_number 13
_symmetry_cell_setting 'monoclinic'
loop_
_space_group_symop_operation_xyz
x,y,z
-x,y,1/2-z
-x,-y,-z
x,-y,1/2+z
loop_
_atom_site_type_symbol
_atom_site_label
_atom_site_fract_x
_atom_site_fract_y
_atom_site_fract_z
Si Si1 0.267334 0.737004 0.968289
Si Si2 0.686616 0.110553 0.462583
Si Si3 0.347145 0.981590 0.305903
Si Si4 0.043473 0.410370 0.150712
Si Si5 0.527646 0.410625 0.831997
Si Si6 0.729637 0.244040 0.285119
O O1 0.402643 0.573461 0.870709
O O2 0.233246 0.928380 0.929510
O O3 0.114884 0.600823 0.063055
O O4 0.311360 0.854021 0.016813
O O5 0.841060 0.215926 0.400359
O O6 0.548478 0.219917 0.580044
O O7 0.667410 0.133613 0.390604
O O8 0.500000 0.087783 0.250000
O O9 0.373724 0.716753 0.283969
O O10 0.294592 0.068483 0.261509
O O11 0.000000 0.515307 0.250000
O O12 0.902999 0.306718 0.190478
O O13 0.639666 0.535342 0.819976
#
# Coordination Sequence:
#
# PCOD8121457 Si02
#       6
#     4   4   4   4   4   4
#     4  11  24  44  72  97 138 184 224 278 343 406
#     4  10  22  42  68  97 131 177 228 281 344 399
#     4  12  25  41  65 100 135 181 221 283 337 402
#     4   9  23  44  68 100 136 179 227 281 335 402
#     4  11  23  40  66  97 138 171 236 281 342 395
#     4  11  24  42  67 100 137 178 225 282 341 404
#
# _framework density 22.954927999999999
#
# number of rings (size 3 to 8) (size 9 to 14) (size 15 to 20)
#    0.000    1.333    3.333    0.500    2.333   10.667 
#    0.000    1.667    0.000    0.000    0.000    0.000 
#    0.000    0.000    0.000    0.000    0.000    0.000 
#
# Total GULP energy -297468.011311 kJ/mol
# GULP energy per Si atom -12394.500471 kJ/mol
# Density = 2.290268 g / cm^3
# Si number density = 22.954928 Si / 1000 Ang^3
#
#
#
# Elastic Constant Matrix: (Units=GPa)
#
#
# Indices 1 2 3 4 5 6 
#
# 1 102.0494 41.6090 33.1347 0.0000 9.7067 0.0000
# 2 41.6090 123.9779 57.3687 0.0000 15.7419 0.0000
# 3 33.1347 57.3687 91.1449 0.0000 13.1870 0.0000
# 4 0.0000 0.0000 0.0000 40.2646 0.0000 15.6093
# 5 9.7067 15.7419 13.1870 0.0000 37.6565 0.0000
# 6 0.0000 0.0000 0.0000 15.6093 0.0000 34.9404
#
#
#
# Elastic Compliance Matrix: (Units=1/GPa)
#
#
# Indices 1 2 3 4 5 6 
#
# 1 0.011790 -0.002695 -0.002437 0.000000 -0.001059 0.000000
# 2 -0.002695 0.012201 -0.006386 0.000000 -0.002169 0.000000
# 3 -0.002437 -0.006386 0.016222 0.000000 -0.002383 0.000000
# 4 0.000000 0.000000 0.000000 0.030038 0.000000 -0.013419
# 5 -0.001059 -0.002169 -0.002383 0.000000 0.028570 0.000000
# 6 0.000000 0.000000 0.000000 -0.013419 0.000000 0.034615
#
#
# Mechanical properties :
#
#
# Convention : Reuss Voigt Hill
#
# Bulk Modulus (GPa) = 58.21579 64.59967 61.40773
# Shear Modulus (GPa) = 30.82688 34.90963 32.86826
#
# Velocity S-wave (km/s) = 3.66858 3.90396 3.78810
# Velocity P-wave (km/s) = 6.58488 6.96594 6.77808
#
# Compressibility (1/GPa) = 0.01717747
#
# Stress axis : x y z
#
# Youngs Moduli (GPa) = 84.81862 81.96160 61.64643
#
# Poissons Ratio (x) = 0.22088 0.15021
# Poissons Ratio (y) = 0.22858 0.39367
# Poissons Ratio (z) = 0.20667 0.52340
#
# Static dielectric constant tensor:
#      x y z
#    x 4.026470 0.000000 0.109580 
#    y 0.000000 4.139790 0.000000 
#    z 0.109580 0.000000 4.429980 
# 
# 
# High freq. dielectric constant tensor:
#      x y z
#    x 1.898730 0.000000 0.010960 
#    y 0.000000 1.913170 0.000000 
#    z 0.010960 0.000000 1.906140 
# 
# From -- ./inp_files/79238.got.cif
#   From: 2010.06.25/outbox.cif.g09.slc.cpg/sg13_40_cif.got.tgz:79238.got - 2010.06.28 04:50:58.
