data_PCOD8121537
_publ_section_title
;
Structure prediction by ZEFSAII (Michael W. Deem and Ramdas Pophale) SiO2 
 PCOD8121537
Probable space group: P 2/C
;
_chemical_formula_sum "Si O2"
_cell_formula_units_Z 22
_cell_length_a 23.291869
_cell_length_b 8.419950
_cell_length_c 14.808207
_cell_angle_alpha 90.000000
_cell_angle_beta 158.879655
_cell_angle_gamma 90.000000
_cell_volume 1046.440207
_symmetry_space_group_name_H-M "P 2/C"
_symmetry_group_IT_number 13
_symmetry_cell_setting 'monoclinic'
loop_
_space_group_symop_operation_xyz
x,y,z
-x,y,1/2-z
-x,-y,-z
x,-y,1/2+z
loop_
_atom_site_type_symbol
_atom_site_label
_atom_site_fract_x
_atom_site_fract_y
_atom_site_fract_z
Si Si1 0.500183 0.330883 0.115424
Si Si2 0.275914 0.182965 0.929627
Si Si3 0.036726 0.655069 0.496610
Si Si4 0.678169 0.819413 0.499123
Si Si5 0.000000 0.518102 0.250000
Si Si6 0.674465 0.645255 0.319247
O O1 0.646008 0.215297 0.357206
O O2 0.571711 0.509006 0.219063
O O3 0.358103 0.306190 0.979811
O O4 0.433053 0.282883 0.918858
O O5 0.087767 0.210539 0.655068
O O6 0.305521 0.001517 0.947186
O O7 0.000000 0.500000 0.500000
O O8 0.018326 0.628599 0.363710
O O9 0.213496 0.715097 0.775660
O O10 0.500000 0.759290 0.250000
O O11 0.721041 0.785024 0.457420
O O12 0.158828 0.413585 0.476778
#
# Coordination Sequence:
#
# PCOD8121537 Si02
#       6
#     4   4   4   4   2   4
#     4  10  22  43  71  97 130 174 227 281 331 404
#     4  11  23  48  68  99 141 175 219 285 351 408
#     4  12  25  46  74  96 138 183 236 283 338 410
#     4  12  27  44  68 101 138 183 223 281 356 406
#     4  12  24  44  66 106 130 178 242 286 336 398
#     4  11  25  40  70  98 133 177 231 278 335 404
#
# _framework density 21.023658000000001
#
# number of rings (size 3 to 8) (size 9 to 14) (size 15 to 20)
#    0.000    0.727    5.455    1.636   10.182    0.727 
#    3.273    0.000    0.000    0.000    0.000    0.000 
#    0.000    0.000    0.000    0.000    0.000    0.000 
#
# Total GULP energy -272807.866381 kJ/mol
# GULP energy per Si atom -12400.357563 kJ/mol
# Density = 2.097581 g / cm^3
# Si number density = 21.023658 Si / 1000 Ang^3
#
#
#
# Elastic Constant Matrix: (Units=GPa)
#
#
# Indices 1 2 3 4 5 6 
#
# 1 94.9167 38.4967 39.3726 0.0000 -5.7020 0.0000
# 2 38.4967 81.9601 39.7654 0.0000 -0.1160 0.0000
# 3 39.3726 39.7654 142.5979 0.0000 2.3724 0.0000
# 4 0.0000 0.0000 0.0000 32.8898 0.0000 2.5709
# 5 -5.7020 -0.1160 2.3724 0.0000 50.2967 0.0000
# 6 0.0000 0.0000 0.0000 2.5709 0.0000 21.9454
#
#
#
# Elastic Compliance Matrix: (Units=1/GPa)
#
#
# Indices 1 2 3 4 5 6 
#
# 1 0.013768 -0.005328 -0.002343 0.000000 0.001659 0.000000
# 2 -0.005328 0.016174 -0.003032 0.000000 -0.000424 0.000000
# 3 -0.002343 -0.003032 0.008517 0.000000 -0.000674 0.000000
# 4 0.000000 0.000000 0.000000 0.030686 0.000000 -0.003595
# 5 0.001659 -0.000424 -0.000674 0.000000 0.020101 0.000000
# 6 0.000000 0.000000 0.000000 -0.003595 0.000000 0.045989
#
#
# Mechanical properties :
#
#
# Convention : Reuss Voigt Hill
#
# Bulk Modulus (GPa) = 58.64375 61.63820 60.14098
# Shear Modulus (GPa) = 30.80248 34.48237 32.64243
#
# Velocity S-wave (km/s) = 3.83186 4.05429 3.94465
# Velocity P-wave (km/s) = 6.89436 7.16230 7.02961
#
# Compressibility (1/GPa) = 0.01705211
#
# Stress axis : x y z
#
# Youngs Moduli (GPa) = 72.63178 61.82753 117.41780
#
# Poissons Ratio (x) = 0.32939 0.27516
# Poissons Ratio (y) = 0.38695 0.35605
# Poissons Ratio (z) = 0.17021 0.18748
#
# Static dielectric constant tensor:
#      x y z
#    x 3.943530 0.000000 -0.058630 
#    y 0.000000 3.590700 0.000000 
#    z -0.058630 0.000000 4.287800 
# 
# 
# High freq. dielectric constant tensor:
#      x y z
#    x 1.820730 0.000000 -0.001740 
#    y 0.000000 1.801950 0.000000 
#    z -0.001740 0.000000 1.852720 
# 
# From -- ./inp_files/49832.got.cif
#   From: 2010.06.25/outbox.cif.g09.slc.cpg/sg13_25_cif.got.tgz:49832.got - 2010.06.28 04:50:58.
