data_PCOD8121590
_publ_section_title
;
Structure prediction by ZEFSAII (Michael W. Deem and Ramdas Pophale) SiO2 
 PCOD8121590
Probable space group: P 2/C
;
_chemical_formula_sum "Si O2"
_cell_formula_units_Z 32
_cell_length_a 11.646763
_cell_length_b 16.144003
_cell_length_c 17.308630
_cell_angle_alpha 90.000000
_cell_angle_beta 25.858480
_cell_angle_gamma 90.000000
_cell_volume 1419.432808
_symmetry_space_group_name_H-M "P 2/C"
_symmetry_group_IT_number 13
_symmetry_cell_setting 'monoclinic'
loop_
_space_group_symop_operation_xyz
x,y,z
-x,y,1/2-z
-x,-y,-z
x,-y,1/2+z
loop_
_atom_site_type_symbol
_atom_site_label
_atom_site_fract_x
_atom_site_fract_y
_atom_site_fract_z
Si Si1 0.999596 0.314062 0.981082
Si Si2 0.691323 0.721568 0.448328
Si Si3 0.153566 0.040254 0.277741
Si Si4 0.379151 0.171218 0.247565
Si Si5 0.488115 0.743399 0.401403
Si Si6 0.627295 0.071588 0.521891
Si Si7 0.699322 0.582114 0.557268
Si Si8 0.744945 0.601590 0.044538
O O1 0.758728 0.252797 0.136462
O O2 0.961931 0.371932 0.928636
O O3 0.263524 0.262660 0.806129
O O4 0.007671 0.372537 0.052263
O O5 0.611053 0.800209 0.549499
O O6 0.546235 0.731619 0.455597
O O7 0.603340 0.633804 0.540528
O O8 0.000000 0.727122 0.250000
O O9 0.170435 0.112937 0.330751
O O10 0.842421 0.022465 0.446483
O O11 0.327928 0.964638 0.208443
O O12 0.288697 0.068819 0.117498
O O13 0.500000 0.125284 0.250000
O O14 0.364995 0.832883 0.457556
O O15 0.282343 0.671040 0.504877
O O16 0.500000 0.584217 0.750000
O O17 0.776522 0.488652 0.486179
O O18 0.500000 0.598519 0.250000
#
# Coordination Sequence:
#
# PCOD8121590 Si02
#       8
#     4   4   4   4   4   4   4   4
#     4  11  20  39  63  89 125 175 218 266 329 399
#     4  12  22  38  62  90 128 168 217 276 329 396
#     4  10  23  42  69  99 134 175 220 271 335 406
#     4  12  22  41  64  97 129 171 220 272 335 403
#     4  11  22  41  64  94 126 170 217 272 329 396
#     4  10  22  44  68 100 136 173 220 275 336 402
#     4  11  20  39  59  88 125 168 222 271 328 393
#     4   9  22  37  60  87 122 172 216 267 332 396
#
# _framework density 22.544215000000001
#
# number of rings (size 3 to 8) (size 9 to 14) (size 15 to 20)
#    0.000    1.250    5.000    1.125    0.000    2.500 
#    0.000    5.625    0.000    0.000    0.000    0.000 
#    0.000    0.000    0.000    0.000    0.000    0.000 
#
# Total GULP energy -396640.736535 kJ/mol
# GULP energy per Si atom -12395.023017 kJ/mol
# Density = 2.249290 g / cm^3
# Si number density = 22.544215 Si / 1000 Ang^3
#
#
#
# Elastic Constant Matrix: (Units=GPa)
#
#
# Indices 1 2 3 4 5 6 
#
# 1 133.3149 49.0621 20.4319 0.0000 -13.0074 0.0000
# 2 49.0621 119.9107 18.8711 0.0000 -9.6037 0.0000
# 3 20.4319 18.8711 52.8584 0.0000 -6.2102 0.0000
# 4 0.0000 0.0000 0.0000 15.0647 0.0000 4.5204
# 5 -13.0074 -9.6037 -6.2102 0.0000 31.2613 0.0000
# 6 0.0000 0.0000 0.0000 4.5204 0.0000 36.6623
#
#
#
# Elastic Compliance Matrix: (Units=1/GPa)
#
#
# Indices 1 2 3 4 5 6 
#
# 1 0.009265 -0.003261 -0.002132 0.000000 0.002430 0.000000
# 2 -0.003261 0.010125 -0.002200 0.000000 0.001317 0.000000
# 3 -0.002132 -0.002200 0.020830 0.000000 0.002575 0.000000
# 4 0.000000 0.000000 0.000000 0.068930 0.000000 -0.008499
# 5 0.002430 0.001317 0.002575 0.000000 0.033916 0.000000
# 6 0.000000 0.000000 0.000000 -0.008499 0.000000 0.028324
#
#
# Mechanical properties :
#
#
# Convention : Reuss Voigt Hill
#
# Bulk Modulus (GPa) = 39.94202 53.64601 46.79402
# Shear Modulus (GPa) = 25.65157 31.11226 28.38191
#
# Velocity S-wave (km/s) = 3.37684 3.71894 3.55201
# Velocity P-wave (km/s) = 5.74105 6.50294 6.13384
#
# Compressibility (1/GPa) = 0.02503629
#
# Stress axis : x y z
#
# Youngs Moduli (GPa) = 107.93559 98.76238 48.00690
#
# Poissons Ratio (x) = 0.32203 0.10233
# Poissons Ratio (y) = 0.35194 0.10560
# Poissons Ratio (z) = 0.23008 0.21725
#
# Static dielectric constant tensor:
#      x y z
#    x 4.386530 0.000000 -0.134400 
#    y 0.000000 4.132120 0.000000 
#    z -0.134400 0.000000 3.863850 
# 
# 
# High freq. dielectric constant tensor:
#      x y z
#    x 1.901070 0.000000 -0.006590 
#    y 0.000000 1.883420 0.000000 
#    z -0.006590 0.000000 1.866130 
# 
# From -- ./inp_files/66906.got.cif
#   From: 2010.06.25/outbox.cif.g09.slc.cpg/sg13_34_cif.got.tgz:66906.got - 2010.06.28 04:50:58.
