data_PCOD8121941
_publ_section_title
;
Structure prediction by ZEFSAII (Michael W. Deem and Ramdas Pophale) SiO2 
 PCOD8121941
Probable space group: P 2/C
;
_chemical_formula_sum "Si O2"
_cell_formula_units_Z 32
_cell_length_a 14.748674
_cell_length_b 5.192003
_cell_length_c 17.414765
_cell_angle_alpha 90.000000
_cell_angle_beta 92.740300
_cell_angle_gamma 90.000000
_cell_volume 1332.013502
_symmetry_space_group_name_H-M "P 2/C"
_symmetry_group_IT_number 13
_symmetry_cell_setting 'monoclinic'
loop_
_space_group_symop_operation_xyz
x,y,z
-x,y,1/2-z
-x,-y,-z
x,-y,1/2+z
loop_
_atom_site_type_symbol
_atom_site_label
_atom_site_fract_x
_atom_site_fract_y
_atom_site_fract_z
Si Si1 0.779748 0.937156 0.602472
Si Si2 0.777281 0.649652 0.453953
Si Si3 0.026850 0.938053 0.337593
Si Si4 0.354701 0.960381 0.134762
Si Si5 0.362327 0.722483 0.490681
Si Si6 0.958442 0.440186 0.416361
Si Si7 0.368392 0.790165 0.792324
Si Si8 0.467687 0.299806 0.851232
O O1 0.819960 0.773193 0.532887
O O2 0.864341 0.062239 0.650191
O O3 0.722733 0.760518 0.659911
O O4 0.715574 0.158112 0.566659
O O5 0.681056 0.527001 0.472622
O O6 0.849036 0.453736 0.419977
O O7 0.746898 0.858571 0.388655
O O8 0.000000 0.002328 0.250000
O O9 0.982099 0.153775 0.390270
O O10 0.991513 0.654980 0.357657
O O11 0.341728 0.164358 0.202742
O O12 0.424463 0.728938 0.158970
O O13 0.396788 0.094791 0.060413
O O14 0.446967 0.645386 0.440308
O O15 0.000000 0.500000 0.500000
O O16 0.428352 0.532737 0.799264
O O17 0.426397 0.028839 0.824131
#
# Coordination Sequence:
#
# PCOD8121941 Si02
#       8
#     4   4   4   4   4   4   4   4
#     4  10  23  46  71 101 146 192 242 294 374 440
#     4  11  24  43  73 106 143 191 251 302 363 426
#     4  12  28  47  75 111 150 194 242 309 379 448
#     4  11  27  42  72 110 143 188 244 313 348 439
#     4  10  23  45  72 105 140 195 242 299 357 434
#     4  12  26  47  76 110 147 197 250 306 368 448
#     4  11  26  45  72 104 143 194 232 295 368 434
#     4  11  25  48  71 103 145 192 236 286 369 434
#
# _framework density 24.023779999999999
#
# number of rings (size 3 to 8) (size 9 to 14) (size 15 to 20)
#    0.000    1.000    2.500    2.250    8.750    1.500 
#    0.000    0.000    0.000    0.000    0.000    0.000 
#    0.000    0.000    0.000    0.000    0.000    0.000 
#
# Total GULP energy -396860.467772 kJ/mol
# GULP energy per Si atom -12401.889618 kJ/mol
# Density = 2.396910 g / cm^3
# Si number density = 24.023780 Si / 1000 Ang^3
#
#
#
# Elastic Constant Matrix: (Units=GPa)
#
#
# Indices 1 2 3 4 5 6 
#
# 1 72.9415 6.7646 40.1703 0.0000 -1.8940 0.0000
# 2 6.7646 76.9058 15.5472 0.0000 4.8510 0.0000
# 3 40.1703 15.5472 126.9244 0.0000 7.0816 0.0000
# 4 0.0000 0.0000 0.0000 36.8109 0.0000 0.8080
# 5 -1.8940 4.8510 7.0816 0.0000 27.0396 0.0000
# 6 0.0000 0.0000 0.0000 0.8080 0.0000 16.1476
#
#
#
# Elastic Compliance Matrix: (Units=1/GPa)
#
#
# Indices 1 2 3 4 5 6 
#
# 1 0.016805 -0.000556 -0.005401 0.000000 0.002691 0.000000
# 2 -0.000556 0.013458 -0.001355 0.000000 -0.002098 0.000000
# 3 -0.005401 -0.001355 0.009906 0.000000 -0.002730 0.000000
# 4 0.000000 0.000000 0.000000 0.027196 0.000000 -0.001361
# 5 0.002691 -0.002098 -0.002730 0.000000 0.038263 0.000000
# 6 0.000000 0.000000 0.000000 -0.001361 0.000000 0.061997
#
#
# Mechanical properties :
#
#
# Convention : Reuss Voigt Hill
#
# Bulk Modulus (GPa) = 39.14626 44.63732 41.89179
# Shear Modulus (GPa) = 26.21027 30.28559 28.24793
#
# Velocity S-wave (km/s) = 3.30663 3.55442 3.43276
# Velocity P-wave (km/s) = 5.55955 5.95533 5.76084
#
# Compressibility (1/GPa) = 0.02554523
#
# Stress axis : x y z
#
# Youngs Moduli (GPa) = 59.50472 74.30406 100.94567
#
# Poissons Ratio (x) = 0.04132 0.54519
# Poissons Ratio (y) = 0.03309 0.13682
# Poissons Ratio (z) = 0.32137 0.10071
#
# Static dielectric constant tensor:
#      x y z
#    x 4.385240 0.000000 -0.235220 
#    y 0.000000 4.305370 0.000000 
#    z -0.235220 0.000000 4.738660 
# 
# 
# High freq. dielectric constant tensor:
#      x y z
#    x 1.949350 0.000000 0.000610 
#    y 0.000000 1.950370 0.000000 
#    z 0.000610 0.000000 1.966700 
# 
# From -- ./inp_files/67571.got.cif
#   From: 2010.06.25/outbox.cif.g09.slc.cpg/sg13_34_cif.got.tgz:67571.got - 2010.06.28 04:50:58.
