data_PCOD8121910
_publ_section_title
;
Structure prediction by ZEFSAII (Michael W. Deem and Ramdas Pophale) SiO2 
 PCOD8121910
Probable space group: P 2/C
;
_chemical_formula_sum "Si O2"
_cell_formula_units_Z 20
_cell_length_a 11.083864
_cell_length_b 12.893006
_cell_length_c 10.955176
_cell_angle_alpha 90.000000
_cell_angle_beta 37.751184
_cell_angle_gamma 90.000000
_cell_volume 958.477464
_symmetry_space_group_name_H-M "P 2/C"
_symmetry_group_IT_number 13
_symmetry_cell_setting 'monoclinic'
loop_
_space_group_symop_operation_xyz
x,y,z
-x,y,1/2-z
-x,-y,-z
x,-y,1/2+z
loop_
_atom_site_type_symbol
_atom_site_label
_atom_site_fract_x
_atom_site_fract_y
_atom_site_fract_z
Si Si1 0.125260 0.380140 0.525216
Si Si2 0.352552 0.913897 0.071480
Si Si3 0.500000 0.765156 0.750000
Si Si4 0.706353 0.821692 0.134658
Si Si5 0.885439 0.385447 0.467760
Si Si6 0.000000 0.044431 0.250000
O O1 0.311380 0.305410 0.375701
O O2 0.202397 0.498789 0.458534
O O3 0.000000 0.360796 0.750000
O O4 0.008190 0.360088 0.493002
O O5 0.282728 0.835550 0.230667
O O6 0.158044 0.968381 0.180391
O O7 0.467932 0.841874 0.886669
O O8 0.500000 0.000000 0.000000
O O9 0.500000 0.868069 0.250000
O O10 0.712338 0.699265 0.100601
O O11 0.894450 0.881768 0.931471
O O12 0.000000 0.371289 0.250000
#
# Coordination Sequence:
#
# PCOD8121910 Si02
#       6
#     4   4   2   4   4   2
#     4  10  24  48  68 104 140 187 228 284 354 421
#     4  12  27  47  68 102 137 185 243 284 347 420
#     4  12  28  44  74 100 142 184 230 290 350 418
#     4  12  25  43  71 102 133 181 231 287 354 410
#     4  10  23  44  73 101 142 178 234 289 348 421
#     4  12  26  48  70  96 140 186 226 300 344 408
#
# _framework density 20.866427999999999
#
# number of rings (size 3 to 8) (size 9 to 14) (size 15 to 20)
#    0.000    0.800    3.000    3.000   11.200    0.000 
#    0.000    4.000    0.000    0.000    0.000    0.000 
#    0.000    0.000    0.000    0.000    0.000    0.000 
#
# Total GULP energy -247942.332514 kJ/mol
# GULP energy per Si atom -12397.116626 kJ/mol
# Density = 2.081894 g / cm^3
# Si number density = 20.866428 Si / 1000 Ang^3
#
#
#
# Elastic Constant Matrix: (Units=GPa)
#
#
# Indices 1 2 3 4 5 6 
#
# 1 128.8231 60.3491 73.3724 0.0000 12.4156 0.0000
# 2 60.3491 154.9640 85.4455 0.0000 -2.9778 0.0000
# 3 73.3724 85.4455 151.1606 0.0000 14.3210 0.0000
# 4 0.0000 0.0000 0.0000 71.5003 0.0000 -2.9420
# 5 12.4156 -2.9778 14.3210 0.0000 51.0893 0.0000
# 6 0.0000 0.0000 0.0000 -2.9420 0.0000 34.8997
#
#
#
# Elastic Compliance Matrix: (Units=1/GPa)
#
#
# Indices 1 2 3 4 5 6 
#
# 1 0.011270 -0.002173 -0.004079 0.000000 -0.001722 0.000000
# 2 -0.002173 0.010016 -0.004841 0.000000 0.002469 0.000000
# 3 -0.004079 -0.004841 0.011572 0.000000 -0.002535 0.000000
# 4 0.000000 0.000000 0.000000 0.014035 0.000000 0.001183
# 5 -0.001722 0.002469 -0.002535 0.000000 0.020846 0.000000
# 6 0.000000 0.000000 0.000000 0.001183 0.000000 0.028753
#
#
# Mechanical properties :
#
#
# Convention : Reuss Voigt Hill
#
# Bulk Modulus (GPa) = 93.70072 97.03130 95.36601
# Shear Modulus (GPa) = 40.90513 45.88324 43.39419
#
# Velocity S-wave (km/s) = 4.43237 4.69433 4.56523
# Velocity P-wave (km/s) = 8.43783 8.71691 8.57850
#
# Compressibility (1/GPa) = 0.01067228
#
# Stress axis : x y z
#
# Youngs Moduli (GPa) = 88.73449 99.84080 86.41735
#
# Poissons Ratio (x) = 0.21695 0.35248
# Poissons Ratio (y) = 0.19281 0.41833
# Poissons Ratio (z) = 0.36193 0.48331
#
# Static dielectric constant tensor:
#      x y z
#    x 3.768370 0.000000 0.302730 
#    y 0.000000 4.118610 0.000000 
#    z 0.302730 0.000000 3.852440 
# 
# 
# High freq. dielectric constant tensor:
#      x y z
#    x 1.824170 0.000000 0.014930 
#    y 0.000000 1.842660 0.000000 
#    z 0.014930 0.000000 1.823720 
# 
# From -- ./inp_files/34527.got.cif
#   From: 2010.06.25/outbox.cif.g09.slc.cpg/sg13_18_cif.got.tgz:34527.got - 2010.06.28 04:50:58.
