data_PCOD8121904
_publ_section_title
;
Structure prediction by ZEFSAII (Michael W. Deem and Ramdas Pophale) SiO2 
 PCOD8121904
Probable space group: P 2/C
;
_chemical_formula_sum "Si O2"
_cell_formula_units_Z 18
_cell_length_a 8.029123
_cell_length_b 11.470894
_cell_length_c 8.899629
_cell_angle_alpha 90.000000
_cell_angle_beta 90.466561
_cell_angle_gamma 90.000000
_cell_volume 819.639503
_symmetry_space_group_name_H-M "P 2/C"
_symmetry_group_IT_number 13
_symmetry_cell_setting 'monoclinic'
loop_
_space_group_symop_operation_xyz
x,y,z
-x,y,1/2-z
-x,-y,-z
x,-y,1/2+z
loop_
_atom_site_type_symbol
_atom_site_label
_atom_site_fract_x
_atom_site_fract_y
_atom_site_fract_z
Si Si1 0.192591 0.103119 0.267757
Si Si2 0.500000 0.723720 0.250000
Si Si3 0.172369 0.652265 0.679140
Si Si4 0.638390 0.079228 0.933646
Si Si5 0.177727 0.578561 0.334971
O O1 0.265996 0.221924 0.185869
O O2 0.220869 0.111457 0.445620
O O3 0.000000 0.079377 0.250000
O O4 0.284388 0.988281 0.207295
O O5 0.451427 0.801160 0.108492
O O6 0.332771 0.654055 0.284561
O O7 0.153600 0.596654 0.513223
O O8 0.239231 0.552410 0.793299
O O9 0.000000 0.692500 0.750000
O O10 0.500000 0.000000 0.000000
O O11 0.000000 0.606287 0.250000
#
# Coordination Sequence:
#
# PCOD8121904 Si02
#       5
#     4   2   4   4   4
#     4  11  25  43  73  99 135 183 234 280 350 410
#     4  12  28  42  72 108 138 190 236 280 358 416
#     4  10  23  44  71 105 135 185 235 289 347 413
#     4  12  24  47  64  99 144 177 229 293 340 410
#     4  11  25  46  72 100 147 183 233 291 346 417
#
# _framework density 21.960875000000001
#
# number of rings (size 3 to 8) (size 9 to 14) (size 15 to 20)
#    0.000    0.889    2.222    4.667    9.333    1.778 
#    4.000    0.000    0.000    0.000    0.000    0.000 
#    0.000    0.000    0.000    0.000    0.000    0.000 
#
# Total GULP energy -222995.611433 kJ/mol
# GULP energy per Si atom -12388.645080 kJ/mol
# Density = 2.191089 g / cm^3
# Si number density = 21.960875 Si / 1000 Ang^3
#
#
#
# Elastic Constant Matrix: (Units=GPa)
#
#
# Indices 1 2 3 4 5 6 
#
# 1 112.1210 38.3332 14.8745 0.0000 3.3555 0.0000
# 2 38.3332 116.7004 17.5972 0.0000 2.6748 0.0000
# 3 14.8745 17.5972 111.4105 0.0000 7.3690 0.0000
# 4 0.0000 0.0000 0.0000 51.0815 0.0000 34.8324
# 5 3.3555 2.6748 7.3690 0.0000 37.3378 0.0000
# 6 0.0000 0.0000 0.0000 34.8324 0.0000 106.5085
#
#
#
# Elastic Compliance Matrix: (Units=1/GPa)
#
#
# Indices 1 2 3 4 5 6 
#
# 1 0.010135 -0.003194 -0.000814 0.000000 -0.000521 0.000000
# 2 -0.003194 0.009790 -0.001107 0.000000 -0.000196 0.000000
# 3 -0.000814 -0.001107 0.009372 0.000000 -0.001697 0.000000
# 4 0.000000 0.000000 0.000000 0.025195 0.000000 -0.008240
# 5 -0.000521 -0.000196 -0.001697 0.000000 0.027178 0.000000
# 6 0.000000 0.000000 0.000000 -0.008240 0.000000 0.012084
#
#
# Mechanical properties :
#
#
# Convention : Reuss Voigt Hill
#
# Bulk Modulus (GPa) = 52.45098 53.53799 52.99448
# Shear Modulus (GPa) = 45.31507 56.94736 51.13122
#
# Velocity S-wave (km/s) = 4.54744 5.09780 4.83047
# Velocity P-wave (km/s) = 7.17691 7.68647 7.43606
#
# Compressibility (1/GPa) = 0.01906542
#
# Stress axis : x y z
#
# Youngs Moduli (GPa) = 98.67160 102.14943 106.70558
#
# Poissons Ratio (x) = 0.32629 0.08687
# Poissons Ratio (y) = 0.31518 0.11811
# Poissons Ratio (z) = 0.08033 0.11306
#
# Static dielectric constant tensor:
#      x y z
#    x 3.767380 0.000000 0.174270 
#    y 0.000000 4.969410 0.000000 
#    z 0.174270 0.000000 4.341560 
# 
# 
# High freq. dielectric constant tensor:
#      x y z
#    x 1.859590 0.000000 0.000920 
#    y 0.000000 1.884560 0.000000 
#    z 0.000920 0.000000 1.871240 
# 
# From -- ./inp_files/11326.got.cif
#   From: 2010.06.25/outbox.cif.g09.slc.cpg/sg13_6_cif.got.tgz:11326.got - 2010.06.28 04:50:58.
