data_PCOD8121073
_publ_section_title
;
Structure prediction by ZEFSAII (Michael W. Deem and Ramdas Pophale) SiO2 
 PCOD8121073
Probable space group: P 2/C
;
_chemical_formula_sum "Si O2"
_cell_formula_units_Z 14
_cell_length_a 6.487436
_cell_length_b 6.108096
_cell_length_c 16.457529
_cell_angle_alpha 90.000000
_cell_angle_beta 100.483181
_cell_angle_gamma 90.000000
_cell_volume 641.258746
_symmetry_space_group_name_H-M "P 2/C"
_symmetry_group_IT_number 13
_symmetry_cell_setting 'monoclinic'
loop_
_space_group_symop_operation_xyz
x,y,z
-x,y,1/2-z
-x,-y,-z
x,-y,1/2+z
loop_
_atom_site_type_symbol
_atom_site_label
_atom_site_fract_x
_atom_site_fract_y
_atom_site_fract_z
Si Si1 0.500000 0.088470 0.750000
Si Si2 0.523163 0.209137 0.105650
Si Si3 0.180407 0.118221 0.963377
Si Si4 0.806682 0.597767 0.185767
O O1 0.299440 0.228693 0.761625
O O2 0.573842 0.937048 0.829513
O O3 0.629128 0.424944 0.149372
O O4 0.694334 0.079789 0.067146
O O5 0.327351 0.264934 0.033235
O O6 0.100283 0.283731 0.887902
O O7 0.000000 0.000000 0.000000
O O8 0.000000 0.490443 0.250000
#
# Coordination Sequence:
#
# PCOD8121073 Si02
#       4
#     2   4   4   4
#     4  10  22  40  60  86 122 158 202 250 300 356
#     4  10  22  39  61  89 120 158 203 250 299 357
#     4  10  22  40  61  87 123 160 200 249 301 357
#     4  11  23  38  62  92 121 159 204 249 304 362
#
# _framework density 21.832060999999999
#
# number of rings (size 3 to 8) (size 9 to 14) (size 15 to 20)
#    0.000    1.714    0.000    3.429    0.000   10.286 
#    0.000    0.000    0.000    0.000    0.000    0.000 
#    0.000    0.000    0.000    0.000    0.000    0.000 
#
# Total GULP energy -173597.027236 kJ/mol
# GULP energy per Si atom -12399.787660 kJ/mol
# Density = 2.178237 g / cm^3
# Si number density = 21.832061 Si / 1000 Ang^3
#
#
#
# Elastic Constant Matrix: (Units=GPa)
#
#
# Indices 1 2 3 4 5 6 
#
# 1 92.9086 45.6985 80.1098 0.0000 1.8314 0.0000
# 2 45.6985 100.3403 59.8771 0.0000 2.3653 0.0000
# 3 80.1098 59.8771 155.2239 0.0000 5.8580 0.0000
# 4 0.0000 0.0000 0.0000 27.1736 0.0000 10.6063
# 5 1.8314 2.3653 5.8580 0.0000 47.9435 0.0000
# 6 0.0000 0.0000 0.0000 10.6063 0.0000 18.3415
#
#
#
# Elastic Compliance Matrix: (Units=1/GPa)
#
#
# Indices 1 2 3 4 5 6 
#
# 1 0.020534 -0.003934 -0.009100 0.000000 0.000522 0.000000
# 2 -0.003934 0.013700 -0.003249 0.000000 -0.000129 0.000000
# 3 -0.009100 -0.003249 0.012430 0.000000 -0.001011 0.000000
# 4 0.000000 0.000000 0.000000 0.047528 0.000000 -0.027484
# 5 0.000522 -0.000129 -0.001011 0.000000 0.020968 0.000000
# 6 0.000000 0.000000 0.000000 -0.027484 0.000000 0.070414
#
#
# Mechanical properties :
#
#
# Convention : Reuss Voigt Hill
#
# Bulk Modulus (GPa) = 70.93312 79.98264 75.45788
# Shear Modulus (GPa) = 22.43766 29.54421 25.99093
#
# Velocity S-wave (km/s) = 3.20931 3.68264 3.45410
# Velocity P-wave (km/s) = 6.80396 7.40253 7.10954
#
# Compressibility (1/GPa) = 0.01409779
#
# Stress axis : x y z
#
# Youngs Moduli (GPa) = 48.69944 72.99290 80.44947
#
# Poissons Ratio (x) = 0.28717 0.73206
# Poissons Ratio (y) = 0.19159 0.26142
# Poissons Ratio (z) = 0.44315 0.23719
#
# Static dielectric constant tensor:
#      x y z
#    x 3.828800 0.000000 -0.134220 
#    y 0.000000 3.770770 0.000000 
#    z -0.134220 0.000000 4.438550 
# 
# 
# High freq. dielectric constant tensor:
#      x y z
#    x 1.850720 0.000000 -0.008010 
#    y 0.000000 1.846600 0.000000 
#    z -0.008010 0.000000 1.885820 
# 
# From -- ./inp_files/51757.got.cif
#   From: 2010.06.25/outbox.cif.g09.slc.cpg/sg13_26_cif.got.tgz:51757.got - 2010.06.28 04:50:58.
