data_PCOD8121501
_publ_section_title
;
Structure prediction by ZEFSAII (Michael W. Deem and Ramdas Pophale) SiO2 
 PCOD8121501
Probable space group: P 2/C
;
_chemical_formula_sum "Si O2"
_cell_formula_units_Z 28
_cell_length_a 13.939689
_cell_length_b 5.123593
_cell_length_c 19.096611
_cell_angle_alpha 90.000000
_cell_angle_beta 117.838815
_cell_angle_gamma 90.000000
_cell_volume 1206.052898
_symmetry_space_group_name_H-M "P 2/C"
_symmetry_group_IT_number 13
_symmetry_cell_setting 'monoclinic'
loop_
_space_group_symop_operation_xyz
x,y,z
-x,y,1/2-z
-x,-y,-z
x,-y,1/2+z
loop_
_atom_site_type_symbol
_atom_site_label
_atom_site_fract_x
_atom_site_fract_y
_atom_site_fract_z
Si Si1 0.590879 0.238089 0.105752
Si Si2 0.266704 0.372066 0.586522
Si Si3 0.390744 0.614922 0.743319
Si Si4 0.070513 0.852069 0.342141
Si Si5 0.204799 0.627930 0.912853
Si Si6 0.504333 0.264994 0.878560
Si Si7 0.042996 0.246063 0.554314
O O1 0.651834 0.226414 0.203307
O O2 0.677797 0.286436 0.075163
O O3 0.533403 0.957352 0.079947
O O4 0.500448 0.533307 0.923703
O O5 0.302278 0.605037 0.651401
O O6 0.216440 0.475560 0.496540
O O7 0.373444 0.199908 0.605639
O O8 0.173656 0.218418 0.596529
O O9 0.500000 0.751957 0.750000
O O10 0.426623 0.322719 0.784668
O O11 0.156306 0.619273 0.354065
O O12 0.992944 0.750427 0.377388
O O13 0.000000 0.909839 0.250000
O O14 0.127948 0.120184 0.383858
O O15 0.000000 0.500000 0.500000
O O16 0.000000 0.000000 0.500000
#
# Coordination Sequence:
#
# PCOD8121501 Si02
#       7
#     4   4   4   4   4   4   4
#     4  10  22  43  65  97 142 175 231 271 331 428
#     4  11  23  44  72 102 138 186 218 297 342 404
#     4   8  20  43  61 101 134 179 225 273 331 413
#     4  12  27  50  70 101 141 181 238 300 344 417
#     4  12  26  45  70 105 136 183 233 281 360 407
#     4   9  22  42  65 101 140 176 230 270 338 417
#     4  12  25  49  70 105 138 178 237 297 349 411
#
# _framework density 23.216228999999998
#
# number of rings (size 3 to 8) (size 9 to 14) (size 15 to 20)
#    0.857    0.571    2.857    1.286    2.000    5.143 
#    5.143    0.000    0.000    0.000    0.000    0.000 
#    0.000    0.000    0.000    0.000    0.000    0.000 
#
# Total GULP energy -346898.986256 kJ/mol
# GULP energy per Si atom -12389.249509 kJ/mol
# Density = 2.316339 g / cm^3
# Si number density = 23.216229 Si / 1000 Ang^3
#
#
#
# Elastic Constant Matrix: (Units=GPa)
#
#
# Indices 1 2 3 4 5 6 
#
# 1 109.1986 13.1688 8.5178 0.0000 2.0886 0.0000
# 2 13.1688 117.9704 7.1745 0.0000 10.4932 0.0000
# 3 8.5178 7.1745 73.8638 0.0000 -1.6100 0.0000
# 4 0.0000 0.0000 0.0000 8.8681 0.0000 -3.7285
# 5 2.0886 10.4932 -1.6100 0.0000 39.6281 0.0000
# 6 0.0000 0.0000 0.0000 -3.7285 0.0000 27.3875
#
#
#
# Elastic Compliance Matrix: (Units=1/GPa)
#
#
# Indices 1 2 3 4 5 6 
#
# 1 0.009356 -0.000959 -0.000992 0.000000 -0.000279 0.000000
# 2 -0.000959 0.008839 -0.000799 0.000000 -0.002322 0.000000
# 3 -0.000992 -0.000799 0.013748 0.000000 0.000822 0.000000
# 4 0.000000 0.000000 0.000000 0.119609 0.000000 0.016283
# 5 -0.000279 -0.002322 0.000822 0.000000 0.025898 0.000000
# 6 0.000000 0.000000 0.000000 0.016283 0.000000 0.038730
#
#
# Mechanical properties :
#
#
# Convention : Reuss Voigt Hill
#
# Bulk Modulus (GPa) = 37.81571 39.86166 38.83869
# Shear Modulus (GPa) = 21.69255 33.32152 27.50704
#
# Velocity S-wave (km/s) = 3.06006 3.79260 3.44585
# Velocity P-wave (km/s) = 5.36742 6.03204 5.70941
#
# Compressibility (1/GPa) = 0.02644403
#
# Stress axis : x y z
#
# Youngs Moduli (GPa) = 106.88313 113.13610 72.73630
#
# Poissons Ratio (x) = 0.10852 0.07214
# Poissons Ratio (y) = 0.10252 0.05808
# Poissons Ratio (z) = 0.10601 0.09034
#
# Static dielectric constant tensor:
#      x y z
#    x 6.257610 0.000000 -0.014830 
#    y 0.000000 3.924010 0.000000 
#    z -0.014830 0.000000 4.230050 
# 
# 
# High freq. dielectric constant tensor:
#      x y z
#    x 1.921250 0.000000 -0.016000 
#    y 0.000000 1.898800 0.000000 
#    z -0.016000 0.000000 1.921150 
# 
# From -- ./inp_files/67630.got.cif
#   From: 2010.06.25/outbox.cif.g09.slc.cpg/sg13_34_cif.got.tgz:67630.got - 2010.06.28 04:50:58.
