data_PCOD8121708
_publ_section_title
;
Structure prediction by ZEFSAII (Michael W. Deem and Ramdas Pophale) SiO2 
 PCOD8121708
Probable space group: P 2/C
;
_chemical_formula_sum "Si O2"
_cell_formula_units_Z 24
_cell_length_a 11.913973
_cell_length_b 18.126319
_cell_length_c 5.500128
_cell_angle_alpha 90.000000
_cell_angle_beta 70.756265
_cell_angle_gamma 90.000000
_cell_volume 1121.420664
_symmetry_space_group_name_H-M "P 2/C"
_symmetry_group_IT_number 13
_symmetry_cell_setting 'monoclinic'
loop_
_space_group_symop_operation_xyz
x,y,z
-x,y,1/2-z
-x,-y,-z
x,-y,1/2+z
loop_
_atom_site_type_symbol
_atom_site_label
_atom_site_fract_x
_atom_site_fract_y
_atom_site_fract_z
Si Si1 0.304707 0.198401 0.624716
Si Si2 0.000000 0.601273 0.250000
Si Si3 0.758621 0.539601 0.514245
Si Si4 0.888827 0.280178 0.474924
Si Si5 0.500000 0.714918 0.250000
Si Si6 0.317755 0.316699 0.231511
Si Si7 0.364033 0.028742 0.586289
O O1 0.170886 0.214684 0.820482
O O2 0.391426 0.233165 0.758575
O O3 0.322118 0.236247 0.351238
O O4 0.343351 0.114819 0.564906
O O5 0.063220 0.652617 0.401453
O O6 0.900808 0.547812 0.435100
O O7 0.716961 0.501834 0.291699
O O8 0.698101 0.620615 0.552927
O O9 0.794938 0.319865 0.365742
O O10 0.000000 0.244330 0.250000
O O11 0.444511 0.666755 0.508316
O O12 0.500000 0.000000 0.500000
O O13 0.303176 0.993233 0.387771
#
# Coordination Sequence:
#
# PCOD8121708 Si02
#       7
#     4   2   4   4   2   4   4
#     4  11  23  41  69  99 137 182 222 286 338 407
#     4  12  22  42  64 104 130 180 224 304 342 420
#     4  12  26  42  66  97 138 180 228 296 361 406
#     4  11  21  39  68  99 138 172 235 283 337 405
#     4  10  24  38  68  92 126 178 238 284 328 402
#     4  11  24  41  65  96 135 178 242 277 343 417
#     4  10  23  39  65 101 141 169 215 275 339 405
#
# _framework density 21.401425
#
# number of rings (size 3 to 8) (size 9 to 14) (size 15 to 20)
#    0.000    1.000    3.333    3.000   11.667    0.000 
#    0.000    0.833    0.000    1.000    0.000    0.000 
#    0.000    0.000    0.000    0.000    0.000    0.000 
#
# Total GULP energy -297479.881863 kJ/mol
# GULP energy per Si atom -12394.995078 kJ/mol
# Density = 2.135271 g / cm^3
# Si number density = 21.401425 Si / 1000 Ang^3
#
#
#
# Elastic Constant Matrix: (Units=GPa)
#
#
# Indices 1 2 3 4 5 6 
#
# 1 44.1945 6.9338 32.4850 0.0000 -7.2776 0.0000
# 2 6.9338 88.6249 33.5589 0.0000 1.1257 0.0000
# 3 32.4850 33.5589 151.7489 0.0000 -2.3691 0.0000
# 4 0.0000 0.0000 0.0000 26.7646 0.0000 -2.3414
# 5 -7.2776 1.1257 -2.3691 0.0000 51.8275 0.0000
# 6 0.0000 0.0000 0.0000 -2.3414 0.0000 33.9145
#
#
#
# Elastic Compliance Matrix: (Units=1/GPa)
#
#
# Indices 1 2 3 4 5 6 
#
# 1 0.027506 0.000012 -0.005835 0.000000 0.003595 0.000000
# 2 0.000012 0.012323 -0.002734 0.000000 -0.000391 0.000000
# 3 -0.005835 -0.002734 0.008438 0.000000 -0.000374 0.000000
# 4 0.000000 0.000000 0.000000 0.037590 0.000000 0.002595
# 5 0.003595 -0.000391 -0.000374 0.000000 0.019791 0.000000
# 6 0.000000 0.000000 0.000000 0.002595 0.000000 0.029665
#
#
# Mechanical properties :
#
#
# Convention : Reuss Voigt Hill
#
# Bulk Modulus (GPa) = 32.09958 47.83597 39.96777
# Shear Modulus (GPa) = 30.71054 36.60736 33.65895
#
# Velocity S-wave (km/s) = 3.79222 4.14032 3.97009
# Velocity P-wave (km/s) = 5.84858 6.72730 6.30327
#
# Compressibility (1/GPa) = 0.03115306
#
# Stress axis : x y z
#
# Youngs Moduli (GPa) = 36.35527 81.15084 118.51709
#
# Poissons Ratio (x) = -0.00095 0.69152
# Poissons Ratio (y) = -0.00043 0.32400
# Poissons Ratio (z) = 0.21212 0.22185
#
# Static dielectric constant tensor:
#      x y z
#    x 4.017050 0.000000 -0.101670 
#    y 0.000000 3.620230 0.000000 
#    z -0.101670 0.000000 4.681280 
# 
# 
# High freq. dielectric constant tensor:
#      x y z
#    x 1.820530 0.000000 0.007560 
#    y 0.000000 1.815010 0.000000 
#    z 0.007560 0.000000 1.869860 
# 
# From -- ./inp_files/3615.got.cif
#   From: 2010.06.25/outbox.cif.g09.slc.cpg/sg13_2_cif.got.tgz:3615.got - 2010.06.28 04:50:58.
