data_PCOD8121005
_publ_section_title
;
Structure prediction by ZEFSAII (Michael W. Deem and Ramdas Pophale) SiO2 
 PCOD8121005
Probable space group: P 2/C
;
_chemical_formula_sum "Si O2"
_cell_formula_units_Z 24
_cell_length_a 11.057378
_cell_length_b 5.962285
_cell_length_c 18.404142
_cell_angle_alpha 90.000000
_cell_angle_beta 95.568273
_cell_angle_gamma 90.000000
_cell_volume 1207.608887
_symmetry_space_group_name_H-M "P 2/C"
_symmetry_group_IT_number 13
_symmetry_cell_setting 'monoclinic'
loop_
_space_group_symop_operation_xyz
x,y,z
-x,y,1/2-z
-x,-y,-z
x,-y,1/2+z
loop_
_atom_site_type_symbol
_atom_site_label
_atom_site_fract_x
_atom_site_fract_y
_atom_site_fract_z
Si Si1 0.193063 0.171138 0.335771
Si Si2 0.203970 0.199452 0.114728
Si Si3 0.116336 0.899202 0.465065
Si Si4 0.643069 0.424515 0.256539
Si Si5 0.007740 0.516872 0.359209
Si Si6 0.182546 0.811027 0.221272
O O1 0.321225 0.253255 0.307608
O O2 0.112055 0.391622 0.320107
O O3 0.186241 0.082468 0.418137
O O4 0.141536 0.968302 0.284882
O O5 0.308708 0.337676 0.162006
O O6 0.074106 0.324895 0.108921
O O7 0.199081 0.952343 0.148844
O O8 0.222595 0.167147 0.029251
O O9 0.071592 0.678794 0.420881
O O10 0.000000 0.000000 0.500000
O O11 0.500000 0.440253 0.250000
O O12 0.695459 0.675395 0.249596
O O13 0.927928 0.644292 0.295928
#
# Coordination Sequence:
#
# PCOD8121005 Si02
#       6
#     4   4   4   4   4   4
#     4  11  24  36  60  91 124 158 203 246 307 361
#     4  10  22  38  62  91 124 163 199 241 301 366
#     4  12  22  37  58  95 136 164 188 233 303 377
#     4  10  24  44  63  82 112 159 215 264 301 343
#     4  11  21  36  59  91 133 158 193 234 304 371
#     4  10  22  39  58  89 119 159 200 251 299 358
#
# _framework density 19.873984
#
# number of rings (size 3 to 8) (size 9 to 14) (size 15 to 20)
#    0.000    1.333    3.333    1.500    0.000   18.667 
#    0.000    0.833    0.000    5.000    0.000    0.000 
#    0.000    0.000    0.000    0.000    0.000    0.000 
#
# Total GULP energy -297431.041809 kJ/mol
# GULP energy per Si atom -12392.960075 kJ/mol
# Density = 1.982875 g / cm^3
# Si number density = 19.873984 Si / 1000 Ang^3
#
#
#
# Elastic Constant Matrix: (Units=GPa)
#
#
# Indices 1 2 3 4 5 6 
#
# 1 97.8028 49.0816 68.0460 0.0000 4.5217 0.0000
# 2 49.0816 120.9624 57.8571 0.0000 -6.3612 0.0000
# 3 68.0460 57.8571 118.8176 0.0000 -4.5890 0.0000
# 4 0.0000 0.0000 0.0000 39.0537 0.0000 -2.8262
# 5 4.5217 -6.3612 -4.5890 0.0000 18.4259 0.0000
# 6 0.0000 0.0000 0.0000 -2.8262 0.0000 19.7648
#
#
#
# Elastic Compliance Matrix: (Units=1/GPa)
#
#
# Indices 1 2 3 4 5 6 
#
# 1 0.018985 -0.003630 -0.009424 0.000000 -0.008259 0.000000
# 2 -0.003630 0.011581 -0.003404 0.000000 0.004041 0.000000
# 3 -0.009424 -0.003404 0.015665 0.000000 0.005039 0.000000
# 4 0.000000 0.000000 0.000000 0.025874 0.000000 0.003700
# 5 -0.008259 0.004041 0.005039 0.000000 0.058948 0.000000
# 6 0.000000 0.000000 0.000000 0.003700 0.000000 0.051124
#
#
# Mechanical properties :
#
#
# Convention : Reuss Voigt Hill
#
# Bulk Modulus (GPa) = 75.10388 76.39469 75.74929
# Shear Modulus (GPa) = 22.77581 26.28875 24.53228
#
# Velocity S-wave (km/s) = 3.38895 3.64094 3.51720
# Velocity P-wave (km/s) = 7.29283 7.49655 7.39539
#
# Compressibility (1/GPa) = 0.01331489
#
# Stress axis : x y z
#
# Youngs Moduli (GPa) = 52.67358 86.35057 63.83486
#
# Poissons Ratio (x) = 0.31346 0.60157
# Poissons Ratio (y) = 0.19121 0.21730
# Poissons Ratio (z) = 0.49639 0.29394
#
# Static dielectric constant tensor:
#      x y z
#    x 3.161980 0.000000 -0.020670 
#    y 0.000000 4.129230 0.000000 
#    z -0.020670 0.000000 3.842740 
# 
# 
# High freq. dielectric constant tensor:
#      x y z
#    x 1.722180 0.000000 -0.003080 
#    y 0.000000 1.804960 0.000000 
#    z -0.003080 0.000000 1.783250 
# 
# From -- ./inp_files/65373.got.cif
#   From: 2010.06.25/outbox.cif.g09.slc.cpg/sg13_33_cif.got.tgz:65373.got - 2010.06.28 04:50:58.
