data_PCOD8121169
_publ_section_title
;
Structure prediction by ZEFSAII (Michael W. Deem and Ramdas Pophale) SiO2 
 PCOD8121169
Probable space group: P 2/C
;
_chemical_formula_sum "Si O2"
_cell_formula_units_Z 22
_cell_length_a 15.033457
_cell_length_b 10.801578
_cell_length_c 23.004803
_cell_angle_alpha 90.000000
_cell_angle_beta 16.519325
_cell_angle_gamma 90.000000
_cell_volume 1062.186053
_symmetry_space_group_name_H-M "P 2/C"
_symmetry_group_IT_number 13
_symmetry_cell_setting 'monoclinic'
loop_
_space_group_symop_operation_xyz
x,y,z
-x,y,1/2-z
-x,-y,-z
x,-y,1/2+z
loop_
_atom_site_type_symbol
_atom_site_label
_atom_site_fract_x
_atom_site_fract_y
_atom_site_fract_z
Si Si1 0.762031 0.726777 0.700618
Si Si2 0.137008 0.722987 0.353710
Si Si3 0.302351 0.091901 0.430678
Si Si4 0.442302 0.487407 0.604189
Si Si5 0.810820 0.179606 0.470283
Si Si6 0.000000 0.322194 0.250000
O O1 0.505658 0.832659 0.850291
O O2 0.590673 0.617252 0.842785
O O3 0.893324 0.682240 0.556320
O O4 0.061606 0.779513 0.547010
O O5 0.153397 0.601602 0.302082
O O6 0.464174 0.767841 0.175962
O O7 0.001878 0.832204 0.398505
O O8 0.500000 0.054574 0.250000
O O9 0.190691 0.968361 0.532826
O O10 0.500000 0.500000 0.500000
O O11 0.739057 0.411333 0.440440
O O12 0.065598 0.231640 0.263667
#
# Coordination Sequence:
#
# PCOD8121169 Si02
#       6
#     4   4   4   4   4   2
#     4  11  22  39  67  92 117 164 206 251 309 357
#     4  10  23  39  63  94 123 156 207 257 301 361
#     4  10  22  40  62  94 125 154 201 257 306 357
#     4  11  23  42  61  86 128 163 206 252 306 360
#     4  11  21  41  63  88 126 163 202 249 306 365
#     4  10  24  42  58  90 126 164 206 250 304 370
#
# _framework density 20.712001999999998
#
# number of rings (size 3 to 8) (size 9 to 14) (size 15 to 20)
#    0.000    1.455    1.818    3.273    2.545    2.909 
#    3.273    6.364    0.000    0.000    0.000    0.000 
#    0.000    0.000    0.000    0.000    0.000    0.000 
#
# Total GULP energy -272672.593313 kJ/mol
# GULP energy per Si atom -12394.208787 kJ/mol
# Density = 2.066486 g / cm^3
# Si number density = 20.712002 Si / 1000 Ang^3
#
#
#
# Elastic Constant Matrix: (Units=GPa)
#
#
# Indices 1 2 3 4 5 6 
#
# 1 110.6960 66.6576 43.0169 0.0000 0.1541 0.0000
# 2 66.6576 165.3486 56.2293 0.0000 14.1689 0.0000
# 3 43.0169 56.2293 79.5075 0.0000 -0.1925 0.0000
# 4 0.0000 0.0000 0.0000 33.1526 0.0000 6.5884
# 5 0.1541 14.1689 -0.1925 0.0000 41.5588 0.0000
# 6 0.0000 0.0000 0.0000 6.5884 0.0000 37.0235
#
#
#
# Elastic Compliance Matrix: (Units=1/GPa)
#
#
# Indices 1 2 3 4 5 6 
#
# 1 0.013056 -0.003911 -0.004295 0.000000 0.001265 0.000000
# 2 -0.003911 0.009460 -0.004582 0.000000 -0.003232 0.000000
# 3 -0.004295 -0.004582 0.018145 0.000000 0.001662 0.000000
# 4 0.000000 0.000000 0.000000 0.031269 0.000000 -0.005564
# 5 0.001265 -0.003232 0.001662 0.000000 0.025167 0.000000
# 6 0.000000 0.000000 0.000000 -0.005564 0.000000 0.028000
#
#
# Mechanical properties :
#
#
# Convention : Reuss Voigt Hill
#
# Bulk Modulus (GPa) = 66.28783 76.37328 71.33056
# Shear Modulus (GPa) = 32.11268 34.99021 33.55145
#
# Velocity S-wave (km/s) = 3.94183 4.11465 4.02917
# Velocity P-wave (km/s) = 7.26577 7.71543 7.49397
#
# Compressibility (1/GPa) = 0.01508573
#
# Stress axis : x y z
#
# Youngs Moduli (GPa) = 76.59192 105.71249 55.11064
#
# Poissons Ratio (x) = 0.41348 0.23668
# Poissons Ratio (y) = 0.29958 0.25250
# Poissons Ratio (z) = 0.32894 0.48434
#
# Static dielectric constant tensor:
#      x y z
#    x 3.936580 0.000000 0.121310 
#    y 0.000000 4.067290 0.000000 
#    z 0.121310 0.000000 3.948010 
# 
# 
# High freq. dielectric constant tensor:
#      x y z
#    x 1.814760 0.000000 0.003280 
#    y 0.000000 1.821540 0.000000 
#    z 0.003280 0.000000 1.803980 
# 
# From -- ./inp_files/36059.got.cif
#   From: 2010.06.25/outbox.cif.g09.slc.cpg/sg13_19_cif.got.tgz:36059.got - 2010.06.28 04:50:58.
