data_PCOD8121015
_publ_section_title
;
Structure prediction by ZEFSAII (Michael W. Deem and Ramdas Pophale) SiO2 
 PCOD8121015
Probable space group: P 2/C
;
_chemical_formula_sum "Si O2"
_cell_formula_units_Z 26
_cell_length_a 13.933307
_cell_length_b 13.141753
_cell_length_c 14.436395
_cell_angle_alpha 90.000000
_cell_angle_beta 150.758471
_cell_angle_gamma 90.000000
_cell_volume 1291.290430
_symmetry_space_group_name_H-M "P 2/C"
_symmetry_group_IT_number 13
_symmetry_cell_setting 'monoclinic'
loop_
_space_group_symop_operation_xyz
x,y,z
-x,y,1/2-z
-x,-y,-z
x,-y,1/2+z
loop_
_atom_site_type_symbol
_atom_site_label
_atom_site_fract_x
_atom_site_fract_y
_atom_site_fract_z
Si Si1 0.850997 0.742711 0.043297
Si Si2 0.673669 0.989429 0.718311
Si Si3 0.271281 0.483442 0.820290
Si Si4 0.936022 0.625980 0.512341
Si Si5 0.500000 0.884966 0.750000
Si Si6 0.277798 0.526216 0.541019
Si Si7 0.983733 0.840792 0.500376
O O1 0.000000 0.728942 0.250000
O O2 0.673916 0.812300 0.931893
O O3 0.774731 0.630621 0.949621
O O4 0.961320 0.794796 0.051965
O O5 0.500000 0.000000 0.500000
O O6 0.578297 0.955619 0.734158
O O7 0.833893 0.910052 0.812343
O O8 0.782162 0.096476 0.825263
O O9 0.191497 0.391331 0.689088
O O10 0.158428 0.584182 0.689538
O O11 0.500000 0.500000 0.000000
O O12 0.228345 0.458607 0.891183
O O13 0.843994 0.568939 0.522851
O O14 0.948043 0.747085 0.541119
O O15 0.500000 0.497968 0.750000
#
# Coordination Sequence:
#
# PCOD8121015 Si02
#       7
#     4   4   4   4   2   4   4
#     4  11  20  36  64  91 118 158 205 255 303 355
#     4  10  22  44  65  90 121 154 202 262 316 364
#     4  11  23  39  62  89 126 171 207 252 304 364
#     4  11  23  41  60  90 129 164 210 253 305 370
#     4  10  22  38  64  94 116 150 208 252 310 374
#     4  12  23  40  60  91 130 168 208 253 300 368
#     4  10  23  40  63  90 121 159 204 256 312 368
#
# _framework density 20.134898
#
# number of rings (size 3 to 8) (size 9 to 14) (size 15 to 20)
#    0.000    1.231    2.308    5.077    0.000    1.231 
#    1.385    1.538    0.000    0.000    0.000    0.000 
#    0.000    0.000    0.000    0.000    0.000    0.000 
#
# Total GULP energy -322417.961561 kJ/mol
# GULP energy per Si atom -12400.690829 kJ/mol
# Density = 2.008907 g / cm^3
# Si number density = 20.134898 Si / 1000 Ang^3
#
#
#
# Elastic Constant Matrix: (Units=GPa)
#
#
# Indices 1 2 3 4 5 6 
#
# 1 101.4315 50.7698 43.1136 0.0000 9.0065 0.0000
# 2 50.7698 153.9345 49.8141 0.0000 22.0844 0.0000
# 3 43.1136 49.8141 138.5812 0.0000 19.0265 0.0000
# 4 0.0000 0.0000 0.0000 18.2396 0.0000 6.7319
# 5 9.0065 22.0844 19.0265 0.0000 38.7311 0.0000
# 6 0.0000 0.0000 0.0000 6.7319 0.0000 28.4774
#
#
#
# Elastic Compliance Matrix: (Units=1/GPa)
#
#
# Indices 1 2 3 4 5 6 
#
# 1 0.012682 -0.003324 -0.002794 0.000000 0.000319 0.000000
# 2 -0.003324 0.008588 -0.001594 0.000000 -0.003341 0.000000
# 3 -0.002794 -0.001594 0.009055 0.000000 -0.002890 0.000000
# 4 0.000000 0.000000 0.000000 0.060066 0.000000 -0.014199
# 5 0.000319 -0.003341 -0.002890 0.000000 0.029069 0.000000
# 6 0.000000 0.000000 0.000000 -0.014199 0.000000 0.038472
#
#
# Mechanical properties :
#
#
# Convention : Reuss Voigt Hill
#
# Bulk Modulus (GPa) = 67.11622 75.70470 71.41046
# Shear Modulus (GPa) = 28.03871 33.77293 30.90582
#
# Velocity S-wave (km/s) = 3.73573 4.09997 3.92208
# Velocity P-wave (km/s) = 7.21202 7.75199 7.48687
#
# Compressibility (1/GPa) = 0.01489953
#
# Stress axis : x y z
#
# Youngs Moduli (GPa) = 78.85066 116.44445 110.43538
#
# Poissons Ratio (x) = 0.38709 0.30860
# Poissons Ratio (y) = 0.26212 0.17604
# Poissons Ratio (z) = 0.22034 0.18562
#
# Static dielectric constant tensor:
#      x y z
#    x 3.708770 0.000000 0.138010 
#    y 0.000000 3.825960 0.000000 
#    z 0.138010 0.000000 3.831490 
# 
# 
# High freq. dielectric constant tensor:
#      x y z
#    x 1.784990 0.000000 0.014810 
#    y 0.000000 1.782800 0.000000 
#    z 0.014810 0.000000 1.800020 
# 
# From -- ./inp_files/53772.got.cif
#   From: 2010.06.25/outbox.cif.g09.slc.cpg/sg13_27_cif.got.tgz:53772.got - 2010.06.28 04:50:58.
