data_PCOD8121607
_publ_section_title
;
Structure prediction by ZEFSAII (Michael W. Deem and Ramdas Pophale) SiO2 
 PCOD8121607
Probable space group: P 2/C
;
_chemical_formula_sum "Si O2"
_cell_formula_units_Z 18
_cell_length_a 7.007189
_cell_length_b 6.923131
_cell_length_c 16.686004
_cell_angle_alpha 90.000000
_cell_angle_beta 84.002512
_cell_angle_gamma 90.000000
_cell_volume 805.035578
_symmetry_space_group_name_H-M "P 2/C"
_symmetry_group_IT_number 13
_symmetry_cell_setting 'monoclinic'
loop_
_space_group_symop_operation_xyz
x,y,z
-x,y,1/2-z
-x,-y,-z
x,-y,1/2+z
loop_
_atom_site_type_symbol
_atom_site_label
_atom_site_fract_x
_atom_site_fract_y
_atom_site_fract_z
Si Si1 0.532105 0.406494 0.912203
Si Si2 0.641787 0.742241 0.679013
Si Si3 0.000000 0.146726 0.250000
Si Si4 0.849733 0.113085 0.895417
Si Si5 0.258055 0.934296 0.445739
O O1 0.467251 0.548584 0.844011
O O2 0.748816 0.324094 0.888443
O O3 0.402178 0.222136 0.908458
O O4 0.500000 0.500000 0.000000
O O5 0.500000 0.842649 0.750000
O O6 0.683592 0.869311 0.600137
O O7 0.851314 0.712470 0.710889
O O8 0.878794 0.002730 0.312165
O O9 0.049319 0.147894 0.932291
O O10 0.723052 0.975853 0.960037
#
# Coordination Sequence:
#
# PCOD8121607 Si02
#       5
#     4   4   2   4   4
#     4  12  25  40  70 104 132 175 225 280 336 401
#     4  11  25  43  67 102 135 179 225 282 343 395
#     4  10  24  44  72  94 138 188 222 284 344 398
#     4  10  22  44  71  95 133 182 222 274 338 398
#     4  10  23  45  67  96 136 177 225 273 332 408
#
# _framework density 22.359259999999999
#
# number of rings (size 3 to 8) (size 9 to 14) (size 15 to 20)
#    0.000    1.333    2.222    2.000    3.111    7.111 
#    0.000    1.111    0.000    0.000    0.000    0.000 
#    0.000    0.000    0.000    0.000    0.000    0.000 
#
# Total GULP energy -223134.156946 kJ/mol
# GULP energy per Si atom -12396.342053 kJ/mol
# Density = 2.230837 g / cm^3
# Si number density = 22.359260 Si / 1000 Ang^3
#
#
#
# Elastic Constant Matrix: (Units=GPa)
#
#
# Indices 1 2 3 4 5 6 
#
# 1 114.5042 68.9876 46.6512 0.0000 2.7314 0.0000
# 2 68.9876 98.3717 42.5427 0.0000 14.6092 0.0000
# 3 46.6512 42.5427 133.6554 0.0000 -7.6957 0.0000
# 4 0.0000 0.0000 0.0000 6.3343 0.0000 -10.2636
# 5 2.7314 14.6092 -7.6957 0.0000 37.8254 0.0000
# 6 0.0000 0.0000 0.0000 -10.2636 0.0000 36.9498
#
#
#
# Elastic Compliance Matrix: (Units=1/GPa)
#
#
# Indices 1 2 3 4 5 6 
#
# 1 0.015926 -0.010680 -0.002012 0.000000 0.002566 0.000000
# 2 -0.010680 0.020141 -0.003123 0.000000 -0.007643 0.000000
# 3 -0.002012 -0.003123 0.009366 0.000000 0.003257 0.000000
# 4 0.000000 0.000000 0.000000 0.287082 0.000000 0.079743
# 5 0.002566 -0.007643 0.003257 0.000000 0.029867 0.000000
# 6 0.000000 0.000000 0.000000 0.079743 0.000000 0.049214
#
#
# Mechanical properties :
#
#
# Convention : Reuss Voigt Hill
#
# Bulk Modulus (GPa) = 72.44711 73.65490 73.05100
# Shear Modulus (GPa) = 11.16501 28.77855 19.97178
#
# Velocity S-wave (km/s) = 2.23703 3.59151 2.99192
# Velocity P-wave (km/s) = 6.25653 7.08602 6.68415
#
# Compressibility (1/GPa) = 0.01380317
#
# Stress axis : x y z
#
# Youngs Moduli (GPa) = 62.78898 49.64939 106.77152
#
# Poissons Ratio (x) = 0.53026 0.21480
# Poissons Ratio (y) = 0.67059 0.33348
# Poissons Ratio (z) = 0.12632 0.15507
#
# Static dielectric constant tensor:
#      x y z
#    x 4.489530 0.000000 0.011790 
#    y 0.000000 4.475110 0.000000 
#    z 0.011790 0.000000 4.120580 
# 
# 
# High freq. dielectric constant tensor:
#      x y z
#    x 1.903250 0.000000 0.000910 
#    y 0.000000 1.854570 0.000000 
#    z 0.000910 0.000000 1.895120 
# 
# From -- ./inp_files/62417.got.cif
#   From: 2010.06.25/outbox.cif.g09.slc.cpg/sg13_32_cif.got.tgz:62417.got - 2010.06.28 04:50:58.
