data_PCOD8121175
_publ_section_title
;
Structure prediction by ZEFSAII (Michael W. Deem and Ramdas Pophale) SiO2 
 PCOD8121175
Probable space group: P 2/C
;
_chemical_formula_sum "Si O2"
_cell_formula_units_Z 18
_cell_length_a 14.277221
_cell_length_b 8.676047
_cell_length_c 18.074091
_cell_angle_alpha 90.000000
_cell_angle_beta 158.485796
_cell_angle_gamma 90.000000
_cell_volume 821.052066
_symmetry_space_group_name_H-M "P 2/C"
_symmetry_group_IT_number 13
_symmetry_cell_setting 'monoclinic'
loop_
_space_group_symop_operation_xyz
x,y,z
-x,y,1/2-z
-x,-y,-z
x,-y,1/2+z
loop_
_atom_site_type_symbol
_atom_site_label
_atom_site_fract_x
_atom_site_fract_y
_atom_site_fract_z
Si Si1 0.003143 0.680285 0.986814
Si Si2 0.500404 0.826841 0.917348
Si Si3 0.247494 0.616241 0.022352
Si Si4 0.494498 0.822868 0.408703
Si Si5 0.000000 0.360599 0.750000
O O1 0.719789 0.744798 0.792670
O O2 0.000000 0.500000 0.000000
O O3 0.084269 0.714492 0.961361
O O4 0.202418 0.765734 0.187014
O O5 0.518242 0.000639 0.900432
O O6 0.419429 0.812883 0.943363
O O7 0.769213 0.745609 0.105147
O O8 0.500000 0.558063 0.250000
O O9 0.313463 0.719453 0.999081
O O10 0.086269 0.466509 0.881712
#
# Coordination Sequence:
#
# PCOD8121175 Si02
#       5
#     4   4   4   4   2
#     4  11  22  41  66  91 120 159 204 251 303 362
#     4  11  24  40  61  90 124 161 203 250 305 363
#     4  10  22  40  63  90 120 158 204 252 304 360
#     4  10  23  42  63  89 122 160 201 252 307 362
#     4  12  24  38  60  90 122 160 204 252 300 360
#
# _framework density 21.923093000000001
#
# number of rings (size 3 to 8) (size 9 to 14) (size 15 to 20)
#    0.000    1.333    0.000    6.000    0.000    7.111 
#    0.000   12.222    0.000    0.000    0.000    0.000 
#    0.000    0.000    0.000    0.000    0.000    0.000 
#
# Total GULP energy -223264.765535 kJ/mol
# GULP energy per Si atom -12403.598085 kJ/mol
# Density = 2.187320 g / cm^3
# Si number density = 21.923093 Si / 1000 Ang^3
#
#
#
# Elastic Constant Matrix: (Units=GPa)
#
#
# Indices 1 2 3 4 5 6 
#
# 1 46.5053 13.5057 3.2065 0.0000 5.2631 0.0000
# 2 13.5057 150.5977 69.5329 0.0000 -1.3049 0.0000
# 3 3.2065 69.5329 127.6078 0.0000 11.7217 0.0000
# 4 0.0000 0.0000 0.0000 -163.5456 0.0000 -72.2056
# 5 5.2631 -1.3049 11.7217 0.0000 32.2078 0.0000
# 6 0.0000 0.0000 0.0000 -72.2056 0.0000 1.2743
#
#
#
# Elastic Compliance Matrix: (Units=1/GPa)
#
#
# Indices 1 2 3 4 5 6 
#
# 1 0.022671 -0.002657 0.001271 0.000000 -0.004275 0.000000
# 2 -0.002657 0.009336 -0.005271 0.000000 0.002731 0.000000
# 3 0.001271 -0.005271 0.011086 0.000000 -0.004456 0.000000
# 4 0.000000 0.000000 0.000000 -0.000235 0.000000 -0.013317
# 5 -0.004275 0.002731 -0.004456 0.000000 0.033479 0.000000
# 6 0.000000 0.000000 0.000000 -0.013317 0.000000 0.030163
#
#
# Mechanical properties :
#
#
# Convention : Reuss Voigt Hill
#
# Bulk Modulus (GPa) = 33.58179 55.24455 44.41317
# Shear Modulus (GPa) = 38.53845 -10.11499 14.21173
#
# Velocity S-wave (km/s) = 4.19727 -2.15032 2.54885
# Velocity P-wave (km/s) = 6.23223 4.36907 5.38189
#
# Compressibility (1/GPa) = 0.02977805
#
# Stress axis : x y z
#
# Youngs Moduli (GPa) = 44.10989 107.11339 90.20290
#
# Poissons Ratio (x) = 0.28458 -0.11462
# Poissons Ratio (y) = 0.11719 0.47547
# Poissons Ratio (z) = -0.05605 0.56461
#
# Static dielectric constant tensor:
#      x y z
#    x 4.014710 0.000000 0.022510 
#    y 0.000000 3.912530 0.000000 
#    z 0.022510 0.000000 4.148070 
# 
# 
# High freq. dielectric constant tensor:
#      x y z
#    x 1.858080 0.000000 -0.004570 
#    y 0.000000 1.860250 0.000000 
#    z -0.004570 0.000000 1.882260 
# 
# From -- ./inp_files/79702.got.cif
#   From: 2010.06.25/outbox.cif.g09.slc.cpg/sg13_40_cif.got.tgz:79702.got - 2010.06.28 04:50:58.
