data_PCOD8121442
_publ_section_title
;
Structure prediction by ZEFSAII (Michael W. Deem and Ramdas Pophale) SiO2 
 PCOD8121442
Probable space group: P 2/C
;
_chemical_formula_sum "Si O2"
_cell_formula_units_Z 22
_cell_length_a 11.252222
_cell_length_b 5.363622
_cell_length_c 22.648328
_cell_angle_alpha 90.000000
_cell_angle_beta 44.661334
_cell_angle_gamma 90.000000
_cell_volume 960.805159
_symmetry_space_group_name_H-M "P 2/C"
_symmetry_group_IT_number 13
_symmetry_cell_setting 'monoclinic'
loop_
_space_group_symop_operation_xyz
x,y,z
-x,y,1/2-z
-x,-y,-z
x,-y,1/2+z
loop_
_atom_site_type_symbol
_atom_site_label
_atom_site_fract_x
_atom_site_fract_y
_atom_site_fract_z
Si Si1 0.134929 0.935770 0.534413
Si Si2 0.185664 0.252607 0.403017
Si Si3 0.500000 0.050522 0.750000
Si Si4 0.405807 0.369921 0.884338
Si Si5 0.167604 0.942182 0.154156
Si Si6 0.374833 0.446529 0.097318
O O1 0.313383 0.792314 0.467494
O O2 0.122601 0.075719 0.600963
O O3 0.977695 0.741742 0.581962
O O4 0.128198 0.139508 0.485644
O O5 0.259760 0.523438 0.392422
O O6 0.331655 0.108584 0.316865
O O7 0.529146 0.210939 0.798986
O O8 0.519117 0.572317 0.878695
O O9 0.288103 0.179549 0.121698
O O10 0.000000 0.991515 0.250000
O O11 0.247005 0.680169 0.146748
O O12 0.500000 0.500000 0.000000
#
# Coordination Sequence:
#
# PCOD8121442 Si02
#       6
#     4   4   2   4   4   4
#     4  10  23  42  67  95 136 179 233 286 350 423
#     4  10  22  42  67  98 132 178 227 290 351 414
#     4  10  24  38  62 104 128 176 220 290 348 412
#     4  11  23  41  69  98 135 178 236 284 356 420
#     4  12  28  47  70 110 144 193 238 301 359 421
#     4  12  26  47  77 102 143 193 243 292 355 434
#
# _framework density 22.897461
#
# number of rings (size 3 to 8) (size 9 to 14) (size 15 to 20)
#    0.000    1.091    1.818    3.273    7.636    1.455 
#    0.000    0.000    0.000    0.000    0.000    0.000 
#    0.000    0.000    0.000    0.000    0.000    0.000 
#
# Total GULP energy -272778.304579 kJ/mol
# GULP energy per Si atom -12399.013844 kJ/mol
# Density = 2.284535 g / cm^3
# Si number density = 22.897461 Si / 1000 Ang^3
#
#
#
# Elastic Constant Matrix: (Units=GPa)
#
#
# Indices 1 2 3 4 5 6 
#
# 1 83.1085 2.4927 20.4891 0.0000 0.5426 0.0000
# 2 2.4927 68.4796 5.6155 0.0000 -0.7544 0.0000
# 3 20.4891 5.6155 136.9534 0.0000 4.6289 0.0000
# 4 0.0000 0.0000 0.0000 11.6677 0.0000 -13.8343
# 5 0.5426 -0.7544 4.6289 0.0000 21.2089 0.0000
# 6 0.0000 0.0000 0.0000 -13.8343 0.0000 35.3006
#
#
#
# Elastic Compliance Matrix: (Units=1/GPa)
#
#
# Indices 1 2 3 4 5 6 
#
# 1 0.012500 -0.000302 -0.001860 0.000000 0.000076 0.000000
# 2 -0.000302 0.014669 -0.000578 0.000000 0.000656 0.000000
# 3 -0.001860 -0.000578 0.007659 0.000000 -0.001645 0.000000
# 4 0.000000 0.000000 0.000000 0.160099 0.000000 0.062743
# 5 0.000076 0.000656 -0.001645 0.000000 0.047530 0.000000
# 6 0.000000 0.000000 0.000000 0.062743 0.000000 0.052917
#
#
# Mechanical properties :
#
#
# Convention : Reuss Voigt Hill
#
# Bulk Modulus (GPa) = 34.07517 38.41510 36.24513
# Shear Modulus (GPa) = 16.09595 30.96507 23.53051
#
# Velocity S-wave (km/s) = 2.65421 3.68140 3.20917
# Velocity P-wave (km/s) = 4.93022 5.90624 5.44016
#
# Compressibility (1/GPa) = 0.02934689
#
# Stress axis : x y z
#
# Youngs Moduli (GPa) = 80.00244 68.17317 130.55922
#
# Poissons Ratio (x) = 0.02056 0.24287
# Poissons Ratio (y) = 0.02413 0.07553
# Poissons Ratio (z) = 0.14882 0.03944
#
# Static dielectric constant tensor:
#      x y z
#    x 3.417600 0.000000 0.198540 
#    y 0.000000 4.168650 0.000000 
#    z 0.198540 0.000000 4.228290 
# 
# 
# High freq. dielectric constant tensor:
#      x y z
#    x 1.903310 0.000000 -0.001010 
#    y 0.000000 1.898890 0.000000 
#    z -0.001010 0.000000 1.919450 
# 
# From -- ./inp_files/85737.got.cif
#   From: 2010.06.25/outbox.cif.g09.slc.cpg/sg13_43_cif.got.tgz:85737.got - 2010.06.28 04:50:58.
