data_PCOD8121711
_publ_section_title
;
Structure prediction by ZEFSAII (Michael W. Deem and Ramdas Pophale) SiO2 
 PCOD8121711
Probable space group: P 2/C
;
_chemical_formula_sum "Si O2"
_cell_formula_units_Z 16
_cell_length_a 10.188684
_cell_length_b 6.491604
_cell_length_c 17.164604
_cell_angle_alpha 90.000000
_cell_angle_beta 137.126111
_cell_angle_gamma 90.000000
_cell_volume 772.431334
_symmetry_space_group_name_H-M "P 2/C"
_symmetry_group_IT_number 13
_symmetry_cell_setting 'monoclinic'
loop_
_space_group_symop_operation_xyz
x,y,z
-x,y,1/2-z
-x,-y,-z
x,-y,1/2+z
loop_
_atom_site_type_symbol
_atom_site_label
_atom_site_fract_x
_atom_site_fract_y
_atom_site_fract_z
Si Si1 0.833275 0.740508 0.953050
Si Si2 0.500000 0.513349 0.250000
Si Si3 0.166922 0.670580 0.204844
Si Si4 0.000000 0.622142 0.750000
Si Si5 0.015342 0.919619 0.886175
O O1 0.629422 0.625386 0.864435
O O2 0.887767 0.776759 0.886950
O O3 0.998222 0.606308 0.069219
O O4 0.817411 0.963437 0.991045
O O5 0.371428 0.654927 0.250521
O O6 0.158787 0.521884 0.276939
O O7 0.128923 0.907471 0.214126
O O8 0.895908 0.772437 0.641862
#
# Coordination Sequence:
#
# PCOD8121711 Si02
#       5
#     4   2   4   2   4
#     4   9  21  41  64  93 123 167 217 247 308 372
#     4  12  20  38  70  96 116 166 218 260 298 374
#     4  10  23  39  66  92 124 163 208 260 309 372
#     4  12  20  40  68  86 134 166 198 256 340 356
#     4   9  21  41  63  90 124 172 201 258 309 378
#
# _framework density 20.713816000000001
#
# number of rings (size 3 to 8) (size 9 to 14) (size 15 to 20)
#    1.500    0.500    2.500    1.500    0.000    1.000 
#    0.000    2.500    0.000    0.000    0.000    0.000 
#    0.000    0.000    0.000    0.000    0.000    0.000 
#
# Total GULP energy -198209.892602 kJ/mol
# GULP energy per Si atom -12388.118288 kJ/mol
# Density = 2.066667 g / cm^3
# Si number density = 20.713816 Si / 1000 Ang^3
#
#
#
# Elastic Constant Matrix: (Units=GPa)
#
#
# Indices 1 2 3 4 5 6 
#
# 1 123.4185 60.8614 38.1075 0.0000 -11.7159 0.0000
# 2 60.8614 106.0806 30.6413 0.0000 -10.9231 0.0000
# 3 38.1075 30.6413 65.8433 0.0000 4.3355 0.0000
# 4 0.0000 0.0000 0.0000 26.1113 0.0000 -14.6416
# 5 -11.7159 -10.9231 4.3355 0.0000 39.0458 0.0000
# 6 0.0000 0.0000 0.0000 -14.6416 0.0000 16.1306
#
#
#
# Elastic Compliance Matrix: (Units=1/GPa)
#
#
# Indices 1 2 3 4 5 6 
#
# 1 0.012609 -0.005530 -0.004907 0.000000 0.002781 0.000000
# 2 -0.005530 0.013854 -0.003417 0.000000 0.002596 0.000000
# 3 -0.004907 -0.003417 0.019924 0.000000 -0.004641 0.000000
# 4 0.000000 0.000000 0.000000 0.077996 0.000000 0.070796
# 5 0.002781 0.002596 -0.004641 0.000000 0.027687 0.000000
# 6 0.000000 0.000000 0.000000 0.070796 0.000000 0.126255
#
#
# Mechanical properties :
#
#
# Convention : Reuss Voigt Hill
#
# Bulk Modulus (GPa) = 53.54196 61.61807 57.58002
# Shear Modulus (GPa) = 16.01234 27.30635 21.65934
#
# Velocity S-wave (km/s) = 2.78335 3.63473 3.23715
# Velocity P-wave (km/s) = 6.01946 6.88672 6.46765
#
# Compressibility (1/GPa) = 0.01867694
#
# Stress axis : x y z
#
# Youngs Moduli (GPa) = 79.30993 72.18097 50.19198
#
# Poissons Ratio (x) = 0.39918 0.24629
# Poissons Ratio (y) = 0.43860 0.17153
# Poissons Ratio (z) = 0.38917 0.24668
#
# Static dielectric constant tensor:
#      x y z
#    x 3.440240 0.000000 -0.266580 
#    y 0.000000 3.907390 0.000000 
#    z -0.266580 0.000000 3.374650 
# 
# 
# High freq. dielectric constant tensor:
#      x y z
#    x 1.786140 0.000000 -0.030840 
#    y 0.000000 1.836740 0.000000 
#    z -0.030840 0.000000 1.765240 
# 
# From -- ./inp_files/62704.got.cif
#   From: 2010.06.25/outbox.cif.g09.slc.cpg/sg13_32_cif.got.tgz:62704.got - 2010.06.28 04:50:58.
