data_PCOD8121141
_publ_section_title
;
Structure prediction by ZEFSAII (Michael W. Deem and Ramdas Pophale) SiO2 
 PCOD8121141
Probable space group: P 2/C
;
_chemical_formula_sum "Si O2"
_cell_formula_units_Z 22
_cell_length_a 24.802390
_cell_length_b 6.549434
_cell_length_c 24.875617
_cell_angle_alpha 90.000000
_cell_angle_beta 163.841396
_cell_angle_gamma 90.000000
_cell_volume 1124.553286
_symmetry_space_group_name_H-M "P 2/C"
_symmetry_group_IT_number 13
_symmetry_cell_setting 'monoclinic'
loop_
_space_group_symop_operation_xyz
x,y,z
-x,y,1/2-z
-x,-y,-z
x,-y,1/2+z
loop_
_atom_site_type_symbol
_atom_site_label
_atom_site_fract_x
_atom_site_fract_y
_atom_site_fract_z
Si Si1 0.387656 0.543284 0.446564
Si Si2 0.172551 0.375328 0.879993
Si Si3 0.328579 0.937163 0.446543
Si Si4 0.612672 0.271680 0.744038
Si Si5 0.062592 0.315756 0.181435
Si Si6 0.500000 0.600764 0.250000
O O1 0.500000 0.500000 0.500000
O O2 0.352871 0.785801 0.418936
O O3 0.505419 0.459724 0.611497
O O4 0.178374 0.431931 0.244565
O O5 0.283506 0.196741 0.955566
O O6 0.091452 0.555030 0.763686
O O7 0.000000 0.279081 0.750000
O O8 0.316745 0.463572 0.061869
O O9 0.532176 0.057606 0.644409
O O10 0.147833 0.088775 0.267653
O O11 0.557979 0.263393 0.754362
O O12 0.840049 0.294078 0.951721
#
# Coordination Sequence:
#
# PCOD8121141 Si02
#       6
#     4   4   4   4   4   2
#     4  10  23  45  64  87 124 163 207 258 310 364
#     4  11  22  37  60  88 128 166 198 245 302 368
#     4  10  22  40  59  94 116 162 206 246 306 363
#     4  11  23  39  63  91 127 158 202 257 303 364
#     4  10  22  40  60  90 123 156 204 257 305 362
#     4  12  20  38  60  90 126 158 196 246 304 360
#
# _framework density 19.563324000000001
#
# number of rings (size 3 to 8) (size 9 to 14) (size 15 to 20)
#    0.000    1.455    7.273    0.000    0.000   10.909 
#    0.000    1.818    0.000    0.000    0.000    0.000 
#    0.000    0.000    0.000    0.000    0.000    0.000 
#
# Total GULP energy -272741.600461 kJ/mol
# GULP energy per Si atom -12397.345475 kJ/mol
# Density = 1.951880 g / cm^3
# Si number density = 19.563324 Si / 1000 Ang^3
#
#
#
# Elastic Constant Matrix: (Units=GPa)
#
#
# Indices 1 2 3 4 5 6 
#
# 1 105.2377 21.8417 20.6274 0.0000 23.7031 0.0000
# 2 21.8417 115.9489 42.4826 0.0000 7.4872 0.0000
# 3 20.6274 42.4826 134.2099 0.0000 34.1836 0.0000
# 4 0.0000 0.0000 0.0000 7.8333 0.0000 8.4301
# 5 23.7031 7.4872 34.1836 0.0000 28.0131 0.0000
# 6 0.0000 0.0000 0.0000 8.4301 0.0000 18.3065
#
#
#
# Elastic Compliance Matrix: (Units=1/GPa)
#
#
# Indices 1 2 3 4 5 6 
#
# 1 0.012333 -0.002238 0.001913 0.000000 -0.012172 0.000000
# 2 -0.002238 0.010217 -0.003884 0.000000 0.003903 0.000000
# 3 0.001913 -0.003884 0.012383 0.000000 -0.015692 0.000000
# 4 0.000000 0.000000 0.000000 0.253089 0.000000 -0.116548
# 5 -0.012172 0.003903 -0.015692 0.000000 0.064102 0.000000
# 6 0.000000 0.000000 0.000000 -0.116548 0.000000 0.108296
#
#
# Mechanical properties :
#
#
# Convention : Reuss Voigt Hill
#
# Bulk Modulus (GPa) = 37.71409 58.36666 48.04038
# Shear Modulus (GPa) = 10.46731 28.86022 19.66376
#
# Velocity S-wave (km/s) = 2.31562 3.84503 3.17382
# Velocity P-wave (km/s) = 5.14483 7.04357 6.16770
#
# Compressibility (1/GPa) = 0.02651529
#
# Stress axis : x y z
#
# Youngs Moduli (GPa) = 81.08038 97.87387 80.75502
#
# Poissons Ratio (x) = 0.21907 -0.15450
# Poissons Ratio (y) = 0.18148 0.31367
# Poissons Ratio (z) = -0.15512 0.38016
#
# Static dielectric constant tensor:
#      x y z
#    x 3.630150 0.000000 0.193580 
#    y 0.000000 3.637520 0.000000 
#    z 0.193580 0.000000 3.618620 
# 
# 
# High freq. dielectric constant tensor:
#      x y z
#    x 1.757850 0.000000 0.019910 
#    y 0.000000 1.762990 0.000000 
#    z 0.019910 0.000000 1.763170 
# 
# From -- ./inp_files/88809.got.cif
#   From: 2010.06.25/outbox.cif.g09.slc.cpg/sg13_45_cif.got.tgz:88809.got - 2010.06.28 04:50:58.
