data_PCOD8121007
_publ_section_title
;
Structure prediction by ZEFSAII (Michael W. Deem and Ramdas Pophale) SiO2 
 PCOD8121007
Probable space group: P 2/C
;
_chemical_formula_sum "Si O2"
_cell_formula_units_Z 28
_cell_length_a 11.629284
_cell_length_b 9.973505
_cell_length_c 13.910644
_cell_angle_alpha 90.000000
_cell_angle_beta 61.921492
_cell_angle_gamma 90.000000
_cell_volume 1423.528009
_symmetry_space_group_name_H-M "P 2/C"
_symmetry_group_IT_number 13
_symmetry_cell_setting 'monoclinic'
loop_
_space_group_symop_operation_xyz
x,y,z
-x,y,1/2-z
-x,-y,-z
x,-y,1/2+z
loop_
_atom_site_type_symbol
_atom_site_label
_atom_site_fract_x
_atom_site_fract_y
_atom_site_fract_z
Si Si1 0.492468 0.076190 0.863437
Si Si2 0.224560 0.006269 0.669180
Si Si3 0.287229 0.156626 0.465819
Si Si4 0.081271 0.913820 0.898630
Si Si5 0.376225 0.660995 0.503945
Si Si6 0.893223 0.260964 0.363894
Si Si7 0.467208 0.397276 0.375434
O O1 0.500000 0.121066 0.750000
O O2 0.631569 0.033515 0.849081
O O3 0.405187 0.946187 0.910561
O O4 0.429498 0.195543 0.949002
O O5 0.198814 0.113418 0.593211
O O6 0.120781 0.016018 0.796881
O O7 0.200060 0.854354 0.644572
O O8 0.206531 0.151339 0.399168
O O9 0.343581 0.305966 0.454224
O O10 0.983006 0.794731 0.912356
O O11 0.000000 0.000000 0.000000
O O12 0.218736 0.638673 0.555385
O O13 0.436133 0.551730 0.408475
O O14 0.412683 0.640928 0.601916
O O15 0.000000 0.326659 0.250000
O O16 0.500000 0.375784 0.250000
#
# Coordination Sequence:
#
# PCOD8121007 Si02
#       7
#     4   4   4   4   4   4   4
#     4  12  21  35  65  95 122 155 204 260 310 364
#     4  11  21  36  59  95 124 157 200 260 304 356
#     4  12  22  37  63  94 123 157 202 256 311 363
#     4  11  22  37  57  93 127 164 200 252 302 369
#     4  11  23  45  62  89 125 162 205 254 314 369
#     4  10  22  38  63  86 123 167 204 241 302 373
#     4  11  26  41  65  90 126 158 203 262 319 364
#
# _framework density 19.669439000000001
#
# number of rings (size 3 to 8) (size 9 to 14) (size 15 to 20)
#    0.000    0.857    5.714    2.143    4.000    0.000 
#    0.000    0.714    3.143    0.000    0.000    0.000 
#    0.000    0.000    0.000    0.000    0.000    0.000 
#
# Total GULP energy -346971.938835 kJ/mol
# GULP energy per Si atom -12391.854958 kJ/mol
# Density = 1.962467 g / cm^3
# Si number density = 19.669439 Si / 1000 Ang^3
#
#
#
# Elastic Constant Matrix: (Units=GPa)
#
#
# Indices 1 2 3 4 5 6 
#
# 1 77.1801 23.0451 43.5615 0.0000 6.3492 0.0000
# 2 23.0451 41.2627 14.7740 0.0000 -3.6839 0.0000
# 3 43.5615 14.7740 107.1244 0.0000 12.5383 0.0000
# 4 0.0000 0.0000 0.0000 17.0313 0.0000 -3.6035
# 5 6.3492 -3.6839 12.5383 0.0000 30.5039 0.0000
# 6 0.0000 0.0000 0.0000 -3.6035 0.0000 29.2750
#
#
#
# Elastic Compliance Matrix: (Units=1/GPa)
#
#
# Indices 1 2 3 4 5 6 
#
# 1 0.019377 -0.008757 -0.006383 0.000000 -0.002467 0.000000
# 2 -0.008757 0.030124 -0.001295 0.000000 0.005993 0.000000
# 3 -0.006383 -0.001295 0.012577 0.000000 -0.003997 0.000000
# 4 0.000000 0.000000 0.000000 0.060285 0.000000 0.007421
# 5 -0.002467 0.005993 -0.003997 0.000000 0.035663 0.000000
# 6 0.000000 0.000000 0.000000 0.007421 0.000000 0.035072
#
#
# Mechanical properties :
#
#
# Convention : Reuss Voigt Hill
#
# Bulk Modulus (GPa) = 34.23676 43.14762 38.69219
# Shear Modulus (GPa) = 21.21290 24.97449 23.09370
#
# Velocity S-wave (km/s) = 3.28757 3.56716 3.43022
# Velocity P-wave (km/s) = 5.64399 6.24101 5.95000
#
# Compressibility (1/GPa) = 0.02920837
#
# Stress axis : x y z
#
# Youngs Moduli (GPa) = 51.60737 33.19567 79.50959
#
# Poissons Ratio (x) = 0.29069 0.50752
# Poissons Ratio (y) = 0.45192 0.10298
# Poissons Ratio (z) = 0.32942 0.04299
#
# Static dielectric constant tensor:
#      x y z
#    x 4.665940 0.000000 1.126580 
#    y 0.000000 3.335300 0.000000 
#    z 1.126580 0.000000 5.318600 
# 
# 
# High freq. dielectric constant tensor:
#      x y z
#    x 1.782990 0.000000 0.004740 
#    y 0.000000 1.732340 0.000000 
#    z 0.004740 0.000000 1.779910 
# 
# From -- ./inp_files/50254.got.cif
#   From: 2010.06.25/outbox.cif.g09.slc.cpg/sg13_26_cif.got.tgz:50254.got - 2010.06.28 04:50:58.
