data_PCOD8121775
_publ_section_title
;
Structure prediction by ZEFSAII (Michael W. Deem and Ramdas Pophale) SiO2 
 PCOD8121775
Probable space group: P 2/C
;
_chemical_formula_sum "Si O2"
_cell_formula_units_Z 28
_cell_length_a 7.697093
_cell_length_b 6.849444
_cell_length_c 26.580865
_cell_angle_alpha 90.000000
_cell_angle_beta 67.871539
_cell_angle_gamma 90.000000
_cell_volume 1298.142431
_symmetry_space_group_name_H-M "P 2/C"
_symmetry_group_IT_number 13
_symmetry_cell_setting 'monoclinic'
loop_
_space_group_symop_operation_xyz
x,y,z
-x,y,1/2-z
-x,-y,-z
x,-y,1/2+z
loop_
_atom_site_type_symbol
_atom_site_label
_atom_site_fract_x
_atom_site_fract_y
_atom_site_fract_z
Si Si1 0.964801 0.332063 0.698620
Si Si2 0.771382 0.051932 0.886750
Si Si3 0.693256 0.088472 0.001389
Si Si4 0.819675 0.571417 0.550378
Si Si5 0.038750 0.281325 0.361339
Si Si6 0.688373 0.030459 0.700952
Si Si7 0.650609 0.164744 0.591606
O O1 0.976425 0.501941 0.657331
O O2 0.766538 0.219921 0.721478
O O3 0.000000 0.417810 0.750000
O O4 0.117204 0.172332 0.666725
O O5 0.556036 0.087486 0.898904
O O6 0.826495 0.117320 0.937986
O O7 0.835327 0.824031 0.878205
O O8 0.682426 0.299624 0.029726
O O9 0.777226 0.937389 0.034005
O O10 0.500000 0.000000 0.000000
O O11 0.890081 0.703057 0.589177
O O12 0.687378 0.395455 0.584487
O O13 0.000000 0.500000 0.500000
O O14 0.183651 0.161717 0.310526
O O15 0.500000 0.971880 0.750000
O O16 0.686733 0.088333 0.642961
#
# Coordination Sequence:
#
# PCOD8121775 Si02
#       7
#     4   4   4   4   4   4   4
#     4  11  24  44  66  96 133 177 230 289 348 410
#     4  10  24  42  67  97 138 178 222 280 345 408
#     4  10  23  41  66 101 140 180 225 278 339 410
#     4  12  24  40  72 102 139 184 231 285 344 411
#     4  11  24  43  66  99 134 177 232 277 350 415
#     4  11  24  44  68  96 132 178 230 286 349 407
#     4  11  23  43  68  98 137 179 232 282 344 408
#
# _framework density 21.569284
#
# number of rings (size 3 to 8) (size 9 to 14) (size 15 to 20)
#    0.000    1.143    2.857    2.571    2.000    9.714 
#    2.571    0.000    0.000    0.000    0.000    0.000 
#    0.000    0.000    0.000    0.000    0.000    0.000 
#
# Total GULP energy -346967.211457 kJ/mol
# GULP energy per Si atom -12391.686123 kJ/mol
# Density = 2.152019 g / cm^3
# Si number density = 21.569284 Si / 1000 Ang^3
#
#
#
# Elastic Constant Matrix: (Units=GPa)
#
#
# Indices 1 2 3 4 5 6 
#
# 1 79.0759 32.0647 21.7215 0.0000 0.0803 0.0000
# 2 32.0647 103.5338 11.7394 0.0000 -2.7219 0.0000
# 3 21.7215 11.7394 90.4941 0.0000 8.2906 0.0000
# 4 0.0000 0.0000 0.0000 21.9862 0.0000 14.8704
# 5 0.0803 -2.7219 8.2906 0.0000 34.7002 0.0000
# 6 0.0000 0.0000 0.0000 14.8704 0.0000 25.0092
#
#
#
# Elastic Compliance Matrix: (Units=1/GPa)
#
#
# Indices 1 2 3 4 5 6 
#
# 1 0.015277 -0.004366 -0.003135 0.000000 0.000371 0.000000
# 2 -0.004366 0.011092 -0.000482 0.000000 0.000995 0.000000
# 3 -0.003135 -0.000482 0.012134 0.000000 -0.002930 0.000000
# 4 0.000000 0.000000 0.000000 0.076078 0.000000 -0.045236
# 5 0.000371 0.000995 -0.002930 0.000000 0.029595 0.000000
# 6 0.000000 0.000000 0.000000 -0.045236 0.000000 0.066882
#
#
# Mechanical properties :
#
#
# Convention : Reuss Voigt Hill
#
# Bulk Modulus (GPa) = 44.37147 44.90611 44.63879
# Shear Modulus (GPa) = 21.31861 30.17768 25.74815
#
# Velocity S-wave (km/s) = 3.14726 3.74452 3.45880
# Velocity P-wave (km/s) = 5.81578 6.28967 6.05736
#
# Compressibility (1/GPa) = 0.02253700
#
# Stress axis : x y z
#
# Youngs Moduli (GPa) = 65.45695 90.15726 82.41462
#
# Poissons Ratio (x) = 0.39365 0.25834
# Poissons Ratio (y) = 0.28580 0.03973
# Poissons Ratio (z) = 0.20518 0.04346
#
# Static dielectric constant tensor:
#      x y z
#    x 4.393060 0.000000 -0.171550 
#    y 0.000000 3.925220 0.000000 
#    z -0.171550 0.000000 4.554810 
# 
# 
# High freq. dielectric constant tensor:
#      x y z
#    x 1.837980 0.000000 0.012510 
#    y 0.000000 1.850710 0.000000 
#    z 0.012510 0.000000 1.864600 
# 
# From -- ./inp_files/95586.got.cif
#   From: 2010.06.25/outbox.cif.g09.slc.cpg/sg13_48_cif.got.tgz:95586.got - 2010.06.28 04:50:58.
