data_PCOD8121413
_publ_section_title
;
Structure prediction by ZEFSAII (Michael W. Deem and Ramdas Pophale) SiO2 
 PCOD8121413
Probable space group: P 2/C
;
_chemical_formula_sum "Si O2"
_cell_formula_units_Z 32
_cell_length_a 14.850472
_cell_length_b 13.991658
_cell_length_c 21.928426
_cell_angle_alpha 90.000000
_cell_angle_beta 18.729498
_cell_angle_gamma 90.000000
_cell_volume 1463.046147
_symmetry_space_group_name_H-M "P 2/C"
_symmetry_group_IT_number 13
_symmetry_cell_setting 'monoclinic'
loop_
_space_group_symop_operation_xyz
x,y,z
-x,y,1/2-z
-x,-y,-z
x,-y,1/2+z
loop_
_atom_site_type_symbol
_atom_site_label
_atom_site_fract_x
_atom_site_fract_y
_atom_site_fract_z
Si Si1 0.563273 0.795892 0.462579
Si Si2 0.951625 0.292446 0.162638
Si Si3 0.037054 0.678416 0.103942
Si Si4 0.086055 0.252101 0.948875
Si Si5 0.500224 0.180331 0.182620
Si Si6 0.395488 0.166286 0.940225
Si Si7 0.308233 0.960924 0.037510
Si Si8 0.155098 0.492946 0.214118
O O1 0.864182 0.745442 0.262523
O O2 0.418512 0.780448 0.489956
O O3 0.575638 0.907567 0.475793
O O4 0.375467 0.739269 0.633003
O O5 0.963038 0.389205 0.193505
O O6 0.095366 0.315007 0.004886
O O7 0.104472 0.202166 0.097793
O O8 0.952089 0.686952 0.087596
O O9 0.984802 0.568019 0.150326
O O10 0.358145 0.713409 0.905589
O O11 0.367003 0.191200 0.761537
O O12 0.822213 0.182726 0.131292
O O13 0.500000 0.134008 0.250000
O O14 0.689255 0.115812 0.017989
O O15 0.455833 0.055398 0.917383
O O16 0.000000 0.996678 0.250000
O O17 0.000000 0.517686 0.250000
O O18 0.500000 0.500000 0.000000
#
# Coordination Sequence:
#
# PCOD8121413 Si02
#       8
#     4   4   4   4   4   4   4   4
#     4  11  21  41  69  94 142 177 229 299 354 428
#     4  12  24  46  70 101 144 186 239 296 374 436
#     4  10  23  44  71 102 142 175 238 299 363 432
#     4  10  24  45  69  92 142 192 233 292 366 423
#     4  10  22  42  64  98 135 178 229 299 346 422
#     4  11  26  43  61  99 142 186 233 292 358 439
#     4  12  23  39  70 103 131 183 238 293 362 431
#     4  12  28  45  78 116 145 191 243 311 382 448
#
# _framework density 21.872174000000001
#
# number of rings (size 3 to 8) (size 9 to 14) (size 15 to 20)
#    0.000    1.000    3.750    2.625    5.250    2.000 
#    0.000    3.750    0.000    0.000    0.000    0.000 
#    0.000    0.000    0.000    0.000    0.000    0.000 
#
# Total GULP energy -396447.085452 kJ/mol
# GULP energy per Si atom -12388.971420 kJ/mol
# Density = 2.182239 g / cm^3
# Si number density = 21.872174 Si / 1000 Ang^3
#
#
#
# Elastic Constant Matrix: (Units=GPa)
#
#
# Indices 1 2 3 4 5 6 
#
# 1 84.8840 16.4716 36.2086 0.0000 11.5654 0.0000
# 2 16.4716 102.3184 23.8251 0.0000 6.7140 0.0000
# 3 36.2086 23.8251 118.2694 0.0000 9.5310 0.0000
# 4 0.0000 0.0000 0.0000 21.6797 0.0000 -6.4841
# 5 11.5654 6.7140 9.5310 0.0000 38.3948 0.0000
# 6 0.0000 0.0000 0.0000 -6.4841 0.0000 14.5048
#
#
#
# Elastic Compliance Matrix: (Units=1/GPa)
#
#
# Indices 1 2 3 4 5 6 
#
# 1 0.014057 -0.001171 -0.003819 0.000000 -0.003081 0.000000
# 2 -0.001171 0.010417 -0.001655 0.000000 -0.001058 0.000000
# 3 -0.003819 -0.001655 0.010043 0.000000 -0.001053 0.000000
# 4 0.000000 0.000000 0.000000 0.053245 0.000000 0.023802
# 5 -0.003081 -0.001058 -0.001053 0.000000 0.027420 0.000000
# 6 0.000000 0.000000 0.000000 0.023802 0.000000 0.079583
#
#
# Mechanical properties :
#
#
# Convention : Reuss Voigt Hill
#
# Bulk Modulus (GPa) = 47.11209 50.94250 49.02729
# Shear Modulus (GPa) = 23.24175 30.18030 26.71102
#
# Velocity S-wave (km/s) = 3.26332 3.71866 3.49841
# Velocity P-wave (km/s) = 5.98210 6.46371 6.22756
#
# Compressibility (1/GPa) = 0.02122598
#
# Stress axis : x y z
#
# Youngs Moduli (GPa) = 71.13819 95.99997 99.57433
#
# Poissons Ratio (x) = 0.11246 0.38031
# Poissons Ratio (y) = 0.08333 0.16475
# Poissons Ratio (z) = 0.27170 0.15883
#
# Static dielectric constant tensor:
#      x y z
#    x 4.029960 0.000000 0.155270 
#    y 0.000000 3.621370 0.000000 
#    z 0.155270 0.000000 4.191760 
# 
# 
# High freq. dielectric constant tensor:
#      x y z
#    x 1.868460 0.000000 0.012480 
#    y 0.000000 1.833510 0.000000 
#    z 0.012480 0.000000 1.875740 
# 
# From -- ./inp_files/80373.got.cif
#   From: 2010.06.25/outbox.cif.g09.slc.cpg/sg13_41_cif.got.tgz:80373.got - 2010.06.28 04:50:58.
