data_PCOD8121613
_publ_section_title
;
Structure prediction by ZEFSAII (Michael W. Deem and Ramdas Pophale) SiO2 
 PCOD8121613
Probable space group: P 2/C
;
_chemical_formula_sum "Si O2"
_cell_formula_units_Z 26
_cell_length_a 5.762531
_cell_length_b 8.339145
_cell_length_c 22.204062
_cell_angle_alpha 90.000000
_cell_angle_beta 92.962444
_cell_angle_gamma 90.000000
_cell_volume 1065.580988
_symmetry_space_group_name_H-M "P 2/C"
_symmetry_group_IT_number 13
_symmetry_cell_setting 'monoclinic'
loop_
_space_group_symop_operation_xyz
x,y,z
-x,y,1/2-z
-x,-y,-z
x,-y,1/2+z
loop_
_atom_site_type_symbol
_atom_site_label
_atom_site_fract_x
_atom_site_fract_y
_atom_site_fract_z
Si Si1 0.247601 0.034200 0.655221
Si Si2 0.152411 0.986861 0.943162
Si Si3 0.181076 0.501157 0.555543
Si Si4 0.528002 0.261322 0.111209
Si Si5 0.480699 0.243743 0.924223
Si Si6 0.000000 0.219946 0.750000
Si Si7 0.166860 0.538268 0.351506
O O1 0.430745 0.165558 0.636459
O O2 0.179072 0.095280 0.720907
O O3 0.007961 0.041806 0.614429
O O4 0.375444 0.860592 0.650781
O O5 0.268903 0.818171 0.926906
O O6 0.367621 0.103946 0.962238
O O7 0.000000 0.000000 0.000000
O O8 0.361817 0.650130 0.559635
O O9 0.305635 0.332953 0.541874
O O10 0.000000 0.500000 0.500000
O O11 0.080254 0.509710 0.622674
O O12 0.663849 0.384432 0.158600
O O13 0.282574 0.371146 0.908687
O O14 0.139109 0.343242 0.794847
#
# Coordination Sequence:
#
# PCOD8121613 Si02
#       7
#     4   4   4   4   4   2   4
#     4  11  24  46  75 107 148 192 253 311 374 448
#     4  11  24  45  73 109 156 192 251 312 379 459
#     4  11  24  45  73 109 156 192 251 312 379 459
#     4  10  26  47  73 115 149 197 249 310 396 444
#     4  10  22  44  72 109 139 202 244 294 386 448
#     4  12  24  50  82 104 154 206 260 320 372 466
#     4  11  24  46  75 107 148 192 253 311 374 448
#
# _framework density 24.399836000000001
#
# number of rings (size 3 to 8) (size 9 to 14) (size 15 to 20)
#    0.000    1.231    3.077    0.923    0.000   12.923 
#    0.000    9.231    0.000    0.000    0.000    0.000 
#    0.000    0.000    0.000    0.000    0.000    0.000 
#
# Total GULP energy -322091.737128 kJ/mol
# GULP energy per Si atom -12388.143736 kJ/mol
# Density = 2.434430 g / cm^3
# Si number density = 24.399836 Si / 1000 Ang^3
#
#
#
# Elastic Constant Matrix: (Units=GPa)
#
#
# Indices 1 2 3 4 5 6 
#
# 1 131.4687 66.9636 59.9648 0.0000 -18.5652 0.0000
# 2 66.9636 154.6830 57.5185 0.0000 -11.6701 0.0000
# 3 59.9648 57.5185 111.4526 0.0000 -18.5460 0.0000
# 4 0.0000 0.0000 0.0000 36.9513 0.0000 2.9166
# 5 -18.5652 -11.6701 -18.5460 0.0000 42.8232 0.0000
# 6 0.0000 0.0000 0.0000 2.9166 0.0000 45.6653
#
#
#
# Elastic Compliance Matrix: (Units=1/GPa)
#
#
# Indices 1 2 3 4 5 6 
#
# 1 0.011465 -0.003265 -0.004100 0.000000 0.002305 0.000000
# 2 -0.003265 0.008937 -0.002894 0.000000 -0.000233 0.000000
# 3 -0.004100 -0.002894 0.013196 0.000000 0.003149 0.000000
# 4 0.000000 0.000000 0.000000 0.027200 0.000000 -0.001737
# 5 0.002305 -0.000233 0.003149 0.000000 0.025651 0.000000
# 6 0.000000 0.000000 0.000000 -0.001737 0.000000 0.022009
#
#
# Mechanical properties :
#
#
# Convention : Reuss Voigt Hill
#
# Bulk Modulus (GPa) = 76.45620 85.16647 80.81134
# Shear Modulus (GPa) = 37.49916 39.29845 38.39880
#
# Velocity S-wave (km/s) = 3.92453 4.01759 3.97133
# Velocity P-wave (km/s) = 7.20685 7.51676 7.36343
#
# Compressibility (1/GPa) = 0.01307938
#
# Stress axis : x y z
#
# Youngs Moduli (GPa) = 87.22314 111.89611 75.78013
#
# Poissons Ratio (x) = 0.36531 0.31070
# Poissons Ratio (y) = 0.28476 0.21934
# Poissons Ratio (z) = 0.35761 0.32388
#
# Static dielectric constant tensor:
#      x y z
#    x 5.251250 0.000000 0.156420 
#    y 0.000000 4.886570 0.000000 
#    z 0.156420 0.000000 4.200550 
# 
# 
# High freq. dielectric constant tensor:
#      x y z
#    x 1.998190 0.000000 -0.009280 
#    y 0.000000 1.990000 0.000000 
#    z -0.009280 0.000000 1.930450 
# 
# From -- ./inp_files/83372.got.cif
#   From: 2010.06.25/outbox.cif.g09.slc.cpg/sg13_42_cif.got.tgz:83372.got - 2010.06.28 04:50:58.
