data_PCOD8121972
_publ_section_title
;
Structure prediction by ZEFSAII (Michael W. Deem and Ramdas Pophale) SiO2 
 PCOD8121972
Probable space group: P 2/C
;
_chemical_formula_sum "Si O2"
_cell_formula_units_Z 16
_cell_length_a 8.806019
_cell_length_b 4.992496
_cell_length_c 20.029007
_cell_angle_alpha 90.000000
_cell_angle_beta 142.622312
_cell_angle_gamma 90.000000
_cell_volume 534.555722
_symmetry_space_group_name_H-M "P 2/C"
_symmetry_group_IT_number 13
_symmetry_cell_setting 'monoclinic'
loop_
_space_group_symop_operation_xyz
x,y,z
-x,y,1/2-z
-x,-y,-z
x,-y,1/2+z
loop_
_atom_site_type_symbol
_atom_site_label
_atom_site_fract_x
_atom_site_fract_y
_atom_site_fract_z
Si Si1 0.062386 0.419263 0.414979
Si Si2 0.676559 0.068033 0.208242
Si Si3 0.282225 0.457937 0.860331
Si Si4 0.785019 0.807915 0.401721
O O1 0.918803 0.148731 0.339436
O O2 0.848914 0.650199 0.353933
O O3 0.294603 0.506958 0.446347
O O4 0.223569 0.395913 0.538546
O O5 0.716229 0.846995 0.164127
O O6 0.478909 0.961438 0.193858
O O7 0.565372 0.328152 0.131435
O O8 0.000000 0.567269 0.750000
O O9 0.000000 0.000000 0.500000
#
# Coordination Sequence:
#
# PCOD8121972 Si02
#       4
#     4   4   4   4
#     4  10  26  52  78 114 165 203 263 334 386 475
#     4  11  26  49  80 112 151 210 256 318 397 459
#     4  10  23  47  78 112 149 203 260 315 389 460
#     4  11  28  50  75 118 160 207 265 320 400 470
#
# _framework density 29.931394999999998
#
# number of rings (size 3 to 8) (size 9 to 14) (size 15 to 20)
#    0.000    1.500    0.000    2.250   17.500    3.000 
#    4.500    0.000    0.000    0.000    0.000    0.000 
#    0.000    0.000    0.000    0.000    0.000    0.000 
#
# Total GULP energy -198225.399979 kJ/mol
# GULP energy per Si atom -12389.087499 kJ/mol
# Density = 2.986327 g / cm^3
# Si number density = 29.931395 Si / 1000 Ang^3
#
#
#
# Elastic Constant Matrix: (Units=GPa)
#
#
# Indices 1 2 3 4 5 6 
#
# 1 193.6649 84.7918 58.9292 0.0000 1.8474 0.0000
# 2 84.7918 191.2211 34.3455 0.0000 -3.2311 0.0000
# 3 58.9292 34.3455 44.7073 0.0000 -19.6644 0.0000
# 4 0.0000 0.0000 0.0000 61.5054 0.0000 -3.2363
# 5 1.8474 -3.2311 -19.6644 0.0000 66.3313 0.0000
# 6 0.0000 0.0000 0.0000 -3.2363 0.0000 67.7600
#
#
#
# Elastic Compliance Matrix: (Units=1/GPa)
#
#
# Indices 1 2 3 4 5 6 
#
# 1 0.010462 -0.002178 -0.014135 0.000000 -0.004588 0.000000
# 2 -0.002178 0.006611 -0.002346 0.000000 -0.000313 0.000000
# 3 -0.014135 -0.002346 0.049360 0.000000 0.014913 0.000000
# 4 0.000000 0.000000 0.000000 0.016300 0.000000 0.000779
# 5 -0.004588 -0.000313 0.014913 0.000000 0.019609 0.000000
# 6 0.000000 0.000000 0.000000 0.000779 0.000000 0.014795
#
#
# Mechanical properties :
#
#
# Convention : Reuss Voigt Hill
#
# Bulk Modulus (GPa) = 34.34479 87.30291 60.82385
# Shear Modulus (GPa) = 30.45804 55.88780 43.17292
#
# Velocity S-wave (km/s) = 3.19344 4.32579 3.80201
# Velocity P-wave (km/s) = 5.00967 7.36077 6.29594
#
# Compressibility (1/GPa) = 0.02911650
#
# Stress axis : x y z
#
# Youngs Moduli (GPa) = 95.58615 151.25596 20.25913
#
# Poissons Ratio (x) = 0.32940 0.28636
# Poissons Ratio (y) = 0.20816 0.04753
# Poissons Ratio (z) = 1.35108 0.35486
#
# Static dielectric constant tensor:
#      x y z
#    x 10.242840 0.000000 -3.986480 
#    y 0.000000 5.175340 0.000000 
#    z -3.986480 0.000000 10.010240 
# 
# 
# High freq. dielectric constant tensor:
#      x y z
#    x 2.258700 0.000000 -0.013610 
#    y 0.000000 2.221700 0.000000 
#    z -0.013610 0.000000 2.247770 
# 
# From -- ./inp_files/83964.got.cif
#   From: 2010.06.25/outbox.cif.g09.slc.cpg/sg13_42_cif.got.tgz:83964.got - 2010.06.28 04:50:58.
