data_PCOD8121681
_publ_section_title
;
Structure prediction by ZEFSAII (Michael W. Deem and Ramdas Pophale) SiO2 
 PCOD8121681
Probable space group: P 2/C
;
_chemical_formula_sum "Si O2"
_cell_formula_units_Z 16
_cell_length_a 23.014218
_cell_length_b 5.499224
_cell_length_c 8.490151
_cell_angle_alpha 90.000000
_cell_angle_beta 30.330572
_cell_angle_gamma 90.000000
_cell_volume 542.618149
_symmetry_space_group_name_H-M "P 2/C"
_symmetry_group_IT_number 13
_symmetry_cell_setting 'monoclinic'
loop_
_space_group_symop_operation_xyz
x,y,z
-x,y,1/2-z
-x,-y,-z
x,-y,1/2+z
loop_
_atom_site_type_symbol
_atom_site_label
_atom_site_fract_x
_atom_site_fract_y
_atom_site_fract_z
Si Si1 0.360267 0.237948 0.860309
Si Si2 0.000000 0.800946 0.250000
Si Si3 0.850867 0.465052 0.319578
Si Si4 0.800787 0.153464 0.720086
Si Si5 0.500000 0.581650 0.750000
O O1 0.400616 0.404164 0.912459
O O2 0.452627 0.248131 0.501806
O O3 0.237384 0.312496 0.081298
O O4 0.330176 0.957601 0.986375
O O5 0.976716 0.629848 0.459053
O O6 0.893776 0.961729 0.443950
O O7 0.820938 0.398015 0.568679
O O8 0.825641 0.750402 0.340465
#
# Coordination Sequence:
#
# PCOD8121681 Si02
#       5
#     4   2   4   4   2
#     4  10  24  47  76 108 144 186 240 305 371 429
#     4  10  24  42  74 106 142 194 246 300 360 422
#     4  11  24  45  70 106 149 191 241 294 358 439
#     4  11  25  46  72 107 150 194 239 298 360 432
#     4  10  22  50  82 108 138 186 246 308 368 438
#
# _framework density 29.486661999999999
#
# number of rings (size 3 to 8) (size 9 to 14) (size 15 to 20)
#    0.000    1.500    0.000    3.000    0.000   16.000 
#    0.000   28.750    0.000    1.500    0.000    0.000 
#    0.000    0.000    0.000    0.000    0.000    0.000 
#
# Total GULP energy -198338.319667 kJ/mol
# GULP energy per Si atom -12396.144979 kJ/mol
# Density = 2.941955 g / cm^3
# Si number density = 29.486662 Si / 1000 Ang^3
#
#
#
# Elastic Constant Matrix: (Units=GPa)
#
#
# Indices 1 2 3 4 5 6 
#
# 1 75.8239 23.7728 41.8674 0.0000 19.4514 0.0000
# 2 23.7728 108.2795 92.5870 0.0000 6.8691 0.0000
# 3 41.8674 92.5870 166.7118 0.0000 5.8509 0.0000
# 4 0.0000 0.0000 0.0000 55.0701 0.0000 -1.8048
# 5 19.4514 6.8691 5.8509 0.0000 35.7767 0.0000
# 6 0.0000 0.0000 0.0000 -1.8048 0.0000 47.1332
#
#
#
# Elastic Compliance Matrix: (Units=1/GPa)
#
#
# Indices 1 2 3 4 5 6 
#
# 1 0.017797 0.000412 -0.004381 0.000000 -0.009039 0.000000
# 2 0.000412 0.017711 -0.009869 0.000000 -0.002011 0.000000
# 3 -0.004381 -0.009869 0.012502 0.000000 0.002232 0.000000
# 4 0.000000 0.000000 0.000000 0.018181 0.000000 0.000696
# 5 -0.009039 -0.002011 0.002232 0.000000 0.032886 0.000000
# 6 0.000000 0.000000 0.000000 0.000696 0.000000 0.021243
#
#
# Mechanical properties :
#
#
# Convention : Reuss Voigt Hill
#
# Bulk Modulus (GPa) = 49.18022 74.14107 61.66064
# Shear Modulus (GPa) = 32.30483 40.43520 36.37002
#
# Velocity S-wave (km/s) = 3.31354 3.70713 3.51585
# Velocity P-wave (km/s) = 5.59950 6.59714 6.11869
#
# Compressibility (1/GPa) = 0.02033338
#
# Stress axis : x y z
#
# Youngs Moduli (GPa) = 56.18890 56.46061 79.99027
#
# Poissons Ratio (x) = -0.02328 0.35046
# Poissons Ratio (y) = -0.02317 0.78946
# Poissons Ratio (z) = 0.24618 0.55723
#
# Static dielectric constant tensor:
#      x y z
#    x 5.696680 0.000000 -0.243200 
#    y 0.000000 5.724790 0.000000 
#    z -0.243200 0.000000 5.672600 
# 
# 
# High freq. dielectric constant tensor:
#      x y z
#    x 2.214760 0.000000 -0.004960 
#    y 0.000000 2.203960 0.000000 
#    z -0.004960 0.000000 2.217890 
# 
# From -- ./inp_files/20420.got.cif
#   From: 2010.06.25/outbox.cif.g09.slc.cpg/sg13_11_cif.got.tgz:20420.got - 2010.06.28 04:50:58.
