data_PCOD8121265
_publ_section_title
;
Structure prediction by ZEFSAII (Michael W. Deem and Ramdas Pophale) SiO2 
 PCOD8121265
Probable space group: P 2/C
;
_chemical_formula_sum "Si O2"
_cell_formula_units_Z 22
_cell_length_a 11.493808
_cell_length_b 10.732693
_cell_length_c 8.851726
_cell_angle_alpha 90.000000
_cell_angle_beta 66.144158
_cell_angle_gamma 90.000000
_cell_volume 998.655331
_symmetry_space_group_name_H-M "P 2/C"
_symmetry_group_IT_number 13
_symmetry_cell_setting 'monoclinic'
loop_
_space_group_symop_operation_xyz
x,y,z
-x,y,1/2-z
-x,-y,-z
x,-y,1/2+z
loop_
_atom_site_type_symbol
_atom_site_label
_atom_site_fract_x
_atom_site_fract_y
_atom_site_fract_z
Si Si1 0.242805 0.909456 0.250061
Si Si2 0.854329 0.662702 0.332903
Si Si3 0.657694 0.333037 0.478708
Si Si4 0.140023 0.128848 0.111618
Si Si5 0.260075 0.528514 0.834029
Si Si6 0.500000 0.160214 0.750000
O O1 0.233336 0.781077 0.161562
O O2 0.135712 0.909467 0.437692
O O3 0.382092 0.922115 0.253958
O O4 0.223909 0.027641 0.155281
O O5 0.823620 0.621159 0.519823
O O6 0.832070 0.549272 0.228640
O O7 0.000000 0.705535 0.250000
O O8 0.793692 0.262992 0.409859
O O9 0.656114 0.439454 0.606447
O O10 0.641098 0.392173 0.321321
O O11 0.542589 0.241904 0.582305
O O12 0.000000 0.138339 0.250000
#
# Coordination Sequence:
#
# PCOD8121265 Si02
#       6
#     4   4   4   4   4   2
#     4  11  25  43  66  97 125 177 212 277 320 387
#     4  11  22  39  63  95 134 167 215 265 327 390
#     4  10  23  41  67  95 132 175 212 267 322 382
#     4  11  24  42  68  97 133 163 219 269 334 385
#     4  10  22  41  61  99 130 174 214 259 331 382
#     4  10  22  48  66  92 134 164 230 266 318 386
#
# _framework density 22.029622
#
# number of rings (size 3 to 8) (size 9 to 14) (size 15 to 20)
#    0.000    1.455    3.636    1.636    5.091    6.545 
#    0.000    0.000    0.000    0.000    0.000    0.000 
#    0.000    0.000    0.000    0.000    0.000    0.000 
#
# Total GULP energy -272848.348878 kJ/mol
# GULP energy per Si atom -12402.197676 kJ/mol
# Density = 2.197948 g / cm^3
# Si number density = 22.029622 Si / 1000 Ang^3
#
#
#
# Elastic Constant Matrix: (Units=GPa)
#
#
# Indices 1 2 3 4 5 6 
#
# 1 65.6620 14.7153 27.8573 0.0000 -14.3732 0.0000
# 2 14.7153 81.7334 43.8536 0.0000 4.2945 0.0000
# 3 27.8573 43.8536 144.7779 0.0000 7.9302 0.0000
# 4 0.0000 0.0000 0.0000 28.8023 0.0000 0.5955
# 5 -14.3732 4.2945 7.9302 0.0000 33.6366 0.0000
# 6 0.0000 0.0000 0.0000 0.5955 0.0000 13.2073
#
#
#
# Elastic Compliance Matrix: (Units=1/GPa)
#
#
# Indices 1 2 3 4 5 6 
#
# 1 0.019255 -0.002024 -0.003603 0.000000 0.009336 0.000000
# 2 -0.002024 0.014845 -0.004008 0.000000 -0.001815 0.000000
# 3 -0.003603 -0.004008 0.008987 0.000000 -0.003147 0.000000
# 4 0.000000 0.000000 0.000000 0.034752 0.000000 -0.001567
# 5 0.009336 -0.001815 -0.003147 0.000000 0.034692 0.000000
# 6 0.000000 0.000000 0.000000 -0.001567 0.000000 0.075786
#
#
# Mechanical properties :
#
#
# Convention : Reuss Voigt Hill
#
# Bulk Modulus (GPa) = 41.98648 51.66954 46.82801
# Shear Modulus (GPa) = 23.19897 28.84572 26.02234
#
# Velocity S-wave (km/s) = 3.24864 3.62250 3.44065
# Velocity P-wave (km/s) = 5.75952 6.40329 6.08992
#
# Compressibility (1/GPa) = 0.02381719
#
# Stress axis : x y z
#
# Youngs Moduli (GPa) = 51.93348 67.36278 111.27465
#
# Poissons Ratio (x) = 0.13634 0.40096
# Poissons Ratio (y) = 0.10511 0.44596
# Poissons Ratio (z) = 0.18713 0.26997
#
# Static dielectric constant tensor:
#      x y z
#    x 3.589980 0.000000 0.044670 
#    y 0.000000 3.982020 0.000000 
#    z 0.044670 0.000000 4.342520 
# 
# 
# High freq. dielectric constant tensor:
#      x y z
#    x 1.843980 0.000000 0.000260 
#    y 0.000000 1.866700 0.000000 
#    z 0.000260 0.000000 1.886930 
# 
# From -- ./inp_files/15797.got.cif
#   From: 2010.06.25/outbox.cif.g09.slc.cpg/sg13_8_cif.got.tgz:15797.got - 2010.06.28 04:50:58.
