data_PCOD8121940
_publ_section_title
;
Structure prediction by ZEFSAII (Michael W. Deem and Ramdas Pophale) SiO2 
 PCOD8121940
Probable space group: P 2/C
;
_chemical_formula_sum "Si O2"
_cell_formula_units_Z 12
_cell_length_a 11.312596
_cell_length_b 8.831243
_cell_length_c 7.316085
_cell_angle_alpha 90.000000
_cell_angle_beta 143.455965
_cell_angle_gamma 90.000000
_cell_volume 435.212306
_symmetry_space_group_name_H-M "P 2/C"
_symmetry_group_IT_number 13
_symmetry_cell_setting 'monoclinic'
loop_
_space_group_symop_operation_xyz
x,y,z
-x,y,1/2-z
-x,-y,-z
x,-y,1/2+z
loop_
_atom_site_type_symbol
_atom_site_label
_atom_site_fract_x
_atom_site_fract_y
_atom_site_fract_z
Si Si1 0.527296 0.323220 0.518206
Si Si2 0.164958 0.829354 0.309158
Si Si3 0.215478 0.169802 0.356231
O O1 0.500000 0.500000 0.500000
O O2 0.651638 0.289932 0.483024
O O3 0.322485 0.225202 0.293876
O O4 0.681972 0.273988 0.866898
O O5 0.000000 0.785497 0.250000
O O6 0.265574 0.993986 0.452212
O O7 0.025671 0.820043 0.950971
#
# Coordination Sequence:
#
# PCOD8121940 Si02
#       3
#     4   4   4
#     4  11  25  45  71 105 147 189 229 290 363 427
#     4  11  23  43  75 106 136 183 241 298 349 412
#     4  10  23  45  72 101 139 187 244 291 342 419
#
# _framework density 27.572751
#
# number of rings (size 3 to 8) (size 9 to 14) (size 15 to 20)
#    0.000    1.333    0.000    6.000    0.000   10.667 
#    0.000    1.667    0.000    0.000    0.000    0.000 
#    0.000    0.000    0.000    0.000    0.000    0.000 
#
# Total GULP energy -148778.415105 kJ/mol
# GULP energy per Si atom -12398.201259 kJ/mol
# Density = 2.750999 g / cm^3
# Si number density = 27.572751 Si / 1000 Ang^3
#
#
#
# Elastic Constant Matrix: (Units=GPa)
#
#
# Indices 1 2 3 4 5 6 
#
# 1 166.9576 84.1580 42.1095 0.0000 32.9292 0.0000
# 2 84.1580 233.1041 84.7680 0.0000 41.1403 0.0000
# 3 42.1095 84.7680 140.9531 0.0000 37.1563 0.0000
# 4 0.0000 0.0000 0.0000 41.8293 0.0000 -1.9184
# 5 32.9292 41.1403 37.1563 0.0000 40.7776 0.0000
# 6 0.0000 0.0000 0.0000 -1.9184 0.0000 42.2117
#
#
#
# Elastic Compliance Matrix: (Units=1/GPa)
#
#
# Indices 1 2 3 4 5 6 
#
# 1 0.007885 -0.002106 0.000038 0.000000 -0.004278 0.000000
# 2 -0.002106 0.006420 -0.002596 0.000000 -0.002411 0.000000
# 3 0.000038 -0.002596 0.010479 0.000000 -0.006960 0.000000
# 4 0.000000 0.000000 0.000000 0.023957 0.000000 0.001089
# 5 -0.004278 -0.002411 -0.006960 0.000000 0.036752 0.000000
# 6 0.000000 0.000000 0.000000 0.001089 0.000000 0.023740
#
#
# Mechanical properties :
#
#
# Convention : Reuss Voigt Hill
#
# Bulk Modulus (GPa) = 64.69558 107.00953 85.85256
# Shear Modulus (GPa) = 40.41652 46.96233 43.68943
#
# Velocity S-wave (km/s) = 3.83275 4.13148 3.98491
# Velocity P-wave (km/s) = 6.56515 7.85194 7.23720
#
# Compressibility (1/GPa) = 0.01545701
#
# Stress axis : x y z
#
# Youngs Moduli (GPa) = 126.82281 155.76975 95.42704
#
# Poissons Ratio (x) = 0.32800 -0.00367
# Poissons Ratio (y) = 0.26705 0.24775
# Poissons Ratio (z) = -0.00487 0.40441
#
# Static dielectric constant tensor:
#      x y z
#    x 7.209770 0.000000 -0.724650 
#    y 0.000000 4.352870 0.000000 
#    z -0.724650 0.000000 6.644540 
# 
# 
# High freq. dielectric constant tensor:
#      x y z
#    x 2.171960 0.000000 -0.015240 
#    y 0.000000 2.058590 0.000000 
#    z -0.015240 0.000000 2.190290 
# 
# From -- ./inp_files/14219.got.cif
#   From: 2010.06.25/outbox.cif.g09.slc.cpg/sg13_8_cif.got.tgz:14219.got - 2010.06.28 04:50:58.
