data_PCOD8121837
_publ_section_title
;
Structure prediction by ZEFSAII (Michael W. Deem and Ramdas Pophale) SiO2 
 PCOD8121837
Probable space group: P 2/C
;
_chemical_formula_sum "Si O2"
_cell_formula_units_Z 24
_cell_length_a 13.887025
_cell_length_b 8.899317
_cell_length_c 27.900599
_cell_angle_alpha 90.000000
_cell_angle_beta 159.487416
_cell_angle_gamma 90.000000
_cell_volume 1208.258198
_symmetry_space_group_name_H-M "P 2/C"
_symmetry_group_IT_number 13
_symmetry_cell_setting 'monoclinic'
loop_
_space_group_symop_operation_xyz
x,y,z
-x,y,1/2-z
-x,-y,-z
x,-y,1/2+z
loop_
_atom_site_type_symbol
_atom_site_label
_atom_site_fract_x
_atom_site_fract_y
_atom_site_fract_z
Si Si1 0.824920 0.811105 0.529623
Si Si2 0.941376 0.355782 0.669655
Si Si3 0.561646 0.211489 0.169563
Si Si4 0.289081 0.000581 0.610072
Si Si5 0.356258 0.054129 0.982345
Si Si6 0.477772 0.519997 0.089034
O O1 0.672684 0.869434 0.411427
O O2 0.742474 0.639527 0.496202
O O3 0.148056 0.823424 0.671156
O O4 0.758263 0.903144 0.546945
O O5 0.887472 0.175460 0.641503
O O6 0.667979 0.445606 0.525626
O O7 0.000000 0.409334 0.750000
O O8 0.226076 0.399298 0.776449
O O9 0.509714 0.388716 0.142634
O O10 0.333361 0.152488 0.100460
O O11 0.557639 0.134183 0.114783
O O12 0.500000 0.031330 0.750000
O O13 0.000000 0.000000 0.500000
O O14 0.500000 0.000000 0.000000
#
# Coordination Sequence:
#
# PCOD8121837 Si02
#       6
#     4   4   4   4   4   4
#     4  11  23  41  68  93 131 171 217 269 330 384
#     4  11  23  38  61  91 130 179 228 269 319 381
#     4  10  23  43  64  95 132 171 212 272 328 384
#     4  11  23  43  73  99 127 163 213 270 328 391
#     4  10  24  39  62  94 131 176 227 271 311 381
#     4  11  23  43  62  91 132 176 215 269 333 391
#
# _framework density 19.863303999999999
#
# number of rings (size 3 to 8) (size 9 to 14) (size 15 to 20)
#    0.000    1.333    3.333    1.500    7.000    2.667 
#    0.000    1.667    0.000    0.000    0.000    0.000 
#    0.000    0.000    0.000    0.000    0.000    0.000 
#
# Total GULP energy -297423.844772 kJ/mol
# GULP energy per Si atom -12392.660199 kJ/mol
# Density = 1.981809 g / cm^3
# Si number density = 19.863304 Si / 1000 Ang^3
#
#
#
# Elastic Constant Matrix: (Units=GPa)
#
#
# Indices 1 2 3 4 5 6 
#
# 1 134.8186 63.1815 51.6220 0.0000 -0.2858 0.0000
# 2 63.1815 133.3059 41.3667 0.0000 2.2879 0.0000
# 3 51.6220 41.3667 119.7462 0.0000 -3.6278 0.0000
# 4 0.0000 0.0000 0.0000 32.3598 0.0000 9.8548
# 5 -0.2858 2.2879 -3.6278 0.0000 36.0299 0.0000
# 6 0.0000 0.0000 0.0000 9.8548 0.0000 21.9399
#
#
#
# Elastic Compliance Matrix: (Units=1/GPa)
#
#
# Indices 1 2 3 4 5 6 
#
# 1 0.010495 -0.003999 -0.003142 0.000000 0.000021 0.000000
# 2 -0.003999 0.009951 -0.001739 0.000000 -0.000839 0.000000
# 3 -0.003142 -0.001739 0.010340 0.000000 0.001127 0.000000
# 4 0.000000 0.000000 0.000000 0.035800 0.000000 -0.016080
# 5 0.000021 -0.000839 0.001127 0.000000 0.027922 0.000000
# 6 0.000000 0.000000 0.000000 -0.016080 0.000000 0.052802
#
#
# Mechanical properties :
#
#
# Convention : Reuss Voigt Hill
#
# Bulk Modulus (GPa) = 76.77229 77.80123 77.28676
# Shear Modulus (GPa) = 29.51387 33.51263 31.51325
#
# Velocity S-wave (km/s) = 3.85885 4.11196 3.98742
# Velocity P-wave (km/s) = 7.65432 7.86115 7.75842
#
# Compressibility (1/GPa) = 0.01302553
#
# Stress axis : x y z
#
# Youngs Moduli (GPa) = 95.28538 100.49122 96.70866
#
# Poissons Ratio (x) = 0.40191 0.30386
# Poissons Ratio (y) = 0.38109 0.16817
# Poissons Ratio (z) = 0.29939 0.17475
#
# Static dielectric constant tensor:
#      x y z
#    x 3.554690 0.000000 -0.086430 
#    y 0.000000 3.733040 0.000000 
#    z -0.086430 0.000000 3.874050 
# 
# 
# High freq. dielectric constant tensor:
#      x y z
#    x 1.760150 0.000000 -0.006430 
#    y 0.000000 1.780450 0.000000 
#    z -0.006430 0.000000 1.789610 
# 
# From -- ./inp_files/96976.got.cif
#   From: 2010.06.25/outbox.cif.g09.slc.cpg/sg13_49_cif.got.tgz:96976.got - 2010.06.28 04:50:58.
