data_PCOD8121700
_publ_section_title
;
Structure prediction by ZEFSAII (Michael W. Deem and Ramdas Pophale) SiO2 
 PCOD8121700
Probable space group: P 2/C
;
_chemical_formula_sum "Si O2"
_cell_formula_units_Z 24
_cell_length_a 16.210158
_cell_length_b 10.000933
_cell_length_c 12.078893
_cell_angle_alpha 90.000000
_cell_angle_beta 38.059562
_cell_angle_gamma 90.000000
_cell_volume 1207.185799
_symmetry_space_group_name_H-M "P 2/C"
_symmetry_group_IT_number 13
_symmetry_cell_setting 'monoclinic'
loop_
_space_group_symop_operation_xyz
x,y,z
-x,y,1/2-z
-x,-y,-z
x,-y,1/2+z
loop_
_atom_site_type_symbol
_atom_site_label
_atom_site_fract_x
_atom_site_fract_y
_atom_site_fract_z
Si Si1 0.247914 0.650843 0.725783
Si Si2 0.149190 0.232709 0.104387
Si Si3 0.477474 0.190456 0.091607
Si Si4 0.380434 0.432901 0.444974
Si Si5 0.404396 0.089008 0.755846
Si Si6 0.859920 0.526844 0.453557
O O1 0.172265 0.727991 0.708074
O O2 0.337308 0.752956 0.698817
O O3 0.342746 0.531726 0.583420
O O4 0.139224 0.585782 0.923390
O O5 0.163913 0.367154 0.015883
O O6 0.000000 0.172563 0.250000
O O7 0.251974 0.120265 0.953124
O O8 0.436241 0.067710 0.213531
O O9 0.565766 0.292053 0.068689
O O10 0.569206 0.153301 0.890674
O O11 0.255757 0.403655 0.496538
O O12 0.500000 0.504013 0.250000
O O13 0.500000 0.151612 0.750000
O O14 0.000000 0.562464 0.250000
#
# Coordination Sequence:
#
# PCOD8121700 Si02
#       6
#     4   4   4   4   4   4
#     4  11  22  38  63  94 127 159 205 251 318 367
#     4  10  23  41  64  89 126 164 208 251 304 375
#     4  11  23  38  62  94 122 159 209 255 308 363
#     4  11  22  35  64  94 125 156 201 256 307 372
#     4  11  23  40  64  86 121 164 209 259 300 356
#     4  10  23  39  60  93 129 165 198 254 310 371
#
# _framework density 19.880949000000001
#
# number of rings (size 3 to 8) (size 9 to 14) (size 15 to 20)
#    0.000    1.333    3.333    2.000    4.667    7.333 
#    0.000    1.667    0.000    0.000    0.000    0.000 
#    0.000    0.000    0.000    0.000    0.000    0.000 
#
# Total GULP energy -297632.033534 kJ/mol
# GULP energy per Si atom -12401.334731 kJ/mol
# Density = 1.983570 g / cm^3
# Si number density = 19.880949 Si / 1000 Ang^3
#
#
#
# Elastic Constant Matrix: (Units=GPa)
#
#
# Indices 1 2 3 4 5 6 
#
# 1 92.1455 29.3606 60.1398 0.0000 -17.4487 0.0000
# 2 29.3606 61.8209 50.8226 0.0000 -3.8750 0.0000
# 3 60.1398 50.8226 163.6112 0.0000 -7.2448 0.0000
# 4 0.0000 0.0000 0.0000 8.6372 0.0000 -10.0627
# 5 -17.4487 -3.8750 -7.2448 0.0000 39.0945 0.0000
# 6 0.0000 0.0000 0.0000 -10.0627 0.0000 15.4486
#
#
#
# Elastic Compliance Matrix: (Units=1/GPa)
#
#
# Indices 1 2 3 4 5 6 
#
# 1 0.016077 -0.003519 -0.004552 0.000000 0.005983 0.000000
# 2 -0.003519 0.022525 -0.005721 0.000000 -0.000398 0.000000
# 3 -0.004552 -0.005721 0.009525 0.000000 -0.000833 0.000000
# 4 0.000000 0.000000 0.000000 0.480155 0.000000 0.312757
# 5 0.005983 -0.000398 -0.000833 0.000000 0.028056 0.000000
# 6 0.000000 0.000000 0.000000 0.312757 0.000000 0.268451
#
#
# Mechanical properties :
#
#
# Convention : Reuss Voigt Hill
#
# Bulk Modulus (GPa) = 48.67401 66.46928 57.57165
# Shear Modulus (GPa) = 5.81923 24.45304 15.13613
#
# Velocity S-wave (km/s) = 1.71271 3.51090 2.76223
# Velocity P-wave (km/s) = 5.33358 7.06693 6.26053
#
# Compressibility (1/GPa) = 0.02054484
#
# Stress axis : x y z
#
# Youngs Moduli (GPa) = 62.19958 44.39443 104.98171
#
# Poissons Ratio (x) = 0.15621 0.47785
# Poissons Ratio (y) = 0.21885 0.60063
# Poissons Ratio (z) = 0.28311 0.25399
#
# Static dielectric constant tensor:
#      x y z
#    x 3.799910 0.000000 0.101700 
#    y 0.000000 3.497940 0.000000 
#    z 0.101700 0.000000 3.749860 
# 
# 
# High freq. dielectric constant tensor:
#      x y z
#    x 1.787450 0.000000 0.009550 
#    y 0.000000 1.758340 0.000000 
#    z 0.009550 0.000000 1.782550 
# 
# From -- ./inp_files/39115.got.cif
#   From: 2010.06.25/outbox.cif.g09.slc.cpg/sg13_20_cif.got.tgz:39115.got - 2010.06.28 04:50:58.
