data_PCOD8121465
_publ_section_title
;
Structure prediction by ZEFSAII (Michael W. Deem and Ramdas Pophale) SiO2 
 PCOD8121465
Probable space group: P 2/C
;
_chemical_formula_sum "Si O2"
_cell_formula_units_Z 16
_cell_length_a 8.087369
_cell_length_b 18.837276
_cell_length_c 5.239784
_cell_angle_alpha 90.000000
_cell_angle_beta 122.243716
_cell_angle_gamma 90.000000
_cell_volume 675.148663
_symmetry_space_group_name_H-M "P 2/C"
_symmetry_group_IT_number 13
_symmetry_cell_setting 'monoclinic'
loop_
_space_group_symop_operation_xyz
x,y,z
-x,y,1/2-z
-x,-y,-z
x,-y,1/2+z
loop_
_atom_site_type_symbol
_atom_site_label
_atom_site_fract_x
_atom_site_fract_y
_atom_site_fract_z
Si Si1 0.120450 0.316507 0.600498
Si Si2 0.218817 0.969759 0.197515
Si Si3 0.369819 0.179881 0.891672
Si Si4 0.274192 0.534130 0.098432
O O1 0.250449 0.252054 0.805607
O O2 0.254111 0.382290 0.626779
O O3 0.000000 0.340395 0.750000
O O4 0.000000 0.292584 0.250000
O O5 0.219119 0.885826 0.252086
O O6 0.326765 0.011306 0.519266
O O7 0.000000 0.000000 0.000000
O O8 0.500000 0.179666 0.750000
O O9 0.500000 0.173277 0.250000
O O10 0.500000 0.513288 0.250000
O O11 0.174963 0.488700 0.247762
#
# Coordination Sequence:
#
# PCOD8121465 Si02
#       4
#     4   4   4   4
#     4  12  27  43  70 101 140 187 226 282 341 405
#     4  10  23  41  70  98 132 176 213 285 336 413
#     4  12  27  46  71 101 138 179 231 283 335 410
#     4  10  22  42  69  99 137 181 227 282 340 397
#
# _framework density 23.698484000000001
#
# number of rings (size 3 to 8) (size 9 to 14) (size 15 to 20)
#    0.000    1.000    0.000    5.250    7.000    9.000 
#    0.000    0.000    0.000    0.000    0.000    0.000 
#    0.000    0.000    0.000    0.000    0.000    0.000 
#
# Total GULP energy -198395.934432 kJ/mol
# GULP energy per Si atom -12399.745902 kJ/mol
# Density = 2.364455 g / cm^3
# Si number density = 23.698484 Si / 1000 Ang^3
#
#
#
# Elastic Constant Matrix: (Units=GPa)
#
#
# Indices 1 2 3 4 5 6 
#
# 1 85.8004 35.2907 64.1237 0.0000 -43.8906 0.0000
# 2 35.2907 184.1574 41.8194 0.0000 -18.0163 0.0000
# 3 64.1237 41.8194 143.5025 0.0000 -55.1032 0.0000
# 4 0.0000 0.0000 0.0000 41.2940 0.0000 -4.6427
# 5 -43.8906 -18.0163 -55.1032 0.0000 44.4631 0.0000
# 6 0.0000 0.0000 0.0000 -4.6427 0.0000 36.1995
#
#
#
# Elastic Compliance Matrix: (Units=1/GPa)
#
#
# Indices 1 2 3 4 5 6 
#
# 1 0.025057 -0.002185 -0.002675 0.000000 0.020533 0.000000
# 2 -0.002185 0.006011 -0.001275 0.000000 -0.001302 0.000000
# 3 -0.002675 -0.001275 0.013972 0.000000 0.014158 0.000000
# 4 0.000000 0.000000 0.000000 0.024571 0.000000 0.003151
# 5 0.020533 -0.001302 0.014158 0.000000 0.059778 0.000000
# 6 0.000000 0.000000 0.000000 0.003151 0.000000 0.028029
#
#
# Mechanical properties :
#
#
# Convention : Reuss Voigt Hill
#
# Bulk Modulus (GPa) = 30.51698 77.32532 53.92115
# Shear Modulus (GPa) = 27.68361 42.53975 35.11168
#
# Velocity S-wave (km/s) = 3.42154 4.24139 3.85333
# Velocity P-wave (km/s) = 5.33989 7.52898 6.52686
#
# Compressibility (1/GPa) = 0.03276864
#
# Stress axis : x y z
#
# Youngs Moduli (GPa) = 39.90930 166.35787 71.57134
#
# Poissons Ratio (x) = 0.36357 0.19146
# Poissons Ratio (y) = 0.08722 0.09126
# Poissons Ratio (z) = 0.10676 0.21212
#
# Static dielectric constant tensor:
#      x y z
#    x -35.966090 0.000000 34.361750 
#    y 0.000000 4.342330 0.000000 
#    z 34.361750 0.000000 -25.271690 
# 
# 
# High freq. dielectric constant tensor:
#      x y z
#    x 1.951380 0.000000 -0.023120 
#    y 0.000000 1.943130 0.000000 
#    z -0.023120 0.000000 1.963950 
# 
# From -- ./inp_files/1472.got.cif
#   From: 2010.06.25/outbox.cif.g09.slc.cpg/sg13_1_cif.got.tgz:1472.got - 2010.06.28 04:50:58.
