data_PCOD8121355
_publ_section_title
;
Structure prediction by ZEFSAII (Michael W. Deem and Ramdas Pophale) SiO2 
 PCOD8121355
Probable space group: P 2/C
;
_chemical_formula_sum "Si O2"
_cell_formula_units_Z 20
_cell_length_a 9.140342
_cell_length_b 11.742407
_cell_length_c 17.006917
_cell_angle_alpha 90.000000
_cell_angle_beta 151.610120
_cell_angle_gamma 90.000000
_cell_volume 867.895068
_symmetry_space_group_name_H-M "P 2/C"
_symmetry_group_IT_number 13
_symmetry_cell_setting 'monoclinic'
loop_
_space_group_symop_operation_xyz
x,y,z
-x,y,1/2-z
-x,-y,-z
x,-y,1/2+z
loop_
_atom_site_type_symbol
_atom_site_label
_atom_site_fract_x
_atom_site_fract_y
_atom_site_fract_z
Si Si1 0.633988 0.223301 0.892920
Si Si2 0.290168 0.054690 0.837559
Si Si3 0.313659 0.841799 0.741465
Si Si4 0.615083 0.641938 0.979689
Si Si5 0.304500 0.414164 0.804386
O O1 0.500000 0.168359 0.750000
O O2 0.532238 0.355130 0.849816
O O3 0.466246 0.160921 0.885171
O O4 0.000134 0.219926 0.069252
O O5 0.215270 0.960432 0.735561
O O6 0.000000 0.100623 0.750000
O O7 0.500000 0.000000 0.000000
O O8 0.500000 0.867469 0.750000
O O9 0.513576 0.763577 0.895483
O O10 0.617100 0.643224 0.074597
O O11 0.955588 0.608272 0.111582
O O12 0.366438 0.548935 0.833154
#
# Coordination Sequence:
#
# PCOD8121355 Si02
#       5
#     4   4   4   4   4
#     4  12  27  44  69  99 139 177 222 277 338 397
#     4  12  27  46  73 100 130 175 226 279 332 399
#     4  12  27  45  67 100 139 178 222 277 335 398
#     4  10  22  41  70 100 138 174 225 274 329 396
#     4  10  22  41  69 102 134 178 222 275 329 395
#
# _framework density 23.044263000000001
#
# number of rings (size 3 to 8) (size 9 to 14) (size 15 to 20)
#    0.000    0.800    2.000    4.200    8.400    4.000 
#    0.000    4.000    0.000    0.000    0.000    0.000 
#    0.000    0.000    0.000    0.000    0.000    0.000 
#
# Total GULP energy -248013.177006 kJ/mol
# GULP energy per Si atom -12400.658850 kJ/mol
# Density = 2.299181 g / cm^3
# Si number density = 23.044263 Si / 1000 Ang^3
#
#
#
# Elastic Constant Matrix: (Units=GPa)
#
#
# Indices 1 2 3 4 5 6 
#
# 1 117.2034 18.9189 21.0662 0.0000 16.4251 0.0000
# 2 18.9189 70.4071 1.4321 0.0000 3.0327 0.0000
# 3 21.0662 1.4321 117.7134 0.0000 19.6993 0.0000
# 4 0.0000 0.0000 0.0000 35.8747 0.0000 6.0182
# 5 16.4251 3.0327 19.6993 0.0000 42.6614 0.0000
# 6 0.0000 0.0000 0.0000 6.0182 0.0000 26.1023
#
#
#
# Elastic Compliance Matrix: (Units=1/GPa)
#
#
# Indices 1 2 3 4 5 6 
#
# 1 0.009549 -0.002414 -0.001185 0.000000 -0.002958 0.000000
# 2 -0.002414 0.014857 0.000295 0.000000 -0.000263 0.000000
# 3 -0.001185 0.000295 0.009354 0.000000 -0.003884 0.000000
# 4 0.000000 0.000000 0.000000 0.028996 0.000000 -0.006685
# 5 -0.002958 -0.000263 -0.003884 0.000000 0.026391 0.000000
# 6 0.000000 0.000000 0.000000 -0.006685 0.000000 0.039852
#
#
# Mechanical properties :
#
#
# Convention : Reuss Voigt Hill
#
# Bulk Modulus (GPa) = 36.82861 43.12869 39.97865
# Shear Modulus (GPa) = 34.56415 38.52145 36.54280
#
# Velocity S-wave (km/s) = 3.87706 4.09299 3.98649
# Velocity P-wave (km/s) = 6.00487 6.41038 6.21094
#
# Compressibility (1/GPa) = 0.02715280
#
# Stress axis : x y z
#
# Youngs Moduli (GPa) = 104.71894 67.30730 106.91063
#
# Poissons Ratio (x) = 0.16251 0.12664
# Poissons Ratio (y) = 0.25284 -0.03158
# Poissons Ratio (z) = 0.12405 -0.01988
#
# Static dielectric constant tensor:
#      x y z
#    x 3.955320 0.000000 -0.050820 
#    y 0.000000 3.113350 0.000000 
#    z -0.050820 0.000000 4.071320 
# 
# 
# High freq. dielectric constant tensor:
#      x y z
#    x 1.914570 0.000000 0.004270 
#    y 0.000000 1.913620 0.000000 
#    z 0.004270 0.000000 1.917630 
# 
# From -- ./inp_files/64485.got.cif
#   From: 2010.06.25/outbox.cif.g09.slc.cpg/sg13_33_cif.got.tgz:64485.got - 2010.06.28 04:50:58.
