data_PCOD8121557
_publ_section_title
;
Structure prediction by ZEFSAII (Michael W. Deem and Ramdas Pophale) SiO2 
 PCOD8121557
Probable space group: P 2/C
;
_chemical_formula_sum "Si O2"
_cell_formula_units_Z 24
_cell_length_a 21.281748
_cell_length_b 8.817674
_cell_length_c 10.002986
_cell_angle_alpha 90.000000
_cell_angle_beta 140.474257
_cell_angle_gamma 90.000000
_cell_volume 1194.642945
_symmetry_space_group_name_H-M "P 2/C"
_symmetry_group_IT_number 13
_symmetry_cell_setting 'monoclinic'
loop_
_space_group_symop_operation_xyz
x,y,z
-x,y,1/2-z
-x,-y,-z
x,-y,1/2+z
loop_
_atom_site_type_symbol
_atom_site_label
_atom_site_fract_x
_atom_site_fract_y
_atom_site_fract_z
Si Si1 0.780388 0.741927 0.637786
Si Si2 0.406749 0.604406 0.855170
Si Si3 0.241432 0.859047 0.190158
Si Si4 0.398953 0.894134 0.007043
Si Si5 0.064373 0.935104 0.485973
Si Si6 0.705060 0.558064 0.090746
O O1 0.788884 0.812755 0.506805
O O2 0.677147 0.805268 0.524378
O O3 0.778142 0.559288 0.635780
O O4 0.879862 0.780915 0.882028
O O5 0.373673 0.609557 0.647904
O O6 0.334204 0.522923 0.840178
O O7 0.500000 0.500000 0.000000
O O8 0.428177 0.778186 0.935043
O O9 0.241769 0.711360 0.282074
O O10 0.344791 0.954026 0.362504
O O11 0.151944 0.950247 0.103281
O O12 0.500000 0.938763 0.250000
O O13 0.000000 0.901844 0.250000
O O14 0.000000 0.000000 0.500000
#
# Coordination Sequence:
#
# PCOD8121557 Si02
#       6
#     4   4   4   4   4   4
#     4  10  22  44  64  95 133 174 216 273 332 398
#     4  11  22  39  62  91 131 182 228 274 325 384
#     4  11  24  42  67  97 133 174 222 275 333 392
#     4  10  24  39  63  95 134 176 228 273 321 391
#     4  11  23  43  74 100 130 167 214 274 339 400
#     4  11  23  41  63  91 131 175 222 272 334 391
#
# _framework density 20.089683000000001
#
# number of rings (size 3 to 8) (size 9 to 14) (size 15 to 20)
#    0.000    1.333    3.333    2.500    4.667    3.333 
#    0.000    1.667    0.000    0.000    0.000    0.000 
#    0.000    0.000    0.000    0.000    0.000    0.000 
#
# Total GULP energy -297457.050057 kJ/mol
# GULP energy per Si atom -12394.043752 kJ/mol
# Density = 2.004396 g / cm^3
# Si number density = 20.089683 Si / 1000 Ang^3
#
#
#
# Elastic Constant Matrix: (Units=GPa)
#
#
# Indices 1 2 3 4 5 6 
#
# 1 63.3776 18.2255 32.9956 0.0000 -3.2982 0.0000
# 2 18.2255 129.0813 55.7323 0.0000 1.0638 0.0000
# 3 32.9956 55.7323 158.3240 0.0000 -7.2784 0.0000
# 4 0.0000 0.0000 0.0000 16.7099 0.0000 -12.0764
# 5 -3.2982 1.0638 -7.2784 0.0000 36.5990 0.0000
# 6 0.0000 0.0000 0.0000 -12.0764 0.0000 14.8712
#
#
#
# Elastic Compliance Matrix: (Units=1/GPa)
#
#
# Indices 1 2 3 4 5 6 
#
# 1 0.017860 -0.001111 -0.003285 0.000000 0.000988 0.000000
# 2 -0.001111 0.009235 -0.003064 0.000000 -0.000978 0.000000
# 3 -0.003285 -0.003064 0.008144 0.000000 0.001413 0.000000
# 4 0.000000 0.000000 0.000000 0.144864 0.000000 0.117639
# 5 0.000988 -0.000978 0.001413 0.000000 0.027722 0.000000
# 6 0.000000 0.000000 0.000000 0.117639 0.000000 0.162775
#
#
# Mechanical properties :
#
#
# Convention : Reuss Voigt Hill
#
# Bulk Modulus (GPa) = 49.21882 62.74328 55.98105
# Shear Modulus (GPa) = 12.74553 29.89132 21.31842
#
# Velocity S-wave (km/s) = 2.52152 3.86151 3.26108
# Velocity P-wave (km/s) = 5.74719 7.15409 6.48888
#
# Compressibility (1/GPa) = 0.02031743
#
# Stress axis : x y z
#
# Youngs Moduli (GPa) = 55.99124 108.28329 122.78289
#
# Poissons Ratio (x) = 0.12034 0.40340
# Poissons Ratio (y) = 0.06222 0.37623
# Poissons Ratio (z) = 0.18396 0.33180
#
# Static dielectric constant tensor:
#      x y z
#    x 3.971310 0.000000 -0.027730 
#    y 0.000000 3.934590 0.000000 
#    z -0.027730 0.000000 3.751010 
# 
# 
# High freq. dielectric constant tensor:
#      x y z
#    x 1.785840 0.000000 -0.016680 
#    y 0.000000 1.791360 0.000000 
#    z -0.016680 0.000000 1.787030 
# 
# From -- ./inp_files/41652.got.cif
#   From: 2010.06.25/outbox.cif.g09.slc.cpg/sg13_21_cif.got.tgz:41652.got - 2010.06.28 04:50:58.
