data_PCOD8121171
_publ_section_title
;
Structure prediction by ZEFSAII (Michael W. Deem and Ramdas Pophale) SiO2 
 PCOD8121171
Probable space group: P 2/C
;
_chemical_formula_sum "Si O2"
_cell_formula_units_Z 28
_cell_length_a 7.548910
_cell_length_b 5.397604
_cell_length_c 26.402159
_cell_angle_alpha 90.000000
_cell_angle_beta 65.639909
_cell_angle_gamma 90.000000
_cell_volume 980.007386
_symmetry_space_group_name_H-M "P 2/C"
_symmetry_group_IT_number 13
_symmetry_cell_setting 'monoclinic'
loop_
_space_group_symop_operation_xyz
x,y,z
-x,y,1/2-z
-x,-y,-z
x,-y,1/2+z
loop_
_atom_site_type_symbol
_atom_site_label
_atom_site_fract_x
_atom_site_fract_y
_atom_site_fract_z
Si Si1 0.500000 0.182377 0.750000
Si Si2 0.999986 0.755794 0.965817
Si Si3 0.758387 0.066153 0.630845
Si Si4 0.636668 0.492791 0.581364
Si Si5 0.878808 0.823673 0.357940
Si Si6 0.373537 0.813870 0.547640
Si Si7 0.000000 0.100731 0.250000
Si Si8 0.667257 0.536658 0.810640
O O1 0.626099 0.016505 0.696172
O O2 0.643502 0.346955 0.767397
O O3 0.155545 0.812114 0.901474
O O4 0.138038 0.522728 0.966950
O O5 0.787563 0.692301 0.970156
O O6 0.000000 0.000000 0.000000
O O7 0.634624 0.205925 0.600567
O O8 0.953081 0.237321 0.620257
O O9 0.499120 0.577347 0.551332
O O10 0.541637 0.635338 0.642576
O O11 0.767905 0.583884 0.349455
O O12 0.725885 0.029357 0.395683
O O13 0.009521 0.935227 0.298099
O O14 0.500000 0.000000 0.500000
O O15 0.799385 0.250240 0.272638
#
# Coordination Sequence:
#
# PCOD8121171 Si02
#       8
#     2   4   4   4   4   4   2   4
#     4  10  22  40  62  98 138 182 224 288 344 430
#     4  11  25  46  70 103 143 180 241 301 353 430
#     4  10  25  43  67 103 142 180 238 293 355 427
#     4  11  25  44  71 102 138 184 234 290 360 423
#     4  11  25  44  69 105 141 186 237 300 357 431
#     4  11  24  47  73 102 142 192 241 294 362 430
#     4  12  22  42  74  98 142 188 232 296 364 438
#     4  11  25  42  68 103 141 182 239 287 359 434
#
# _framework density 28.571217000000001
#
# number of rings (size 3 to 8) (size 9 to 14) (size 15 to 20)
#    0.000    1.143    2.857    2.143    6.000    6.286 
#    0.000    2.857    0.000    0.000    0.000    0.000 
#    0.000    0.000    0.000    0.000    0.000    0.000 
#
# Total GULP energy -346935.300444 kJ/mol
# GULP energy per Si atom -12390.546444 kJ/mol
# Density = 2.850619 g / cm^3
# Si number density = 28.571217 Si / 1000 Ang^3
#
#
#
# Elastic Constant Matrix: (Units=GPa)
#
#
# Indices 1 2 3 4 5 6 
#
# 1 131.0720 16.2280 66.0284 0.0000 -20.4744 0.0000
# 2 16.2280 39.5579 29.1075 0.0000 -5.5562 0.0000
# 3 66.0284 29.1075 154.3459 0.0000 -24.1601 0.0000
# 4 0.0000 0.0000 0.0000 44.3763 0.0000 -8.9632
# 5 -20.4744 -5.5562 -24.1601 0.0000 60.9845 0.0000
# 6 0.0000 0.0000 0.0000 -8.9632 0.0000 45.4437
#
#
#
# Elastic Compliance Matrix: (Units=1/GPa)
#
#
# Indices 1 2 3 4 5 6 
#
# 1 0.009936 -0.001050 -0.003780 0.000000 0.001743 0.000000
# 2 -0.001050 0.029479 -0.005059 0.000000 0.000329 0.000000
# 3 -0.003780 -0.005059 0.009359 0.000000 0.001978 0.000000
# 4 0.000000 0.000000 0.000000 0.023470 0.000000 0.004629
# 5 0.001743 0.000329 0.001978 0.000000 0.017796 0.000000
# 6 0.000000 0.000000 0.000000 0.004629 0.000000 0.022918
#
#
# Mechanical properties :
#
#
# Convention : Reuss Voigt Hill
#
# Bulk Modulus (GPa) = 34.48594 60.85593 47.67093
# Shear Modulus (GPa) = 35.11239 44.40169 39.75704
#
# Velocity S-wave (km/s) = 3.50943 3.94645 3.73434
# Velocity P-wave (km/s) = 5.34021 6.48937 5.94263
#
# Compressibility (1/GPa) = 0.02899732
#
# Stress axis : x y z
#
# Youngs Moduli (GPa) = 100.64799 33.92295 106.84390
#
# Poissons Ratio (x) = 0.03562 0.40383
# Poissons Ratio (y) = 0.10568 0.54047
# Poissons Ratio (z) = 0.38041 0.17160
#
# Static dielectric constant tensor:
#      x y z
#    x 5.814170 0.000000 -0.324570 
#    y 0.000000 4.833500 0.000000 
#    z -0.324570 0.000000 6.010420 
# 
# 
# High freq. dielectric constant tensor:
#      x y z
#    x 2.179290 0.000000 -0.024010 
#    y 0.000000 2.133340 0.000000 
#    z -0.024010 0.000000 2.209120 
# 
# From -- ./inp_files/95605.got.cif
#   From: 2010.06.25/outbox.cif.g09.slc.cpg/sg13_48_cif.got.tgz:95605.got - 2010.06.28 04:50:58.
