data_PCOD8121452
_publ_section_title
;
Structure prediction by ZEFSAII (Michael W. Deem and Ramdas Pophale) SiO2 
 PCOD8121452
Probable space group: P 2/C
;
_chemical_formula_sum "Si O2"
_cell_formula_units_Z 28
_cell_length_a 8.795485
_cell_length_b 15.433899
_cell_length_c 10.852114
_cell_angle_alpha 90.000000
_cell_angle_beta 61.787202
_cell_angle_gamma 90.000000
_cell_volume 1298.145093
_symmetry_space_group_name_H-M "P 2/C"
_symmetry_group_IT_number 13
_symmetry_cell_setting 'monoclinic'
loop_
_space_group_symop_operation_xyz
x,y,z
-x,y,1/2-z
-x,-y,-z
x,-y,1/2+z
loop_
_atom_site_type_symbol
_atom_site_label
_atom_site_fract_x
_atom_site_fract_y
_atom_site_fract_z
Si Si1 0.710789 0.075511 0.751505
Si Si2 0.000000 0.979270 0.750000
Si Si3 0.767184 0.845607 0.980890
Si Si4 0.669913 0.362676 0.101038
Si Si5 0.500000 0.073005 0.250000
Si Si6 0.983418 0.691512 0.890655
Si Si7 0.104176 0.505238 0.586130
Si Si8 0.426027 0.191169 0.485571
O O1 0.665792 0.112040 0.633781
O O2 0.906491 0.043942 0.690441
O O3 0.602520 0.986557 0.808470
O O4 0.677349 0.150012 0.863051
O O5 0.874253 0.921143 0.877993
O O6 0.882376 0.768326 0.999365
O O7 0.630568 0.807804 0.935376
O O8 0.500000 0.381322 0.250000
O O9 0.632223 0.289393 0.014860
O O10 0.833283 0.333231 0.120708
O O11 0.722545 0.448106 0.000871
O O12 0.382591 0.135901 0.379236
O O13 0.858565 0.607771 0.916522
O O14 0.000000 0.735257 0.750000
O O15 0.000000 0.473709 0.750000
O O16 0.000000 0.500000 0.500000
#
# Coordination Sequence:
#
# PCOD8121452 Si02
#       8
#     4   2   4   4   2   4   4   4
#     4  12  26  43  63  93 132 175 230 278 334 391
#     4  12  26  40  64  94 130 176 228 276 332 404
#     4  12  24  43  64  95 132 175 222 276 336 399
#     4  11  24  42  70 104 135 175 226 278 341 410
#     4  12  22  44  64  84 130 178 218 278 334 392
#     4  10  22  42  68  95 134 176 218 267 335 404
#     4   9  21  45  71  99 137 178 221 277 342 413
#     4  12  25  42  66  94 130 173 223 281 335 396
#
# _framework density 21.569237999999999
#
# number of rings (size 3 to 8) (size 9 to 14) (size 15 to 20)
#    0.000    0.857    4.286    2.571    4.000    2.286 
#    0.000   12.857    0.000    0.000    0.000    0.000 
#    0.000    0.000    0.000    0.000    0.000    0.000 
#
# Total GULP energy -347001.478140 kJ/mol
# GULP energy per Si atom -12392.909934 kJ/mol
# Density = 2.152015 g / cm^3
# Si number density = 21.569238 Si / 1000 Ang^3
#
#
#
# Elastic Constant Matrix: (Units=GPa)
#
#
# Indices 1 2 3 4 5 6 
#
# 1 89.4302 38.2577 22.9921 0.0000 -6.6650 0.0000
# 2 38.2577 113.9541 51.2780 0.0000 -12.9354 0.0000
# 3 22.9921 51.2780 128.3100 0.0000 3.2667 0.0000
# 4 0.0000 0.0000 0.0000 25.7399 0.0000 -7.2990
# 5 -6.6650 -12.9354 3.2667 0.0000 33.4219 0.0000
# 6 0.0000 0.0000 0.0000 -7.2990 0.0000 44.6537
#
#
#
# Elastic Compliance Matrix: (Units=1/GPa)
#
#
# Indices 1 2 3 4 5 6 
#
# 1 0.013156 -0.003910 -0.000825 0.000000 0.001191 0.000000
# 2 -0.003910 0.012607 -0.004453 0.000000 0.004535 0.000000
# 3 -0.000825 -0.004453 0.009793 0.000000 -0.002845 0.000000
# 4 0.000000 0.000000 0.000000 0.040738 0.000000 0.006659
# 5 0.001191 0.004535 -0.002845 0.000000 0.032191 0.000000
# 6 0.000000 0.000000 0.000000 0.006659 0.000000 0.023483
#
#
# Mechanical properties :
#
#
# Convention : Reuss Voigt Hill
#
# Bulk Modulus (GPa) = 58.20938 61.86111 60.03525
# Shear Modulus (GPa) = 32.03664 35.37421 33.70542
#
# Velocity S-wave (km/s) = 3.85813 4.05412 3.95734
# Velocity P-wave (km/s) = 6.84783 7.11738 6.98390
#
# Compressibility (1/GPa) = 0.01717936
#
# Stress axis : x y z
#
# Youngs Moduli (GPa) = 76.01355 79.32227 102.10880
#
# Poissons Ratio (x) = 0.31018 0.08423
# Poissons Ratio (y) = 0.29724 0.45469
# Poissons Ratio (z) = 0.06271 0.35322
#
# Static dielectric constant tensor:
#      x y z
#    x 4.056150 0.000000 0.113060 
#    y 0.000000 4.315400 0.000000 
#    z 0.113060 0.000000 4.009080 
# 
# 
# High freq. dielectric constant tensor:
#      x y z
#    x 1.844280 0.000000 0.008270 
#    y 0.000000 1.858830 0.000000 
#    z 0.008270 0.000000 1.840120 
# 
# From -- ./inp_files/30352.got.cif
#   From: 2010.06.25/outbox.cif.g09.slc.cpg/sg13_16_cif.got.tgz:30352.got - 2010.06.28 04:50:58.
