data_PCOD8121861
_publ_section_title
;
Structure prediction by ZEFSAII (Michael W. Deem and Ramdas Pophale) SiO2 
 PCOD8121861
Probable space group: P 2/C
;
_chemical_formula_sum "Si O2"
_cell_formula_units_Z 18
_cell_length_a 8.591217
_cell_length_b 7.245272
_cell_length_c 18.376712
_cell_angle_alpha 90.000000
_cell_angle_beta 47.532132
_cell_angle_gamma 90.000000
_cell_volume 843.783695
_symmetry_space_group_name_H-M "P 2/C"
_symmetry_group_IT_number 13
_symmetry_cell_setting 'monoclinic'
loop_
_space_group_symop_operation_xyz
x,y,z
-x,y,1/2-z
-x,-y,-z
x,-y,1/2+z
loop_
_atom_site_type_symbol
_atom_site_label
_atom_site_fract_x
_atom_site_fract_y
_atom_site_fract_z
Si Si1 0.056665 0.481749 0.898409
Si Si2 0.500000 0.293551 0.750000
Si Si3 0.099507 0.172878 0.291443
Si Si4 0.802255 0.850990 0.420009
Si Si5 0.522128 0.965926 0.376653
O O1 0.292357 0.416005 0.806220
O O2 0.044891 0.689068 0.872908
O O3 0.882741 0.354277 0.913120
O O4 0.000000 0.500000 0.000000
O O5 0.546671 0.172950 0.664212
O O6 0.000000 0.258531 0.250000
O O7 0.346004 0.135639 0.199456
O O8 0.007092 0.971874 0.338631
O O9 0.648035 0.850593 0.398850
O O10 0.686091 0.940343 0.525610
#
# Coordination Sequence:
#
# PCOD8121861 Si02
#       5
#     4   2   4   4   4
#     4  12  28  42  67 101 139 172 217 277 332 391
#     4  12  26  40  70 100 134 176 220 268 340 382
#     4  10  23  43  69  97 128 178 222 264 327 395
#     4  10  23  48  69  94 134 175 220 270 335 388
#     4  10  23  44  72  96 129 178 219 273 328 398
#
# _framework density 21.332481999999999
#
# number of rings (size 3 to 8) (size 9 to 14) (size 15 to 20)
#    0.000    1.333    2.222    1.333    9.333    1.778 
#    0.000    4.444    0.000    0.000    0.000    0.000 
#    0.000    0.000    0.000    0.000    0.000    0.000 
#
# Total GULP energy -223249.881079 kJ/mol
# GULP energy per Si atom -12402.771171 kJ/mol
# Density = 2.128393 g / cm^3
# Si number density = 21.332482 Si / 1000 Ang^3
#
#
#
# Elastic Constant Matrix: (Units=GPa)
#
#
# Indices 1 2 3 4 5 6 
#
# 1 53.4074 19.6107 8.3614 0.0000 5.7173 0.0000
# 2 19.6107 67.8998 4.8201 0.0000 15.2492 0.0000
# 3 8.3614 4.8201 102.5540 0.0000 8.1580 0.0000
# 4 0.0000 0.0000 0.0000 35.3782 0.0000 11.2235
# 5 5.7173 15.2492 8.1580 0.0000 40.7628 0.0000
# 6 0.0000 0.0000 0.0000 11.2235 0.0000 8.6479
#
#
#
# Elastic Compliance Matrix: (Units=1/GPa)
#
#
# Indices 1 2 3 4 5 6 
#
# 1 0.021164 -0.005905 -0.001410 0.000000 -0.000477 0.000000
# 2 -0.005905 0.017734 0.000112 0.000000 -0.005828 0.000000
# 3 -0.001410 0.000112 0.010008 0.000000 -0.001847 0.000000
# 4 0.000000 0.000000 0.000000 0.048049 0.000000 -0.062360
# 5 -0.000477 -0.005828 -0.001847 0.000000 0.027149 0.000000
# 6 0.000000 0.000000 0.000000 -0.062360 0.000000 0.196568
#
#
# Mechanical properties :
#
#
# Convention : Reuss Voigt Hill
#
# Bulk Modulus (GPa) = 28.98691 32.16064 30.57378
# Shear Modulus (GPa) = 14.42668 29.69571 22.06120
#
# Velocity S-wave (km/s) = 2.60336 3.73506 3.21932
# Velocity P-wave (km/s) = 4.75965 5.80599 5.30866
#
# Compressibility (1/GPa) = 0.03449833
#
# Stress axis : x y z
#
# Youngs Moduli (GPa) = 47.24958 56.38823 99.92413
#
# Poissons Ratio (x) = 0.33299 0.14090
# Poissons Ratio (y) = 0.27903 -0.01115
# Poissons Ratio (z) = 0.06662 -0.00629
#
# Static dielectric constant tensor:
#      x y z
#    x 4.086750 0.000000 0.039180 
#    y 0.000000 3.648870 0.000000 
#    z 0.039180 0.000000 4.053630 
# 
# 
# High freq. dielectric constant tensor:
#      x y z
#    x 1.836360 0.000000 0.002990 
#    y 0.000000 1.824330 0.000000 
#    z 0.002990 0.000000 1.863550 
# 
# From -- ./inp_files/51978.got.cif
#   From: 2010.06.25/outbox.cif.g09.slc.cpg/sg13_26_cif.got.tgz:51978.got - 2010.06.28 04:50:58.
