data_PCOD8121253
_publ_section_title
;
Structure prediction by ZEFSAII (Michael W. Deem and Ramdas Pophale) SiO2 
 PCOD8121253
Probable space group: P 2/C
;
_chemical_formula_sum "Si O2"
_cell_formula_units_Z 28
_cell_length_a 9.506526
_cell_length_b 11.411515
_cell_length_c 15.051393
_cell_angle_alpha 90.000000
_cell_angle_beta 122.791520
_cell_angle_gamma 90.000000
_cell_volume 1372.636015
_symmetry_space_group_name_H-M "P 2/C"
_symmetry_group_IT_number 13
_symmetry_cell_setting 'monoclinic'
loop_
_space_group_symop_operation_xyz
x,y,z
-x,y,1/2-z
-x,-y,-z
x,-y,1/2+z
loop_
_atom_site_type_symbol
_atom_site_label
_atom_site_fract_x
_atom_site_fract_y
_atom_site_fract_z
Si Si1 0.855656 0.198770 0.560956
Si Si2 0.000000 0.654472 0.250000
Si Si3 0.692497 0.302004 0.333746
Si Si4 0.799871 0.214104 0.911704
Si Si5 0.766560 0.907979 0.744519
Si Si6 0.138217 0.460064 0.618285
Si Si7 0.500000 0.059410 0.750000
Si Si8 0.868477 0.058054 0.093373
O O1 0.747450 0.273116 0.453553
O O2 0.850736 0.263147 0.656269
O O3 0.054233 0.195494 0.609869
O O4 0.784578 0.065548 0.534229
O O5 0.932738 0.573907 0.308302
O O6 0.500000 0.278691 0.250000
O O7 0.788738 0.216412 0.299810
O O8 0.732922 0.435011 0.322821
O O9 0.762311 0.353030 0.895605
O O10 0.630266 0.142490 0.843017
O O11 0.873673 0.165696 0.028019
O O12 0.759054 0.890882 0.636538
O O13 0.938747 0.978050 0.821628
O O14 0.601478 0.977866 0.716911
O O15 0.000000 0.500000 0.500000
#
# Coordination Sequence:
#
# PCOD8121253 Si02
#       8
#     4   2   4   4   4   4   2   4
#     4  11  21  43  68  98 132 182 222 278 350 414
#     4  10  22  40  72  98 126 174 242 278 334 408
#     4  12  25  44  66  96 138 182 224 280 351 403
#     4  11  23  40  66  95 133 178 220 279 346 405
#     4  11  23  40  66  98 133 175 223 283 344 406
#     4  11  23  45  71  96 130 185 235 284 333 407
#     4  12  24  40  60 100 142 172 218 282 356 402
#     4  11  22  40  70  99 128 176 240 275 332 429
#
# _framework density 20.398707999999999
#
# number of rings (size 3 to 8) (size 9 to 14) (size 15 to 20)
#    0.000    0.857    6.429    2.143    3.000    2.857 
#    0.000    0.714    0.000    0.000    0.000    0.000 
#    0.000    0.000    0.000    0.000    0.000    0.000 
#
# Total GULP energy -346937.015439 kJ/mol
# GULP energy per Si atom -12390.607694 kJ/mol
# Density = 2.035228 g / cm^3
# Si number density = 20.398708 Si / 1000 Ang^3
#
#
#
# Elastic Constant Matrix: (Units=GPa)
#
#
# Indices 1 2 3 4 5 6 
#
# 1 86.2781 32.6349 50.2668 0.0000 -1.2661 0.0000
# 2 32.6349 154.6489 54.7799 0.0000 -15.7459 0.0000
# 3 50.2668 54.7799 101.1938 0.0000 -13.7746 0.0000
# 4 0.0000 0.0000 0.0000 -40.5027 0.0000 22.8087
# 5 -1.2661 -15.7459 -13.7746 0.0000 32.3555 0.0000
# 6 0.0000 0.0000 0.0000 22.8087 0.0000 24.7663
#
#
#
# Elastic Compliance Matrix: (Units=1/GPa)
#
#
# Indices 1 2 3 4 5 6 
#
# 1 0.016696 -0.000944 -0.008233 0.000000 -0.003311 0.000000
# 2 -0.000944 0.008201 -0.003643 0.000000 0.002403 0.000000
# 3 -0.008233 -0.003643 0.016622 0.000000 0.004981 0.000000
# 4 0.000000 0.000000 0.000000 -0.016258 0.000000 0.014973
# 5 -0.003311 0.002403 0.004981 0.000000 0.034067 0.000000
# 6 0.000000 0.000000 0.000000 0.014973 0.000000 0.026588
#
#
# Mechanical properties :
#
#
# Convention : Reuss Voigt Hill
#
# Bulk Modulus (GPa) = 62.98197 68.60933 65.79565
# Shear Modulus (GPa) = 42.79042 16.95312 29.87177
#
# Velocity S-wave (km/s) = 4.58504 2.88599 3.83089
# Velocity P-wave (km/s) = 7.67936 6.69421 7.20364
#
# Compressibility (1/GPa) = 0.01587756
#
# Stress axis : x y z
#
# Youngs Moduli (GPa) = 59.89608 121.94133 60.16135
#
# Poissons Ratio (x) = 0.11512 0.49531
# Poissons Ratio (y) = 0.05654 0.21919
# Poissons Ratio (z) = 0.49312 0.44427
#
# Static dielectric constant tensor:
#      x y z
#    x 3.656570 0.000000 -0.029880 
#    y 0.000000 4.193400 0.000000 
#    z -0.029880 0.000000 3.851560 
# 
# 
# High freq. dielectric constant tensor:
#      x y z
#    x 1.772710 0.000000 -0.005830 
#    y 0.000000 1.811010 0.000000 
#    z -0.005830 0.000000 1.802440 
# 
# From -- ./inp_files/47079.got.cif
#   From: 2010.06.25/outbox.cif.g09.slc.cpg/sg13_24_cif.got.tgz:47079.got - 2010.06.28 04:50:58.
