data_PCOD8121611
_publ_section_title
;
Structure prediction by ZEFSAII (Michael W. Deem and Ramdas Pophale) SiO2 
 PCOD8121611
Probable space group: P 2/C
;
_chemical_formula_sum "Si O2"
_cell_formula_units_Z 20
_cell_length_a 18.994568
_cell_length_b 9.955770
_cell_length_c 13.575116
_cell_angle_alpha 90.000000
_cell_angle_beta 19.282445
_cell_angle_gamma 90.000000
_cell_volume 847.730955
_symmetry_space_group_name_H-M "P 2/C"
_symmetry_group_IT_number 13
_symmetry_cell_setting 'monoclinic'
loop_
_space_group_symop_operation_xyz
x,y,z
-x,y,1/2-z
-x,-y,-z
x,-y,1/2+z
loop_
_atom_site_type_symbol
_atom_site_label
_atom_site_fract_x
_atom_site_fract_y
_atom_site_fract_z
Si Si1 0.000000 0.524732 0.750000
Si Si2 0.500000 0.263338 0.250000
Si Si3 0.686695 0.241996 0.634808
Si Si4 0.051362 0.621754 0.363305
Si Si5 0.360517 0.093480 0.614957
Si Si6 0.226895 0.842694 0.688771
O O1 0.075646 0.421346 0.566398
O O2 0.203093 0.612281 0.518969
O O3 0.300139 0.362755 0.511653
O O4 0.499002 0.174222 0.351442
O O5 0.760691 0.189328 0.645955
O O6 0.767243 0.148502 0.437968
O O7 0.429403 0.242301 0.964613
O O8 0.000000 0.500000 0.500000
O O9 0.982142 0.763573 0.500835
O O10 0.500000 0.000000 0.500000
O O11 0.204874 0.993693 0.760294
#
# Coordination Sequence:
#
# PCOD8121611 Si02
#       6
#     2   2   4   4   4   4
#     4  12  26  42  66 104 134 188 236 284 352 414
#     4  12  28  48  68 110 146 182 242 304 350 422
#     4  10  22  44  72 101 138 183 235 290 350 427
#     4  12  28  47  71 105 143 193 236 293 353 424
#     4  10  22  45  72 103 139 180 234 295 360 422
#     4  10  23  47  72 101 142 186 229 295 362 416
#
# _framework density 23.592390000000002
#
# number of rings (size 3 to 8) (size 9 to 14) (size 15 to 20)
#    0.000    1.200    2.000    3.600    8.400    1.600 
#    7.200    0.000    0.000    0.000    0.000    0.000 
#    0.000    0.000    0.000    0.000    0.000    0.000 
#
# Total GULP energy -247861.753309 kJ/mol
# GULP energy per Si atom -12393.087665 kJ/mol
# Density = 2.353869 g / cm^3
# Si number density = 23.592390 Si / 1000 Ang^3
#
#
#
# Elastic Constant Matrix: (Units=GPa)
#
#
# Indices 1 2 3 4 5 6 
#
# 1 154.9648 50.0873 47.8426 0.0000 51.5097 0.0000
# 2 50.0873 113.6131 44.2627 0.0000 30.3329 0.0000
# 3 47.8426 44.2627 102.3999 0.0000 12.8179 0.0000
# 4 0.0000 0.0000 0.0000 34.6396 0.0000 6.1042
# 5 51.5097 30.3329 12.8179 0.0000 48.5681 0.0000
# 6 0.0000 0.0000 0.0000 6.1042 0.0000 51.5799
#
#
#
# Elastic Compliance Matrix: (Units=1/GPa)
#
#
# Indices 1 2 3 4 5 6 
#
# 1 0.011346 -0.000749 -0.003650 0.000000 -0.010602 0.000000
# 2 -0.000749 0.012336 -0.004258 0.000000 -0.005786 0.000000
# 3 -0.003650 -0.004258 0.012921 0.000000 0.003120 0.000000
# 4 0.000000 0.000000 0.000000 0.029484 0.000000 -0.003489
# 5 -0.010602 -0.005786 0.003120 0.000000 0.034624 0.000000
# 6 0.000000 0.000000 0.000000 -0.003489 0.000000 0.019800
#
#
# Mechanical properties :
#
#
# Convention : Reuss Voigt Hill
#
# Bulk Modulus (GPa) = 51.84508 72.81811 62.33159
# Shear Modulus (GPa) = 34.66094 42.20987 38.43541
#
# Velocity S-wave (km/s) = 3.83712 4.23440 4.04064
# Velocity P-wave (km/s) = 6.45402 7.40533 6.94598
#
# Compressibility (1/GPa) = 0.01928823
#
# Stress axis : x y z
#
# Youngs Moduli (GPa) = 88.13422 81.06569 77.39431
#
# Poissons Ratio (x) = 0.06076 0.28249
# Poissons Ratio (y) = 0.06605 0.32953
# Poissons Ratio (z) = 0.32170 0.34516
#
# Static dielectric constant tensor:
#      x y z
#    x 4.765000 0.000000 0.291530 
#    y 0.000000 3.975340 0.000000 
#    z 0.291530 0.000000 4.036970 
# 
# 
# High freq. dielectric constant tensor:
#      x y z
#    x 1.957780 0.000000 0.014710 
#    y 0.000000 1.932860 0.000000 
#    z 0.014710 0.000000 1.926510 
# 
# From -- ./inp_files/57162.got.cif
#   From: 2010.06.25/outbox.cif.g09.slc.cpg/sg13_29_cif.got.tgz:57162.got - 2010.06.28 04:50:58.
