data_PCOD8121054
_publ_section_title
;
Structure prediction by ZEFSAII (Michael W. Deem and Ramdas Pophale) SiO2 
 PCOD8121054
Probable space group: P 2/C
;
_chemical_formula_sum "Si O2"
_cell_formula_units_Z 26
_cell_length_a 27.839799
_cell_length_b 11.480337
_cell_length_c 12.657892
_cell_angle_alpha 90.000000
_cell_angle_beta 161.227026
_cell_angle_gamma 90.000000
_cell_volume 1301.949014
_symmetry_space_group_name_H-M "P 2/C"
_symmetry_group_IT_number 13
_symmetry_cell_setting 'monoclinic'
loop_
_space_group_symop_operation_xyz
x,y,z
-x,y,1/2-z
-x,-y,-z
x,-y,1/2+z
loop_
_atom_site_type_symbol
_atom_site_label
_atom_site_fract_x
_atom_site_fract_y
_atom_site_fract_z
Si Si1 0.283304 0.953589 0.435088
Si Si2 0.175542 0.727744 0.103067
Si Si3 0.500000 0.907032 0.250000
Si Si4 0.808256 0.403468 0.660078
Si Si5 0.950406 0.843054 0.032542
Si Si6 0.851017 0.352124 0.177483
Si Si7 0.730246 0.819895 0.886417
O O1 0.246095 0.852321 0.274827
O O2 0.329635 0.900995 0.644230
O O3 0.428653 0.017600 0.694442
O O4 0.140370 0.037742 0.146500
O O5 0.232638 0.628693 0.304006
O O6 0.227595 0.693390 0.093392
O O7 0.000000 0.742419 0.750000
O O8 0.629769 0.829497 0.572713
O O9 0.761162 0.536099 0.535947
O O10 0.724368 0.315714 0.406175
O O11 0.983818 0.389445 0.009349
O O12 0.000000 0.793799 0.250000
O O13 0.101143 0.864850 0.280789
O O14 0.847725 0.747341 0.760164
#
# Coordination Sequence:
#
# PCOD8121054 Si02
#       7
#     4   4   2   4   4   4   4
#     4  11  23  38  58  85 118 155 197 244 294 350
#     4   9  18  33  55  83 115 149 186 239 300 342
#     4  12  24  38  58  82 118 164 196 236 292 358
#     4   8  17  34  54  83 117 144 187 240 296 346
#     4  11  21  35  58  92 118 147 195 247 295 345
#     4   9  18  31  57  88 113 148 184 242 296 354
#     4  10  22  39  58  85 117 155 193 245 296 349
#
# _framework density 19.970061000000001
#
# number of rings (size 3 to 8) (size 9 to 14) (size 15 to 20)
#    0.000    2.154    1.538    2.308    2.154    4.308 
#    0.000    0.000    0.000    1.846    0.000    0.000 
#    0.000    0.000    0.000    0.000    0.000    0.000 
#
# Total GULP energy -322382.929460 kJ/mol
# GULP energy per Si atom -12399.343441 kJ/mol
# Density = 1.992461 g / cm^3
# Si number density = 19.970061 Si / 1000 Ang^3
#
#
#
# Elastic Constant Matrix: (Units=GPa)
#
#
# Indices 1 2 3 4 5 6 
#
# 1 94.8677 58.3398 27.0924 0.0000 -29.2686 0.0000
# 2 58.3398 137.4853 44.9050 0.0000 -27.4609 0.0000
# 3 27.0924 44.9050 59.0014 0.0000 -12.1246 0.0000
# 4 0.0000 0.0000 0.0000 14.2630 0.0000 -6.5783
# 5 -29.2686 -27.4609 -12.1246 0.0000 32.3503 0.0000
# 6 0.0000 0.0000 0.0000 -6.5783 0.0000 26.4174
#
#
#
# Elastic Compliance Matrix: (Units=1/GPa)
#
#
# Indices 1 2 3 4 5 6 
#
# 1 0.017316 -0.004367 -0.002351 0.000000 0.011078 0.000000
# 2 -0.004367 0.011950 -0.006303 0.000000 0.003831 0.000000
# 3 -0.002351 -0.006303 0.023065 0.000000 0.001168 0.000000
# 4 0.000000 0.000000 0.000000 0.079209 0.000000 0.019724
# 5 0.011078 0.003831 0.001168 0.000000 0.044624 0.000000
# 6 0.000000 0.000000 0.000000 0.019724 0.000000 0.042765
#
#
# Mechanical properties :
#
#
# Convention : Reuss Voigt Hill
#
# Bulk Modulus (GPa) = 38.03751 61.33654 49.68703
# Shear Modulus (GPa) = 19.70570 25.34062 22.52316
#
# Velocity S-wave (km/s) = 3.14469 3.56607 3.36199
# Velocity P-wave (km/s) = 5.68102 6.90918 6.32498
#
# Compressibility (1/GPa) = 0.02628984
#
# Stress axis : x y z
#
# Youngs Moduli (GPa) = 57.75070 83.67942 43.35568
#
# Poissons Ratio (x) = 0.36544 0.10192
# Poissons Ratio (y) = 0.25221 0.27326
# Poissons Ratio (z) = 0.13576 0.52741
#
# Static dielectric constant tensor:
#      x y z
#    x 3.802090 0.000000 -0.270330 
#    y 0.000000 3.713440 0.000000 
#    z -0.270330 0.000000 3.279120 
# 
# 
# High freq. dielectric constant tensor:
#      x y z
#    x 1.783500 0.000000 -0.024280 
#    y 0.000000 1.776900 0.000000 
#    z -0.024280 0.000000 1.747560 
# 
# From -- ./inp_files/42406.got.cif
#   From: 2010.06.25/outbox.cif.g09.slc.cpg/sg13_22_cif.got.tgz:42406.got - 2010.06.28 04:50:58.
