data_PCOD8121564
_publ_section_title
;
Structure prediction by ZEFSAII (Michael W. Deem and Ramdas Pophale) SiO2 
 PCOD8121564
Probable space group: P 2/C
;
_chemical_formula_sum "Si O2"
_cell_formula_units_Z 28
_cell_length_a 10.880746
_cell_length_b 13.246709
_cell_length_c 8.536806
_cell_angle_alpha 90.000000
_cell_angle_beta 97.491008
_cell_angle_gamma 90.000000
_cell_volume 1219.943210
_symmetry_space_group_name_H-M "P 2/C"
_symmetry_group_IT_number 13
_symmetry_cell_setting 'monoclinic'
loop_
_space_group_symop_operation_xyz
x,y,z
-x,y,1/2-z
-x,-y,-z
x,-y,1/2+z
loop_
_atom_site_type_symbol
_atom_site_label
_atom_site_fract_x
_atom_site_fract_y
_atom_site_fract_z
Si Si1 0.355111 0.131384 0.687914
Si Si2 0.797116 0.641948 0.014925
Si Si3 0.270785 0.051427 0.996813
Si Si4 0.965974 0.170174 0.569036
Si Si5 0.797785 0.745337 0.538863
Si Si6 0.858231 0.545966 0.701068
Si Si7 0.634988 0.224028 0.316044
O O1 0.500000 0.138757 0.750000
O O2 0.283015 0.082208 0.818739
O O3 0.299667 0.240316 0.623717
O O4 0.311879 0.064126 0.529373
O O5 0.804548 0.585163 0.852024
O O6 0.673986 0.710078 0.975836
O O7 0.909750 0.717353 0.067469
O O8 0.786301 0.557200 0.146075
O O9 0.129962 0.086623 0.019204
O O10 0.369971 0.109644 0.123022
O O11 0.000000 0.136003 0.750000
O O12 0.085499 0.179437 0.474666
O O13 0.842815 0.629069 0.558841
O O14 0.733987 0.770933 0.693264
O O15 0.000000 0.517812 0.750000
O O16 0.500000 0.262737 0.250000
#
# Coordination Sequence:
#
# PCOD8121564 Si02
#       7
#     4   4   4   4   4   4   4
#     4  12  24  43  64  92 124 170 217 254 302 374
#     4  10  23  35  64  90 127 161 212 256 311 374
#     4  11  24  40  66  92 121 166 208 262 313 371
#     4  11  22  42  61  95 129 161 205 259 325 368
#     4  11  24  41  64  93 127 163 211 259 311 377
#     4  11  21  37  59  96 123 167 205 254 317 374
#     4  10  22  44  65  90 125 168 211 260 310 367
#
# _framework density 22.951888
#
# number of rings (size 3 to 8) (size 9 to 14) (size 15 to 20)
#    0.000    1.143    2.857    3.429    2.000    0.571 
#    0.000    3.571    0.000    0.000    0.000    0.000 
#    0.000    0.000    0.000    0.000    0.000    0.000 
#
# Total GULP energy -347001.232402 kJ/mol
# GULP energy per Si atom -12392.901157 kJ/mol
# Density = 2.289965 g / cm^3
# Si number density = 22.951888 Si / 1000 Ang^3
#
#
#
# Elastic Constant Matrix: (Units=GPa)
#
#
# Indices 1 2 3 4 5 6 
#
# 1 102.6762 25.8002 21.2900 0.0000 27.4895 0.0000
# 2 25.8002 50.0219 11.5842 0.0000 28.2719 0.0000
# 3 21.2900 11.5842 77.3050 0.0000 25.9603 0.0000
# 4 0.0000 0.0000 0.0000 73.6733 0.0000 40.9525
# 5 27.4895 28.2719 25.9603 0.0000 38.2572 0.0000
# 6 0.0000 0.0000 0.0000 40.9525 0.0000 56.2594
#
#
#
# Elastic Compliance Matrix: (Units=1/GPa)
#
#
# Indices 1 2 3 4 5 6 
#
# 1 0.012254 -0.002533 -0.000864 0.000000 -0.006347 0.000000
# 2 -0.002533 0.036033 0.004700 0.000000 -0.027998 0.000000
# 3 -0.000864 0.004700 0.017390 0.000000 -0.014653 0.000000
# 4 0.000000 0.000000 0.000000 0.022798 0.000000 -0.016595
# 5 -0.006347 -0.027998 -0.014653 0.000000 0.061333 0.000000
# 6 0.000000 0.000000 0.000000 -0.016595 0.000000 0.029855
#
#
# Mechanical properties :
#
#
# Convention : Reuss Voigt Hill
#
# Bulk Modulus (GPa) = 14.64475 38.59467 26.61971
# Shear Modulus (GPa) = 25.02269 45.05990 35.04129
#
# Velocity S-wave (km/s) = 3.30544 4.43565 3.91158
# Velocity P-wave (km/s) = 4.57847 6.56393 5.65896
#
# Compressibility (1/GPa) = 0.06828385
#
# Stress axis : x y z
#
# Youngs Moduli (GPa) = 81.60403 27.75216 57.50398
#
# Poissons Ratio (x) = 0.07030 0.04967
# Poissons Ratio (y) = 0.20671 -0.27027
# Poissons Ratio (z) = 0.07049 -0.13044
#
# Static dielectric constant tensor:
#      x y z
#    x 3.924440 0.000000 0.161840 
#    y 0.000000 4.422800 0.000000 
#    z 0.161840 0.000000 4.280680 
# 
# 
# High freq. dielectric constant tensor:
#      x y z
#    x 1.886310 0.000000 0.012270 
#    y 0.000000 1.902790 0.000000 
#    z 0.012270 0.000000 1.919680 
# 
# From -- ./inp_files/16558.got.cif
#   From: 2010.06.25/outbox.cif.g09.slc.cpg/sg13_9_cif.got.tgz:16558.got - 2010.06.28 04:50:58.
