data_PCOD8121513
_publ_section_title
;
Structure prediction by ZEFSAII (Michael W. Deem and Ramdas Pophale) SiO2 
 PCOD8121513
Probable space group: P 2/C
;
_chemical_formula_sum "Si O2"
_cell_formula_units_Z 20
_cell_length_a 15.768793
_cell_length_b 8.335443
_cell_length_c 15.705640
_cell_angle_alpha 90.000000
_cell_angle_beta 26.780263
_cell_angle_gamma 90.000000
_cell_volume 930.133073
_symmetry_space_group_name_H-M "P 2/C"
_symmetry_group_IT_number 13
_symmetry_cell_setting 'monoclinic'
loop_
_space_group_symop_operation_xyz
x,y,z
-x,y,1/2-z
-x,-y,-z
x,-y,1/2+z
loop_
_atom_site_type_symbol
_atom_site_label
_atom_site_fract_x
_atom_site_fract_y
_atom_site_fract_z
Si Si1 0.702275 0.603227 0.219401
Si Si2 0.994218 0.134959 0.077254
Si Si3 0.386235 0.184886 0.429836
Si Si4 0.500000 0.507132 0.750000
Si Si5 0.381169 0.274746 0.127838
Si Si6 0.000000 0.983864 0.250000
O O1 0.643810 0.604100 0.172673
O O2 0.731060 0.419884 0.224360
O O3 0.529881 0.672020 0.426018
O O4 0.886103 0.712950 0.063780
O O5 0.775801 0.178415 0.282945
O O6 0.064356 0.083581 0.108843
O O7 0.000000 0.000000 0.000000
O O8 0.500000 0.101123 0.250000
O O9 0.378530 0.378673 0.422828
O O10 0.509790 0.156893 0.404010
O O11 0.173971 0.123510 0.626508
#
# Coordination Sequence:
#
# PCOD8121513 Si02
#       6
#     4   4   4   2   4   2
#     4  10  22  43  67  94 129 164 224 271 316 385
#     4  12  27  42  64 101 137 172 215 269 331 392
#     4   9  20  42  64  90 125 171 217 260 319 386
#     4   8  20  42  66  90 120 172 214 274 316 356
#     4  10  22  44  69  92 124 179 214 266 331 378
#     4  12  26  40  64 102 132 176 218 260 340 392
#
# _framework density 21.502298
#
# number of rings (size 3 to 8) (size 9 to 14) (size 15 to 20)
#    0.600    1.200    0.000    3.000    2.800    4.800 
#   10.800    0.000    0.000    0.000    0.000    0.000 
#    0.000    0.000    0.000    0.000    0.000    0.000 
#
# Total GULP energy -247876.555894 kJ/mol
# GULP energy per Si atom -12393.827795 kJ/mol
# Density = 2.145336 g / cm^3
# Si number density = 21.502298 Si / 1000 Ang^3
#
#
#
# Elastic Constant Matrix: (Units=GPa)
#
#
# Indices 1 2 3 4 5 6 
#
# 1 122.5680 35.7011 29.8713 0.0000 -9.0332 0.0000
# 2 35.7011 49.1142 28.9031 0.0000 -16.9892 0.0000
# 3 29.8713 28.9031 81.3251 0.0000 -19.3055 0.0000
# 4 0.0000 0.0000 0.0000********** 0.0000-1301.3245
# 5 -9.0332 -16.9892 -19.3055 0.0000 41.2353 0.0000
# 6 0.0000 0.0000 0.0000-1301.3245 0.0000 -63.1654
#
#
#
# Elastic Compliance Matrix: (Units=1/GPa)
#
#
# Indices 1 2 3 4 5 6 
#
# 1 0.010551 -0.007186 -0.001660 0.000000 -0.001427 0.000000
# 2 -0.007186 0.032639 -0.006910 0.000000 0.008638 0.000000
# 3 -0.001660 -0.006910 0.016425 0.000000 0.004479 0.000000
# 4 0.000000 0.000000 0.000000 0.000107 0.000000 -0.002198
# 5 -0.001427 0.008638 0.004479 0.000000 0.029595 0.000000
# 6 0.000000 0.000000 0.000000 -0.002198 0.000000 0.029447
#
#
# Mechanical properties :
#
#
# Convention : Reuss Voigt Hill
#
# Bulk Modulus (GPa) = 35.58355 49.10647 42.34501
# Shear Modulus (GPa) = 31.31973 -3480.97034 -1724.82530
#
# Velocity S-wave (km/s) = 3.82065 -40.27899 -28.35313
# Velocity P-wave (km/s) = 6.00398 46.26348 32.43656
#
# Compressibility (1/GPa) = 0.02810287
#
# Stress axis : x y z
#
# Youngs Moduli (GPa) = 94.77413 30.63844 60.88190
#
# Poissons Ratio (x) = 0.22018 0.10108
# Poissons Ratio (y) = 0.68107 0.42068
# Poissons Ratio (z) = 0.15735 0.21170
#
# Static dielectric constant tensor:
#      x y z
#    x 3.614030 0.000000 -0.133710 
#    y 0.000000 3.820530 0.000000 
#    z -0.133710 0.000000 3.552470 
# 
# 
# High freq. dielectric constant tensor:
#      x y z
#    x 1.859450 0.000000 0.000490 
#    y 0.000000 1.828300 0.000000 
#    z 0.000490 0.000000 1.834220 
# 
# From -- ./inp_files/69148.got.cif
#   From: 2010.06.25/outbox.cif.g09.slc.cpg/sg13_35_cif.got.tgz:69148.got - 2010.06.28 04:50:58.
