data_PCOD8121676
_publ_section_title
;
Structure prediction by ZEFSAII (Michael W. Deem and Ramdas Pophale) SiO2 
 PCOD8121676
Probable space group: P 2/C
;
_chemical_formula_sum "Si O2"
_cell_formula_units_Z 16
_cell_length_a 7.916011
_cell_length_b 11.089871
_cell_length_c 12.108432
_cell_angle_alpha 90.000000
_cell_angle_beta 39.019799
_cell_angle_gamma 90.000000
_cell_volume 669.233781
_symmetry_space_group_name_H-M "P 2/C"
_symmetry_group_IT_number 13
_symmetry_cell_setting 'monoclinic'
loop_
_space_group_symop_operation_xyz
x,y,z
-x,y,1/2-z
-x,-y,-z
x,-y,1/2+z
loop_
_atom_site_type_symbol
_atom_site_label
_atom_site_fract_x
_atom_site_fract_y
_atom_site_fract_z
Si Si1 0.234244 0.566806 0.943268
Si Si2 0.048905 0.245476 0.398178
Si Si3 0.500000 0.824776 0.250000
Si Si4 0.000000 0.562240 0.750000
Si Si5 0.759909 0.007657 0.793874
O O1 0.500000 0.519701 0.750000
O O2 0.182491 0.711620 0.947434
O O3 0.000000 0.500000 0.000000
O O4 0.216696 0.526919 0.080613
O O5 0.159791 0.118159 0.302876
O O6 0.719619 0.250639 0.568448
O O7 0.148169 0.347812 0.260865
O O8 0.299217 0.901858 0.275489
O O9 0.000000 0.054452 0.750000
O O10 0.500000 0.000000 0.000000
#
# Coordination Sequence:
#
# PCOD8121676 Si02
#       5
#     4   4   2   2   4
#     4  10  25  44  72 104 148 193 254 311 377 444
#     4  11  24  45  71 108 150 195 246 317 375 446
#     4  12  26  46  76 110 160 190 256 318 374 452
#     4  10  22  48  70 104 146 190 252 298 378 446
#     4  12  25  47  74 109 149 200 250 306 379 457
#
# _framework density 23.907938999999999
#
# number of rings (size 3 to 8) (size 9 to 14) (size 15 to 20)
#    0.000    1.000    3.750    0.750    8.750    4.000 
#    6.750    0.000    0.000    0.000    0.000    0.000 
#    0.000    0.000    0.000    0.000    0.000    0.000 
#
# Total GULP energy -198233.693510 kJ/mol
# GULP energy per Si atom -12389.605844 kJ/mol
# Density = 2.385352 g / cm^3
# Si number density = 23.907939 Si / 1000 Ang^3
#
#
#
# Elastic Constant Matrix: (Units=GPa)
#
#
# Indices 1 2 3 4 5 6 
#
# 1 113.9020 40.3849 45.8010 0.0000 -3.2236 0.0000
# 2 40.3849 76.3129 52.5389 0.0000 11.0877 0.0000
# 3 45.8010 52.5389 202.3646 0.0000 -17.3853 0.0000
# 4 0.0000 0.0000 0.0000 7.4705 0.0000 3.9126
# 5 -3.2236 11.0877 -17.3853 0.0000 45.1468 0.0000
# 6 0.0000 0.0000 0.0000 3.9126 0.0000 52.2617
#
#
#
# Elastic Compliance Matrix: (Units=1/GPa)
#
#
# Indices 1 2 3 4 5 6 
#
# 1 0.011166 -0.005523 -0.000939 0.000000 0.001792 0.000000
# 2 -0.005523 0.020246 -0.004620 0.000000 -0.007146 0.000000
# 3 -0.000939 -0.004620 0.006666 0.000000 0.003635 0.000000
# 4 0.000000 0.000000 0.000000 0.139323 0.000000 -0.010430
# 5 0.001792 -0.007146 0.003635 0.000000 0.025432 0.000000
# 6 0.000000 0.000000 0.000000 -0.010430 0.000000 0.019915
#
#
# Mechanical properties :
#
#
# Convention : Reuss Voigt Hill
#
# Bulk Modulus (GPa) = 62.84167 74.44767 68.64467
# Shear Modulus (GPa) = 19.98263 37.89944 28.94104
#
# Velocity S-wave (km/s) = 2.89418 3.98581 3.48303
# Velocity P-wave (km/s) = 6.12457 7.23803 6.70446
#
# Compressibility (1/GPa) = 0.01591301
#
# Stress axis : x y z
#
# Youngs Moduli (GPa) = 89.55713 49.39341 150.01574
#
# Poissons Ratio (x) = 0.27278 0.14093
# Poissons Ratio (y) = 0.49459 0.69310
# Poissons Ratio (z) = 0.08413 0.22821
#
# Static dielectric constant tensor:
#      x y z
#    x 5.073580 0.000000 0.684790 
#    y 0.000000 5.085770 0.000000 
#    z 0.684790 0.000000 4.201740 
# 
# 
# High freq. dielectric constant tensor:
#      x y z
#    x 1.936080 0.000000 0.002600 
#    y 0.000000 1.946150 0.000000 
#    z 0.002600 0.000000 1.970030 
# 
# From -- ./inp_files/28870.got.cif
#   From: 2010.06.25/outbox.cif.g09.slc.cpg/sg13_15_cif.got.tgz:28870.got - 2010.06.28 04:50:58.
