data_PCOD8121130
_publ_section_title
;
Structure prediction by ZEFSAII (Michael W. Deem and Ramdas Pophale) SiO2 
 PCOD8121130
Probable space group: P 2/C
;
_chemical_formula_sum "Si O2"
_cell_formula_units_Z 28
_cell_length_a 13.454456
_cell_length_b 7.186481
_cell_length_c 21.161641
_cell_angle_alpha 90.000000
_cell_angle_beta 139.735016
_cell_angle_gamma 90.000000
_cell_volume 1322.457588
_symmetry_space_group_name_H-M "P 2/C"
_symmetry_group_IT_number 13
_symmetry_cell_setting 'monoclinic'
loop_
_space_group_symop_operation_xyz
x,y,z
-x,y,1/2-z
-x,-y,-z
x,-y,1/2+z
loop_
_atom_site_type_symbol
_atom_site_label
_atom_site_fract_x
_atom_site_fract_y
_atom_site_fract_z
Si Si1 0.178173 0.773411 0.693205
Si Si2 0.345740 0.091840 0.704878
Si Si3 0.587173 0.490714 0.727786
Si Si4 0.679258 0.121895 0.521507
Si Si5 0.647578 0.470803 0.993202
Si Si6 0.656052 0.180612 0.106078
Si Si7 0.822221 0.165430 0.001076
O O1 0.273020 0.951565 0.717984
O O2 0.247002 0.592556 0.691124
O O3 0.207213 0.749500 0.782183
O O4 0.003429 0.811131 0.592863
O O5 0.500000 0.001282 0.750000
O O6 0.395656 0.270370 0.769264
O O7 0.223197 0.161054 0.593859
O O8 0.500000 0.548585 0.750000
O O9 0.497094 0.542737 0.619190
O O10 0.734335 0.337056 0.555310
O O11 0.493253 0.113294 0.427193
O O12 0.729424 0.995818 0.605321
O O13 0.758684 0.027825 0.499141
O O14 0.603374 0.348921 0.033454
O O15 0.755256 0.348483 0.001040
#
# Coordination Sequence:
#
# PCOD8121130 Si02
#       7
#     4   4   4   4   4   4   4
#     4  12  26  40  65  96 133 169 208 264 329 385
#     4  11  23  42  67  93 127 165 219 264 310 384
#     4  11  24  41  67  98 123 168 218 268 314 378
#     4  10  22  39  69  87 125 169 208 264 313 368
#     4  11  22  42  68  94 127 165 219 268 308 378
#     4  10  23  40  66  98 122 164 224 259 308 383
#     4  11  25  43  60  98 133 165 210 266 325 380
#
# _framework density 21.172702000000001
#
# number of rings (size 3 to 8) (size 9 to 14) (size 15 to 20)
#    0.000    1.143    4.286    2.143    6.000    4.000 
#    0.000    1.429    0.000    0.000    0.000    0.000 
#    0.000    0.000    0.000    0.000    0.000    0.000 
#
# Total GULP energy -347161.307554 kJ/mol
# GULP energy per Si atom -12398.618127 kJ/mol
# Density = 2.112451 g / cm^3
# Si number density = 21.172702 Si / 1000 Ang^3
#
#
#
# Elastic Constant Matrix: (Units=GPa)
#
#
# Indices 1 2 3 4 5 6 
#
# 1 65.2276 33.8185 33.4837 0.0000 2.7371 0.0000
# 2 33.8185 121.1531 9.4136 0.0000 0.9460 0.0000
# 3 33.4837 9.4136 106.5328 0.0000 2.6374 0.0000
# 4 0.0000 0.0000 0.0000 19.0899 0.0000 0.7961
# 5 2.7371 0.9460 2.6374 0.0000 22.5014 0.0000
# 6 0.0000 0.0000 0.0000 0.7961 0.0000 20.9759
#
#
#
# Elastic Compliance Matrix: (Units=1/GPa)
#
#
# Indices 1 2 3 4 5 6 
#
# 1 0.021433 -0.005487 -0.006211 0.000000 -0.001648 0.000000
# 2 -0.005487 0.009718 0.000862 0.000000 0.000158 0.000000
# 3 -0.006211 0.000862 0.011278 0.000000 -0.000603 0.000000
# 4 0.000000 0.000000 0.000000 0.052467 0.000000 -0.001991
# 5 -0.001648 0.000158 -0.000603 0.000000 0.044706 0.000000
# 6 0.000000 0.000000 0.000000 -0.001991 0.000000 0.047749
#
#
# Mechanical properties :
#
#
# Convention : Reuss Voigt Hill
#
# Bulk Modulus (GPa) = 48.17835 49.59388 48.88612
# Shear Modulus (GPa) = 23.15435 26.92662 25.04049
#
# Velocity S-wave (km/s) = 3.31054 3.57005 3.44274
# Velocity P-wave (km/s) = 6.11696 6.36144 6.24040
#
# Compressibility (1/GPa) = 0.02075621
#
# Stress axis : x y z
#
# Youngs Moduli (GPa) = 46.65601 102.90659 88.67102
#
# Poissons Ratio (x) = 0.56469 0.55073
# Poissons Ratio (y) = 0.25602 -0.07645
# Poissons Ratio (z) = 0.28978 -0.08872
#
# Static dielectric constant tensor:
#      x y z
#    x 3.991650 0.000000 0.182270 
#    y 0.000000 3.966330 0.000000 
#    z 0.182270 0.000000 4.198750 
# 
# 
# High freq. dielectric constant tensor:
#      x y z
#    x 1.821950 0.000000 -0.019600 
#    y 0.000000 1.845840 0.000000 
#    z -0.019600 0.000000 1.816240 
# 
# From -- ./inp_files/79574.got.cif
#   From: 2010.06.25/outbox.cif.g09.slc.cpg/sg13_40_cif.got.tgz:79574.got - 2010.06.28 04:50:58.
