data_PCOD8121793
_publ_section_title
;
Structure prediction by ZEFSAII (Michael W. Deem and Ramdas Pophale) SiO2 
 PCOD8121793
Probable space group: P 2/C
;
_chemical_formula_sum "Si O2"
_cell_formula_units_Z 20
_cell_length_a 11.349335
_cell_length_b 5.101119
_cell_length_c 23.631338
_cell_angle_alpha 90.000000
_cell_angle_beta 33.780951
_cell_angle_gamma 90.000000
_cell_volume 760.701121
_symmetry_space_group_name_H-M "P 2/C"
_symmetry_group_IT_number 13
_symmetry_cell_setting 'monoclinic'
loop_
_space_group_symop_operation_xyz
x,y,z
-x,y,1/2-z
-x,-y,-z
x,-y,1/2+z
loop_
_atom_site_type_symbol
_atom_site_label
_atom_site_fract_x
_atom_site_fract_y
_atom_site_fract_z
Si Si1 0.972115 0.597508 0.825404
Si Si2 0.318815 0.762027 0.201643
Si Si3 0.067943 0.742736 0.405013
Si Si4 0.258728 0.921187 0.102457
Si Si5 0.806518 0.248965 0.522344
O O1 0.865188 0.869434 0.889522
O O2 0.000000 0.675299 0.750000
O O3 0.211713 0.527877 0.749671
O O4 0.805510 0.354439 0.899306
O O5 0.235852 0.878956 0.294732
O O6 0.212420 0.909889 0.189697
O O7 0.567864 0.741024 0.095445
O O8 0.189460 0.659306 0.413679
O O9 0.949824 0.466363 0.429914
O O10 0.884975 0.951435 0.490114
O O11 0.500000 0.000000 0.000000
#
# Coordination Sequence:
#
# PCOD8121793 Si02
#       5
#     4   4   4   4   4
#     4  10  23  42  61  92 133 169 224 285 329 402
#     4  11  25  43  77  97 142 192 229 284 365 418
#     4  10  24  44  70 104 146 174 237 291 343 431
#     4  11  25  42  64  95 135 176 230 285 335 405
#     4  10  24  45  69 108 139 181 232 292 350 420
#
# _framework density 26.291532
#
# number of rings (size 3 to 8) (size 9 to 14) (size 15 to 20)
#    0.000    1.600    0.000    3.000    5.600    9.600 
#    0.000    6.000    0.000    0.000    0.000    0.000 
#    0.000    0.000    0.000    0.000    0.000    0.000 
#
# Total GULP energy -247814.682679 kJ/mol
# GULP energy per Si atom -12390.734134 kJ/mol
# Density = 2.623169 g / cm^3
# Si number density = 26.291532 Si / 1000 Ang^3
#
#
#
# Elastic Constant Matrix: (Units=GPa)
#
#
# Indices 1 2 3 4 5 6 
#
# 1 91.0614 36.9581 22.3173 0.0000 -16.2825 0.0000
# 2 36.9581 143.2395 31.4652 0.0000 -12.4346 0.0000
# 3 22.3173 31.4652 97.6600 0.0000 -9.7125 0.0000
# 4 0.0000 0.0000 0.0000 36.6366 0.0000 3.1328
# 5 -16.2825 -12.4346 -9.7125 0.0000 46.4878 0.0000
# 6 0.0000 0.0000 0.0000 3.1328 0.0000 25.1970
#
#
#
# Elastic Compliance Matrix: (Units=1/GPa)
#
#
# Indices 1 2 3 4 5 6 
#
# 1 0.013140 -0.002693 -0.001786 0.000000 0.003509 0.000000
# 2 -0.002693 0.008174 -0.001935 0.000000 0.000839 0.000000
# 3 -0.001786 -0.001935 0.011394 0.000000 0.001237 0.000000
# 4 0.000000 0.000000 0.000000 0.027588 0.000000 -0.003430
# 5 0.003509 0.000839 0.001237 0.000000 0.023223 0.000000
# 6 0.000000 0.000000 0.000000 -0.003430 0.000000 0.040114
#
#
# Mechanical properties :
#
#
# Convention : Reuss Voigt Hill
#
# Bulk Modulus (GPa) = 50.30199 57.04913 53.67556
# Shear Modulus (GPa) = 34.94358 37.74564 36.34461
#
# Velocity S-wave (km/s) = 3.64961 3.79312 3.72206
# Velocity P-wave (km/s) = 6.07729 6.39761 6.23951
#
# Compressibility (1/GPa) = 0.01987993
#
# Stress axis : x y z
#
# Youngs Moduli (GPa) = 76.10453 122.33827 87.76428
#
# Poissons Ratio (x) = 0.32950 0.15675
# Poissons Ratio (y) = 0.20498 0.16980
# Poissons Ratio (z) = 0.13592 0.23669
#
# Static dielectric constant tensor:
#      x y z
#    x 6.347770 0.000000 0.880420 
#    y 0.000000 4.834900 0.000000 
#    z 0.880420 0.000000 5.008640 
# 
# 
# High freq. dielectric constant tensor:
#      x y z
#    x 2.094360 0.000000 0.026080 
#    y 0.000000 2.051230 0.000000 
#    z 0.026080 0.000000 2.052440 
# 
# From -- ./inp_files/96402.got.cif
#   From: 2010.06.25/outbox.cif.g09.slc.cpg/sg13_49_cif.got.tgz:96402.got - 2010.06.28 04:50:58.
