data_PCOD8121925
_publ_section_title
;
Structure prediction by ZEFSAII (Michael W. Deem and Ramdas Pophale) SiO2 
 PCOD8121925
Probable space group: P 2/C
;
_chemical_formula_sum "Si O2"
_cell_formula_units_Z 28
_cell_length_a 18.317202
_cell_length_b 6.344888
_cell_length_c 12.614062
_cell_angle_alpha 90.000000
_cell_angle_beta 58.982834
_cell_angle_gamma 90.000000
_cell_volume 1256.392813
_symmetry_space_group_name_H-M "P 2/C"
_symmetry_group_IT_number 13
_symmetry_cell_setting 'monoclinic'
loop_
_space_group_symop_operation_xyz
x,y,z
-x,y,1/2-z
-x,-y,-z
x,-y,1/2+z
loop_
_atom_site_type_symbol
_atom_site_label
_atom_site_fract_x
_atom_site_fract_y
_atom_site_fract_z
Si Si1 0.273575 0.351486 0.322117
Si Si2 0.816320 0.035584 0.266262
Si Si3 0.545204 0.296770 0.608031
Si Si4 0.611675 0.633360 0.406859
Si Si5 0.317346 0.066785 0.487024
Si Si6 0.127459 0.645016 0.400840
Si Si7 0.025770 0.310632 0.345334
O O1 0.242066 0.194425 0.255828
O O2 0.347404 0.499087 0.218851
O O3 0.312044 0.221483 0.391124
O O4 0.194492 0.499846 0.416598
O O5 0.913859 0.107257 0.204692
O O6 0.775556 0.032243 0.416357
O O7 0.817763 0.812485 0.205546
O O8 0.500000 0.366166 0.750000
O O9 0.597751 0.491878 0.522291
O O10 0.473418 0.251210 0.572543
O O11 0.607027 0.100129 0.587635
O O12 0.669463 0.818544 0.409359
O O13 0.073938 0.505624 0.360017
O O14 0.060841 0.755755 0.529470
O O15 0.000000 0.390985 0.250000
#
# Coordination Sequence:
#
# PCOD8121925 Si02
#       7
#     4   4   4   4   4   4   4
#     4  11  25  42  71 105 136 179 231 281 344 405
#     4  11  24  43  68 102 137 175 228 285 334 409
#     4  11  26  44  71  99 136 180 227 281 346 408
#     4  11  24  48  67 100 141 178 227 287 336 417
#     4  12  26  42  73 101 136 182 228 281 350 401
#     4  10  23  45  66  96 140 178 222 281 336 400
#     4  10  24  42  67  99 135 177 227 273 337 410
#
# _framework density 22.286021999999999
#
# number of rings (size 3 to 8) (size 9 to 14) (size 15 to 20)
#    0.000    1.143    2.857    1.714    6.000    4.571 
#    0.000    0.000    0.000    0.000    0.000    0.000 
#    0.000    0.000    0.000    0.000    0.000    0.000 
#
# Total GULP energy -347143.393447 kJ/mol
# GULP energy per Si atom -12397.978337 kJ/mol
# Density = 2.223530 g / cm^3
# Si number density = 22.286022 Si / 1000 Ang^3
#
#
#
# Elastic Constant Matrix: (Units=GPa)
#
#
# Indices 1 2 3 4 5 6 
#
# 1 96.2376 33.6533 35.4262 0.0000 -7.6319 0.0000
# 2 33.6533 69.7512 28.3319 0.0000 -8.4871 0.0000
# 3 35.4262 28.3319 120.3756 0.0000 -17.3125 0.0000
# 4 0.0000 0.0000 0.0000 31.6777 0.0000 -4.2782
# 5 -7.6319 -8.4871 -17.3125 0.0000 32.7708 0.0000
# 6 0.0000 0.0000 0.0000 -4.2782 0.0000 10.3902
#
#
#
# Elastic Compliance Matrix: (Units=1/GPa)
#
#
# Indices 1 2 3 4 5 6 
#
# 1 0.013222 -0.005282 -0.002599 0.000000 0.000338 0.000000
# 2 -0.005282 0.018126 -0.002395 0.000000 0.002199 0.000000
# 3 -0.002599 -0.002395 0.010238 0.000000 0.004183 0.000000
# 4 0.000000 0.000000 0.000000 0.033427 0.000000 0.013764
# 5 0.000338 0.002199 0.004183 0.000000 0.033373 0.000000
# 6 0.000000 0.000000 0.000000 0.013764 0.000000 0.101911
#
#
# Mechanical properties :
#
#
# Convention : Reuss Voigt Hill
#
# Bulk Modulus (GPa) = 47.54810 53.46524 50.50667
# Shear Modulus (GPa) = 21.02075 27.56462 24.29268
#
# Velocity S-wave (km/s) = 3.07453 3.52071 3.30516
# Velocity P-wave (km/s) = 5.82970 6.36944 6.10554
#
# Compressibility (1/GPa) = 0.02103133
#
# Stress axis : x y z
#
# Youngs Moduli (GPa) = 75.63312 55.17019 97.67891
#
# Poissons Ratio (x) = 0.29142 0.25389
# Poissons Ratio (y) = 0.39951 0.23398
# Poissons Ratio (z) = 0.19659 0.13215
#
# Static dielectric constant tensor:
#      x y z
#    x 4.126870 0.000000 -0.230950 
#    y 0.000000 3.939900 0.000000 
#    z -0.230950 0.000000 4.008830 
# 
# 
# High freq. dielectric constant tensor:
#      x y z
#    x 1.889600 0.000000 -0.013830 
#    y 0.000000 1.873830 0.000000 
#    z -0.013830 0.000000 1.885190 
# 
# From -- ./inp_files/40039.got.cif
#   From: 2010.06.25/outbox.cif.g09.slc.cpg/sg13_21_cif.got.tgz:40039.got - 2010.06.28 04:50:58.
