data_PCOD8121857
_publ_section_title
;
Structure prediction by ZEFSAII (Michael W. Deem and Ramdas Pophale) SiO2 
 PCOD8121857
Probable space group: P 2/C
;
_chemical_formula_sum "Si O2"
_cell_formula_units_Z 30
_cell_length_a 12.175779
_cell_length_b 8.667314
_cell_length_c 14.405664
_cell_angle_alpha 90.000000
_cell_angle_beta 75.154411
_cell_angle_gamma 90.000000
_cell_volume 1469.502295
_symmetry_space_group_name_H-M "P 2/C"
_symmetry_group_IT_number 13
_symmetry_cell_setting 'monoclinic'
loop_
_space_group_symop_operation_xyz
x,y,z
-x,y,1/2-z
-x,-y,-z
x,-y,1/2+z
loop_
_atom_site_type_symbol
_atom_site_label
_atom_site_fract_x
_atom_site_fract_y
_atom_site_fract_z
Si Si1 0.751827 0.327694 0.595316
Si Si2 0.809421 0.681314 0.563679
Si Si3 0.631048 0.654971 0.933368
Si Si4 0.000000 0.984332 0.250000
Si Si5 0.981148 0.157232 0.558243
Si Si6 0.379204 0.149772 0.729940
Si Si7 0.772134 0.143673 0.259878
Si Si8 0.617684 0.305116 0.963775
O O1 0.794013 0.502225 0.588408
O O2 0.668481 0.295789 0.527834
O O3 0.682295 0.291239 0.704076
O O4 0.856635 0.214181 0.560100
O O5 0.930419 0.710437 0.489609
O O6 0.807804 0.769283 0.660098
O O7 0.713793 0.747814 0.515102
O O8 0.703603 0.742833 0.841279
O O9 0.647214 0.472523 0.915215
O O10 0.498513 0.696056 0.951981
O O11 0.990673 0.870535 0.165356
O O12 0.112088 0.089969 0.214882
O O13 0.000000 0.000000 0.500000
O O14 0.500000 0.116494 0.750000
O O15 0.390574 0.185991 0.618740
O O16 0.304383 0.997880 0.755690
#
# Coordination Sequence:
#
# PCOD8121857 Si02
#       8
#     4   4   4   2   4   4   4   4
#     4  11  23  45  68  97 129 168 219 271 328 389
#     4  11  25  43  69  96 128 174 219 269 328 389
#     4  10  23  43  68  94 130 170 217 270 325 390
#     4  12  24  44  68  96 136 178 216 276 334 382
#     4  12  23  45  69  94 135 171 218 273 330 391
#     4  12  24  42  67  99 134 170 216 269 331 390
#     4  12  26  43  65  98 130 175 221 266 328 392
#     4  10  23  44  66  96 130 172 214 271 329 385
#
# _framework density 20.415075000000002
#
# number of rings (size 3 to 8) (size 9 to 14) (size 15 to 20)
#    0.000    0.800    4.000    2.800    1.867    1.600 
#    0.000    0.000    0.000    0.000    0.000    0.000 
#    0.000    0.000    0.000    0.000    0.000    0.000 
#
# Total GULP energy -372180.001285 kJ/mol
# GULP energy per Si atom -12406.000043 kJ/mol
# Density = 2.036861 g / cm^3
# Si number density = 20.415075 Si / 1000 Ang^3
#
#
#
# Elastic Constant Matrix: (Units=GPa)
#
#
# Indices 1 2 3 4 5 6 
#
# 1 112.3558 29.4162 2.2463 0.0000 -15.9291 0.0000
# 2 29.4162 72.4503 16.3409 0.0000 -6.5406 0.0000
# 3 2.2463 16.3409 66.1963 0.0000 -11.9612 0.0000
# 4 0.0000 0.0000 0.0000 32.7310 0.0000 -8.2932
# 5 -15.9291 -6.5406 -11.9612 0.0000 31.6124 0.0000
# 6 0.0000 0.0000 0.0000 -8.2932 0.0000 32.5856
#
#
#
# Elastic Compliance Matrix: (Units=1/GPa)
#
#
# Indices 1 2 3 4 5 6 
#
# 1 0.010707 -0.004248 0.001612 0.000000 0.005126 0.000000
# 2 -0.004248 0.016396 -0.003947 0.000000 -0.000242 0.000000
# 3 0.001612 -0.003947 0.017201 0.000000 0.006504 0.000000
# 4 0.000000 0.000000 0.000000 0.032658 0.000000 0.008312
# 5 0.005126 -0.000242 0.006504 0.000000 0.036627 0.000000
# 6 0.000000 0.000000 0.000000 0.008312 0.000000 0.032804
#
#
# Mechanical properties :
#
#
# Convention : Reuss Voigt Hill
#
# Bulk Modulus (GPa) = 32.11563 38.55660 35.33611
# Shear Modulus (GPa) = 29.42240 32.91907 31.17073
#
# Velocity S-wave (km/s) = 3.80044 4.01994 3.91173
# Velocity P-wave (km/s) = 5.91805 6.36191 6.14399
#
# Compressibility (1/GPa) = 0.03113748
#
# Stress axis : x y z
#
# Youngs Moduli (GPa) = 93.39707 60.99157 58.13478
#
# Poissons Ratio (x) = 0.25909 -0.09369
# Poissons Ratio (y) = 0.39675 0.22945
# Poissons Ratio (z) = -0.15051 0.24073
#
# Static dielectric constant tensor:
#      x y z
#    x 3.947250 0.000000 -0.022910 
#    y 0.000000 3.798760 0.000000 
#    z -0.022910 0.000000 3.788590 
# 
# 
# High freq. dielectric constant tensor:
#      x y z
#    x 1.817050 0.000000 -0.003110 
#    y 0.000000 1.798240 0.000000 
#    z -0.003110 0.000000 1.807410 
# 
# From -- ./inp_files/50317.got.cif
#   From: 2010.06.25/outbox.cif.g09.slc.cpg/sg13_26_cif.got.tgz:50317.got - 2010.06.28 04:50:58.
