data_PCOD8121193
_publ_section_title
;
Structure prediction by ZEFSAII (Michael W. Deem and Ramdas Pophale) SiO2 
 PCOD8121193
Probable space group: P 2/C
;
_chemical_formula_sum "Si O2"
_cell_formula_units_Z 28
_cell_length_a 13.190072
_cell_length_b 14.868339
_cell_length_c 8.073070
_cell_angle_alpha 90.000000
_cell_angle_beta 128.331349
_cell_angle_gamma 90.000000
_cell_volume 1241.956799
_symmetry_space_group_name_H-M "P 2/C"
_symmetry_group_IT_number 13
_symmetry_cell_setting 'monoclinic'
loop_
_space_group_symop_operation_xyz
x,y,z
-x,y,1/2-z
-x,-y,-z
x,-y,1/2+z
loop_
_atom_site_type_symbol
_atom_site_label
_atom_site_fract_x
_atom_site_fract_y
_atom_site_fract_z
Si Si1 0.500000 0.964138 0.750000
Si Si2 0.050386 0.280284 0.984619
Si Si3 0.840881 0.397333 0.892792
Si Si4 0.500000 0.371320 0.250000
Si Si5 0.960638 0.097077 0.022407
Si Si6 0.228614 0.583988 0.551788
Si Si7 0.409786 0.698865 0.306182
Si Si8 0.654315 0.105429 0.701639
O O1 0.608569 0.022522 0.766877
O O2 0.416395 0.900782 0.546619
O O3 0.000000 0.296801 0.750000
O O4 0.969020 0.335952 0.041709
O O5 0.193234 0.327183 0.128137
O O6 0.045454 0.173901 0.016098
O O7 0.854580 0.499324 0.968986
O O8 0.812533 0.397071 0.672923
O O9 0.723768 0.350718 0.869604
O O10 0.616503 0.432590 0.294282
O O11 0.544833 0.314056 0.456181
O O12 0.000000 0.106106 0.250000
O O13 0.808671 0.108748 0.835446
O O14 0.000000 0.000000 0.000000
O O15 0.500000 0.661889 0.250000
O O16 0.389969 0.804110 0.254836
#
# Coordination Sequence:
#
# PCOD8121193 Si02
#       8
#     2   4   4   2   4   4   4   4
#     4  10  23  40  71  94 130 180 214 295 343 412
#     4  10  22  44  65  93 133 177 223 280 341 407
#     4  10  22  40  64  94 129 173 222 282 336 411
#     4  10  25  42  59 104 130 178 228 275 355 402
#     4  12  26  44  68  99 135 178 225 284 339 411
#     4  10  23  39  65  93 131 174 224 278 344 409
#     4  11  23  40  68  94 137 176 221 287 339 420
#     4  11  22  45  64  99 133 171 233 277 350 414
#
# _framework density 22.545068000000001
#
# number of rings (size 3 to 8) (size 9 to 14) (size 15 to 20)
#    0.000    1.429    2.143    2.143    3.000    3.429 
#    5.143    0.000    0.000    0.000    0.000    0.000 
#    0.000    0.000    0.000    0.000    0.000    0.000 
#
# Total GULP energy -346974.162820 kJ/mol
# GULP energy per Si atom -12391.934386 kJ/mol
# Density = 2.249375 g / cm^3
# Si number density = 22.545068 Si / 1000 Ang^3
#
#
#
# Elastic Constant Matrix: (Units=GPa)
#
#
# Indices 1 2 3 4 5 6 
#
# 1 135.6621 49.7548 30.8197 0.0000 -3.0539 0.0000
# 2 49.7548 121.6702 -0.5870 0.0000 5.9165 0.0000
# 3 30.8197 -0.5870 51.5552 0.0000 6.7857 0.0000
# 4 0.0000 0.0000 0.0000 31.7056 0.0000 7.6510
# 5 -3.0539 5.9165 6.7857 0.0000 18.9997 0.0000
# 6 0.0000 0.0000 0.0000 7.6510 0.0000 54.0732
#
#
#
# Elastic Compliance Matrix: (Units=1/GPa)
#
#
# Indices 1 2 3 4 5 6 
#
# 1 0.010935 -0.004793 -0.007365 0.000000 0.005881 0.000000
# 2 -0.004793 0.010457 0.003688 0.000000 -0.005344 0.000000
# 3 -0.007365 0.003688 0.025340 0.000000 -0.011382 0.000000
# 4 0.000000 0.000000 0.000000 0.032655 0.000000 -0.004620
# 5 0.005881 -0.005344 -0.011382 0.000000 0.059307 0.000000
# 6 0.000000 0.000000 0.000000 -0.004620 0.000000 0.019147
#
#
# Mechanical properties :
#
#
# Convention : Reuss Voigt Hill
#
# Bulk Modulus (GPa) = 33.56867 52.09584 42.83225
# Shear Modulus (GPa) = 27.06917 36.21570 31.64243
#
# Velocity S-wave (km/s) = 3.46883 4.01230 3.75042
# Velocity P-wave (km/s) = 5.56467 6.68000 6.14768
#
# Compressibility (1/GPa) = 0.02978968
#
# Stress axis : x y z
#
# Youngs Moduli (GPa) = 91.45122 95.63319 39.46353
#
# Poissons Ratio (x) = 0.45838 0.29066
# Poissons Ratio (y) = 0.43833 -0.14553
# Poissons Ratio (z) = 0.67358 -0.35267
#
# Static dielectric constant tensor:
#      x y z
#    x 4.862720 0.000000 0.310350 
#    y 0.000000 3.548620 0.000000 
#    z 0.310350 0.000000 4.022480 
# 
# 
# High freq. dielectric constant tensor:
#      x y z
#    x 1.907310 0.000000 -0.003890 
#    y 0.000000 1.891010 0.000000 
#    z -0.003890 0.000000 1.877380 
# 
# From -- ./inp_files/16919.got.cif
#   From: 2010.06.25/outbox.cif.g09.slc.cpg/sg13_9_cif.got.tgz:16919.got - 2010.06.28 04:50:58.
