data_PCOD8121228
_publ_section_title
;
Structure prediction by ZEFSAII (Michael W. Deem and Ramdas Pophale) SiO2 
 PCOD8121228
Probable space group: P 2/C
;
_chemical_formula_sum "Si O2"
_cell_formula_units_Z 26
_cell_length_a 13.993499
_cell_length_b 18.689931
_cell_length_c 5.359536
_cell_angle_alpha 90.000000
_cell_angle_beta 118.029589
_cell_angle_gamma 90.000000
_cell_volume 1237.305125
_symmetry_space_group_name_H-M "P 2/C"
_symmetry_group_IT_number 13
_symmetry_cell_setting 'monoclinic'
loop_
_space_group_symop_operation_xyz
x,y,z
-x,y,1/2-z
-x,-y,-z
x,-y,1/2+z
loop_
_atom_site_type_symbol
_atom_site_label
_atom_site_fract_x
_atom_site_fract_y
_atom_site_fract_z
Si Si1 0.500000 0.815831 0.250000
Si Si2 0.000000 0.363652 0.250000
Si Si3 0.500000 0.726997 0.750000
Si Si4 0.888746 0.262781 0.495992
Si Si5 0.813814 0.454847 0.874732
Si Si6 0.279379 0.315093 0.842630
Si Si7 0.125290 0.957200 0.916250
Si Si8 0.263697 0.173628 0.494201
O O1 0.490686 0.771645 0.488762
O O2 0.615349 0.858268 0.419607
O O3 0.068862 0.417321 0.505461
O O4 0.916798 0.312946 0.296276
O O5 0.390171 0.681402 0.638658
O O6 0.826969 0.312666 0.615116
O O7 0.000000 0.231596 0.750000
O O8 0.809477 0.195923 0.334879
O O9 0.797387 0.497075 0.598224
O O10 0.725488 0.391282 0.801805
O O11 0.277987 0.246301 0.664145
O O12 0.000000 0.934614 0.750000
O O13 0.154109 0.991702 0.683991
O O14 0.197551 0.887279 0.056683
#
# Coordination Sequence:
#
# PCOD8121228 Si02
#       8
#     2   2   2   4   4   4   4   4
#     4  10  22  40  68 104 126 170 226 264 346 372
#     4  12  24  40  56  96 128 174 214 266 342 410
#     4  10  22  42  66  94 132 168 214 298 318 386
#     4  12  22  37  65 101 131 161 223 276 328 396
#     4  12  26  41  61  88 131 175 213 272 336 400
#     4  11  24  42  66  96 128 172 230 268 337 394
#     4  10  25  44  64  98 140 180 217 259 330 396
#     4  11  24  42  70  97 134 174 220 284 317 393
#
# _framework density 21.013411000000001
#
# number of rings (size 3 to 8) (size 9 to 14) (size 15 to 20)
#    0.000    0.923    4.615    1.385    5.385    0.615 
#    0.000    1.538    0.000    0.000    0.000    0.000 
#    0.000    0.000    0.000    0.000    0.000    0.000 
#
# Total GULP energy -322167.630191 kJ/mol
# GULP energy per Si atom -12391.062700 kJ/mol
# Density = 2.096558 g / cm^3
# Si number density = 21.013411 Si / 1000 Ang^3
#
#
#
# Elastic Constant Matrix: (Units=GPa)
#
#
# Indices 1 2 3 4 5 6 
#
# 1 109.6777 38.6571 53.4552 0.0000 21.0914 0.0000
# 2 38.6571 90.0845 32.7504 0.0000 14.5860 0.0000
# 3 53.4552 32.7504 109.0333 0.0000 12.6717 0.0000
# 4 0.0000 0.0000 0.0000 14.0602 0.0000 -9.6700
# 5 21.0914 14.5860 12.6717 0.0000 53.2298 0.0000
# 6 0.0000 0.0000 0.0000 -9.6700 0.0000 17.1710
#
#
#
# Elastic Compliance Matrix: (Units=1/GPa)
#
#
# Indices 1 2 3 4 5 6 
#
# 1 0.013456 -0.003364 -0.005218 0.000000 -0.003168 0.000000
# 2 -0.003364 0.013661 -0.002236 0.000000 -0.001878 0.000000
# 3 -0.005218 -0.002236 0.012434 0.000000 -0.000280 0.000000
# 4 0.000000 0.000000 0.000000 0.116083 0.000000 0.065373
# 5 -0.003168 -0.001878 -0.000280 0.000000 0.020623 0.000000
# 6 0.000000 0.000000 0.000000 0.065373 0.000000 0.095052
#
#
# Mechanical properties :
#
#
# Convention : Reuss Voigt Hill
#
# Bulk Modulus (GPa) = 55.82092 62.05788 58.93940
# Shear Modulus (GPa) = 16.72705 29.15441 22.94073
#
# Velocity S-wave (km/s) = 2.82444 3.72885 3.30770
# Velocity P-wave (km/s) = 6.10399 6.93799 6.53431
#
# Compressibility (1/GPa) = 0.01791443
#
# Stress axis : x y z
#
# Youngs Moduli (GPa) = 74.31738 73.19966 80.42512
#
# Poissons Ratio (x) = 0.24626 0.41968
# Poissons Ratio (y) = 0.25002 0.17982
# Poissons Ratio (z) = 0.38781 0.16366
#
# Static dielectric constant tensor:
#      x y z
#    x 4.557590 0.000000 0.481700 
#    y 0.000000 3.574370 0.000000 
#    z 0.481700 0.000000 4.191100 
# 
# 
# High freq. dielectric constant tensor:
#      x y z
#    x 1.823750 0.000000 0.010880 
#    y 0.000000 1.795710 0.000000 
#    z 0.010880 0.000000 1.843640 
# 
# From -- ./inp_files/5300.got.cif
#   From: 2010.06.25/outbox.cif.g09.slc.cpg/sg13_3_cif.got.tgz:5300.got - 2010.06.28 04:50:58.
