data_PCOD8121726
_publ_section_title
;
Structure prediction by ZEFSAII (Michael W. Deem and Ramdas Pophale) SiO2 
 PCOD8121726
Probable space group: P 2/C
;
_chemical_formula_sum "Si O2"
_cell_formula_units_Z 20
_cell_length_a 28.814424
_cell_length_b 5.098299
_cell_length_c 12.903093
_cell_angle_alpha 90.000000
_cell_angle_beta 27.494465
_cell_angle_gamma 90.000000
_cell_volume 875.092715
_symmetry_space_group_name_H-M "P 2/C"
_symmetry_group_IT_number 13
_symmetry_cell_setting 'monoclinic'
loop_
_space_group_symop_operation_xyz
x,y,z
-x,y,1/2-z
-x,-y,-z
x,-y,1/2+z
loop_
_atom_site_type_symbol
_atom_site_label
_atom_site_fract_x
_atom_site_fract_y
_atom_site_fract_z
Si Si1 0.340299 0.693332 0.065303
Si Si2 0.060723 0.519350 0.719192
Si Si3 0.788372 0.179994 0.201309
Si Si4 0.501826 0.748056 0.923010
Si Si5 0.084838 0.206332 0.359310
O O1 0.298614 0.399189 0.133072
O O2 0.250044 0.898797 0.261686
O O3 0.407366 0.719180 0.034313
O O4 0.398973 0.765468 0.844101
O O5 0.120576 0.272055 0.553415
O O6 0.130257 0.693567 0.657996
O O7 0.000000 0.681682 0.750000
O O8 0.966798 0.437876 0.975377
O O9 0.822768 0.116886 0.251522
O O10 0.500000 0.500000 0.000000
O O11 0.500000 0.000000 0.000000
O O12 0.000000 0.000000 0.500000
#
# Coordination Sequence:
#
# PCOD8121726 Si02
#       5
#     4   4   4   4   4
#     4  11  26  45  67 106 135 169 228 280 333 412
#     4   9  22  40  60  90 127 180 222 273 329 378
#     4  11  25  42  67  98 138 170 223 285 324 390
#     4  11  24  47  74  97 137 179 213 272 353 410
#     4  10  23  40  64  90 132 183 227 268 328 396
#
# _framework density 22.854723
#
# number of rings (size 3 to 8) (size 9 to 14) (size 15 to 20)
#    0.000    1.600    0.000    2.400   11.200    8.800 
#    0.000    0.000    0.000    0.000    0.000    0.000 
#    0.000    0.000    0.000    0.000    0.000    0.000 
#
# Total GULP energy -247805.767947 kJ/mol
# GULP energy per Si atom -12390.288397 kJ/mol
# Density = 2.280270 g / cm^3
# Si number density = 22.854723 Si / 1000 Ang^3
#
#
#
# Elastic Constant Matrix: (Units=GPa)
#
#
# Indices 1 2 3 4 5 6 
#
# 1 187.2931 55.9207 46.2349 0.0000 11.5479 0.0000
# 2 55.9207 94.9351 1.5241 0.0000 9.1494 0.0000
# 3 46.2349 1.5241 61.6733 0.0000 8.8045 0.0000
# 4 0.0000 0.0000 0.0000 37.2640 0.0000 -7.2577
# 5 11.5479 9.1494 8.8045 0.0000 36.5051 0.0000
# 6 0.0000 0.0000 0.0000 -7.2577 0.0000 42.9612
#
#
#
# Elastic Compliance Matrix: (Units=1/GPa)
#
#
# Indices 1 2 3 4 5 6 
#
# 1 0.008264 -0.004775 -0.006084 0.000000 0.000050 0.000000
# 2 -0.004775 0.013554 0.003639 0.000000 -0.002764 0.000000
# 3 -0.006084 0.003639 0.021274 0.000000 -0.004118 0.000000
# 4 0.000000 0.000000 0.000000 0.027749 0.000000 0.004688
# 5 0.000050 -0.002764 -0.004118 0.000000 0.029064 0.000000
# 6 0.000000 0.000000 0.000000 0.004688 0.000000 0.024069
#
#
# Mechanical properties :
#
#
# Convention : Reuss Voigt Hill
#
# Bulk Modulus (GPa) = 34.90181 61.25121 48.07651
# Shear Modulus (GPa) = 33.79230 39.36084 36.57657
#
# Velocity S-wave (km/s) = 3.84939 4.15447 4.00483
# Velocity P-wave (km/s) = 5.92126 7.06195 6.51662
#
# Compressibility (1/GPa) = 0.02865181
#
# Stress axis : x y z
#
# Youngs Moduli (GPa) = 121.01093 73.77853 47.00651
#
# Poissons Ratio (x) = 0.35228 0.28600
# Poissons Ratio (y) = 0.57781 -0.17107
# Poissons Ratio (z) = 0.73626 -0.26850
#
# Static dielectric constant tensor:
#      x y z
#    x 3.517170 0.000000 -0.215320 
#    y 0.000000 3.954800 0.000000 
#    z -0.215320 0.000000 3.999010 
# 
# 
# High freq. dielectric constant tensor:
#      x y z
#    x 1.934570 0.000000 0.012580 
#    y 0.000000 1.896980 0.000000 
#    z 0.012580 0.000000 1.895100 
# 
# From -- ./inp_files/42031.got.cif
#   From: 2010.06.25/outbox.cif.g09.slc.cpg/sg13_22_cif.got.tgz:42031.got - 2010.06.28 04:50:58.
