data_PCOD8121753
_publ_section_title
;
Structure prediction by ZEFSAII (Michael W. Deem and Ramdas Pophale) SiO2 
 PCOD8121753
Probable space group: P 2/C
;
_chemical_formula_sum "Si O2"
_cell_formula_units_Z 22
_cell_length_a 15.240429
_cell_length_b 12.709284
_cell_length_c 12.820092
_cell_angle_alpha 90.000000
_cell_angle_beta 26.829747
_cell_angle_gamma 90.000000
_cell_volume 1120.763824
_symmetry_space_group_name_H-M "P 2/C"
_symmetry_group_IT_number 13
_symmetry_cell_setting 'monoclinic'
loop_
_space_group_symop_operation_xyz
x,y,z
-x,y,1/2-z
-x,-y,-z
x,-y,1/2+z
loop_
_atom_site_type_symbol
_atom_site_label
_atom_site_fract_x
_atom_site_fract_y
_atom_site_fract_z
Si Si1 0.224060 0.974867 0.760454
Si Si2 0.333919 0.222346 0.009303
Si Si3 0.466882 0.341640 0.068242
Si Si4 0.481020 0.122177 0.149584
Si Si5 0.000000 0.654894 0.750000
Si Si6 0.814162 0.527179 0.128996
O O1 0.274108 0.887741 0.622270
O O2 0.289351 0.934830 0.805962
O O3 0.334471 0.082040 0.612710
O O4 0.000000 0.000000 0.000000
O O5 0.419201 0.302437 0.003022
O O6 0.141737 0.271048 0.164398
O O7 0.500000 0.198548 0.750000
O O8 0.469777 0.247583 0.148416
O O9 0.300693 0.422004 0.281523
O O10 0.676454 0.397668 0.844449
O O11 0.500000 0.092717 0.250000
O O12 0.126618 0.582177 0.540676
O O13 0.000000 0.500000 0.000000
#
# Coordination Sequence:
#
# PCOD8121753 Si02
#       6
#     4   4   4   4   2   4
#     4  10  24  41  67  93 130 165 214 266 319 379
#     4  11  22  40  63  93 125 167 214 266 318 381
#     4  10  23  41  62  86 132 165 204 268 322 370
#     4  10  23  43  63  94 127 167 208 261 325 383
#     4  12  24  36  68  94 124 170 230 260 320 386
#     4  11  23  40  61  93 127 166 215 266 313 381
#
# _framework density 19.629470000000001
#
# number of rings (size 3 to 8) (size 9 to 14) (size 15 to 20)
#    0.000    1.455    3.636    0.545    2.545    5.091 
#    0.000    0.000    0.000    0.000    0.000    0.000 
#    0.000    0.000    0.000    0.000    0.000    0.000 
#
# Total GULP energy -272915.421750 kJ/mol
# GULP energy per Si atom -12405.246443 kJ/mol
# Density = 1.958479 g / cm^3
# Si number density = 19.629470 Si / 1000 Ang^3
#
#
#
# Elastic Constant Matrix: (Units=GPa)
#
#
# Indices 1 2 3 4 5 6 
#
# 1 124.0264 44.7265 50.3953 0.0000 -7.8349 0.0000
# 2 44.7265 112.1841 51.4101 0.0000 -8.6095 0.0000
# 3 50.3953 51.4101 126.9004 0.0000 -20.8441 0.0000
# 4 0.0000 0.0000 0.0000 31.5979 0.0000 -4.6047
# 5 -7.8349 -8.6095 -20.8441 0.0000 37.4539 0.0000
# 6 0.0000 0.0000 0.0000 -4.6047 0.0000 22.0168
#
#
#
# Elastic Compliance Matrix: (Units=1/GPa)
#
#
# Indices 1 2 3 4 5 6 
#
# 1 0.010252 -0.002728 -0.002990 0.000000 -0.000147 0.000000
# 2 -0.002728 0.011672 -0.003630 0.000000 0.000092 0.000000
# 3 -0.002990 -0.003630 0.011335 0.000000 0.004848 0.000000
# 4 0.000000 0.000000 0.000000 0.032643 0.000000 0.006827
# 5 -0.000147 0.000092 0.004848 0.000000 0.029388 0.000000
# 6 0.000000 0.000000 0.000000 0.006827 0.000000 0.046848
#
#
# Mechanical properties :
#
#
# Convention : Reuss Voigt Hill
#
# Bulk Modulus (GPa) = 68.67220 72.90829 70.79025
# Shear Modulus (GPa) = 30.17700 32.65233 31.41466
#
# Velocity S-wave (km/s) = 3.92514 4.08295 4.00482
# Velocity P-wave (km/s) = 7.45670 7.71039 7.58461
#
# Compressibility (1/GPa) = 0.01456193
#
# Stress axis : x y z
#
# Youngs Moduli (GPa) = 97.53723 85.67276 88.22520
#
# Poissons Ratio (x) = 0.23376 0.26381
# Poissons Ratio (y) = 0.26613 0.32026
# Poissons Ratio (z) = 0.29166 0.31100
#
# Static dielectric constant tensor:
#      x y z
#    x 3.667820 0.000000 -0.122620 
#    y 0.000000 3.777590 0.000000 
#    z -0.122620 0.000000 3.528680 
# 
# 
# High freq. dielectric constant tensor:
#      x y z
#    x 1.768560 0.000000 -0.010410 
#    y 0.000000 1.781580 0.000000 
#    z -0.010410 0.000000 1.766450 
# 
# From -- ./inp_files/55606.got.cif
#   From: 2010.06.25/outbox.cif.g09.slc.cpg/sg13_28_cif.got.tgz:55606.got - 2010.06.28 04:50:58.
