data_PCOD8121686
_publ_section_title
;
Structure prediction by ZEFSAII (Michael W. Deem and Ramdas Pophale) SiO2 
 PCOD8121686
Probable space group: P 2/C
;
_chemical_formula_sum "Si O2"
_cell_formula_units_Z 30
_cell_length_a 12.076799
_cell_length_b 8.734180
_cell_length_c 30.149556
_cell_angle_alpha 90.000000
_cell_angle_beta 152.859268
_cell_angle_gamma 90.000000
_cell_volume 1450.737715
_symmetry_space_group_name_H-M "P 2/C"
_symmetry_group_IT_number 13
_symmetry_cell_setting 'monoclinic'
loop_
_space_group_symop_operation_xyz
x,y,z
-x,y,1/2-z
-x,-y,-z
x,-y,1/2+z
loop_
_atom_site_type_symbol
_atom_site_label
_atom_site_fract_x
_atom_site_fract_y
_atom_site_fract_z
Si Si1 0.816095 0.793498 0.594893
Si Si2 0.790193 0.934620 0.020095
Si Si3 0.268463 0.224595 0.697948
Si Si4 0.926492 0.499858 0.826129
Si Si5 0.606954 0.882601 0.160087
Si Si6 0.000000 0.084225 0.250000
Si Si7 0.583625 0.334223 0.497747
Si Si8 0.727013 0.571745 0.166642
O O1 0.984007 0.669939 0.628209
O O2 0.538723 0.732619 0.500796
O O3 0.893664 0.804896 0.674275
O O4 0.832495 0.956161 0.577531
O O5 0.047435 0.866517 0.095425
O O6 0.616401 0.796033 0.972535
O O7 0.653627 0.029492 0.932822
O O8 0.500000 0.206464 0.750000
O O9 0.309944 0.145555 0.760212
O O10 0.205411 0.406031 0.681041
O O11 0.745281 0.518164 0.720137
O O12 0.156704 0.395912 0.893683
O O13 0.570795 0.724277 0.120918
O O14 0.798484 0.980592 0.201085
O O15 0.415849 0.469777 0.419477
O O16 0.000000 0.613978 0.250000
#
# Coordination Sequence:
#
# PCOD8121686 Si02
#       8
#     4   4   4   4   4   2   4   4
#     4  12  21  35  58  93 136 163 200 247 317 393
#     4  11  24  37  63  95 127 169 209 259 323 376
#     4  10  24  48  66  85 122 168 224 278 312 356
#     4  10  23  37  60  86 116 167 217 250 314 368
#     4  11  23  38  62  95 131 167 210 254 320 386
#     4  12  22  34  60  98 142 166 192 248 320 396
#     4  11  22  35  54  89 132 171 197 249 303 394
#     4  11  21  34  54  86 128 170 202 240 298 372
#
# _framework density 20.679134000000001
#
# number of rings (size 3 to 8) (size 9 to 14) (size 15 to 20)
#    0.000    1.067    4.667    2.400    1.867    0.533 
#    0.000    0.667    0.000   20.000    0.000    0.000 
#    0.000    0.000    0.000    0.000    0.000    0.000 
#
# Total GULP energy -371907.238453 kJ/mol
# GULP energy per Si atom -12396.907948 kJ/mol
# Density = 2.063207 g / cm^3
# Si number density = 20.679134 Si / 1000 Ang^3
#
#
#
# Elastic Constant Matrix: (Units=GPa)
#
#
# Indices 1 2 3 4 5 6 
#
# 1 65.9723 33.2944 28.0382 0.0000 25.1650 0.0000
# 2 33.2944 88.0260 15.2024 0.0000 14.3411 0.0000
# 3 28.0382 15.2024 63.3682 0.0000 9.9304 0.0000
# 4 0.0000 0.0000 0.0000 27.6453 0.0000 -1.2783
# 5 25.1650 14.3411 9.9304 0.0000 30.4620 0.0000
# 6 0.0000 0.0000 0.0000 -1.2783 0.0000 20.4943
#
#
#
# Elastic Compliance Matrix: (Units=1/GPa)
#
#
# Indices 1 2 3 4 5 6 
#
# 1 0.028924 -0.006545 -0.008395 0.000000 -0.018076 0.000000
# 2 -0.006545 0.014071 -0.000304 0.000000 -0.001118 0.000000
# 3 -0.008395 -0.000304 0.019453 0.000000 0.000737 0.000000
# 4 0.000000 0.000000 0.000000 0.036277 0.000000 0.002263
# 5 -0.018076 -0.001118 0.000737 0.000000 0.048047 0.000000
# 6 0.000000 0.000000 0.000000 0.002263 0.000000 0.048935
#
#
# Mechanical properties :
#
#
# Convention : Reuss Voigt Hill
#
# Bulk Modulus (GPa) = 31.29070 41.15962 36.22516
# Shear Modulus (GPa) = 21.11053 25.10910 23.10981
#
# Velocity S-wave (km/s) = 3.19856 3.48835 3.34659
# Velocity P-wave (km/s) = 5.36707 6.01431 5.69988
#
# Compressibility (1/GPa) = 0.03195838
#
# Stress axis : x y z
#
# Youngs Moduli (GPa) = 34.57320 71.07009 51.40654
#
# Poissons Ratio (x) = 0.46517 0.43155
# Poissons Ratio (y) = 0.22629 0.01565
# Poissons Ratio (z) = 0.29024 0.02163
#
# Static dielectric constant tensor:
#      x y z
#    x 3.261920 0.000000 0.010120 
#    y 0.000000 3.983150 0.000000 
#    z 0.010120 0.000000 3.991980 
# 
# 
# High freq. dielectric constant tensor:
#      x y z
#    x 1.747420 0.000000 -0.004570 
#    y 0.000000 1.827940 0.000000 
#    z -0.004570 0.000000 1.826980 
# 
# From -- ./inp_files/86379.got.cif
#   From: 2010.06.25/outbox.cif.g09.slc.cpg/sg13_44_cif.got.tgz:86379.got - 2010.06.28 04:50:58.
