data_PCOD8121025
_publ_section_title
;
Structure prediction by ZEFSAII (Michael W. Deem and Ramdas Pophale) SiO2 
 PCOD8121025
Probable space group: P 2/C
;
_chemical_formula_sum "Si O2"
_cell_formula_units_Z 28
_cell_length_a 16.199657
_cell_length_b 8.874653
_cell_length_c 14.120005
_cell_angle_alpha 90.000000
_cell_angle_beta 139.331792
_cell_angle_gamma 90.000000
_cell_volume 1322.893451
_symmetry_space_group_name_H-M "P 2/C"
_symmetry_group_IT_number 13
_symmetry_cell_setting 'monoclinic'
loop_
_space_group_symop_operation_xyz
x,y,z
-x,y,1/2-z
-x,-y,-z
x,-y,1/2+z
loop_
_atom_site_type_symbol
_atom_site_label
_atom_site_fract_x
_atom_site_fract_y
_atom_site_fract_z
Si Si1 0.356199 0.871993 0.954601
Si Si2 0.380071 0.002084 0.271097
Si Si3 0.358075 0.550134 0.869513
Si Si4 0.366932 0.330392 0.175067
Si Si5 0.000000 0.348490 0.250000
Si Si6 0.170778 0.902847 0.961325
Si Si7 0.000000 0.153837 0.750000
Si Si8 0.822805 0.603403 0.158224
O O1 0.345533 0.968975 0.849941
O O2 0.346282 0.695701 0.925469
O O3 0.239390 0.913099 0.919401
O O4 0.486786 0.914768 0.121469
O O5 0.384531 0.154318 0.213482
O O6 0.271120 0.894835 0.133849
O O7 0.323764 0.581164 0.731146
O O8 0.269137 0.415239 0.831385
O O9 0.500000 0.500000 0.000000
O O10 0.500000 0.392450 0.250000
O O11 0.257566 0.363895 0.005690
O O12 0.919196 0.243068 0.108440
O O13 0.903024 0.449998 0.224418
O O14 0.085892 0.053110 0.894318
O O15 0.918444 0.256743 0.751676
#
# Coordination Sequence:
#
# PCOD8121025 Si02
#       8
#     4   4   4   4   2   4   2   4
#     4  10  22  39  64  99 136 161 218 282 330 392
#     4  10  22  38  66 100 129 166 214 278 338 383
#     4  11  23  40  64  98 132 170 212 272 335 398
#     4  11  21  38  67  96 125 169 218 266 337 399
#     4  10  24  40  64  90 132 180 216 272 310 392
#     4  11  20  43  64  92 126 177 222 266 327 377
#     4  10  24  38  70  90 126 188 222 266 316 390
#     4  11  22  45  61  93 136 170 221 269 326 388
#
# _framework density 21.165725999999999
#
# number of rings (size 3 to 8) (size 9 to 14) (size 15 to 20)
#    0.000    1.429    4.286    1.286    0.000    2.286 
#    2.571    8.571    0.000    0.000    0.000    0.000 
#    0.000    0.000    0.000    0.000    0.000    0.000 
#
# Total GULP energy -347251.731608 kJ/mol
# GULP energy per Si atom -12401.847557 kJ/mol
# Density = 2.111755 g / cm^3
# Si number density = 21.165726 Si / 1000 Ang^3
#
#
#
# Elastic Constant Matrix: (Units=GPa)
#
#
# Indices 1 2 3 4 5 6 
#
# 1 105.9187 34.5412 53.5213 0.0000 12.8546 0.0000
# 2 34.5412 84.7313 43.0188 0.0000 7.6315 0.0000
# 3 53.5213 43.0188 125.8154 0.0000 7.6203 0.0000
# 4 0.0000 0.0000 0.0000 30.6132 0.0000 8.2589
# 5 12.8546 7.6315 7.6203 0.0000 31.9733 0.0000
# 6 0.0000 0.0000 0.0000 8.2589 0.0000 29.5548
#
#
#
# Elastic Compliance Matrix: (Units=1/GPa)
#
#
# Indices 1 2 3 4 5 6 
#
# 1 0.012971 -0.002756 -0.004363 0.000000 -0.003517 0.000000
# 2 -0.002756 0.015032 -0.003873 0.000000 -0.001557 0.000000
# 3 -0.004363 -0.003873 0.011127 0.000000 0.000027 0.000000
# 4 0.000000 0.000000 0.000000 0.035329 0.000000 -0.009872
# 5 -0.003517 -0.001557 0.000027 0.000000 0.033055 0.000000
# 6 0.000000 0.000000 0.000000 -0.009872 0.000000 0.036594
#
#
# Mechanical properties :
#
#
# Convention : Reuss Voigt Hill
#
# Bulk Modulus (GPa) = 58.32042 64.29202 61.30622
# Shear Modulus (GPa) = 29.10227 30.78719 29.94473
#
# Velocity S-wave (km/s) = 3.71208 3.81803 3.76543
# Velocity P-wave (km/s) = 6.78135 7.06243 6.92332
#
# Compressibility (1/GPa) = 0.01714665
#
# Stress axis : x y z
#
# Youngs Moduli (GPa) = 77.09333 66.52395 89.87459
#
# Poissons Ratio (x) = 0.18335 0.39208
# Poissons Ratio (y) = 0.21248 0.34809
# Poissons Ratio (z) = 0.33632 0.25765
#
# Static dielectric constant tensor:
#      x y z
#    x 3.853820 0.000000 0.155340 
#    y 0.000000 3.803460 0.000000 
#    z 0.155340 0.000000 3.993040 
# 
# 
# High freq. dielectric constant tensor:
#      x y z
#    x 1.828080 0.000000 0.019920 
#    y 0.000000 1.833950 0.000000 
#    z 0.019920 0.000000 1.827700 
# 
# From -- ./inp_files/55350.got.cif
#   From: 2010.06.25/outbox.cif.g09.slc.cpg/sg13_28_cif.got.tgz:55350.got - 2010.06.28 04:50:58.
