data_PCOD8121668
_publ_section_title
;
Structure prediction by ZEFSAII (Michael W. Deem and Ramdas Pophale) SiO2 
 PCOD8121668
Probable space group: P 2/C
;
_chemical_formula_sum "Si O2"
_cell_formula_units_Z 20
_cell_length_a 10.174970
_cell_length_b 11.335918
_cell_length_c 7.071521
_cell_angle_alpha 90.000000
_cell_angle_beta 56.694880
_cell_angle_gamma 90.000000
_cell_volume 681.684415
_symmetry_space_group_name_H-M "P 2/C"
_symmetry_group_IT_number 13
_symmetry_cell_setting 'monoclinic'
loop_
_space_group_symop_operation_xyz
x,y,z
-x,y,1/2-z
-x,-y,-z
x,-y,1/2+z
loop_
_atom_site_type_symbol
_atom_site_label
_atom_site_fract_x
_atom_site_fract_y
_atom_site_fract_z
Si Si1 0.815716 0.326765 0.359336
Si Si2 0.717836 0.449045 0.791795
Si Si3 0.249975 0.849552 0.966301
Si Si4 0.000000 0.314201 0.750000
Si Si5 0.500000 0.324088 0.250000
Si Si6 0.317347 0.886831 0.347127
O O1 0.702542 0.397588 0.595824
O O2 0.752751 0.408389 0.231600
O O3 0.766872 0.189120 0.420762
O O4 0.000000 0.343457 0.250000
O O5 0.880213 0.394869 0.737362
O O6 0.566301 0.410490 0.035084
O O7 0.088676 0.779246 0.036068
O O8 0.284014 0.832885 0.165853
O O9 0.377536 0.770787 0.754829
O O10 0.241957 0.983188 0.907046
O O11 0.500000 0.900796 0.250000
#
# Coordination Sequence:
#
# PCOD8121668 Si02
#       6
#     4   4   4   2   2   4
#     4  12  27  47  70 109 143 188 242 290 357 426
#     4  11  25  46  73 105 146 186 239 293 360 417
#     4  11  25  46  73 105 146 186 239 293 360 417
#     4  10  22  46  74 102 144 186 236 296 354 416
#     4  10  22  46  74 102 144 186 236 296 354 416
#     4  12  27  47  70 109 143 188 242 290 357 426
#
# _framework density 29.339091
#
# number of rings (size 3 to 8) (size 9 to 14) (size 15 to 20)
#    0.000    0.800    6.000    1.200    2.800    4.800 
#    0.000    0.000    0.000    0.000    0.000    0.000 
#    0.000    0.000    0.000    0.000    0.000    0.000 
#
# Total GULP energy -247878.625977 kJ/mol
# GULP energy per Si atom -12393.931299 kJ/mol
# Density = 2.927231 g / cm^3
# Si number density = 29.339091 Si / 1000 Ang^3
#
#
#
# Elastic Constant Matrix: (Units=GPa)
#
#
# Indices 1 2 3 4 5 6 
#
# 1 43.0060 24.3261 14.0508 0.0000 -0.3187 0.0000
# 2 24.3261 255.2636 36.8218 0.0000 -20.3499 0.0000
# 3 14.0508 36.8218 89.7023 0.0000 -27.0498 0.0000
# 4 0.0000 0.0000 0.0000 251.5195 0.0000 36.7160
# 5 -0.3187 -20.3499 -27.0498 0.0000 51.5011 0.0000
# 6 0.0000 0.0000 0.0000 36.7160 0.0000 -22.5991
#
#
#
# Elastic Compliance Matrix: (Units=1/GPa)
#
#
# Indices 1 2 3 4 5 6 
#
# 1 0.025726 -0.002095 -0.004006 0.000000 -0.002772 0.000000
# 2 -0.002095 0.004369 -0.001127 0.000000 0.001121 0.000000
# 3 -0.004006 -0.001127 0.014373 0.000000 0.007079 0.000000
# 4 0.000000 0.000000 0.000000 0.003214 0.000000 0.005221
# 5 -0.002772 0.001121 0.007079 0.000000 0.023561 0.000000
# 6 0.000000 0.000000 0.000000 0.005221 0.000000 -0.035767
#
#
# Mechanical properties :
#
#
# Convention : Reuss Voigt Hill
#
# Bulk Modulus (GPa) = 33.31997 59.81882 46.56940
# Shear Modulus (GPa) = 83.42385 76.93585 80.17985
#
# Velocity S-wave (km/s) = 5.33817 5.12639 5.23336
# Velocity P-wave (km/s) = 7.02683 7.44801 7.24048
#
# Compressibility (1/GPa) = 0.03001203
#
# Stress axis : x y z
#
# Youngs Moduli (GPa) = 38.87165 228.87761 69.57600
#
# Poissons Ratio (x) = 0.47945 0.27871
# Poissons Ratio (y) = 0.08143 0.07843
# Poissons Ratio (z) = 0.15571 0.25799
#
# Static dielectric constant tensor:
#      x y z
#    x 5.646990 0.000000 0.348090 
#    y 0.000000 5.912520 0.000000 
#    z 0.348090 0.000000 6.730580 
# 
# 
# High freq. dielectric constant tensor:
#      x y z
#    x 2.203020 0.000000 0.001460 
#    y 0.000000 2.230390 0.000000 
#    z 0.001460 0.000000 2.212830 
# 
# From -- ./inp_files/15751.got.cif
#   From: 2010.06.25/outbox.cif.g09.slc.cpg/sg13_8_cif.got.tgz:15751.got - 2010.06.28 04:50:58.
