data_PCOD8121112
_publ_section_title
;
Structure prediction by ZEFSAII (Michael W. Deem and Ramdas Pophale) SiO2 
 PCOD8121112
Probable space group: P 2/C
;
_chemical_formula_sum "Si O2"
_cell_formula_units_Z 24
_cell_length_a 14.346068
_cell_length_b 6.072874
_cell_length_c 27.582798
_cell_angle_alpha 90.000000
_cell_angle_beta 27.978194
_cell_angle_gamma 90.000000
_cell_volume 1127.362965
_symmetry_space_group_name_H-M "P 2/C"
_symmetry_group_IT_number 13
_symmetry_cell_setting 'monoclinic'
loop_
_space_group_symop_operation_xyz
x,y,z
-x,y,1/2-z
-x,-y,-z
x,-y,1/2+z
loop_
_atom_site_type_symbol
_atom_site_label
_atom_site_fract_x
_atom_site_fract_y
_atom_site_fract_z
Si Si1 0.180370 0.381209 0.559454
Si Si2 0.954068 0.316645 0.460175
Si Si3 0.440854 0.925469 0.599861
Si Si4 0.362773 0.309909 0.043447
Si Si5 0.854397 0.936914 0.184486
Si Si6 0.723746 0.357369 0.658972
O O1 0.168991 0.496645 0.512210
O O2 0.382766 0.242910 0.468908
O O3 0.175552 0.570101 0.603667
O O4 0.986457 0.229922 0.656215
O O5 0.827023 0.243065 0.565076
O O6 0.165708 0.414982 0.379431
O O7 0.990006 0.104571 0.410761
O O8 0.309222 0.844978 0.613856
O O9 0.526181 0.166711 0.548822
O O10 0.298173 0.934745 0.711419
O O11 0.500000 0.500000 0.000000
O O12 0.729522 0.811830 0.200859
O O13 0.500000 0.421144 0.750000
#
# Coordination Sequence:
#
# PCOD8121112 Si02
#       6
#     4   4   4   4   4   4
#     4  10  22  39  65  90 129 169 205 266 311 380
#     4  10  23  43  61  93 134 163 216 260 319 377
#     4  10  22  41  66  94 124 168 214 258 319 377
#     4   9  20  41  63  90 127 163 208 259 314 379
#     4  11  24  40  65  97 126 165 217 263 319 376
#     4  10  24  40  64  96 128 170 212 262 319 381
#
# _framework density 21.288616999999999
#
# number of rings (size 3 to 8) (size 9 to 14) (size 15 to 20)
#    0.000    2.000    0.000    1.500    7.000    4.667 
#    0.000   20.000    0.000    0.000    0.000    0.000 
#    0.000    0.000    0.000    0.000    0.000    0.000 
#
# Total GULP energy -297608.874624 kJ/mol
# GULP energy per Si atom -12400.369776 kJ/mol
# Density = 2.124016 g / cm^3
# Si number density = 21.288617 Si / 1000 Ang^3
#
#
#
# Elastic Constant Matrix: (Units=GPa)
#
#
# Indices 1 2 3 4 5 6 
#
# 1 132.9632 49.1542 61.6248 0.0000 -10.6889 0.0000
# 2 49.1542 93.7583 30.9461 0.0000 -7.0760 0.0000
# 3 61.6248 30.9461 96.3658 0.0000 3.3924 0.0000
# 4 0.0000 0.0000 0.0000 23.1516 0.0000 1.5347
# 5 -10.6889 -7.0760 3.3924 0.0000 30.6864 0.0000
# 6 0.0000 0.0000 0.0000 1.5347 0.0000 34.4303
#
#
#
# Elastic Compliance Matrix: (Units=1/GPa)
#
#
# Indices 1 2 3 4 5 6 
#
# 1 0.012514 -0.003975 -0.006874 0.000000 0.004202 0.000000
# 2 -0.003975 0.013511 -0.001865 0.000000 0.001937 0.000000
# 3 -0.006874 -0.001865 0.015532 0.000000 -0.004542 0.000000
# 4 0.000000 0.000000 0.000000 0.043322 0.000000 -0.001931
# 5 0.004202 0.001937 -0.004542 0.000000 0.035000 0.000000
# 6 0.000000 0.000000 0.000000 -0.001931 0.000000 0.029130
#
#
# Mechanical properties :
#
#
# Convention : Reuss Voigt Hill
#
# Bulk Modulus (GPa) = 61.99987 67.39306 64.69646
# Shear Modulus (GPa) = 27.80648 29.74447 28.77547
#
# Velocity S-wave (km/s) = 3.61801 3.74197 3.68051
# Velocity P-wave (km/s) = 6.82935 7.09897 6.96547
#
# Compressibility (1/GPa) = 0.01612907
#
# Stress axis : x y z
#
# Youngs Moduli (GPa) = 79.91032 74.01161 64.38325
#
# Poissons Ratio (x) = 0.29417 0.44258
# Poissons Ratio (y) = 0.31761 0.12010
# Poissons Ratio (z) = 0.54931 0.13806
#
# Static dielectric constant tensor:
#      x y z
#    x 4.388130 0.000000 0.125750 
#    y 0.000000 4.047190 0.000000 
#    z 0.125750 0.000000 3.433040 
# 
# 
# High freq. dielectric constant tensor:
#      x y z
#    x 1.857460 0.000000 0.005290 
#    y 0.000000 1.844870 0.000000 
#    z 0.005290 0.000000 1.802650 
# 
# From -- ./inp_files/52111.got.cif
#   From: 2010.06.25/outbox.cif.g09.slc.cpg/sg13_27_cif.got.tgz:52111.got - 2010.06.28 04:50:58.
