data_PCOD8121468
_publ_section_title
;
Structure prediction by ZEFSAII (Michael W. Deem and Ramdas Pophale) SiO2 
 PCOD8121468
Probable space group: P 2/C
;
_chemical_formula_sum "Si O2"
_cell_formula_units_Z 26
_cell_length_a 8.883934
_cell_length_b 11.089535
_cell_length_c 14.348209
_cell_angle_alpha 90.000000
_cell_angle_beta 61.313635
_cell_angle_gamma 90.000000
_cell_volume 1240.066254
_symmetry_space_group_name_H-M "P 2/C"
_symmetry_group_IT_number 13
_symmetry_cell_setting 'monoclinic'
loop_
_space_group_symop_operation_xyz
x,y,z
-x,y,1/2-z
-x,-y,-z
x,-y,1/2+z
loop_
_atom_site_type_symbol
_atom_site_label
_atom_site_fract_x
_atom_site_fract_y
_atom_site_fract_z
Si Si1 0.607678 0.836043 0.495063
Si Si2 0.114690 0.643748 0.053738
Si Si3 0.566372 0.941491 0.126368
Si Si4 0.233539 0.704063 0.432760
Si Si5 0.403632 0.520647 0.863852
Si Si6 0.000000 0.464444 0.250000
Si Si7 0.669173 0.643351 0.893059
O O1 0.767712 0.746864 0.434266
O O2 0.581315 0.894811 0.400585
O O3 0.435026 0.769107 0.584942
O O4 0.649654 0.937319 0.559546
O O5 0.048883 0.550041 0.149587
O O6 0.956225 0.705500 0.050091
O O7 0.220918 0.580312 0.939980
O O8 0.500000 0.966817 0.250000
O O9 0.713911 0.842095 0.086444
O O10 0.366284 0.616399 0.338421
O O11 0.248239 0.638138 0.529026
O O12 0.500000 0.589180 0.750000
O O13 0.533856 0.534085 0.913313
O O14 0.164810 0.377853 0.223714
#
# Coordination Sequence:
#
# PCOD8121468 Si02
#       7
#     4   4   4   4   4   2   4
#     4   9  23  45  64  90 130 165 219 274 310 391
#     4  11  25  39  63  97 134 165 209 264 329 386
#     4  10  22  42  70  89 117 175 226 263 322 379
#     4  11  22  39  62  97 129 164 214 269 314 382
#     4  11  22  38  61  91 130 174 212 257 319 394
#     4  12  24  38  66  98 136 166 204 266 326 392
#     4  10  23  39  63  91 130 170 205 260 320 382
#
# _framework density 20.966621
#
# number of rings (size 3 to 8) (size 9 to 14) (size 15 to 20)
#    0.000    1.538    1.538    2.308    8.615    3.077 
#    0.000    0.000    0.000    0.000    0.000    0.000 
#    0.000    0.000    0.000    0.000    0.000    0.000 
#
# Total GULP energy -322117.261280 kJ/mol
# GULP energy per Si atom -12389.125434 kJ/mol
# Density = 2.091890 g / cm^3
# Si number density = 20.966621 Si / 1000 Ang^3
#
#
#
# Elastic Constant Matrix: (Units=GPa)
#
#
# Indices 1 2 3 4 5 6 
#
# 1 102.6265 33.5850 39.2799 0.0000 -6.9643 0.0000
# 2 33.5850 80.0810 30.0648 0.0000 -0.3986 0.0000
# 3 39.2799 30.0648 125.3187 0.0000 1.9808 0.0000
# 4 0.0000 0.0000 0.0000 25.6561 0.0000 -2.9834
# 5 -6.9643 -0.3986 1.9808 0.0000 28.4216 0.0000
# 6 0.0000 0.0000 0.0000 -2.9834 0.0000 25.9148
#
#
#
# Elastic Compliance Matrix: (Units=1/GPa)
#
#
# Indices 1 2 3 4 5 6 
#
# 1 0.012434 -0.004084 -0.002968 0.000000 0.003196 0.000000
# 2 -0.004084 0.015070 -0.002325 0.000000 -0.000627 0.000000
# 3 -0.002968 -0.002325 0.009490 0.000000 -0.001421 0.000000
# 4 0.000000 0.000000 0.000000 0.039506 0.000000 0.004548
# 5 0.003196 -0.000627 -0.001421 0.000000 0.036058 0.000000
# 6 0.000000 0.000000 0.000000 0.004548 0.000000 0.039112
#
#
# Mechanical properties :
#
#
# Convention : Reuss Voigt Hill
#
# Bulk Modulus (GPa) = 54.82783 57.09840 55.96312
# Shear Modulus (GPa) = 28.32797 29.67160 28.99979
#
# Velocity S-wave (km/s) = 3.67972 3.76597 3.72309
# Velocity P-wave (km/s) = 6.65286 6.79722 6.72543
#
# Compressibility (1/GPa) = 0.01823891
#
# Stress axis : x y z
#
# Youngs Moduli (GPa) = 80.42783 66.35633 105.37171
#
# Poissons Ratio (x) = 0.27102 0.31272
# Poissons Ratio (y) = 0.32850 0.24502
# Poissons Ratio (z) = 0.23870 0.15430
#
# Static dielectric constant tensor:
#      x y z
#    x 3.943240 0.000000 -0.068100 
#    y 0.000000 3.840330 0.000000 
#    z -0.068100 0.000000 3.892920 
# 
# 
# High freq. dielectric constant tensor:
#      x y z
#    x 1.828020 0.000000 0.004140 
#    y 0.000000 1.813100 0.000000 
#    z 0.004140 0.000000 1.817880 
# 
# From -- ./inp_files/46794.got.cif
#   From: 2010.06.25/outbox.cif.g09.slc.cpg/sg13_24_cif.got.tgz:46794.got - 2010.06.28 04:50:58.
