data_PCOD8121638
_publ_section_title
;
Structure prediction by ZEFSAII (Michael W. Deem and Ramdas Pophale) SiO2 
 PCOD8121638
Probable space group: P 2/C
;
_chemical_formula_sum "Si O2"
_cell_formula_units_Z 30
_cell_length_a 9.252237
_cell_length_b 14.904096
_cell_length_c 11.464267
_cell_angle_alpha 90.000000
_cell_angle_beta 65.279610
_cell_angle_gamma 90.000000
_cell_volume 1436.006485
_symmetry_space_group_name_H-M "P 2/C"
_symmetry_group_IT_number 13
_symmetry_cell_setting 'monoclinic'
loop_
_space_group_symop_operation_xyz
x,y,z
-x,y,1/2-z
-x,-y,-z
x,-y,1/2+z
loop_
_atom_site_type_symbol
_atom_site_label
_atom_site_fract_x
_atom_site_fract_y
_atom_site_fract_z
Si Si1 0.688482 0.300055 0.803183
Si Si2 0.353344 0.764652 0.442456
Si Si3 0.318958 0.174949 0.291341
Si Si4 0.405883 0.499016 0.656965
Si Si5 0.183268 0.332997 0.202192
Si Si6 0.898240 0.069711 0.961254
Si Si7 0.000000 0.203204 0.750000
Si Si8 0.659790 0.054881 0.438330
O O1 0.685786 0.264862 0.673323
O O2 0.532441 0.262257 0.921372
O O3 0.691623 0.407010 0.805369
O O4 0.844594 0.264716 0.815337
O O5 0.233566 0.711139 0.564159
O O6 0.333114 0.871724 0.460109
O O7 0.500000 0.207713 0.250000
O O8 0.212532 0.261408 0.295719
O O9 0.238075 0.124178 0.425098
O O10 0.324336 0.102876 0.188566
O O11 0.500000 0.506469 0.750000
O O12 0.500000 0.500000 0.500000
O O13 0.279370 0.578004 0.698897
O O14 0.000000 0.358796 0.250000
O O15 0.013882 0.141123 0.860213
O O16 0.807663 0.012295 0.894311
O O17 0.000000 0.000000 0.000000
O O18 0.500000 0.000000 0.500000
#
# Coordination Sequence:
#
# PCOD8121638 Si02
#       8
#     4   4   4   4   4   4   2   4
#     4  11  23  44  69  99 137 179 232 282 357 421
#     4  10  22  45  68  95 139 185 221 286 355 422
#     4  11  25  43  67  96 135 183 233 287 354 425
#     4  12  24  49  77 106 141 186 239 292 363 446
#     4  11  26  43  72 105 139 178 231 290 360 417
#     4  12  26  44  64  97 138 178 231 293 353 403
#     4  12  28  40  68  98 138 178 232 290 348 416
#     4  11  22  40  68  97 131 176 239 282 341 425
#
# _framework density 20.891271
#
# number of rings (size 3 to 8) (size 9 to 14) (size 15 to 20)
#    0.000    0.800    4.000    2.800    8.400    3.200 
#    0.000    1.333    0.000    0.000    0.000    0.000 
#    0.000    0.000    0.000    0.000    0.000    0.000 
#
# Total GULP energy -371959.263414 kJ/mol
# GULP energy per Si atom -12398.642114 kJ/mol
# Density = 2.084372 g / cm^3
# Si number density = 20.891271 Si / 1000 Ang^3
#
#
#
# Elastic Constant Matrix: (Units=GPa)
#
#
# Indices 1 2 3 4 5 6 
#
# 1 128.2849 48.6840 33.7285 0.0000 -9.6911 0.0000
# 2 48.6840 146.2201 45.9709 0.0000 -3.8133 0.0000
# 3 33.7285 45.9709 94.8668 0.0000 1.1463 0.0000
# 4 0.0000 0.0000 0.0000 -41.9654 0.0000 0.5819
# 5 -9.6911 -3.8133 1.1463 0.0000 31.2252 0.0000
# 6 0.0000 0.0000 0.0000 0.5819 0.0000 44.6831
#
#
#
# Elastic Compliance Matrix: (Units=1/GPa)
#
#
# Indices 1 2 3 4 5 6 
#
# 1 0.009499 -0.002382 -0.002256 0.000000 0.002740 0.000000
# 2 -0.002382 0.008706 -0.003377 0.000000 0.000448 0.000000
# 3 -0.002256 -0.003377 0.012999 0.000000 -0.001590 0.000000
# 4 0.000000 0.000000 0.000000 -0.023825 0.000000 0.000310
# 5 0.002740 0.000448 -0.001590 0.000000 0.032989 0.000000
# 6 0.000000 0.000000 0.000000 0.000310 0.000000 0.022376
#
#
# Mechanical properties :
#
#
# Convention : Reuss Voigt Hill
#
# Bulk Modulus (GPa) = 65.90545 69.57096 67.73821
# Shear Modulus (GPa) = 59.64326 22.85448 41.24887
#
# Velocity S-wave (km/s) = 5.34896 3.31111 4.44830
# Velocity P-wave (km/s) = 8.35247 6.92761 7.67319
#
# Compressibility (1/GPa) = 0.01517325
#
# Stress axis : x y z
#
# Youngs Moduli (GPa) = 105.27087 114.86981 76.92947
#
# Poissons Ratio (x) = 0.27362 0.17357
# Poissons Ratio (y) = 0.25076 0.25980
# Poissons Ratio (z) = 0.23751 0.38792
#
# Static dielectric constant tensor:
#      x y z
#    x 3.704240 0.000000 -0.034910 
#    y 0.000000 4.064070 0.000000 
#    z -0.034910 0.000000 3.831690 
# 
# 
# High freq. dielectric constant tensor:
#      x y z
#    x 1.820020 0.000000 -0.001440 
#    y 0.000000 1.835490 0.000000 
#    z -0.001440 0.000000 1.823370 
# 
# From -- ./inp_files/30360.got.cif
#   From: 2010.06.25/outbox.cif.g09.slc.cpg/sg13_16_cif.got.tgz:30360.got - 2010.06.28 04:50:58.
