data_PCOD8121453
_publ_section_title
;
Structure prediction by ZEFSAII (Michael W. Deem and Ramdas Pophale) SiO2 
 PCOD8121453
Probable space group: P 2/C
;
_chemical_formula_sum "Si O2"
_cell_formula_units_Z 30
_cell_length_a 20.557618
_cell_length_b 10.593019
_cell_length_c 12.123375
_cell_angle_alpha 90.000000
_cell_angle_beta 31.980370
_cell_angle_gamma 90.000000
_cell_volume 1398.258862
_symmetry_space_group_name_H-M "P 2/C"
_symmetry_group_IT_number 13
_symmetry_cell_setting 'monoclinic'
loop_
_space_group_symop_operation_xyz
x,y,z
-x,y,1/2-z
-x,-y,-z
x,-y,1/2+z
loop_
_atom_site_type_symbol
_atom_site_label
_atom_site_fract_x
_atom_site_fract_y
_atom_site_fract_z
Si Si1 0.237647 0.151706 0.193243
Si Si2 0.237125 0.116222 0.605545
Si Si3 0.613104 0.714221 0.442292
Si Si4 0.500000 0.493883 0.250000
Si Si5 0.045767 0.559446 0.794477
Si Si6 0.407228 0.113867 0.156612
Si Si7 0.306384 0.341459 0.912389
Si Si8 0.989985 0.705087 0.082096
O O1 0.340012 0.150876 0.140582
O O2 0.119444 0.225410 0.407919
O O3 0.192166 0.012263 0.227227
O O4 0.297224 0.215324 0.999169
O O5 0.321861 0.185432 0.572523
O O6 0.310398 0.077635 0.390154
O O7 0.119912 0.197857 0.738177
O O8 0.593077 0.587656 0.541690
O O9 0.480853 0.764881 0.594037
O O10 0.694029 0.690773 0.216882
O O11 0.573223 0.580940 0.229706
O O12 0.190520 0.570711 0.605546
O O13 0.011897 0.411695 0.831203
O O14 0.000000 0.627390 0.750000
O O15 0.969467 0.636616 0.994655
O O16 0.500000 0.000000 0.000000
#
# Coordination Sequence:
#
# PCOD8121453 Si02
#       8
#     4   4   4   2   4   4   4   4
#     4  11  26  44  68  99 136 180 223 285 342 414
#     4  12  24  44  70  98 135 176 229 283 341 410
#     4  12  24  43  70 102 134 179 231 278 341 409
#     4  12  24  44  64 102 138 178 232 282 338 412
#     4  10  22  42  68  95 135 175 221 278 340 404
#     4  12  25  43  68  98 136 180 222 281 340 408
#     4  11  25  43  68  99 140 181 224 285 346 399
#     4  10  24  44  66 101 130 174 229 276 340 404
#
# _framework density 21.455254
#
# number of rings (size 3 to 8) (size 9 to 14) (size 15 to 20)
#    0.000    0.800    2.667    4.000    1.867    3.200 
#    0.000    0.000    0.000    0.000    0.000    0.000 
#    0.000    0.000    0.000    0.000    0.000    0.000 
#
# Total GULP energy -372080.482581 kJ/mol
# GULP energy per Si atom -12402.682753 kJ/mol
# Density = 2.140642 g / cm^3
# Si number density = 21.455254 Si / 1000 Ang^3
#
#
#
# Elastic Constant Matrix: (Units=GPa)
#
#
# Indices 1 2 3 4 5 6 
#
# 1 104.3537 32.9957 43.9739 0.0000 15.7373 0.0000
# 2 32.9957 113.4022 44.0401 0.0000 -4.5060 0.0000
# 3 43.9739 44.0401 113.4939 0.0000 8.4201 0.0000
# 4 0.0000 0.0000 0.0000 38.6619 0.0000 -4.4663
# 5 15.7373 -4.5060 8.4201 0.0000 36.3251 0.0000
# 6 0.0000 0.0000 0.0000 -4.4663 0.0000 10.7556
#
#
#
# Elastic Compliance Matrix: (Units=1/GPa)
#
#
# Indices 1 2 3 4 5 6 
#
# 1 0.012613 -0.002486 -0.003555 0.000000 -0.004949 0.000000
# 2 -0.002486 0.011058 -0.003571 0.000000 0.003276 0.000000
# 3 -0.003555 -0.003571 0.011694 0.000000 -0.001613 0.000000
# 4 0.000000 0.000000 0.000000 0.027169 0.000000 0.011282
# 5 -0.004949 0.003276 -0.001613 0.000000 0.030454 0.000000
# 6 0.000000 0.000000 0.000000 0.011282 0.000000 0.097660
#
#
# Mechanical properties :
#
#
# Convention : Reuss Voigt Hill
#
# Bulk Modulus (GPa) = 61.95308 63.69657 62.82482
# Shear Modulus (GPa) = 23.22850 31.16452 27.19651
#
# Velocity S-wave (km/s) = 3.29393 3.81535 3.56419
# Velocity P-wave (km/s) = 6.58823 7.01154 6.80318
#
# Compressibility (1/GPa) = 0.01614125
#
# Stress axis : x y z
#
# Youngs Moduli (GPa) = 79.28123 90.42834 85.51411
#
# Poissons Ratio (x) = 0.22480 0.30403
# Poissons Ratio (y) = 0.19709 0.30537
# Poissons Ratio (z) = 0.28187 0.32292
#
# Static dielectric constant tensor:
#      x y z
#    x 3.939460 0.000000 0.153180 
#    y 0.000000 3.949780 0.000000 
#    z 0.153180 0.000000 3.915110 
# 
# 
# High freq. dielectric constant tensor:
#      x y z
#    x 1.854110 0.000000 0.007250 
#    y 0.000000 1.848220 0.000000 
#    z 0.007250 0.000000 1.848270 
# 
# From -- ./inp_files/40879.got.cif
#   From: 2010.06.25/outbox.cif.g09.slc.cpg/sg13_21_cif.got.tgz:40879.got - 2010.06.28 04:50:58.
