data_PCOD8121211
_publ_section_title
;
Structure prediction by ZEFSAII (Michael W. Deem and Ramdas Pophale) SiO2 
 PCOD8121211
Probable space group: P 2/C
;
_chemical_formula_sum "Si O2"
_cell_formula_units_Z 30
_cell_length_a 11.394560
_cell_length_b 5.084929
_cell_length_c 24.655663
_cell_angle_alpha 90.000000
_cell_angle_beta 119.282256
_cell_angle_gamma 90.000000
_cell_volume 1246.021602
_symmetry_space_group_name_H-M "P 2/C"
_symmetry_group_IT_number 13
_symmetry_cell_setting 'monoclinic'
loop_
_space_group_symop_operation_xyz
x,y,z
-x,y,1/2-z
-x,-y,-z
x,-y,1/2+z
loop_
_atom_site_type_symbol
_atom_site_label
_atom_site_fract_x
_atom_site_fract_y
_atom_site_fract_z
Si Si1 0.838178 0.315341 0.145073
Si Si2 0.352950 0.221318 0.069638
Si Si3 0.528962 0.722484 0.122255
Si Si4 0.048795 0.580764 0.129773
Si Si5 0.000000 0.971919 0.250000
Si Si6 0.087037 0.909113 0.569749
Si Si7 0.350899 0.910756 0.452258
Si Si8 0.770806 0.587058 0.233748
O O1 0.770904 0.354716 0.189016
O O2 0.906851 0.574835 0.132068
O O3 0.737051 0.165158 0.082342
O O4 0.969646 0.139422 0.188774
O O5 0.408661 0.513766 0.092734
O O6 0.473190 0.016328 0.106167
O O7 0.239566 0.145417 0.086805
O O8 0.292675 0.216842 0.994569
O O9 0.635440 0.697332 0.094360
O O10 0.616055 0.691703 0.197249
O O11 0.077074 0.868492 0.113211
O O12 0.180539 0.500056 0.195663
O O13 0.028876 0.365171 0.078472
O O14 0.129407 0.806738 0.264694
O O15 0.000000 0.000000 0.500000
O O16 0.500000 0.000000 0.500000
#
# Coordination Sequence:
#
# PCOD8121211 Si02
#       8
#     4   4   4   4   2   4   4   4
#     4  12  23  40  67 105 149 177 224 294 362 429
#     4  11  25  47  66  98 137 186 236 291 341 415
#     4  11  24  43  71  99 142 178 223 289 361 426
#     4  12  26  45  71 104 136 187 235 290 353 425
#     4  12  20  40  62 102 154 174 222 272 370 418
#     4  12  28  49  72  98 135 185 246 297 343 408
#     4  10  22  40  66 101 136 182 228 278 359 435
#     4  12  24  40  68 107 141 177 221 289 359 428
#
# _framework density 24.076626999999998
#
# number of rings (size 3 to 8) (size 9 to 14) (size 15 to 20)
#    0.000    0.533    4.000    4.800    0.000    4.267 
#    0.000    4.000    0.000    0.000    0.000    0.000 
#    0.000    0.000    0.000    0.000    0.000    0.000 
#
# Total GULP energy -371957.795692 kJ/mol
# GULP energy per Si atom -12398.593190 kJ/mol
# Density = 2.402183 g / cm^3
# Si number density = 24.076627 Si / 1000 Ang^3
#
#
#
# Elastic Constant Matrix: (Units=GPa)
#
#
# Indices 1 2 3 4 5 6 
#
# 1 85.9309 12.9708 11.5475 0.0000 -4.0776 0.0000
# 2 12.9708 77.8265 4.2231 0.0000 -3.0656 0.0000
# 3 11.5475 4.2231 108.2874 0.0000 12.9945 0.0000
# 4 0.0000 0.0000 0.0000 33.9992 0.0000 -9.9411
# 5 -4.0776 -3.0656 12.9945 0.0000 31.4958 0.0000
# 6 0.0000 0.0000 0.0000 -9.9411 0.0000 39.1785
#
#
#
# Elastic Compliance Matrix: (Units=1/GPa)
#
#
# Indices 1 2 3 4 5 6 
#
# 1 0.012213 -0.001877 -0.001470 0.000000 0.002005 0.000000
# 2 -0.001877 0.013236 -0.000464 0.000000 0.001237 0.000000
# 3 -0.001470 -0.000464 0.009929 0.000000 -0.004332 0.000000
# 4 0.000000 0.000000 0.000000 0.031770 0.000000 0.008061
# 5 0.002005 0.001237 -0.004332 0.000000 0.033918 0.000000
# 6 0.000000 0.000000 0.000000 0.008061 0.000000 0.027570
#
#
# Mechanical properties :
#
#
# Convention : Reuss Voigt Hill
#
# Bulk Modulus (GPa) = 36.02779 36.61417 36.32098
# Shear Modulus (GPa) = 34.36206 37.15491 35.75849
#
# Velocity S-wave (km/s) = 3.78192 3.93261 3.85800
# Velocity P-wave (km/s) = 5.83668 5.98840 5.91303
#
# Compressibility (1/GPa) = 0.02775635
#
# Stress axis : x y z
#
# Youngs Moduli (GPa) = 81.87869 75.55266 100.71111
#
# Poissons Ratio (x) = 0.14179 0.14802
# Poissons Ratio (y) = 0.15367 0.04678
# Poissons Ratio (z) = 0.12034 0.03509
#
# Static dielectric constant tensor:
#      x y z
#    x 4.628210 0.000000 -0.147280 
#    y 0.000000 4.246480 0.000000 
#    z -0.147280 0.000000 5.255540 
# 
# 
# High freq. dielectric constant tensor:
#      x y z
#    x 1.935780 0.000000 0.015680 
#    y 0.000000 1.961050 0.000000 
#    z 0.015680 0.000000 1.971370 
# 
# From -- ./inp_files/91939.got.cif
#   From: 2010.06.25/outbox.cif.g09.slc.cpg/sg13_46_cif.got.tgz:91939.got - 2010.06.28 04:50:58.
