data_PCOD8121979
_publ_section_title
;
Structure prediction by ZEFSAII (Michael W. Deem and Ramdas Pophale) SiO2 
 PCOD8121979
Probable space group: P 2/C
;
_chemical_formula_sum "Si O2"
_cell_formula_units_Z 30
_cell_length_a 11.069059
_cell_length_b 14.105223
_cell_length_c 9.444719
_cell_angle_alpha 90.000000
_cell_angle_beta 90.036153
_cell_angle_gamma 90.000000
_cell_volume 1474.618282
_symmetry_space_group_name_H-M "P 2/C"
_symmetry_group_IT_number 13
_symmetry_cell_setting 'monoclinic'
loop_
_space_group_symop_operation_xyz
x,y,z
-x,y,1/2-z
-x,-y,-z
x,-y,1/2+z
loop_
_atom_site_type_symbol
_atom_site_label
_atom_site_fract_x
_atom_site_fract_y
_atom_site_fract_z
Si Si1 0.414968 0.471558 0.128171
Si Si2 0.862845 0.822441 0.782002
Si Si3 0.914146 0.972365 0.371886
Si Si4 0.359345 0.325429 0.716259
Si Si5 0.500000 0.985000 0.250000
Si Si6 0.458103 0.881176 0.516868
Si Si7 0.293307 0.290825 0.018592
Si Si8 0.274704 0.828001 0.000309
O O1 0.500000 0.428985 0.250000
O O2 0.343683 0.564025 0.180978
O O3 0.317791 0.392552 0.087627
O O4 0.500000 0.500000 0.000000
O O5 0.824754 0.757430 0.915000
O O6 0.781563 0.795167 0.647757
O O7 0.000000 0.796770 0.750000
O O8 0.846105 0.933185 0.818062
O O9 0.817472 0.893730 0.413728
O O10 0.000000 0.929541 0.250000
O O11 0.000000 0.000000 0.500000
O O12 0.500000 0.300969 0.750000
O O13 0.308556 0.265915 0.586385
O O14 0.275552 0.302990 0.851154
O O15 0.584464 0.049330 0.354493
O O16 0.420570 0.918273 0.357963
O O17 0.407680 0.777597 0.546772
O O18 0.603190 0.885578 0.527288
#
# Coordination Sequence:
#
# PCOD8121979 Si02
#       8
#     4   4   4   4   2   4   4   4
#     4  11  22  41  69 101 142 173 222 277 348 437
#     4  11  27  46  63  97 130 183 245 283 327 401
#     4  11  24  46  65  91 131 187 247 286 329 390
#     4  11  23  43  63 109 140 172 218 278 356 431
#     4  10  24  36  48  78 144 166 206 256 318 414
#     4  11  23  38  55  94 124 176 214 266 345 399
#     4  12  25  42  70  94 142 178 225 283 351 418
#     4  12  24  39  70  90 138 173 231 289 337 407
#
# _framework density 20.344248
#
# number of rings (size 3 to 8) (size 9 to 14) (size 15 to 20)
#    0.000    0.800    6.667    1.600   12.133    0.000 
#    0.000    0.000    0.000    4.000    0.000    0.000 
#    0.000    0.000    0.000    0.000    0.000    0.000 
#
# Total GULP energy -371969.208835 kJ/mol
# GULP energy per Si atom -12398.973628 kJ/mol
# Density = 2.029794 g / cm^3
# Si number density = 20.344248 Si / 1000 Ang^3
#
#
#
# Elastic Constant Matrix: (Units=GPa)
#
#
# Indices 1 2 3 4 5 6 
#
# 1 77.1767 35.8848 29.5837 0.0000 -14.5281 0.0000
# 2 35.8848 107.5828 35.1619 0.0000 -4.9074 0.0000
# 3 29.5837 35.1619 136.0985 0.0000 -4.7138 0.0000
# 4 0.0000 0.0000 0.0000 43.4261 0.0000 -1.3600
# 5 -14.5281 -4.9074 -4.7138 0.0000 41.1254 0.0000
# 6 0.0000 0.0000 0.0000 -1.3600 0.0000 21.2099
#
#
#
# Elastic Compliance Matrix: (Units=1/GPa)
#
#
# Indices 1 2 3 4 5 6 
#
# 1 0.016991 -0.004678 -0.002305 0.000000 0.005180 0.000000
# 2 -0.004678 0.011475 -0.001965 0.000000 -0.000508 0.000000
# 3 -0.002305 -0.001965 0.008353 0.000000 -0.000091 0.000000
# 4 0.000000 0.000000 0.000000 0.023074 0.000000 0.001479
# 5 0.005180 -0.000508 -0.000091 0.000000 0.026075 0.000000
# 6 0.000000 0.000000 0.000000 0.001479 0.000000 0.047243
#
#
# Mechanical properties :
#
#
# Convention : Reuss Voigt Hill
#
# Bulk Modulus (GPa) = 52.84834 58.01320 55.43077
# Shear Modulus (GPa) = 31.76329 35.83412 33.79871
#
# Velocity S-wave (km/s) = 3.95560 4.20144 4.08038
# Velocity P-wave (km/s) = 6.84805 7.21899 7.03597
#
# Compressibility (1/GPa) = 0.01892207
#
# Stress axis : x y z
#
# Youngs Moduli (GPa) = 58.85440 87.14912 119.71247
#
# Poissons Ratio (x) = 0.40766 0.27599
# Poissons Ratio (y) = 0.27530 0.23528
# Poissons Ratio (z) = 0.13568 0.17128
#
# Static dielectric constant tensor:
#      x y z
#    x 3.592110 0.000000 -0.080350 
#    y 0.000000 3.908890 0.000000 
#    z -0.080350 0.000000 4.190180 
# 
# 
# High freq. dielectric constant tensor:
#      x y z
#    x 1.756920 0.000000 -0.009200 
#    y 0.000000 1.794490 0.000000 
#    z -0.009200 0.000000 1.824730 
# 
# From -- ./inp_files/16519.got.cif
#   From: 2010.06.25/outbox.cif.g09.slc.cpg/sg13_9_cif.got.tgz:16519.got - 2010.06.28 04:50:58.
