data_PCOD8121447
_publ_section_title
;
Structure prediction by ZEFSAII (Michael W. Deem and Ramdas Pophale) SiO2 
 PCOD8121447
Probable space group: P 2/C
;
_chemical_formula_sum "Si O2"
_cell_formula_units_Z 32
_cell_length_a 9.531679
_cell_length_b 10.581150
_cell_length_c 30.335528
_cell_angle_alpha 90.000000
_cell_angle_beta 30.367659
_cell_angle_gamma 90.000000
_cell_volume 1546.732569
_symmetry_space_group_name_H-M "P 2/C"
_symmetry_group_IT_number 13
_symmetry_cell_setting 'monoclinic'
loop_
_space_group_symop_operation_xyz
x,y,z
-x,y,1/2-z
-x,-y,-z
x,-y,1/2+z
loop_
_atom_site_type_symbol
_atom_site_label
_atom_site_fract_x
_atom_site_fract_y
_atom_site_fract_z
Si Si1 0.752159 0.273349 0.151528
Si Si2 0.164888 0.879078 0.590304
Si Si3 0.772641 0.532447 0.097800
Si Si4 0.202866 0.657484 0.235352
Si Si5 0.738395 0.912440 0.576241
Si Si6 0.831616 0.040402 0.752315
Si Si7 0.285520 0.123753 0.513714
Si Si8 0.175504 0.698637 0.336649
O O1 0.500000 0.228156 0.250000
O O2 0.698009 0.414346 0.149275
O O3 0.794118 0.191297 0.097214
O O4 0.018568 0.245670 0.110185
O O5 0.434078 0.822088 0.540975
O O6 0.269396 0.971222 0.522600
O O7 0.976960 0.966467 0.672955
O O8 0.505282 0.594019 0.145258
O O9 0.907089 0.628271 0.096105
O O10 0.000000 0.500000 0.000000
O O11 0.196590 0.808464 0.243758
O O12 0.112825 0.613495 0.309447
O O13 0.000000 0.615600 0.250000
O O14 0.692520 0.838411 0.543151
O O15 0.481276 0.996314 0.659875
O O16 0.000000 0.000000 0.500000
O O17 0.000000 0.002436 0.750000
O O18 0.016959 0.178138 0.611582
O O19 0.500000 0.738173 0.250000
#
# Coordination Sequence:
#
# PCOD8121447 Si02
#       8
#     4   4   4   4   4   4   4   4
#     4  12  25  43  65  93 134 178 218 273 347 400
#     4  11  23  40  63  97 139 175 210 273 337 404
#     4  11  26  47  67  96 132 175 234 290 330 393
#     4  10  23  42  73  97 129 175 228 274 337 403
#     4  12  25  36  63 100 136 172 222 267 334 405
#     4  11  22  42  66 100 139 177 217 273 340 409
#     4  11  23  39  62  99 133 172 221 268 329 398
#     4  10  22  42  68  93 130 174 227 280 328 400
#
# _framework density 20.688772
#
# number of rings (size 3 to 8) (size 9 to 14) (size 15 to 20)
#    0.000    1.000    5.000    1.875    5.250    1.500 
#    0.000    6.875    0.000    0.000    0.000    0.000 
#    0.000    0.000    0.000    0.000    0.000    0.000 
#
# Total GULP energy -396558.901597 kJ/mol
# GULP energy per Si atom -12392.465675 kJ/mol
# Density = 2.064168 g / cm^3
# Si number density = 20.688772 Si / 1000 Ang^3
#
#
#
# Elastic Constant Matrix: (Units=GPa)
#
#
# Indices 1 2 3 4 5 6 
#
# 1 156.2900 36.5456 56.6264 0.0000 -7.6068 0.0000
# 2 36.5456 66.3063 27.0992 0.0000 -12.6936 0.0000
# 3 56.6264 27.0992 113.9600 0.0000 -2.8677 0.0000
# 4 0.0000 0.0000 0.0000 42.5023 0.0000 -8.9690
# 5 -7.6068 -12.6936 -2.8677 0.0000 38.5848 0.0000
# 6 0.0000 0.0000 0.0000 -8.9690 0.0000 30.0855
#
#
#
# Elastic Compliance Matrix: (Units=1/GPa)
#
#
# Indices 1 2 3 4 5 6 
#
# 1 0.008390 -0.003163 -0.003408 0.000000 0.000360 0.000000
# 2 -0.003163 0.019012 -0.002813 0.000000 0.005422 0.000000
# 3 -0.003408 -0.002813 0.011118 0.000000 -0.000771 0.000000
# 4 0.000000 0.000000 0.000000 0.025108 0.000000 0.007485
# 5 0.000360 0.005422 -0.000771 0.000000 0.027714 0.000000
# 6 0.000000 0.000000 0.000000 0.007485 0.000000 0.035470
#
#
# Mechanical properties :
#
#
# Convention : Reuss Voigt Hill
#
# Bulk Modulus (GPa) = 50.62476 64.12207 57.37341
# Shear Modulus (GPa) = 32.85927 36.65356 34.75641
#
# Velocity S-wave (km/s) = 3.98963 4.21368 4.10318
# Velocity P-wave (km/s) = 6.76355 7.39827 7.08802
#
# Compressibility (1/GPa) = 0.01975318
#
# Stress axis : x y z
#
# Youngs Moduli (GPa) = 119.18731 52.59751 89.94460
#
# Poissons Ratio (x) = 0.16634 0.30653
# Poissons Ratio (y) = 0.37693 0.25303
# Poissons Ratio (z) = 0.40618 0.14796
#
# Static dielectric constant tensor:
#      x y z
#    x 4.183760 0.000000 0.129820 
#    y 0.000000 3.113270 0.000000 
#    z 0.129820 0.000000 3.807850 
# 
# 
# High freq. dielectric constant tensor:
#      x y z
#    x 1.831920 0.000000 0.009430 
#    y 0.000000 1.784510 0.000000 
#    z 0.009430 0.000000 1.818070 
# 
# From -- ./inp_files/96122.got.cif
#   From: 2010.06.25/outbox.cif.g09.slc.cpg/sg13_49_cif.got.tgz:96122.got - 2010.06.28 04:50:58.
