data_PCOD8121738
_publ_section_title
;
Structure prediction by ZEFSAII (Michael W. Deem and Ramdas Pophale) SiO2 
 PCOD8121738
Probable space group: P 2/C
;
_chemical_formula_sum "Si O2"
_cell_formula_units_Z 26
_cell_length_a 11.288212
_cell_length_b 12.081997
_cell_length_c 8.878385
_cell_angle_alpha 90.000000
_cell_angle_beta 93.888631
_cell_angle_gamma 90.000000
_cell_volume 1208.083213
_symmetry_space_group_name_H-M "P 2/C"
_symmetry_group_IT_number 13
_symmetry_cell_setting 'monoclinic'
loop_
_space_group_symop_operation_xyz
x,y,z
-x,y,1/2-z
-x,-y,-z
x,-y,1/2+z
loop_
_atom_site_type_symbol
_atom_site_label
_atom_site_fract_x
_atom_site_fract_y
_atom_site_fract_z
Si Si1 0.095459 0.901571 0.007044
Si Si2 0.411833 0.361700 0.450588
Si Si3 0.643246 0.886991 0.520481
Si Si4 0.500000 0.002908 0.750000
Si Si5 0.094771 0.599562 0.509152
Si Si6 0.352037 0.441858 0.130640
Si Si7 0.000000 0.749644 0.250000
Si Si8 0.000000 0.751828 0.750000
O O1 0.082348 0.826901 0.154290
O O2 0.230561 0.944266 0.010197
O O3 0.083890 0.828695 0.856713
O O4 0.000000 0.000000 0.000000
O O5 0.349044 0.245333 0.475771
O O6 0.340684 0.423360 0.308395
O O7 0.552532 0.350755 0.422791
O O8 0.402647 0.435611 0.600664
O O9 0.552180 0.919217 0.382913
O O10 0.600550 0.926961 0.681326
O O11 0.228524 0.558752 0.530538
O O12 0.080881 0.675972 0.653229
O O13 0.000000 0.500000 0.500000
O O14 0.083865 0.671738 0.357248
#
# Coordination Sequence:
#
# PCOD8121738 Si02
#       8
#     4   4   4   2   4   4   2   2
#     4  11  25  44  69  98 132 174 226 285 336 400
#     4  10  23  43  66  98 126 177 214 272 335 389
#     4  11  25  46  72  96 139 172 229 282 342 406
#     4  10  26  46  68 102 124 180 224 282 342 392
#     4  11  24  40  63  97 138 175 219 271 328 405
#     4  10  23  40  66  95 134 168 221 267 325 403
#     4  10  26  42  62 104 126 180 226 260 350 388
#     4  10  24  42  62  96 124 178 214 262 346 374
#
# _framework density 21.521695999999999
#
# number of rings (size 3 to 8) (size 9 to 14) (size 15 to 20)
#    0.000    1.538    0.000    2.769   12.923    3.692 
#    5.538    0.000    0.000    0.000    0.000    0.000 
#    0.000    0.000    0.000    0.000    0.000    0.000 
#
# Total GULP energy -322405.535195 kJ/mol
# GULP energy per Si atom -12400.212892 kJ/mol
# Density = 2.147271 g / cm^3
# Si number density = 21.521696 Si / 1000 Ang^3
#
#
#
# Elastic Constant Matrix: (Units=GPa)
#
#
# Indices 1 2 3 4 5 6 
#
# 1 146.7994 37.7010 33.1738 0.0000 3.1528 0.0000
# 2 37.7010 116.8130 51.0868 0.0000 -3.3465 0.0000
# 3 33.1738 51.0868 127.6169 0.0000 -2.7881 0.0000
# 4 0.0000 0.0000 0.0000 112.5840 0.0000 -7.5439
# 5 3.1528 -3.3465 -2.7881 0.0000 24.7442 0.0000
# 6 0.0000 0.0000 0.0000 -7.5439 0.0000 30.7762
#
#
#
# Elastic Compliance Matrix: (Units=1/GPa)
#
#
# Indices 1 2 3 4 5 6 
#
# 1 0.007623 -0.001964 -0.001225 0.000000 -0.001375 0.000000
# 2 -0.001964 0.010905 -0.003827 0.000000 0.001294 0.000000
# 3 -0.001225 -0.003827 0.009702 0.000000 0.000732 0.000000
# 4 0.000000 0.000000 0.000000 0.009031 0.000000 0.002214
# 5 -0.001375 0.001294 0.000732 0.000000 0.040846 0.000000
# 6 0.000000 0.000000 0.000000 0.002214 0.000000 0.033035
#
#
# Mechanical properties :
#
#
# Convention : Reuss Voigt Hill
#
# Bulk Modulus (GPa) = 70.42997 70.57251 70.50124
# Shear Modulus (GPa) = 38.48911 51.57206 45.03058
#
# Velocity S-wave (km/s) = 4.23352 4.90049 4.57917
# Velocity P-wave (km/s) = 7.52948 8.05496 7.79665
#
# Compressibility (1/GPa) = 0.01419850
#
# Stress axis : x y z
#
# Youngs Moduli (GPa) = 131.18551 91.70016 103.06723
#
# Poissons Ratio (x) = 0.18007 0.12631
# Poissons Ratio (y) = 0.25760 0.39441
# Poissons Ratio (z) = 0.16077 0.35091
#
# Static dielectric constant tensor:
#      x y z
#    x 3.827270 0.000000 0.035930 
#    y 0.000000 3.857220 0.000000 
#    z 0.035930 0.000000 4.449760 
# 
# 
# High freq. dielectric constant tensor:
#      x y z
#    x 1.844040 0.000000 -0.001530 
#    y 0.000000 1.839660 0.000000 
#    z -0.001530 0.000000 1.860480 
# 
# From -- ./inp_files/15932.got.cif
#   From: 2010.06.25/outbox.cif.g09.slc.cpg/sg13_8_cif.got.tgz:15932.got - 2010.06.28 04:50:58.
