data_PCOD8121541
_publ_section_title
;
Structure prediction by ZEFSAII (Michael W. Deem and Ramdas Pophale) SiO2 
 PCOD8121541
Probable space group: P 2/C
;
_chemical_formula_sum "Si O2"
_cell_formula_units_Z 24
_cell_length_a 9.112484
_cell_length_b 14.180420
_cell_length_c 8.884715
_cell_angle_alpha 90.000000
_cell_angle_beta 101.599297
_cell_angle_gamma 90.000000
_cell_volume 1124.626393
_symmetry_space_group_name_H-M "P 2/C"
_symmetry_group_IT_number 13
_symmetry_cell_setting 'monoclinic'
loop_
_space_group_symop_operation_xyz
x,y,z
-x,y,1/2-z
-x,-y,-z
x,-y,1/2+z
loop_
_atom_site_type_symbol
_atom_site_label
_atom_site_fract_x
_atom_site_fract_y
_atom_site_fract_z
Si Si1 0.000000 0.530838 0.250000
Si Si2 0.458534 0.902449 0.567977
Si Si3 0.151339 0.906890 0.621623
Si Si4 0.135785 0.381658 0.487915
Si Si5 0.378180 0.244330 0.602924
Si Si6 0.112875 0.113268 0.648203
Si Si7 0.000000 0.761759 0.750000
O O1 0.121039 0.469576 0.370204
O O2 0.908800 0.593780 0.350049
O O3 0.500000 0.908351 0.750000
O O4 0.278475 0.887325 0.521975
O O5 0.542678 0.815115 0.511282
O O6 0.500000 0.000000 0.500000
O O7 0.149570 0.825752 0.750249
O O8 0.982199 0.898912 0.523780
O O9 0.177153 0.009196 0.703808
O O10 0.305078 0.340468 0.521446
O O11 0.025061 0.300340 0.404672
O O12 0.500000 0.275033 0.750000
O O13 0.250386 0.183558 0.658689
O O14 0.000000 0.153107 0.750000
#
# Coordination Sequence:
#
# PCOD8121541 Si02
#       7
#     2   4   4   4   4   4   2
#     4   9  22  46  77 106 128 166 213 306 372 419
#     4  12  26  40  59  89 140 197 232 281 343 393
#     4  11  23  36  61  87 134 186 237 277 324 378
#     4  10  22  43  73 103 133 164 223 281 365 421
#     4  12  25  43  65 101 143 186 231 282 340 420
#     4  11  23  37  60  91 133 186 242 281 322 375
#     4  11  20  40  67 102 132 172 235 296 314 411
#
# _framework density 21.340420999999999
#
# number of rings (size 3 to 8) (size 9 to 14) (size 15 to 20)
#    0.000    1.000    4.167    2.500    3.500    1.333 
#    0.000    2.500    0.000    0.000    0.000    0.000 
#    0.000    0.000    0.000    0.000    0.000    0.000 
#
# Total GULP energy -297551.833682 kJ/mol
# GULP energy per Si atom -12397.993070 kJ/mol
# Density = 2.129185 g / cm^3
# Si number density = 21.340421 Si / 1000 Ang^3
#
#
#
# Elastic Constant Matrix: (Units=GPa)
#
#
# Indices 1 2 3 4 5 6 
#
# 1 143.5857 55.8818 45.9280 0.0000 -11.6734 0.0000
# 2 55.8818 109.3255 48.1679 0.0000 -8.0108 0.0000
# 3 45.9280 48.1679 114.4258 0.0000 -11.8285 0.0000
# 4 0.0000 0.0000 0.0000 29.4279 0.0000 -2.5396
# 5 -11.6734 -8.0108 -11.8285 0.0000 44.5679 0.0000
# 6 0.0000 0.0000 0.0000 -2.5396 0.0000 37.7700
#
#
#
# Elastic Compliance Matrix: (Units=1/GPa)
#
#
# Indices 1 2 3 4 5 6 
#
# 1 0.009140 -0.003711 -0.001983 0.000000 0.001201 0.000000
# 2 -0.003711 0.012763 -0.003852 0.000000 0.000300 0.000000
# 3 -0.001983 -0.003852 0.011343 0.000000 0.001799 0.000000
# 4 0.000000 0.000000 0.000000 0.034180 0.000000 0.002298
# 5 0.001201 0.000300 0.001799 0.000000 0.023283 0.000000
# 6 0.000000 0.000000 0.000000 0.002298 0.000000 0.026631
#
#
# Mechanical properties :
#
#
# Convention : Reuss Voigt Hill
#
# Bulk Modulus (GPa) = 70.64649 74.14361 72.39505
# Shear Modulus (GPa) = 35.42357 36.84377 36.13367
#
# Velocity S-wave (km/s) = 4.07864 4.15960 4.11932
# Velocity P-wave (km/s) = 7.44022 7.60844 7.52480
#
# Compressibility (1/GPa) = 0.01415498
#
# Stress axis : x y z
#
# Youngs Moduli (GPa) = 109.40426 78.35206 88.16310
#
# Poissons Ratio (x) = 0.29073 0.17479
# Poissons Ratio (y) = 0.40596 0.33963
# Poissons Ratio (z) = 0.21691 0.30183
#
# Static dielectric constant tensor:
#      x y z
#    x 4.396500 0.000000 0.135530 
#    y 0.000000 3.996930 0.000000 
#    z 0.135530 0.000000 4.156820 
# 
# 
# High freq. dielectric constant tensor:
#      x y z
#    x 1.829070 0.000000 -0.001860 
#    y 0.000000 1.823930 0.000000 
#    z -0.001860 0.000000 1.852490 
# 
# From -- ./inp_files/12585.got.cif
#   From: 2010.06.25/outbox.cif.g09.slc.cpg/sg13_7_cif.got.tgz:12585.got - 2010.06.28 04:50:58.
