data_PCOD8121836
_publ_section_title
;
Structure prediction by ZEFSAII (Michael W. Deem and Ramdas Pophale) SiO2 
 PCOD8121836
Probable space group: P 2/C
;
_chemical_formula_sum "Si O2"
_cell_formula_units_Z 24
_cell_length_a 13.799915
_cell_length_b 8.802126
_cell_length_c 9.976628
_cell_angle_alpha 90.000000
_cell_angle_beta 80.154369
_cell_angle_gamma 90.000000
_cell_volume 1193.998896
_symmetry_space_group_name_H-M "P 2/C"
_symmetry_group_IT_number 13
_symmetry_cell_setting 'monoclinic'
loop_
_space_group_symop_operation_xyz
x,y,z
-x,y,1/2-z
-x,-y,-z
x,-y,1/2+z
loop_
_atom_site_type_symbol
_atom_site_label
_atom_site_fract_x
_atom_site_fract_y
_atom_site_fract_z
Si Si1 0.768830 0.741499 0.044821
Si Si2 0.695120 0.946652 0.516304
Si Si3 0.763322 0.665171 0.343433
Si Si4 0.934075 0.542899 0.890163
Si Si5 0.603624 0.421157 0.435208
Si Si6 0.406910 0.900062 0.691501
O O1 0.782726 0.747221 0.199339
O O2 0.767082 0.910247 0.984500
O O3 0.862679 0.678086 0.947028
O O4 0.667419 0.646905 0.043348
O O5 0.739868 0.788532 0.460873
O O6 0.677620 0.925777 0.678705
O O7 0.604705 0.992433 0.437349
O O8 0.867006 0.597361 0.362799
O O9 0.673817 0.545425 0.348143
O O10 0.000000 0.596744 0.750000
O O11 0.000000 0.500000 0.000000
O O12 0.500000 0.500000 0.500000
O O13 0.581521 0.279449 0.342691
O O14 0.500000 0.960915 0.750000
#
# Coordination Sequence:
#
# PCOD8121836 Si02
#       6
#     4   4   4   4   4   4
#     4  10  23  43  64  95 130 175 211 268 330 384
#     4  11  23  43  62  91 132 174 217 266 332 389
#     4  11  23  41  68  93 132 167 216 273 324 384
#     4  11  23  43  73  99 127 163 213 270 328 390
#     4  10  24  39  62  94 130 176 227 265 314 381
#     4  11  23  38  61  91 130 179 225 270 318 375
#
# _framework density 20.100521000000001
#
# number of rings (size 3 to 8) (size 9 to 14) (size 15 to 20)
#    0.000    1.333    3.333    1.500    7.000    2.667 
#    0.000    1.667    0.000    0.000    0.000    0.000 
#    0.000    0.000    0.000    0.000    0.000    0.000 
#
# Total GULP energy -297427.824789 kJ/mol
# GULP energy per Si atom -12392.826033 kJ/mol
# Density = 2.005477 g / cm^3
# Si number density = 20.100521 Si / 1000 Ang^3
#
#
#
# Elastic Constant Matrix: (Units=GPa)
#
#
# Indices 1 2 3 4 5 6 
#
# 1 100.3062 6.7904 16.6710 0.0000 -3.7548 0.0000
# 2 6.7904 61.6387 -3.1809 0.0000 -11.1779 0.0000
# 3 16.6710 -3.1809 83.7092 0.0000 -0.4885 0.0000
# 4 0.0000 0.0000 0.0000 34.4294 0.0000 -4.6409
# 5 -3.7548 -11.1779 -0.4885 0.0000 33.3105 0.0000
# 6 0.0000 0.0000 0.0000 -4.6409 0.0000 15.9223
#
#
#
# Elastic Compliance Matrix: (Units=1/GPa)
#
#
# Indices 1 2 3 4 5 6 
#
# 1 0.010425 -0.001118 -0.002114 0.000000 0.000769 0.000000
# 2 -0.001118 0.017435 0.000919 0.000000 0.005738 0.000000
# 3 -0.002114 0.000919 0.012404 0.000000 0.000252 0.000000
# 4 0.000000 0.000000 0.000000 0.030233 0.000000 0.008812
# 5 0.000769 0.005738 0.000252 0.000000 0.032036 0.000000
# 6 0.000000 0.000000 0.000000 0.008812 0.000000 0.065374
#
#
# Mechanical properties :
#
#
# Convention : Reuss Voigt Hill
#
# Bulk Modulus (GPa) = 28.06141 31.80168 29.93154
# Shear Modulus (GPa) = 27.11313 31.75735 29.43524
#
# Velocity S-wave (km/s) = 3.67669 3.97914 3.83090
# Velocity P-wave (km/s) = 5.65817 6.08006 5.87290
#
# Compressibility (1/GPa) = 0.03563613
#
# Stress axis : x y z
#
# Youngs Moduli (GPa) = 95.92010 57.35683 80.62203
#
# Poissons Ratio (x) = 0.06413 0.17046
# Poissons Ratio (y) = 0.10726 -0.07407
# Poissons Ratio (z) = 0.20280 -0.05269
#
# Static dielectric constant tensor:
#      x y z
#    x 4.596830 0.000000 -0.244440 
#    y 0.000000 3.728690 0.000000 
#    z -0.244440 0.000000 4.064510 
# 
# 
# High freq. dielectric constant tensor:
#      x y z
#    x 1.775610 0.000000 0.009950 
#    y 0.000000 1.788700 0.000000 
#    z 0.009950 0.000000 1.797460 
# 
# From -- ./inp_files/18050.got.cif
#   From: 2010.06.25/outbox.cif.g09.slc.cpg/sg13_10_cif.got.tgz:18050.got - 2010.06.28 04:50:58.
