data_PCOD8121024
_publ_section_title
;
Structure prediction by ZEFSAII (Michael W. Deem and Ramdas Pophale) SiO2 
 PCOD8121024
Probable space group: P 2/C
;
_chemical_formula_sum "Si O2"
_cell_formula_units_Z 28
_cell_length_a 11.895945
_cell_length_b 9.607309
_cell_length_c 13.719649
_cell_angle_alpha 90.000000
_cell_angle_beta 117.465337
_cell_angle_gamma 90.000000
_cell_volume 1391.263222
_symmetry_space_group_name_H-M "P 2/C"
_symmetry_group_IT_number 13
_symmetry_cell_setting 'monoclinic'
loop_
_space_group_symop_operation_xyz
x,y,z
-x,y,1/2-z
-x,-y,-z
x,-y,1/2+z
loop_
_atom_site_type_symbol
_atom_site_label
_atom_site_fract_x
_atom_site_fract_y
_atom_site_fract_z
Si Si1 0.490990 0.950971 0.887542
Si Si2 0.503017 0.634713 0.638730
Si Si3 0.116544 0.237924 0.110882
Si Si4 0.709015 0.021368 0.838735
Si Si5 0.759107 0.391177 0.160681
Si Si6 0.824168 0.270864 0.995085
Si Si7 0.781271 0.432350 0.503508
O O1 0.450033 0.792363 0.858567
O O2 0.629819 0.960412 0.896729
O O3 0.384404 0.043709 0.790616
O O4 0.500000 0.000000 0.000000
O O5 0.500000 0.594983 0.750000
O O6 0.617561 0.554955 0.630942
O O7 0.367069 0.599917 0.541470
O O8 0.167702 0.342120 0.214176
O O9 0.146259 0.303427 0.015920
O O10 0.178716 0.085739 0.142851
O O11 0.968237 0.221396 0.064803
O O12 0.760619 0.171009 0.890605
O O13 0.759209 0.267160 0.077616
O O14 0.826331 0.524644 0.132239
O O15 0.807949 0.429208 0.947593
#
# Coordination Sequence:
#
# PCOD8121024 Si02
#       7
#     4   4   4   4   4   4   4
#     4  11  21  38  65  90 133 164 210 267 328 380
#     4  12  18  42  64  89 121 171 213 261 328 389
#     4  12  20  45  68  87 133 179 210 257 329 398
#     4  11  22  42  65  96 123 171 216 263 324 386
#     4  10  22  38  65  95 123 167 220 259 325 384
#     4  10  25  40  62 100 127 166 216 270 311 382
#     4  10  23  39  64  91 130 164 219 267 318 386
#
# _framework density 20.125595000000001
#
# number of rings (size 3 to 8) (size 9 to 14) (size 15 to 20)
#    0.857    0.286    5.714    2.571    0.000    0.000 
#    5.143    0.000    0.000    0.000    0.000    0.000 
#    0.000    0.000    0.000    0.000    0.000    0.000 
#
# Total GULP energy -346887.934775 kJ/mol
# GULP energy per Si atom -12388.854813 kJ/mol
# Density = 2.007979 g / cm^3
# Si number density = 20.125595 Si / 1000 Ang^3
#
#
#
# Elastic Constant Matrix: (Units=GPa)
#
#
# Indices 1 2 3 4 5 6 
#
# 1 107.6240 16.1386 41.7510 0.0000 -2.7584 0.0000
# 2 16.1386 43.7959 7.5953 0.0000 -0.2197 0.0000
# 3 41.7510 7.5953 77.9202 0.0000 -12.4995 0.0000
# 4 0.0000 0.0000 0.0000 27.0369 0.0000 -0.8376
# 5 -2.7584 -0.2197 -12.4995 0.0000 35.5481 0.0000
# 6 0.0000 0.0000 0.0000 -0.8376 0.0000 26.2173
#
#
#
# Elastic Compliance Matrix: (Units=1/GPa)
#
#
# Indices 1 2 3 4 5 6 
#
# 1 0.012274 -0.003410 -0.006459 0.000000 -0.001340 0.000000
# 2 -0.003410 0.024189 -0.000582 0.000000 -0.000320 0.000000
# 3 -0.006459 -0.000582 0.017243 0.000000 0.005558 0.000000
# 4 0.000000 0.000000 0.000000 0.037023 0.000000 0.001183
# 5 -0.001340 -0.000320 0.005558 0.000000 0.029979 0.000000
# 6 0.000000 0.000000 0.000000 0.001183 0.000000 0.038180
#
#
# Mechanical properties :
#
#
# Convention : Reuss Voigt Hill
#
# Bulk Modulus (GPa) = 30.48408 40.03445 35.25926
# Shear Modulus (GPa) = 26.21555 28.68414 27.44985
#
# Velocity S-wave (km/s) = 3.61307 3.77935 3.69715
# Velocity P-wave (km/s) = 5.70837 6.24341 5.98187
#
# Compressibility (1/GPa) = 0.03280401
#
# Stress axis : x y z
#
# Youngs Moduli (GPa) = 81.47055 41.34118 57.99422
#
# Poissons Ratio (x) = 0.14095 0.37461
# Poissons Ratio (y) = 0.27778 0.03377
# Poissons Ratio (z) = 0.52625 0.02407
#
# Static dielectric constant tensor:
#      x y z
#    x 3.933710 0.000000 -0.209920 
#    y 0.000000 3.520250 0.000000 
#    z -0.209920 0.000000 3.681920 
# 
# 
# High freq. dielectric constant tensor:
#      x y z
#    x 1.798970 0.000000 -0.007320 
#    y 0.000000 1.761880 0.000000 
#    z -0.007320 0.000000 1.773660 
# 
# From -- ./inp_files/50072.got.cif
#   From: 2010.06.25/outbox.cif.g09.slc.cpg/sg13_26_cif.got.tgz:50072.got - 2010.06.28 04:50:58.
