data_PCOD8121545
_publ_section_title
;
Structure prediction by ZEFSAII (Michael W. Deem and Ramdas Pophale) SiO2 
 PCOD8121545
Probable space group: P 2/C
;
_chemical_formula_sum "Si O2"
_cell_formula_units_Z 18
_cell_length_a 10.170848
_cell_length_b 7.182617
_cell_length_c 10.112038
_cell_angle_alpha 90.000000
_cell_angle_beta 81.447735
_cell_angle_gamma 90.000000
_cell_volume 730.503720
_symmetry_space_group_name_H-M "P 2/C"
_symmetry_group_IT_number 13
_symmetry_cell_setting 'monoclinic'
loop_
_space_group_symop_operation_xyz
x,y,z
-x,y,1/2-z
-x,-y,-z
x,-y,1/2+z
loop_
_atom_site_type_symbol
_atom_site_label
_atom_site_fract_x
_atom_site_fract_y
_atom_site_fract_z
Si Si1 0.417756 0.952372 0.882748
Si Si2 0.000000 0.301031 0.250000
Si Si3 0.864680 0.102510 0.054692
Si Si4 0.806256 0.480126 0.935021
Si Si5 0.639383 0.469497 0.199232
O O1 0.500000 0.044902 0.750000
O O2 0.265970 0.031780 0.920739
O O3 0.397575 0.732752 0.856483
O O4 0.500000 0.000000 0.000000
O O5 0.118910 0.182501 0.298268
O O6 0.053576 0.418864 0.116301
O O7 0.836720 0.261829 0.949547
O O8 0.000000 0.000000 0.000000
O O9 0.717018 0.527322 0.823186
O O10 0.730996 0.568048 0.074098
O O11 0.500000 0.575256 0.250000
#
# Coordination Sequence:
#
# PCOD8121545 Si02
#       5
#     4   2   4   4   4
#     4  10  23  47  71 105 151 194 243 306 379 448
#     4  12  24  48  72 110 148 192 264 308 374 450
#     4  11  27  46  75 111 150 199 248 313 378 449
#     4  11  22  46  73 107 148 195 250 312 365 450
#     4  10  22  43  74 108 142 193 253 303 368 451
#
# _framework density 24.640533000000001
#
# number of rings (size 3 to 8) (size 9 to 14) (size 15 to 20)
#    0.000    1.333    4.444    1.333    3.111    0.889 
#    4.000   13.333    0.000    0.000    0.000    0.000 
#    0.000    0.000    0.000    0.000    0.000    0.000 
#
# Total GULP energy -223003.090442 kJ/mol
# GULP energy per Si atom -12389.060580 kJ/mol
# Density = 2.458445 g / cm^3
# Si number density = 24.640533 Si / 1000 Ang^3
#
#
#
# Elastic Constant Matrix: (Units=GPa)
#
#
# Indices 1 2 3 4 5 6 
#
# 1 202.4896 23.5974 48.2690 0.0000 -29.0202 0.0000
# 2 23.5974 46.8795 -11.1057 0.0000 6.7916 0.0000
# 3 48.2690 -11.1057 70.3833 0.0000 -12.8651 0.0000
# 4 0.0000 0.0000 0.0000 23.7084 0.0000 18.7643
# 5 -29.0202 6.7916 -12.8651 0.0000 75.9769 0.0000
# 6 0.0000 0.0000 0.0000 18.7643 0.0000 28.4068
#
#
#
# Elastic Compliance Matrix: (Units=1/GPa)
#
#
# Indices 1 2 3 4 5 6 
#
# 1 0.007130 -0.005173 -0.005287 0.000000 0.002291 0.000000
# 2 -0.005173 0.026066 0.007093 0.000000 -0.003105 0.000000
# 3 -0.005287 0.007093 0.019058 0.000000 0.000573 0.000000
# 4 0.000000 0.000000 0.000000 0.088390 0.000000 -0.058387
# 5 0.002291 -0.003105 0.000573 0.000000 0.014411 0.000000
# 6 0.000000 0.000000 0.000000 -0.058387 0.000000 0.073771
#
#
# Mechanical properties :
#
#
# Convention : Reuss Voigt Hill
#
# Bulk Modulus (GPa) = 21.96909 49.03042 35.49975
# Shear Modulus (GPa) = 19.94146 42.88452 31.41299
#
# Velocity S-wave (km/s) = 2.84790 4.17634 3.57438
# Velocity P-wave (km/s) = 4.44401 6.57246 5.61010
#
# Compressibility (1/GPa) = 0.04551850
#
# Stress axis : x y z
#
# Youngs Moduli (GPa) = 140.25027 38.36474 52.47110
#
# Poissons Ratio (x) = 0.19848 0.27744
# Poissons Ratio (y) = 0.72558 -0.37219
# Poissons Ratio (z) = 0.74157 -0.27213
#
# Static dielectric constant tensor:
#      x y z
#    x 5.405270 0.000000 -0.370230 
#    y 0.000000 4.156880 0.000000 
#    z -0.370230 0.000000 4.232280 
# 
# 
# High freq. dielectric constant tensor:
#      x y z
#    x 2.019230 0.000000 -0.009790 
#    y 0.000000 1.939260 0.000000 
#    z -0.009790 0.000000 1.992090 
# 
# From -- ./inp_files/14798.got.cif
#   From: 2010.06.25/outbox.cif.g09.slc.cpg/sg13_8_cif.got.tgz:14798.got - 2010.06.28 04:50:58.
