data_PCOD8121418
_publ_section_title
;
Structure prediction by ZEFSAII (Michael W. Deem and Ramdas Pophale) SiO2 
 PCOD8121418
Probable space group: P 2/C
;
_chemical_formula_sum "Si O2"
_cell_formula_units_Z 28
_cell_length_a 5.969774
_cell_length_b 10.851577
_cell_length_c 20.557520
_cell_angle_alpha 90.000000
_cell_angle_beta 112.437458
_cell_angle_gamma 90.000000
_cell_volume 1230.928630
_symmetry_space_group_name_H-M "P 2/C"
_symmetry_group_IT_number 13
_symmetry_cell_setting 'monoclinic'
loop_
_space_group_symop_operation_xyz
x,y,z
-x,y,1/2-z
-x,-y,-z
x,-y,1/2+z
loop_
_atom_site_type_symbol
_atom_site_label
_atom_site_fract_x
_atom_site_fract_y
_atom_site_fract_z
Si Si1 0.500000 0.594686 0.250000
Si Si2 0.894893 0.186886 0.977760
Si Si3 0.777374 0.473168 0.176876
Si Si4 0.978051 0.701848 0.350501
Si Si5 0.794767 0.771489 0.608961
Si Si6 0.000000 0.103974 0.750000
Si Si7 0.346569 0.050527 0.070188
Si Si8 0.754729 0.099555 0.296312
O O1 0.538336 0.509332 0.190925
O O2 0.732896 0.680078 0.283021
O O3 0.905148 0.277102 0.917218
O O4 0.661919 0.093954 0.950577
O O5 0.871675 0.259401 0.043411
O O6 0.152559 0.117986 0.002561
O O7 0.847576 0.583115 0.134662
O O8 0.690816 0.354381 0.126747
O O9 0.000000 0.445497 0.250000
O O10 0.093527 0.816888 0.322996
O O11 0.606817 0.885279 0.591810
O O12 0.021813 0.805441 0.680842
O O13 0.781931 0.014334 0.749068
O O14 0.246453 0.047926 0.131609
O O15 0.500000 0.166881 0.250000
#
# Coordination Sequence:
#
# PCOD8121418 Si02
#       8
#     2   4   4   4   4   2   4   4
#     4  10  22  42  66  96 130 176 220 286 340 382
#     4  10  23  44  67  96 137 180 226 275 339 406
#     4  10  24  44  65  98 133 175 229 280 336 398
#     4  11  23  44  68  98 131 177 228 281 340 403
#     4  11  25  45  67  99 138 182 227 271 340 416
#     4  12  22  40  64 100 134 164 228 276 340 408
#     4  10  22  42  65  97 135 181 219 273 338 407
#     4  11  25  40  65 104 135 171 217 284 343 402
#
# _framework density 22.747055
#
# number of rings (size 3 to 8) (size 9 to 14) (size 15 to 20)
#    0.000    1.429    3.571    1.286    4.000    7.429 
#    3.857    1.429    0.000    0.000    0.000    0.000 
#    0.000    0.000    0.000    0.000    0.000    0.000 
#
# Total GULP energy -347108.080379 kJ/mol
# GULP energy per Si atom -12396.717156 kJ/mol
# Density = 2.269528 g / cm^3
# Si number density = 22.747055 Si / 1000 Ang^3
#
#
#
# Elastic Constant Matrix: (Units=GPa)
#
#
# Indices 1 2 3 4 5 6 
#
# 1 105.1390 47.6756 36.4374 0.0000 -3.7955 0.0000
# 2 47.6756 107.6103 55.0912 0.0000 -19.8192 0.0000
# 3 36.4374 55.0912 97.8074 0.0000 -22.6117 0.0000
# 4 0.0000 0.0000 0.0000 23.0780 0.0000 -9.3140
# 5 -3.7955 -19.8192 -22.6117 0.0000 45.8612 0.0000
# 6 0.0000 0.0000 0.0000 -9.3140 0.0000 20.7938
#
#
#
# Elastic Compliance Matrix: (Units=1/GPa)
#
#
# Indices 1 2 3 4 5 6 
#
# 1 0.012397 -0.004600 -0.002539 0.000000 -0.002214 0.000000
# 2 -0.004600 0.014979 -0.005999 0.000000 0.003135 0.000000
# 3 -0.002539 -0.005999 0.015689 0.000000 0.004933 0.000000
# 4 0.000000 0.000000 0.000000 0.052893 0.000000 0.023692
# 5 -0.002214 0.003135 0.004933 0.000000 0.025409 0.000000
# 6 0.000000 0.000000 0.000000 0.023692 0.000000 0.058703
#
#
# Mechanical properties :
#
#
# Convention : Reuss Voigt Hill
#
# Bulk Modulus (GPa) = 59.56040 65.44057 62.50048
# Shear Modulus (GPa) = 23.59112 29.37011 26.48061
#
# Velocity S-wave (km/s) = 3.22391 3.59717 3.41564
# Velocity P-wave (km/s) = 6.33236 6.78853 6.56441
#
# Compressibility (1/GPa) = 0.01678968
#
# Stress axis : x y z
#
# Youngs Moduli (GPa) = 80.66268 66.75848 63.73723
#
# Poissons Ratio (x) = 0.30711 0.16184
# Poissons Ratio (y) = 0.37107 0.38234
# Poissons Ratio (z) = 0.20482 0.40046
#
# Static dielectric constant tensor:
#      x y z
#    x 4.088460 0.000000 -0.195500 
#    y 0.000000 3.913700 0.000000 
#    z -0.195500 0.000000 4.104890 
# 
# 
# High freq. dielectric constant tensor:
#      x y z
#    x 1.897610 0.000000 -0.022900 
#    y 0.000000 1.878940 0.000000 
#    z -0.022900 0.000000 1.897260 
# 
# From -- ./inp_files/73458.got.cif
#   From: 2010.06.25/outbox.cif.g09.slc.cpg/sg13_37_cif.got.tgz:73458.got - 2010.06.28 04:50:58.
