data_PCOD8121634
_publ_section_title
;
Structure prediction by ZEFSAII (Michael W. Deem and Ramdas Pophale) SiO2 
 PCOD8121634
Probable space group: P 2/C
;
_chemical_formula_sum "Si O2"
_cell_formula_units_Z 16
_cell_length_a 23.294523
_cell_length_b 6.678135
_cell_length_c 13.195050
_cell_angle_alpha 90.000000
_cell_angle_beta 18.855127
_cell_angle_gamma 90.000000
_cell_volume 663.375831
_symmetry_space_group_name_H-M "P 2/C"
_symmetry_group_IT_number 13
_symmetry_cell_setting 'monoclinic'
loop_
_space_group_symop_operation_xyz
x,y,z
-x,y,1/2-z
-x,-y,-z
x,-y,1/2+z
loop_
_atom_site_type_symbol
_atom_site_label
_atom_site_fract_x
_atom_site_fract_y
_atom_site_fract_z
Si Si1 0.673999 0.388722 0.169741
Si Si2 0.269857 0.904103 0.096293
Si Si3 0.114402 0.228327 0.211694
Si Si4 0.329726 0.983042 0.712683
O O1 0.500000 0.500000 0.500000
O O2 0.742350 0.243515 0.146916
O O3 0.626474 0.251588 0.150294
O O4 0.830753 0.539128 0.877199
O O5 0.094688 0.788949 0.426763
O O6 0.217961 0.107816 0.126184
O O7 0.382789 0.974259 0.006919
O O8 0.176435 0.138618 0.000107
O O9 0.500000 0.000000 0.500000
#
# Coordination Sequence:
#
# PCOD8121634 Si02
#       4
#     4   4   4   4
#     4  11  23  44  70 104 140 178 245 297 354 437
#     4  10  24  43  72  95 143 188 230 298 366 415
#     4  10  22  45  67 103 134 184 244 290 352 432
#     4  11  23  44  65 101 146 184 233 294 358 427
#
# _framework density 24.119054999999999
#
# number of rings (size 3 to 8) (size 9 to 14) (size 15 to 20)
#    0.000    1.500    2.500    1.500    0.000    6.000 
#    4.500    7.500    0.000    0.000    0.000    0.000 
#    0.000    0.000    0.000    0.000    0.000    0.000 
#
# Total GULP energy -198334.299775 kJ/mol
# GULP energy per Si atom -12395.893736 kJ/mol
# Density = 2.406416 g / cm^3
# Si number density = 24.119055 Si / 1000 Ang^3
#
#
#
# Elastic Constant Matrix: (Units=GPa)
#
#
# Indices 1 2 3 4 5 6 
#
# 1 162.8673 66.4418 48.8321 0.0000 33.1678 0.0000
# 2 66.4418 164.4027 33.3052 0.0000 15.6731 0.0000
# 3 48.8321 33.3052 96.0301 0.0000 28.8385 0.0000
# 4 0.0000 0.0000 0.0000 59.0201 0.0000 17.5514
# 5 33.1678 15.6731 28.8385 0.0000 41.4072 0.0000
# 6 0.0000 0.0000 0.0000 17.5514 0.0000 20.3973
#
#
#
# Elastic Compliance Matrix: (Units=1/GPa)
#
#
# Indices 1 2 3 4 5 6 
#
# 1 0.008813 -0.002687 -0.002194 0.000000 -0.004515 0.000000
# 2 -0.002687 0.007404 -0.001272 0.000000 0.000236 0.000000
# 3 -0.002194 -0.001272 0.014286 0.000000 -0.007711 0.000000
# 4 0.000000 0.000000 0.000000 0.022770 0.000000 -0.019593
# 5 -0.004515 0.000236 -0.007711 0.000000 0.033047 0.000000
# 6 0.000000 0.000000 0.000000 -0.019593 0.000000 0.065886
#
#
# Mechanical properties :
#
#
# Convention : Reuss Voigt Hill
#
# Bulk Modulus (GPa) = 54.95597 80.05092 67.50345
# Shear Modulus (GPa) = 29.31212 42.47965 35.89589
#
# Velocity S-wave (km/s) = 3.48991 4.20128 3.86201
# Velocity P-wave (km/s) = 6.25092 7.53633 6.92352
#
# Compressibility (1/GPa) = 0.01819638
#
# Stress axis : x y z
#
# Youngs Moduli (GPa) = 113.46454 135.06600 69.99930
#
# Poissons Ratio (x) = 0.36292 0.15358
# Poissons Ratio (y) = 0.30488 0.08906
# Poissons Ratio (z) = 0.24894 0.17185
#
# Static dielectric constant tensor:
#      x y z
#    x 4.331370 0.000000 0.544470 
#    y 0.000000 4.855790 0.000000 
#    z 0.544470 0.000000 4.759400 
# 
# 
# High freq. dielectric constant tensor:
#      x y z
#    x 1.940620 0.000000 0.027430 
#    y 0.000000 1.959950 0.000000 
#    z 0.027430 0.000000 1.985190 
# 
# From -- ./inp_files/59063.got.cif
#   From: 2010.06.25/outbox.cif.g09.slc.cpg/sg13_30_cif.got.tgz:59063.got - 2010.06.28 04:50:58.
