data_PCOD8121165
_publ_section_title
;
Structure prediction by ZEFSAII (Michael W. Deem and Ramdas Pophale) SiO2 
 PCOD8121165
Probable space group: P 2/C
;
_chemical_formula_sum "Si O2"
_cell_formula_units_Z 24
_cell_length_a 17.159877
_cell_length_b 10.131611
_cell_length_c 16.867108
_cell_angle_alpha 90.000000
_cell_angle_beta 158.139945
_cell_angle_gamma 90.000000
_cell_volume 1091.877625
_symmetry_space_group_name_H-M "P 2/C"
_symmetry_group_IT_number 13
_symmetry_cell_setting 'monoclinic'
loop_
_space_group_symop_operation_xyz
x,y,z
-x,y,1/2-z
-x,-y,-z
x,-y,1/2+z
loop_
_atom_site_type_symbol
_atom_site_label
_atom_site_fract_x
_atom_site_fract_y
_atom_site_fract_z
Si Si1 0.997868 0.215579 0.088894
Si Si2 0.378112 0.330443 0.847028
Si Si3 0.237348 0.477548 0.341283
Si Si4 0.356171 0.113930 0.328574
Si Si5 0.000000 0.058462 0.250000
Si Si6 0.283616 0.154306 0.080733
Si Si7 0.000000 0.629449 0.250000
O O1 0.076679 0.364493 0.166306
O O2 0.129463 0.119719 0.155905
O O3 0.019618 0.154034 0.195062
O O4 0.758097 0.226252 0.832624
O O5 0.228060 0.418209 0.760501
O O6 0.524870 0.419378 0.927346
O O7 0.528636 0.252501 0.049168
O O8 0.164206 0.541720 0.355199
O O9 0.311611 0.093841 0.194164
O O10 0.500000 0.000000 0.500000
O O11 0.202859 0.964754 0.448778
O O12 0.500000 0.206254 0.250000
O O13 0.125562 0.278428 0.930847
#
# Coordination Sequence:
#
# PCOD8121165 Si02
#       7
#     4   4   4   4   2   4   2
#     4  11  23  41  64  89 124 166 208 257 313 374
#     4  10  22  41  64  91 124 163 208 259 311 375
#     4  10  22  40  62  92 124 161 210 255 310 375
#     4  11  23  40  65  94 122 163 213 260 315 374
#     4  11  25  42  60  90 125 161 206 258 312 371
#     4  11  24  41  63  92 127 162 205 260 314 372
#     4  11  23  40  64  94 127 167 208 254 316 377
#
# _framework density 21.980485999999999
#
# number of rings (size 3 to 8) (size 9 to 14) (size 15 to 20)
#    0.000    1.333    0.000    5.000    0.000   10.667 
#    0.000    5.000    0.000    0.000    0.000    0.000 
#    0.000    0.000    0.000    0.000    0.000    0.000 
#
# Total GULP energy -297654.129116 kJ/mol
# GULP energy per Si atom -12402.255380 kJ/mol
# Density = 2.193046 g / cm^3
# Si number density = 21.980486 Si / 1000 Ang^3
#
#
#
# Elastic Constant Matrix: (Units=GPa)
#
#
# Indices 1 2 3 4 5 6 
#
# 1 139.4584 38.2512 58.9133 0.0000 4.8568 0.0000
# 2 38.2512 86.7126 39.2611 0.0000 0.5624 0.0000
# 3 58.9133 39.2611 121.0198 0.0000 -4.6657 0.0000
# 4 0.0000 0.0000 0.0000 55.3218 0.0000 8.7235
# 5 4.8568 0.5624 -4.6657 0.0000 36.3815 0.0000
# 6 0.0000 0.0000 0.0000 8.7235 0.0000 38.6010
#
#
#
# Elastic Compliance Matrix: (Units=1/GPa)
#
#
# Indices 1 2 3 4 5 6 
#
# 1 0.009558 -0.002424 -0.003934 0.000000 -0.001743 0.000000
# 2 -0.002424 0.014154 -0.003425 0.000000 -0.000334 0.000000
# 3 -0.003934 -0.003425 0.011368 0.000000 0.002036 0.000000
# 4 0.000000 0.000000 0.000000 0.018744 0.000000 -0.004236
# 5 -0.001743 -0.000334 0.002036 0.000000 0.027985 0.000000
# 6 0.000000 0.000000 0.000000 -0.004236 0.000000 0.026863
#
#
# Mechanical properties :
#
#
# Convention : Reuss Voigt Hill
#
# Bulk Modulus (GPa) = 64.45352 68.89357 66.67355
# Shear Modulus (GPa) = 37.47863 40.11189 38.79526
#
# Velocity S-wave (km/s) = 4.13375 4.27650 4.20573
# Velocity P-wave (km/s) = 7.22292 7.46965 7.34732
#
# Compressibility (1/GPa) = 0.01551506
#
# Stress axis : x y z
#
# Youngs Moduli (GPa) = 104.62569 70.64918 87.96885
#
# Poissons Ratio (x) = 0.17124 0.34604
# Poissons Ratio (y) = 0.25360 0.30129
# Poissons Ratio (z) = 0.41157 0.24197
#
# Static dielectric constant tensor:
#      x y z
#    x 3.942280 0.000000 0.223790 
#    y 0.000000 4.071230 0.000000 
#    z 0.223790 0.000000 4.095600 
# 
# 
# High freq. dielectric constant tensor:
#      x y z
#    x 1.856690 0.000000 0.006120 
#    y 0.000000 1.879960 0.000000 
#    z 0.006120 0.000000 1.870330 
# 
# From -- ./inp_files/69883.got.cif
#   From: 2010.06.25/outbox.cif.g09.slc.cpg/sg13_35_cif.got.tgz:69883.got - 2010.06.28 04:50:58.
