data_PCOD8121090
_publ_section_title
;
Structure prediction by ZEFSAII (Michael W. Deem and Ramdas Pophale) SiO2 
 PCOD8121090
Probable space group: P 2/C
;
_chemical_formula_sum "Si O2"
_cell_formula_units_Z 28
_cell_length_a 25.260849
_cell_length_b 11.226778
_cell_length_c 25.709467
_cell_angle_alpha 90.000000
_cell_angle_beta 11.176269
_cell_angle_gamma 90.000000
_cell_volume 1413.229687
_symmetry_space_group_name_H-M "P 2/C"
_symmetry_group_IT_number 13
_symmetry_cell_setting 'monoclinic'
loop_
_space_group_symop_operation_xyz
x,y,z
-x,y,1/2-z
-x,-y,-z
x,-y,1/2+z
loop_
_atom_site_type_symbol
_atom_site_label
_atom_site_fract_x
_atom_site_fract_y
_atom_site_fract_z
Si Si1 0.728538 0.101341 0.987520
Si Si2 0.692601 0.210780 0.681722
Si Si3 0.843415 0.015174 0.096766
Si Si4 0.136180 0.167584 0.169125
Si Si5 0.202601 0.594568 0.240528
Si Si6 0.315636 0.554705 0.248440
Si Si7 0.690721 0.850305 0.407590
O O1 0.649792 0.161528 0.008890
O O2 0.000000 0.159878 0.750000
O O3 0.766946 0.962155 0.941110
O O4 0.500000 0.126835 0.250000
O O5 0.694059 0.108009 0.724388
O O6 0.764102 0.337606 0.637024
O O7 0.913637 0.166273 0.428215
O O8 0.402939 0.233288 0.933323
O O9 0.597884 0.110363 0.339818
O O10 0.000000 0.000000 0.000000
O O11 0.067258 0.055929 0.838520
O O12 0.000000 0.232330 0.250000
O O13 0.308719 0.604655 0.196886
O O14 0.216284 0.724468 0.203415
O O15 0.891562 0.552331 0.540332
O O16 0.384240 0.501200 0.031980
#
# Coordination Sequence:
#
# PCOD8121090 Si02
#       7
#     4   4   4   4   4   4   4
#     4  11  21  37  60  87 119 157 201 247 297 364
#     4  12  21  39  60  91 124 156 197 250 308 363
#     4  12  24  37  57  93 130 159 188 247 323 379
#     4  11  22  37  60  88 124 156 201 246 300 373
#     4  10  22  41  61  87 117 163 211 243 285 357
#     4  10  22  39  63  86 117 162 208 244 287 355
#     4  12  23  40  61  89 124 161 201 254 308 366
#
# _framework density 19.812774000000001
#
# number of rings (size 3 to 8) (size 9 to 14) (size 15 to 20)
#    0.000    0.857    2.857    6.000    0.000    3.429 
#    0.000    0.000    0.000    8.571    0.000    0.000 
#    0.000    0.000    0.000    0.000    0.000    0.000 
#
# Total GULP energy -347239.796355 kJ/mol
# GULP energy per Si atom -12401.421298 kJ/mol
# Density = 1.976768 g / cm^3
# Si number density = 19.812774 Si / 1000 Ang^3
#
#
#
# Elastic Constant Matrix: (Units=GPa)
#
#
# Indices 1 2 3 4 5 6 
#
# 1 115.6171 46.0710 38.9652 0.0000 -6.8151 0.0000
# 2 46.0710 83.8126 26.5017 0.0000 1.5004 0.0000
# 3 38.9652 26.5017 122.4742 0.0000 3.6683 0.0000
# 4 0.0000 0.0000 0.0000 12.6998 0.0000 0.8913
# 5 -6.8151 1.5004 3.6683 0.0000 34.7452 0.0000
# 6 0.0000 0.0000 0.0000 0.8913 0.0000 17.8426
#
#
#
# Elastic Compliance Matrix: (Units=1/GPa)
#
#
# Indices 1 2 3 4 5 6 
#
# 1 0.012037 -0.005829 -0.002655 0.000000 0.002893 0.000000
# 2 -0.005829 0.015633 -0.001478 0.000000 -0.001662 0.000000
# 3 -0.002655 -0.001478 0.009373 0.000000 -0.001446 0.000000
# 4 0.000000 0.000000 0.000000 0.079019 0.000000 -0.003947
# 5 0.002893 -0.001662 -0.001446 0.000000 0.029573 0.000000
# 6 0.000000 0.000000 0.000000 -0.003947 0.000000 0.056243
#
#
# Mechanical properties :
#
#
# Convention : Reuss Voigt Hill
#
# Bulk Modulus (GPa) = 58.41785 60.55331 59.48558
# Shear Modulus (GPa) = 21.97722 27.08191 24.52957
#
# Velocity S-wave (km/s) = 3.33415 3.70116 3.52244
# Velocity P-wave (km/s) = 6.66116 6.99242 6.82880
#
# Compressibility (1/GPa) = 0.01711806
#
# Stress axis : x y z
#
# Youngs Moduli (GPa) = 83.07490 63.96807 106.69051
#
# Poissons Ratio (x) = 0.37287 0.28326
# Poissons Ratio (y) = 0.48425 0.15773
# Poissons Ratio (z) = 0.22056 0.09457
#
# Static dielectric constant tensor:
#      x y z
#    x 3.992900 0.000000 -0.119780 
#    y 0.000000 3.310780 0.000000 
#    z -0.119780 0.000000 3.835920 
# 
# 
# High freq. dielectric constant tensor:
#      x y z
#    x 1.774720 0.000000 -0.000030 
#    y 0.000000 1.746800 0.000000 
#    z -0.000030 0.000000 1.796670 
# 
# From -- ./inp_files/94114.got.cif
#   From: 2010.06.25/outbox.cif.g09.slc.cpg/sg13_48_cif.got.tgz:94114.got - 2010.06.28 04:50:58.
