data_PCOD8121920
_publ_section_title
;
Structure prediction by ZEFSAII (Michael W. Deem and Ramdas Pophale) SiO2 
 PCOD8121920
Probable space group: P 2/C
;
_chemical_formula_sum "Si O2"
_cell_formula_units_Z 22
_cell_length_a 21.576737
_cell_length_b 6.711065
_cell_length_c 12.498444
_cell_angle_alpha 90.000000
_cell_angle_beta 144.624619
_cell_angle_gamma 90.000000
_cell_volume 1047.755313
_symmetry_space_group_name_H-M "P 2/C"
_symmetry_group_IT_number 13
_symmetry_cell_setting 'monoclinic'
loop_
_space_group_symop_operation_xyz
x,y,z
-x,y,1/2-z
-x,-y,-z
x,-y,1/2+z
loop_
_atom_site_type_symbol
_atom_site_label
_atom_site_fract_x
_atom_site_fract_y
_atom_site_fract_z
Si Si1 0.000000 0.608297 0.750000
Si Si2 0.819913 0.353258 0.387958
Si Si3 0.087796 0.864992 0.680025
Si Si4 0.260610 0.026773 0.067411
Si Si5 0.548183 0.303706 0.203167
Si Si6 0.350767 0.636979 0.285452
O O1 0.904723 0.466461 0.580121
O O2 0.966152 0.747916 0.799503
O O3 0.864296 0.297269 0.334311
O O4 0.788631 0.152969 0.405708
O O5 0.716425 0.496479 0.227579
O O6 0.000000 0.000000 0.500000
O O7 0.180220 0.012651 0.853664
O O8 0.373185 0.114381 0.185014
O O9 0.274398 0.805509 0.131727
O O10 0.500000 0.340652 0.250000
O O11 0.611425 0.502988 0.260871
O O12 0.451678 0.262079 0.985200
#
# Coordination Sequence:
#
# PCOD8121920 Si02
#       6
#     2   4   4   4   4   4
#     4  12  24  48  66  98 140 174 222 290 328 406
#     4  11  25  42  70  97 137 179 224 276 341 398
#     4  12  26  43  72 101 133 183 227 278 341 402
#     4  11  24  45  66 100 139 174 225 281 330 404
#     4  10  24  40  70  98 132 174 225 275 335 402
#     4  10  23  45  64  98 138 172 222 278 335 395
#
# _framework density 20.997268999999999
#
# number of rings (size 3 to 8) (size 9 to 14) (size 15 to 20)
#    0.000    1.091    1.818    3.273    5.091    0.727 
#    0.000    0.000    0.000    0.000    0.000    0.000 
#    0.000    0.000    0.000    0.000    0.000    0.000 
#
# Total GULP energy -272940.042869 kJ/mol
# GULP energy per Si atom -12406.365585 kJ/mol
# Density = 2.094948 g / cm^3
# Si number density = 20.997269 Si / 1000 Ang^3
#
#
#
# Elastic Constant Matrix: (Units=GPa)
#
#
# Indices 1 2 3 4 5 6 
#
# 1 165.8434 65.0280 39.5148 0.0000 5.0345 0.0000
# 2 65.0280 113.3795 64.7359 0.0000 0.2390 0.0000
# 3 39.5148 64.7359 127.1699 0.0000 5.2686 0.0000
# 4 0.0000 0.0000 0.0000 49.8793 0.0000 -5.4930
# 5 5.0345 0.2390 5.2686 0.0000 28.0773 0.0000
# 6 0.0000 0.0000 0.0000 -5.4930 0.0000 74.8614
#
#
#
# Elastic Compliance Matrix: (Units=1/GPa)
#
#
# Indices 1 2 3 4 5 6 
#
# 1 0.007833 -0.004415 -0.000131 0.000000 -0.001342 0.000000
# 2 -0.004415 0.014956 -0.006318 0.000000 0.001850 0.000000
# 3 -0.000131 -0.006318 0.011204 0.000000 -0.002025 0.000000
# 4 0.000000 0.000000 0.000000 0.020212 0.000000 0.001483
# 5 -0.001342 0.001850 -0.002025 0.000000 0.036221 0.000000
# 6 0.000000 0.000000 0.000000 0.001483 0.000000 0.013467
#
#
# Mechanical properties :
#
#
# Convention : Reuss Voigt Hill
#
# Bulk Modulus (GPa) = 81.53160 82.77223 82.15191
# Shear Modulus (GPa) = 38.54819 46.37120 42.45969
#
# Velocity S-wave (km/s) = 4.28935 4.70450 4.50171
# Velocity P-wave (km/s) = 7.96525 8.30758 8.13822
#
# Compressibility (1/GPa) = 0.01226518
#
# Stress axis : x y z
#
# Youngs Moduli (GPa) = 127.66788 66.86495 89.25236
#
# Poissons Ratio (x) = 0.29521 0.01167
# Poissons Ratio (y) = 0.56365 0.56389
# Poissons Ratio (z) = 0.01670 0.42245
#
# Static dielectric constant tensor:
#      x y z
#    x 3.853220 0.000000 0.184630 
#    y 0.000000 3.813850 0.000000 
#    z 0.184630 0.000000 4.123330 
# 
# 
# High freq. dielectric constant tensor:
#      x y z
#    x 1.827130 0.000000 0.012540 
#    y 0.000000 1.831050 0.000000 
#    z 0.012540 0.000000 1.838890 
# 
# From -- ./inp_files/35356.got.cif
#   From: 2010.06.25/outbox.cif.g09.slc.cpg/sg13_18_cif.got.tgz:35356.got - 2010.06.28 04:50:58.
