data_PCOD8121356
_publ_section_title
;
Structure prediction by ZEFSAII (Michael W. Deem and Ramdas Pophale) SiO2 
 PCOD8121356
Probable space group: P 2/C
;
_chemical_formula_sum "Si O2"
_cell_formula_units_Z 22
_cell_length_a 28.862999
_cell_length_b 7.155712
_cell_length_c 17.107001
_cell_angle_alpha 90.000000
_cell_angle_beta 162.606629
_cell_angle_gamma 90.000000
_cell_volume 1056.180760
_symmetry_space_group_name_H-M "P 2/C"
_symmetry_group_IT_number 13
_symmetry_cell_setting 'monoclinic'
loop_
_space_group_symop_operation_xyz
x,y,z
-x,y,1/2-z
-x,-y,-z
x,-y,1/2+z
loop_
_atom_site_type_symbol
_atom_site_label
_atom_site_fract_x
_atom_site_fract_y
_atom_site_fract_z
Si Si1 0.386901 0.091085 0.380237
Si Si2 0.038825 0.382532 0.139307
Si Si3 0.500000 0.402648 0.250000
Si Si4 0.249904 0.747761 0.239330
Si Si5 0.367484 0.673411 0.154801
Si Si6 0.748857 0.535967 0.897719
O O1 0.263699 0.943534 0.216099
O O2 0.500000 0.000000 0.500000
O O3 0.497688 0.170992 0.628117
O O4 0.284239 0.249146 0.174046
O O5 0.189794 0.248535 0.364949
O O6 0.091296 0.523426 0.294145
O O7 0.000000 0.500000 0.000000
O O8 0.898054 0.251974 0.941072
O O9 0.594189 0.271432 0.459838
O O10 0.380813 0.534566 0.103626
O O11 0.233584 0.575253 0.154562
O O12 0.388424 0.556114 0.270042
#
# Coordination Sequence:
#
# PCOD8121356 Si02
#       6
#     4   4   2   4   4   4
#     4  12  22  39  72 105 134 176 236 288 337 421
#     4  10  22  43  69  98 138 187 226 283 351 417
#     4  12  22  40  70  96 134 182 226 286 348 412
#     4  12  23  42  72 100 134 180 237 283 347 421
#     4  10  22  41  69  94 139 180 228 276 357 408
#     4  10  22  42  68  97 136 182 221 276 353 409
#
# _framework density 20.829768999999999
#
# number of rings (size 3 to 8) (size 9 to 14) (size 15 to 20)
#    1.091    0.000    5.455    2.182    0.000    0.727 
#    0.000    7.273    0.000    7.636    0.000    0.000 
#    0.000    0.000    0.000    0.000    0.000    0.000 
#
# Total GULP energy -272652.974005 kJ/mol
# GULP energy per Si atom -12393.317000 kJ/mol
# Density = 2.078236 g / cm^3
# Si number density = 20.829769 Si / 1000 Ang^3
#
#
#
# Elastic Constant Matrix: (Units=GPa)
#
#
# Indices 1 2 3 4 5 6 
#
# 1 80.4442 26.7835 36.1620 0.0000 5.6529 0.0000
# 2 26.7835 103.2263 41.2420 0.0000 5.7280 0.0000
# 3 36.1620 41.2420 116.8204 0.0000 -4.4545 0.0000
# 4 0.0000 0.0000 0.0000 21.6239 0.0000 3.1715
# 5 5.6529 5.7280 -4.4545 0.0000 49.5456 0.0000
# 6 0.0000 0.0000 0.0000 3.1715 0.0000 31.4621
#
#
#
# Elastic Compliance Matrix: (Units=1/GPa)
#
#
# Indices 1 2 3 4 5 6 
#
# 1 0.015077 -0.002234 -0.003948 0.000000 -0.001817 0.000000
# 2 -0.002234 0.011748 -0.003510 0.000000 -0.001419 0.000000
# 3 -0.003948 -0.003510 0.011092 0.000000 0.001854 0.000000
# 4 0.000000 0.000000 0.000000 0.046939 0.000000 -0.004732
# 5 -0.001817 -0.001419 0.001854 0.000000 0.020721 0.000000
# 6 0.000000 0.000000 0.000000 -0.004732 0.000000 0.032261
#
#
# Mechanical properties :
#
#
# Convention : Reuss Voigt Hill
#
# Bulk Modulus (GPa) = 53.95571 56.54066 55.24819
# Shear Modulus (GPa) = 30.59962 33.61320 32.10641
#
# Velocity S-wave (km/s) = 3.83696 4.02146 3.93029
# Velocity P-wave (km/s) = 6.75197 6.98326 6.86859
#
# Compressibility (1/GPa) = 0.01853372
#
# Stress axis : x y z
#
# Youngs Moduli (GPa) = 66.32595 85.11926 90.15430
#
# Poissons Ratio (x) = 0.19015 0.35591
# Poissons Ratio (y) = 0.14816 0.31646
# Poissons Ratio (z) = 0.26184 0.29878
#
# Static dielectric constant tensor:
#      x y z
#    x 3.865520 0.000000 0.038320 
#    y 0.000000 3.490760 0.000000 
#    z 0.038320 0.000000 3.932350 
# 
# 
# High freq. dielectric constant tensor:
#      x y z
#    x 1.826460 0.000000 -0.001810 
#    y 0.000000 1.778810 0.000000 
#    z -0.001810 0.000000 1.823060 
# 
# From -- ./inp_files/72049.got.cif
#   From: 2010.06.25/outbox.cif.g09.slc.cpg/sg13_37_cif.got.tgz:72049.got - 2010.06.28 04:50:58.
