data_PCOD8121873
_publ_section_title
;
Structure prediction by ZEFSAII (Michael W. Deem and Ramdas Pophale) SiO2 
 PCOD8121873
Probable space group: P 2/C
;
_chemical_formula_sum "Si O2"
_cell_formula_units_Z 32
_cell_length_a 9.164393
_cell_length_b 10.831478
_cell_length_c 32.493901
_cell_angle_alpha 90.000000
_cell_angle_beta 29.478985
_cell_angle_gamma 90.000000
_cell_volume 1587.268645
_symmetry_space_group_name_H-M "P 2/C"
_symmetry_group_IT_number 13
_symmetry_cell_setting 'monoclinic'
loop_
_space_group_symop_operation_xyz
x,y,z
-x,y,1/2-z
-x,-y,-z
x,-y,1/2+z
loop_
_atom_site_type_symbol
_atom_site_label
_atom_site_fract_x
_atom_site_fract_y
_atom_site_fract_z
Si Si1 0.118781 0.405611 0.435854
Si Si2 0.317009 0.068853 0.578560
Si Si3 0.835440 0.769922 0.154847
Si Si4 0.110541 0.081573 0.267889
Si Si5 0.714326 0.954040 0.118972
Si Si6 0.848863 0.510294 0.661607
Si Si7 0.808323 0.367030 0.256228
Si Si8 0.830383 0.852879 0.004107
O O1 0.020271 0.426971 0.412100
O O2 0.475924 0.410474 0.348998
O O3 0.000000 0.500000 0.500000
O O4 0.975427 0.275043 0.482904
O O5 0.533349 0.161215 0.550332
O O6 0.049281 0.153660 0.630903
O O7 0.500000 0.000000 0.500000
O O8 0.178549 0.951821 0.635482
O O9 0.500000 0.783055 0.250000
O O10 0.946057 0.630429 0.131002
O O11 0.837112 0.827308 0.108742
O O12 0.383342 0.992677 0.213526
O O13 0.200560 0.223111 0.252740
O O14 0.000000 0.054578 0.250000
O O15 0.723640 0.934935 0.068371
O O16 0.926119 0.067413 0.080605
O O17 0.500000 0.527965 0.750000
O O18 0.956502 0.564350 0.679677
O O19 0.000000 0.395773 0.250000
#
# Coordination Sequence:
#
# PCOD8121873 Si02
#       8
#     4   4   4   4   4   4   4   4
#     4  11  23  44  67  98 133 177 223 277 334 395
#     4  12  25  39  61 101 133 159 214 281 332 386
#     4  11  22  40  64  90 124 169 213 262 328 389
#     4  11  22  42  66  97 131 173 222 270 332 403
#     4  11  21  39  64  91 128 172 212 258 333 397
#     4   9  22  43  64  92 127 171 223 266 317 396
#     4  10  23  43  71  95 129 178 230 275 325 404
#     4  11  24  39  62  96 130 170 211 269 332 393
#
# _framework density 20.160416999999999
#
# number of rings (size 3 to 8) (size 9 to 14) (size 15 to 20)
#    0.000    1.250    5.000    0.750    1.750    1.000 
#    6.750    1.875    0.000    0.000    0.000    0.000 
#    0.000    0.000    0.000    0.000    0.000    0.000 
#
# Total GULP energy -396513.531929 kJ/mol
# GULP energy per Si atom -12391.047873 kJ/mol
# Density = 2.011453 g / cm^3
# Si number density = 20.160417 Si / 1000 Ang^3
#
#
#
# Elastic Constant Matrix: (Units=GPa)
#
#
# Indices 1 2 3 4 5 6 
#
# 1 109.2831 45.2482 32.1308 0.0000 5.1116 0.0000
# 2 45.2482 107.0016 46.9525 0.0000 2.5451 0.0000
# 3 32.1308 46.9525 104.1087 0.0000 8.9880 0.0000
# 4 0.0000 0.0000 0.0000 26.2992 0.0000 4.1366
# 5 5.1116 2.5451 8.9880 0.0000 31.2654 0.0000
# 6 0.0000 0.0000 0.0000 4.1366 0.0000 12.6909
#
#
#
# Elastic Compliance Matrix: (Units=1/GPa)
#
#
# Indices 1 2 3 4 5 6 
#
# 1 0.011354 -0.004088 -0.001568 0.000000 -0.001073 0.000000
# 2 -0.004088 0.013133 -0.004745 0.000000 0.000963 0.000000
# 3 -0.001568 -0.004745 0.012483 0.000000 -0.002946 0.000000
# 4 0.000000 0.000000 0.000000 0.040079 0.000000 -0.013064
# 5 -0.001073 0.000963 -0.002946 0.000000 0.032928 0.000000
# 6 0.000000 0.000000 0.000000 -0.013064 0.000000 0.083055
#
#
# Mechanical properties :
#
#
# Convention : Reuss Voigt Hill
#
# Bulk Modulus (GPa) = 61.84263 63.22849 62.53556
# Shear Modulus (GPa) = 22.80774 27.12188 24.96481
#
# Velocity S-wave (km/s) = 3.36715 3.67182 3.52278
# Velocity P-wave (km/s) = 6.77191 7.02902 6.90166
#
# Compressibility (1/GPa) = 0.01617008
#
# Stress axis : x y z
#
# Youngs Moduli (GPa) = 88.07226 76.14210 80.10632
#
# Poissons Ratio (x) = 0.31126 0.12561
# Poissons Ratio (y) = 0.36003 0.38007
# Poissons Ratio (z) = 0.13810 0.36126
#
# Static dielectric constant tensor:
#      x y z
#    x 3.753450 0.000000 0.063560 
#    y 0.000000 3.485270 0.000000 
#    z 0.063560 0.000000 3.672370 
# 
# 
# High freq. dielectric constant tensor:
#      x y z
#    x 1.791980 0.000000 0.004170 
#    y 0.000000 1.786190 0.000000 
#    z 0.004170 0.000000 1.791420 
# 
# From -- ./inp_files/96115.got.cif
#   From: 2010.06.25/outbox.cif.g09.slc.cpg/sg13_49_cif.got.tgz:96115.got - 2010.06.28 04:50:58.
