data_PCOD8121352
_publ_section_title
;
Structure prediction by ZEFSAII (Michael W. Deem and Ramdas Pophale) SiO2 
 PCOD8121352
Probable space group: P 2/C
;
_chemical_formula_sum "Si O2"
_cell_formula_units_Z 18
_cell_length_a 15.639327
_cell_length_b 5.119777
_cell_length_c 17.030923
_cell_angle_alpha 90.000000
_cell_angle_beta 143.568090
_cell_angle_gamma 90.000000
_cell_volume 809.834983
_symmetry_space_group_name_H-M "P 2/C"
_symmetry_group_IT_number 13
_symmetry_cell_setting 'monoclinic'
loop_
_space_group_symop_operation_xyz
x,y,z
-x,y,1/2-z
-x,-y,-z
x,-y,1/2+z
loop_
_atom_site_type_symbol
_atom_site_label
_atom_site_fract_x
_atom_site_fract_y
_atom_site_fract_z
Si Si1 0.907985 0.463517 0.257653
Si Si2 0.500000 0.328688 0.250000
Si Si3 0.910234 0.971557 0.355689
Si Si4 0.589523 0.087266 0.167529
Si Si5 0.583174 0.570460 0.464706
O O1 0.938217 0.684051 0.344263
O O2 0.000000 0.533963 0.250000
O O3 0.962167 0.187257 0.331572
O O4 0.740049 0.454918 0.115625
O O5 0.601900 0.144147 0.270688
O O6 0.594123 0.509040 0.378582
O O7 0.742619 0.013989 0.247714
O O8 0.000000 0.000000 0.500000
O O9 0.475062 0.860859 0.064983
O O10 0.526333 0.351338 0.078441
#
# Coordination Sequence:
#
# PCOD8121352 Si02
#       5
#     4   2   4   4   4
#     4  12  28  47  72 103 143 189 232 293 348 416
#     4   8  22  36  66 102 134 182 206 298 334 426
#     4  12  28  47  72 103 143 189 232 293 348 416
#     4  10  22  41  69 100 134 179 231 276 350 410
#     4  10  22  41  69  99 135 179 232 276 350 409
#
# _framework density 22.226751
#
# number of rings (size 3 to 8) (size 9 to 14) (size 15 to 20)
#    1.333    0.000    0.000    4.667    3.111    8.889 
#    0.000    0.000    0.000    0.000    0.000    0.000 
#    0.000    0.000    0.000    0.000    0.000    0.000 
#
# Total GULP energy -223193.024423 kJ/mol
# GULP energy per Si atom -12399.612468 kJ/mol
# Density = 2.217616 g / cm^3
# Si number density = 22.226751 Si / 1000 Ang^3
#
#
#
# Elastic Constant Matrix: (Units=GPa)
#
#
# Indices 1 2 3 4 5 6 
#
# 1 82.4826 19.2519 13.7812 0.0000 12.4308 0.0000
# 2 19.2519 134.4932 34.3748 0.0000 2.9829 0.0000
# 3 13.7812 34.3748 122.6763 0.0000 1.4810 0.0000
# 4 0.0000 0.0000 0.0000 53.4259 0.0000 -33.4064
# 5 12.4308 2.9829 1.4810 0.0000 29.1321 0.0000
# 6 0.0000 0.0000 0.0000 -33.4064 0.0000 67.1136
#
#
#
# Elastic Compliance Matrix: (Units=1/GPa)
#
#
# Indices 1 2 3 4 5 6 
#
# 1 0.013491 -0.001549 -0.001015 0.000000 -0.005546 0.000000
# 2 -0.001549 0.008201 -0.002123 0.000000 -0.000071 0.000000
# 3 -0.001015 -0.002123 0.008858 0.000000 0.000200 0.000000
# 4 0.000000 0.000000 0.000000 0.027176 0.000000 0.013527
# 5 -0.005546 -0.000071 0.000200 0.000000 0.036690 0.000000
# 6 0.000000 0.000000 0.000000 0.013527 0.000000 0.021633
#
#
# Mechanical properties :
#
#
# Convention : Reuss Voigt Hill
#
# Bulk Modulus (GPa) = 47.22145 52.71866 49.97005
# Shear Modulus (GPa) = 37.74119 48.08392 42.91256
#
# Velocity S-wave (km/s) = 4.12516 4.65621 4.39871
# Velocity P-wave (km/s) = 6.63179 7.25790 6.95190
#
# Compressibility (1/GPa) = 0.02117682
#
# Stress axis : x y z
#
# Youngs Moduli (GPa) = 74.12537 121.93253 112.89190
#
# Poissons Ratio (x) = 0.18885 0.11454
# Poissons Ratio (y) = 0.11480 0.23969
# Poissons Ratio (z) = 0.07521 0.25889
#
# Static dielectric constant tensor:
#      x y z
#    x 3.908610 0.000000 -0.510220 
#    y 0.000000 4.366680 0.000000 
#    z -0.510220 0.000000 3.671930 
# 
# 
# High freq. dielectric constant tensor:
#      x y z
#    x 1.879200 0.000000 -0.023640 
#    y 0.000000 1.891180 0.000000 
#    z -0.023640 0.000000 1.877160 
# 
# From -- ./inp_files/52414.got.cif
#   From: 2010.06.25/outbox.cif.g09.slc.cpg/sg13_27_cif.got.tgz:52414.got - 2010.06.28 04:50:58.
