data_PCOD8121615
_publ_section_title
;
Structure prediction by ZEFSAII (Michael W. Deem and Ramdas Pophale) SiO2 
 PCOD8121615
Probable space group: P 2/C
;
_chemical_formula_sum "Si O2"
_cell_formula_units_Z 16
_cell_length_a 12.890727
_cell_length_b 5.272646
_cell_length_c 17.259486
_cell_angle_alpha 90.000000
_cell_angle_beta 148.784796
_cell_angle_gamma 90.000000
_cell_volume 607.962121
_symmetry_space_group_name_H-M "P 2/C"
_symmetry_group_IT_number 13
_symmetry_cell_setting 'monoclinic'
loop_
_space_group_symop_operation_xyz
x,y,z
-x,y,1/2-z
-x,-y,-z
x,-y,1/2+z
loop_
_atom_site_type_symbol
_atom_site_label
_atom_site_fract_x
_atom_site_fract_y
_atom_site_fract_z
Si Si1 0.793514 0.156599 0.649356
Si Si2 0.267083 0.638097 0.234557
Si Si3 0.620146 0.087357 0.894411
Si Si4 0.941775 0.138852 0.377327
O O1 0.643725 0.099706 0.482746
O O2 0.845549 0.897631 0.729772
O O3 0.000000 0.278531 0.750000
O O4 0.696352 0.351449 0.648728
O O5 0.480757 0.672487 0.329510
O O6 0.164784 0.372936 0.147191
O O7 0.109689 0.871032 0.109352
O O8 0.500000 0.937187 0.750000
O O9 0.824608 0.196545 0.989335
#
# Coordination Sequence:
#
# PCOD8121615 Si02
#       4
#     4   4   4   4
#     4   8  19  42  66  96 126 174 219 271 318 390
#     4  10  22  44  72  93 130 179 223 270 326 388
#     4  11  23  42  68 104 137 173 219 275 338 396
#     4   9  23  43  68  93 131 174 227 268 319 395
#
# _framework density 26.317432
#
# number of rings (size 3 to 8) (size 9 to 14) (size 15 to 20)
#    1.500    1.000    0.000    0.750    0.000    8.000 
#    0.000    2.500    0.000    0.000    0.000    0.000 
#    0.000    0.000    0.000    0.000    0.000    0.000 
#
# Total GULP energy -198256.102237 kJ/mol
# GULP energy per Si atom -12391.006390 kJ/mol
# Density = 2.625753 g / cm^3
# Si number density = 26.317432 Si / 1000 Ang^3
#
#
#
# Elastic Constant Matrix: (Units=GPa)
#
#
# Indices 1 2 3 4 5 6 
#
# 1 142.8880 50.4619 44.9259 0.0000 34.5219 0.0000
# 2 50.4619 127.2342 49.5059 0.0000 6.4492 0.0000
# 3 44.9259 49.5059 133.2775 0.0000 3.8101 0.0000
# 4 0.0000 0.0000 0.0000 15.3303 0.0000 1.4152
# 5 34.5219 6.4492 3.8101 0.0000 38.0027 0.0000
# 6 0.0000 0.0000 0.0000 1.4152 0.0000 15.5596
#
#
#
# Elastic Compliance Matrix: (Units=1/GPa)
#
#
# Indices 1 2 3 4 5 6 
#
# 1 0.011035 -0.002995 -0.002342 0.000000 -0.009281 0.000000
# 2 -0.002995 0.010057 -0.002763 0.000000 0.001291 0.000000
# 3 -0.002342 -0.002763 0.009271 0.000000 0.001667 0.000000
# 4 0.000000 0.000000 0.000000 0.065783 0.000000 -0.005983
# 5 -0.009281 0.001291 0.001667 0.000000 0.034359 0.000000
# 6 0.000000 0.000000 0.000000 -0.005983 0.000000 0.064813
#
#
# Mechanical properties :
#
#
# Convention : Reuss Voigt Hill
#
# Bulk Modulus (GPa) = 70.60440 77.02078 73.81259
# Shear Modulus (GPa) = 23.12267 31.01226 27.06746
#
# Velocity S-wave (km/s) = 2.96735 3.43650 3.21050
# Velocity P-wave (km/s) = 6.21502 6.71384 6.46924
#
# Compressibility (1/GPa) = 0.01416342
#
# Stress axis : x y z
#
# Youngs Moduli (GPa) = 90.62283 99.43396 107.86034
#
# Poissons Ratio (x) = 0.29778 0.25260
# Poissons Ratio (y) = 0.27140 0.29802
# Poissons Ratio (z) = 0.21223 0.27474
#
# Static dielectric constant tensor:
#      x y z
#    x 5.134970 0.000000 -0.350530 
#    y 0.000000 3.900290 0.000000 
#    z -0.350530 0.000000 4.942960 
# 
# 
# High freq. dielectric constant tensor:
#      x y z
#    x 2.086320 0.000000 -0.014790 
#    y 0.000000 1.995610 0.000000 
#    z -0.014790 0.000000 2.069120 
# 
# From -- ./inp_files/79154.got.cif
#   From: 2010.06.25/outbox.cif.g09.slc.cpg/sg13_40_cif.got.tgz:79154.got - 2010.06.28 04:50:58.
