data_PCOD8121575
_publ_section_title
;
Structure prediction by ZEFSAII (Michael W. Deem and Ramdas Pophale) SiO2 
 PCOD8121575
Probable space group: P 2/C
;
_chemical_formula_sum "Si O2"
_cell_formula_units_Z 18
_cell_length_a 6.105930
_cell_length_b 6.289133
_cell_length_c 21.285323
_cell_angle_alpha 90.000000
_cell_angle_beta 102.637922
_cell_angle_gamma 90.000000
_cell_volume 797.574520
_symmetry_space_group_name_H-M "P 2/C"
_symmetry_group_IT_number 13
_symmetry_cell_setting 'monoclinic'
loop_
_space_group_symop_operation_xyz
x,y,z
-x,y,1/2-z
-x,-y,-z
x,-y,1/2+z
loop_
_atom_site_type_symbol
_atom_site_label
_atom_site_fract_x
_atom_site_fract_y
_atom_site_fract_z
Si Si1 0.633013 0.197779 0.134933
Si Si2 0.274867 0.477520 0.585066
Si Si3 0.327594 0.133441 0.686359
Si Si4 0.895269 0.193768 0.031652
Si Si5 0.000000 0.884143 0.750000
O O1 0.520222 0.418974 0.107302
O O2 0.752973 0.100447 0.080780
O O3 0.808614 0.252633 0.202383
O O4 0.449873 0.028609 0.146545
O O5 0.231113 0.334634 0.643385
O O6 0.267579 0.333539 0.522413
O O7 0.089494 0.660311 0.572457
O O8 0.500000 0.212983 0.750000
O O9 0.111117 0.027072 0.703307
O O10 0.000000 0.000000 0.000000
#
# Coordination Sequence:
#
# PCOD8121575 Si02
#       5
#     4   4   4   4   2
#     4  11  23  42  66  94 129 167 212 262 316 375
#     4  11  24  41  65  97 127 168 215 261 316 378
#     4  10  24  43  65  93 127 167 212 263 317 376
#     4  11  25  43  65  95 132 169 210 262 319 377
#     4  10  22  44  66  90 130 170 206 264 324 374
#
# _framework density 22.568424
#
# number of rings (size 3 to 8) (size 9 to 14) (size 15 to 20)
#    0.000    1.333    0.000    4.667    0.000   15.111 
#    0.000    2.222    0.000    0.000    0.000    0.000 
#    0.000    0.000    0.000    0.000    0.000    0.000 
#
# Total GULP energy -223256.700844 kJ/mol
# GULP energy per Si atom -12403.150047 kJ/mol
# Density = 2.251706 g / cm^3
# Si number density = 22.568424 Si / 1000 Ang^3
#
#
#
# Elastic Constant Matrix: (Units=GPa)
#
#
# Indices 1 2 3 4 5 6 
#
# 1 127.7113 64.9510 79.3676 0.0000 -11.6477 0.0000
# 2 64.9510 117.2721 81.5413 0.0000 7.7692 0.0000
# 3 79.3676 81.5413 156.4259 0.0000 0.3200 0.0000
# 4 0.0000 0.0000 0.0000 54.8595 0.0000 12.1690
# 5 -11.6477 7.7692 0.3200 0.0000 62.8298 0.0000
# 6 0.0000 0.0000 0.0000 12.1690 0.0000 23.6634
#
#
#
# Elastic Compliance Matrix: (Units=1/GPa)
#
#
# Indices 1 2 3 4 5 6 
#
# 1 0.013029 -0.004412 -0.004317 0.000000 0.002983 0.000000
# 2 -0.004412 0.015036 -0.005594 0.000000 -0.002649 0.000000
# 3 -0.004317 -0.005594 0.011499 0.000000 -0.000167 0.000000
# 4 0.000000 0.000000 0.000000 0.020575 0.000000 -0.010581
# 5 0.002983 -0.002649 -0.000167 0.000000 0.016797 0.000000
# 6 0.000000 0.000000 0.000000 -0.010581 0.000000 0.047701
#
#
# Mechanical properties :
#
#
# Convention : Reuss Voigt Hill
#
# Bulk Modulus (GPa) = 91.58670 94.79211 93.18940
# Shear Modulus (GPa) = 31.86297 39.97383 35.91840
#
# Velocity S-wave (km/s) = 3.76152 4.21316 3.99373
# Velocity P-wave (km/s) = 7.71591 8.10931 7.91506
#
# Compressibility (1/GPa) = 0.01091862
#
# Stress axis : x y z
#
# Youngs Moduli (GPa) = 76.75317 66.50839 86.96199
#
# Poissons Ratio (x) = 0.29344 0.37539
# Poissons Ratio (y) = 0.33864 0.48644
# Poissons Ratio (z) = 0.33132 0.37203
#
# Static dielectric constant tensor:
#      x y z
#    x 4.116400 0.000000 0.178620 
#    y 0.000000 3.839960 0.000000 
#    z 0.178620 0.000000 4.439360 
# 
# 
# High freq. dielectric constant tensor:
#      x y z
#    x 1.894720 0.000000 0.008470 
#    y 0.000000 1.870860 0.000000 
#    z 0.008470 0.000000 1.918930 
# 
# From -- ./inp_files/82943.got.cif
#   From: 2010.06.25/outbox.cif.g09.slc.cpg/sg13_42_cif.got.tgz:82943.got - 2010.06.28 04:50:58.
