data_PCOD8121881
_publ_section_title
;
Structure prediction by ZEFSAII (Michael W. Deem and Ramdas Pophale) SiO2 
 PCOD8121881
Probable space group: P 2/C
;
_chemical_formula_sum "Si O2"
_cell_formula_units_Z 14
_cell_length_a 5.472194
_cell_length_b 12.044359
_cell_length_c 8.726203
_cell_angle_alpha 90.000000
_cell_angle_beta 84.141961
_cell_angle_gamma 90.000000
_cell_volume 572.132459
_symmetry_space_group_name_H-M "P 2/C"
_symmetry_group_IT_number 13
_symmetry_cell_setting 'monoclinic'
loop_
_space_group_symop_operation_xyz
x,y,z
-x,y,1/2-z
-x,-y,-z
x,-y,1/2+z
loop_
_atom_site_type_symbol
_atom_site_label
_atom_site_fract_x
_atom_site_fract_y
_atom_site_fract_z
Si Si1 0.538901 0.679105 0.419019
Si Si2 0.307022 0.906015 0.971462
Si Si3 0.741720 0.456324 0.342618
Si Si4 0.000000 0.996056 0.250000
O O1 0.500000 0.726165 0.250000
O O2 0.597088 0.781175 0.526531
O O3 0.751726 0.584585 0.399342
O O4 0.293899 0.621606 0.505462
O O5 0.214503 0.924641 0.803262
O O6 0.500000 0.000000 0.000000
O O7 0.085325 0.916393 0.107297
O O8 0.500000 0.441295 0.250000
O O9 0.000000 0.423186 0.250000
#
# Coordination Sequence:
#
# PCOD8121881 Si02
#       4
#     4   4   4   2
#     4  10  23  43  74 104 140 196 238 309 369 440
#     4  11  23  46  69 105 145 186 241 298 367 436
#     4  10  24  48  72 108 147 189 250 309 370 438
#     4  10  24  42  70 104 142 190 238 300 358 444
#
# _framework density 24.469859
#
# number of rings (size 3 to 8) (size 9 to 14) (size 15 to 20)
#    0.000    1.714    0.000    2.571    2.000   12.571 
#   20.571    0.000    0.000    0.000    0.000    0.000 
#    0.000    0.000    0.000    0.000    0.000    0.000 
#
# Total GULP energy -173565.520706 kJ/mol
# GULP energy per Si atom -12397.537193 kJ/mol
# Density = 2.441416 g / cm^3
# Si number density = 24.469859 Si / 1000 Ang^3
#
#
#
# Elastic Constant Matrix: (Units=GPa)
#
#
# Indices 1 2 3 4 5 6 
#
# 1 123.5014 34.4495 41.1303 0.0000 0.7577 0.0000
# 2 34.4495 142.1789 33.9259 0.0000 14.2528 0.0000
# 3 41.1303 33.9259 103.5263 0.0000 1.0777 0.0000
# 4 0.0000 0.0000 0.0000 31.3554 0.0000 2.7622
# 5 0.7577 14.2528 1.0777 0.0000 54.1294 0.0000
# 6 0.0000 0.0000 0.0000 2.7622 0.0000 11.1771
#
#
#
# Elastic Compliance Matrix: (Units=1/GPa)
#
#
# Indices 1 2 3 4 5 6 
#
# 1 0.009640 -0.001579 -0.003316 0.000000 0.000347 0.000000
# 2 -0.001579 0.008102 -0.002006 0.000000 -0.002071 0.000000
# 3 -0.003316 -0.002006 0.011631 0.000000 0.000343 0.000000
# 4 0.000000 0.000000 0.000000 0.032602 0.000000 -0.008057
# 5 0.000347 -0.002071 0.000343 0.000000 0.019008 0.000000
# 6 0.000000 0.000000 0.000000 -0.008057 0.000000 0.091460
#
#
# Mechanical properties :
#
#
# Convention : Reuss Voigt Hill
#
# Bulk Modulus (GPa) = 64.22562 65.35757 64.79159
# Shear Modulus (GPa) = 26.11844 36.64578 31.38211
#
# Velocity S-wave (km/s) = 3.27061 3.87407 3.58506
# Velocity P-wave (km/s) = 6.36917 6.83949 6.60851
#
# Compressibility (1/GPa) = 0.01557011
#
# Stress axis : x y z
#
# Youngs Moduli (GPa) = 103.73691 123.42036 85.97981
#
# Poissons Ratio (x) = 0.19491 0.28510
# Poissons Ratio (y) = 0.16383 0.17249
# Poissons Ratio (z) = 0.34398 0.24761
#
# Static dielectric constant tensor:
#      x y z
#    x 4.325990 0.000000 0.001470 
#    y 0.000000 4.254680 0.000000 
#    z 0.001470 0.000000 4.939430 
# 
# 
# High freq. dielectric constant tensor:
#      x y z
#    x 1.951510 0.000000 -0.008900 
#    y 0.000000 1.963670 0.000000 
#    z -0.008900 0.000000 1.997530 
# 
# From -- ./inp_files/8523.got.cif
#   From: 2010.06.25/outbox.cif.g09.slc.cpg/sg13_5_cif.got.tgz:8523.got - 2010.06.28 04:50:58.
