data_PCOD8121560
_publ_section_title
;
Structure prediction by ZEFSAII (Michael W. Deem and Ramdas Pophale) SiO2 
 PCOD8121560
Probable space group: P 2/C
;
_chemical_formula_sum "Si O2"
_cell_formula_units_Z 26
_cell_length_a 8.750722
_cell_length_b 8.462860
_cell_length_c 16.790527
_cell_angle_alpha 90.000000
_cell_angle_beta 79.600502
_cell_angle_gamma 90.000000
_cell_volume 1223.015588
_symmetry_space_group_name_H-M "P 2/C"
_symmetry_group_IT_number 13
_symmetry_cell_setting 'monoclinic'
loop_
_space_group_symop_operation_xyz
x,y,z
-x,y,1/2-z
-x,-y,-z
x,-y,1/2+z
loop_
_atom_site_type_symbol
_atom_site_label
_atom_site_fract_x
_atom_site_fract_y
_atom_site_fract_z
Si Si1 0.240875 0.094708 0.320242
Si Si2 0.905370 0.594388 0.621892
Si Si3 0.000000 0.639731 0.250000
Si Si4 0.848856 0.322489 0.523047
Si Si5 0.728839 0.879100 0.325072
Si Si6 0.023269 0.069819 0.584070
Si Si7 0.573631 0.907689 0.066549
O O1 0.220486 0.284781 0.327504
O O2 0.305051 0.028850 0.230306
O O3 0.338222 0.034798 0.386718
O O4 0.067636 0.025564 0.340093
O O5 0.969465 0.475522 0.680414
O O6 0.818682 0.500391 0.557624
O O7 0.054036 0.683772 0.568665
O O8 0.155471 0.747041 0.222333
O O9 0.689036 0.228514 0.524727
O O10 0.952288 0.245819 0.585020
O O11 0.799842 0.935091 0.403414
O O12 0.557782 0.819238 0.366795
O O13 0.000000 0.000000 0.500000
O O14 0.500000 0.000000 0.000000
#
# Coordination Sequence:
#
# PCOD8121560 Si02
#       7
#     4   4   2   4   4   4   4
#     4  11  23  40  65  98 129 170 220 278 329 386
#     4  11  24  39  69  96 137 167 222 267 336 400
#     4  12  24  40  68 102 126 184 210 264 340 398
#     4  10  22  44  64  97 132 174 219 273 328 391
#     4  12  23  44  66  97 132 170 229 273 327 395
#     4  11  19  37  69  93 122 172 228 271 309 382
#     4  11  26  42  70  96 129 177 226 277 329 385
#
# _framework density 21.258928000000001
#
# number of rings (size 3 to 8) (size 9 to 14) (size 15 to 20)
#    0.000    0.923    4.615    3.231    2.154    0.000 
#    0.000    6.154    0.000    0.000    0.000    0.000 
#    0.000    0.000    0.000    0.000    0.000    0.000 
#
# Total GULP energy -322135.669420 kJ/mol
# GULP energy per Si atom -12389.833439 kJ/mol
# Density = 2.121054 g / cm^3
# Si number density = 21.258928 Si / 1000 Ang^3
#
#
#
# Elastic Constant Matrix: (Units=GPa)
#
#
# Indices 1 2 3 4 5 6 
#
# 1 113.5027 50.1881 42.5622 0.0000 -10.4173 0.0000
# 2 50.1881 107.8667 43.6780 0.0000 -4.5327 0.0000
# 3 42.5622 43.6780 92.7737 0.0000 2.7002 0.0000
# 4 0.0000 0.0000 0.0000 34.5544 0.0000 -1.9717
# 5 -10.4173 -4.5327 2.7002 0.0000 42.1977 0.0000
# 6 0.0000 0.0000 0.0000 -1.9717 0.0000 27.9092
#
#
#
# Elastic Compliance Matrix: (Units=1/GPa)
#
#
# Indices 1 2 3 4 5 6 
#
# 1 0.012295 -0.004057 -0.003813 0.000000 0.002844 0.000000
# 2 -0.004057 0.012899 -0.004231 0.000000 0.000655 0.000000
# 3 -0.003813 -0.004231 0.014588 0.000000 -0.002329 0.000000
# 4 0.000000 0.000000 0.000000 0.029057 0.000000 0.002053
# 5 0.002844 0.000655 -0.002329 0.000000 0.024619 0.000000
# 6 0.000000 0.000000 0.000000 0.002053 0.000000 0.035976
#
#
# Mechanical properties :
#
#
# Convention : Reuss Voigt Hill
#
# Bulk Modulus (GPa) = 64.18502 65.22221 64.70361
# Shear Modulus (GPa) = 31.48022 32.77989 32.13006
#
# Velocity S-wave (km/s) = 3.85229 3.93101 3.89185
# Velocity P-wave (km/s) = 7.07421 7.16591 7.12021
#
# Compressibility (1/GPa) = 0.01557996
#
# Stress axis : x y z
#
# Youngs Moduli (GPa) = 81.33188 77.52549 68.54939
#
# Poissons Ratio (x) = 0.31453 0.26141
# Poissons Ratio (y) = 0.32997 0.29001
# Poissons Ratio (z) = 0.31016 0.32798
#
# Static dielectric constant tensor:
#      x y z
#    x 4.074750 0.000000 -0.299610 
#    y 0.000000 4.192790 0.000000 
#    z -0.299610 0.000000 4.163550 
# 
# 
# High freq. dielectric constant tensor:
#      x y z
#    x 1.818890 0.000000 -0.000160 
#    y 0.000000 1.828650 0.000000 
#    z -0.000160 0.000000 1.851690 
# 
# From -- ./inp_files/63746.got.cif
#   From: 2010.06.25/outbox.cif.g09.slc.cpg/sg13_32_cif.got.tgz:63746.got - 2010.06.28 04:50:58.
