data_PCOD8121571
_publ_section_title
;
Structure prediction by ZEFSAII (Michael W. Deem and Ramdas Pophale) SiO2 
 PCOD8121571
Probable space group: P 2/C
;
_chemical_formula_sum "Si O2"
_cell_formula_units_Z 18
_cell_length_a 23.117712
_cell_length_b 8.632045
_cell_length_c 10.466058
_cell_angle_alpha 90.000000
_cell_angle_beta 154.893990
_cell_angle_gamma 90.000000
_cell_volume 886.153570
_symmetry_space_group_name_H-M "P 2/C"
_symmetry_group_IT_number 13
_symmetry_cell_setting 'monoclinic'
loop_
_space_group_symop_operation_xyz
x,y,z
-x,y,1/2-z
-x,-y,-z
x,-y,1/2+z
loop_
_atom_site_type_symbol
_atom_site_label
_atom_site_fract_x
_atom_site_fract_y
_atom_site_fract_z
Si Si1 0.259215 0.154535 0.651293
Si Si2 0.653065 0.189362 0.189122
Si Si3 0.653043 0.689408 0.423125
Si Si4 0.259301 0.654462 0.385692
Si Si5 0.000000 0.250108 0.250000
O O1 0.261495 0.249762 0.524829
O O2 0.329759 0.250018 0.909493
O O3 0.097429 0.136918 0.360175
O O4 0.340738 0.995918 0.798190
O O5 0.738462 0.250303 0.478817
O O6 0.499984 0.249887 0.896990
O O7 0.717206 0.250005 0.184441
O O8 0.659096 0.504115 0.434969
O O9 0.097508 0.636727 0.029661
#
# Coordination Sequence:
#
# PCOD8121571 Si02
#       5
#     4   4   4   4   2
#     4  10  22  44  65  96 133 173 218 268 320 390
#     4  11  23  40  65 100 132 169 218 269 335 381
#     4  11  23  40  65 100 132 169 218 269 335 381
#     4  10  22  44  65  96 133 173 218 268 320 390
#     4   8  24  44  66  92 136 172 228 250 328 380
#
# _framework density 20.312507
#
# number of rings (size 3 to 8) (size 9 to 14) (size 15 to 20)
#    1.333    0.444    0.000    4.000    0.000    6.222 
#    0.000    0.000    0.000    0.000    0.000    0.000 
#    0.000    0.000    0.000    0.000    0.000    0.000 
#
# Total GULP energy -223065.506245 kJ/mol
# GULP energy per Si atom -12392.528125 kJ/mol
# Density = 2.026627 g / cm^3
# Si number density = 20.312507 Si / 1000 Ang^3
#
#
#
# Elastic Constant Matrix: (Units=GPa)
#
#
# Indices 1 2 3 4 5 6 
#
# 1 162.6467 63.4522 59.0153 0.0000 -33.1085 0.0000
# 2 63.4522 173.1454 54.6057 0.0000 -4.7822 0.0000
# 3 59.0153 54.6057 105.5883 0.0000 1.9917 0.0000
# 4 0.0000 0.0000 0.0000 23.1638 0.0000 -4.7323
# 5 -33.1085 -4.7822 1.9917 0.0000 40.8475 0.0000
# 6 0.0000 0.0000 0.0000 -4.7323 0.0000 31.7743
#
#
#
# Elastic Compliance Matrix: (Units=1/GPa)
#
#
# Indices 1 2 3 4 5 6 
#
# 1 0.010471 -0.002039 -0.004958 0.000000 0.008490 0.000000
# 2 -0.002039 0.007338 -0.002643 0.000000 -0.000665 0.000000
# 3 -0.004958 -0.002643 0.013703 0.000000 -0.004996 0.000000
# 4 0.000000 0.000000 0.000000 0.044526 0.000000 0.006631
# 5 0.008490 -0.000665 -0.004996 0.000000 0.031529 0.000000
# 6 0.000000 0.000000 0.000000 0.006631 0.000000 0.032460
#
#
# Mechanical properties :
#
#
# Convention : Reuss Voigt Hill
#
# Bulk Modulus (GPa) = 81.75199 88.39187 85.07193
# Shear Modulus (GPa) = 30.60300 36.77760 33.69030
#
# Velocity S-wave (km/s) = 3.88572 4.25972 4.07701
# Velocity P-wave (km/s) = 7.77600 8.23432 8.00844
#
# Compressibility (1/GPa) = 0.01223212
#
# Stress axis : x y z
#
# Youngs Moduli (GPa) = 95.50071 136.28060 72.97795
#
# Poissons Ratio (x) = 0.27790 0.36183
# Poissons Ratio (y) = 0.19474 0.19285
# Poissons Ratio (z) = 0.47350 0.36012
#
# Static dielectric constant tensor:
#      x y z
#    x 4.038040 0.000000 -0.301860 
#    y 0.000000 3.763010 0.000000 
#    z -0.301860 0.000000 3.487480 
# 
# 
# High freq. dielectric constant tensor:
#      x y z
#    x 1.810610 0.000000 -0.017290 
#    y 0.000000 1.787170 0.000000 
#    z -0.017290 0.000000 1.779020 
# 
# From -- ./inp_files/14561.got.cif
#   From: 2010.06.25/outbox.cif.g09.slc.cpg/sg13_8_cif.got.tgz:14561.got - 2010.06.28 04:50:58.
