data_PCOD8121852
_publ_section_title
;
Structure prediction by ZEFSAII (Michael W. Deem and Ramdas Pophale) SiO2 
 PCOD8121852
Probable space group: P 2/C
;
_chemical_formula_sum "Si O2"
_cell_formula_units_Z 24
_cell_length_a 8.564479
_cell_length_b 8.812791
_cell_length_c 15.001127
_cell_angle_alpha 90.000000
_cell_angle_beta 81.523672
_cell_angle_gamma 90.000000
_cell_volume 1119.871889
_symmetry_space_group_name_H-M "P 2/C"
_symmetry_group_IT_number 13
_symmetry_cell_setting 'monoclinic'
loop_
_space_group_symop_operation_xyz
x,y,z
-x,y,1/2-z
-x,-y,-z
x,-y,1/2+z
loop_
_atom_site_type_symbol
_atom_site_label
_atom_site_fract_x
_atom_site_fract_y
_atom_site_fract_z
Si Si1 0.139491 0.829799 0.030597
Si Si2 0.831255 0.351818 0.794164
Si Si3 0.350649 0.152339 0.818606
Si Si4 0.332748 0.204292 0.345828
Si Si5 0.320246 0.337885 0.168848
Si Si6 0.210402 0.163638 0.009830
O O1 0.168340 0.723015 0.110164
O O2 0.223437 0.991500 0.045348
O O3 0.220352 0.757850 0.937110
O O4 0.954565 0.834921 0.027785
O O5 0.795291 0.224215 0.722687
O O6 0.699828 0.482450 0.816242
O O7 0.000000 0.421282 0.750000
O O8 0.500000 0.212459 0.750000
O O9 0.352483 0.972020 0.823491
O O10 0.342863 0.205249 0.923391
O O11 0.247406 0.267375 0.264865
O O12 0.497632 0.288031 0.352641
O O13 0.225404 0.280382 0.089902
#
# Coordination Sequence:
#
# PCOD8121852 Si02
#       6
#     4   4   4   4   4   4
#     4  10  23  43  69  97 130 175 231 279 326 390
#     4  12  27  44  65 102 141 179 214 273 344 406
#     4  11  23  44  72  98 131 175 226 284 324 390
#     4  10  24  46  68  98 129 175 232 278 328 388
#     4  11  25  43  62  99 140 174 218 268 340 403
#     4  10  23  43  68 100 130 175 230 278 325 391
#
# _framework density 21.431021999999999
#
# number of rings (size 3 to 8) (size 9 to 14) (size 15 to 20)
#    0.000    1.333    3.333    1.000    7.000    4.000 
#    0.000    0.000    0.000    0.000    0.000    0.000 
#    0.000    0.000    0.000    0.000    0.000    0.000 
#
# Total GULP energy -297457.414796 kJ/mol
# GULP energy per Si atom -12394.058950 kJ/mol
# Density = 2.138224 g / cm^3
# Si number density = 21.431022 Si / 1000 Ang^3
#
#
#
# Elastic Constant Matrix: (Units=GPa)
#
#
# Indices 1 2 3 4 5 6 
#
# 1 54.9944 44.5919 25.6610 0.0000 -6.6515 0.0000
# 2 44.5919 94.0551 62.4707 0.0000 -4.6419 0.0000
# 3 25.6610 62.4707 162.1258 0.0000 -5.5501 0.0000
# 4 0.0000 0.0000 0.0000 10.7405 0.0000 14.0202
# 5 -6.6515 -4.6419 -5.5501 0.0000 35.2680 0.0000
# 6 0.0000 0.0000 0.0000 14.0202 0.0000 24.0113
#
#
#
# Elastic Compliance Matrix: (Units=1/GPa)
#
#
# Indices 1 2 3 4 5 6 
#
# 1 0.030178 -0.014825 0.001070 0.000000 0.003909 0.000000
# 2 -0.014825 0.021609 -0.006010 0.000000 -0.000898 0.000000
# 3 0.001070 -0.006010 0.008339 0.000000 0.000723 0.000000
# 4 0.000000 0.000000 0.000000 0.391530 0.000000 -0.228615
# 5 0.003909 -0.000898 0.000723 0.000000 0.029087 0.000000
# 6 0.000000 0.000000 0.000000 -0.228615 0.000000 0.175136
#
#
# Mechanical properties :
#
#
# Convention : Reuss Voigt Hill
#
# Bulk Modulus (GPa) = 48.55709 64.06916 56.31313
# Shear Modulus (GPa) = 7.11971 25.90073 16.51022
#
# Velocity S-wave (km/s) = 1.82465 3.48021 2.77860
# Velocity P-wave (km/s) = 5.21016 6.79040 6.05208
#
# Compressibility (1/GPa) = 0.02059431
#
# Stress axis : x y z
#
# Youngs Moduli (GPa) = 33.13644 46.27789 119.91176
#
# Poissons Ratio (x) = 0.68608 -0.12827
# Poissons Ratio (y) = 0.49126 0.72073
# Poissons Ratio (z) = -0.03545 0.27815
#
# Static dielectric constant tensor:
#      x y z
#    x 3.802780 0.000000 -0.202150 
#    y 0.000000 3.814300 0.000000 
#    z -0.202150 0.000000 4.283400 
# 
# 
# High freq. dielectric constant tensor:
#      x y z
#    x 1.831280 0.000000 -0.007530 
#    y 0.000000 1.832300 0.000000 
#    z -0.007530 0.000000 1.867980 
# 
# From -- ./inp_files/46035.got.cif
#   From: 2010.06.25/outbox.cif.g09.slc.cpg/sg13_24_cif.got.tgz:46035.got - 2010.06.28 04:50:58.
