data_PCOD8121056
_publ_section_title
;
Structure prediction by ZEFSAII (Michael W. Deem and Ramdas Pophale) SiO2 
 PCOD8121056
Probable space group: P 2/C
;
_chemical_formula_sum "Si O2"
_cell_formula_units_Z 28
_cell_length_a 6.874580
_cell_length_b 15.839191
_cell_length_c 14.493085
_cell_angle_alpha 90.000000
_cell_angle_beta 124.170985
_cell_angle_gamma 90.000000
_cell_volume 1305.681374
_symmetry_space_group_name_H-M "P 2/C"
_symmetry_group_IT_number 13
_symmetry_cell_setting 'monoclinic'
loop_
_space_group_symop_operation_xyz
x,y,z
-x,y,1/2-z
-x,-y,-z
x,-y,1/2+z
loop_
_atom_site_type_symbol
_atom_site_label
_atom_site_fract_x
_atom_site_fract_y
_atom_site_fract_z
Si Si1 0.816741 0.291524 0.624075
Si Si2 0.265265 0.125828 0.133390
Si Si3 0.866003 0.945440 0.625578
Si Si4 0.625197 0.115803 0.548489
Si Si5 0.915831 0.696026 0.942923
Si Si6 0.650074 0.605195 0.517527
Si Si7 0.566851 0.544280 0.867124
O O1 0.708093 0.200299 0.621975
O O2 0.951467 0.287719 0.561796
O O3 0.611517 0.360289 0.570170
O O4 0.000000 0.319945 0.750000
O O5 0.500000 0.102920 0.250000
O O6 0.182026 0.220990 0.134564
O O7 0.069577 0.054837 0.103173
O O8 0.307392 0.117652 0.038538
O O9 0.657431 0.889990 0.524710
O O10 0.000000 0.904471 0.750000
O O11 0.759961 0.035843 0.628668
O O12 0.734343 0.620466 0.881958
O O13 0.157596 0.675511 0.954150
O O14 0.651793 0.577698 0.626852
O O15 0.701310 0.526072 0.463775
O O16 0.500000 0.503771 0.750000
#
# Coordination Sequence:
#
# PCOD8121056 Si02
#       7
#     4   4   4   4   4   4   4
#     4  10  22  39  61  88 120 160 199 256 309 360
#     4  11  21  38  59  86 120 156 198 247 303 363
#     4  11  21  37  62  87 116 163 197 246 306 357
#     4  10  22  39  58  87 124 150 206 251 294 367
#     4  10  22  39  60  87 123 155 203 255 301 369
#     4  10  22  41  61  89 122 155 209 249 301 378
#     4  10  22  40  60  91 122 159 201 253 308 362
#
# _framework density 21.444741
#
# number of rings (size 3 to 8) (size 9 to 14) (size 15 to 20)
#    0.000    1.714    1.429    2.571    2.000    0.571 
#    2.571    0.000    0.000    0.000    0.000    0.000 
#    0.000    0.000    0.000    0.000    0.000    0.000 
#
# Total GULP energy -347081.949850 kJ/mol
# GULP energy per Si atom -12395.783923 kJ/mol
# Density = 2.139593 g / cm^3
# Si number density = 21.444741 Si / 1000 Ang^3
#
#
#
# Elastic Constant Matrix: (Units=GPa)
#
#
# Indices 1 2 3 4 5 6 
#
# 1 115.2258 19.4258 38.4813 0.0000 14.0778 0.0000
# 2 19.4258 53.2536 5.3635 0.0000 2.8936 0.0000
# 3 38.4813 5.3635 79.0575 0.0000 -1.7900 0.0000
# 4 0.0000 0.0000 0.0000 21.7099 0.0000 0.3339
# 5 14.0778 2.8936 -1.7900 0.0000 29.5737 0.0000
# 6 0.0000 0.0000 0.0000 0.3339 0.0000 36.2201
#
#
#
# Elastic Compliance Matrix: (Units=1/GPa)
#
#
# Indices 1 2 3 4 5 6 
#
# 1 0.011837 -0.003442 -0.005656 0.000000 -0.005640 0.000000
# 2 -0.003442 0.020019 0.000310 0.000000 -0.000302 0.000000
# 3 -0.005656 0.000310 0.015462 0.000000 0.003598 0.000000
# 4 0.000000 0.000000 0.000000 0.046068 0.000000 -0.000425
# 5 -0.005640 -0.000302 0.003598 0.000000 0.036746 0.000000
# 6 0.000000 0.000000 0.000000 -0.000425 0.000000 0.027613
#
#
# Mechanical properties :
#
#
# Convention : Reuss Voigt Hill
#
# Bulk Modulus (GPa) = 33.62084 41.56424 37.59254
# Shear Modulus (GPa) = 26.99291 29.78517 28.38904
#
# Velocity S-wave (km/s) = 3.55169 3.73087 3.64238
# Velocity P-wave (km/s) = 5.70362 6.16306 5.93779
#
# Compressibility (1/GPa) = 0.02974346
#
# Stress axis : x y z
#
# Youngs Moduli (GPa) = 84.48267 49.95340 64.67311
#
# Poissons Ratio (x) = 0.17192 0.36578
# Poissons Ratio (y) = 0.29076 -0.02007
# Poissons Ratio (z) = 0.47781 -0.01550
#
# Static dielectric constant tensor:
#      x y z
#    x 3.864300 0.000000 -0.158660 
#    y 0.000000 4.148290 0.000000 
#    z -0.158660 0.000000 3.526050 
# 
# 
# High freq. dielectric constant tensor:
#      x y z
#    x 1.846560 0.000000 -0.002240 
#    y 0.000000 1.843150 0.000000 
#    z -0.002240 0.000000 1.828460 
# 
# From -- ./inp_files/44391.got.cif
#   From: 2010.06.25/outbox.cif.g09.slc.cpg/sg13_23_cif.got.tgz:44391.got - 2010.06.28 04:50:58.
