data_PCOD8121377
_publ_section_title
;
Structure prediction by ZEFSAII (Michael W. Deem and Ramdas Pophale) SiO2 
 PCOD8121377
Probable space group: P 2/C
;
_chemical_formula_sum "Si O2"
_cell_formula_units_Z 26
_cell_length_a 12.098827
_cell_length_b 8.510289
_cell_length_c 25.464873
_cell_angle_alpha 90.000000
_cell_angle_beta 151.291285
_cell_angle_gamma 90.000000
_cell_volume 1259.485387
_symmetry_space_group_name_H-M "P 2/C"
_symmetry_group_IT_number 13
_symmetry_cell_setting 'monoclinic'
loop_
_space_group_symop_operation_xyz
x,y,z
-x,y,1/2-z
-x,-y,-z
x,-y,1/2+z
loop_
_atom_site_type_symbol
_atom_site_label
_atom_site_fract_x
_atom_site_fract_y
_atom_site_fract_z
Si Si1 0.500000 0.520452 0.250000
Si Si2 0.178872 0.765653 0.167006
Si Si3 0.000000 0.433596 0.250000
Si Si4 0.604999 0.214913 0.130378
Si Si5 0.294566 0.731271 0.593944
Si Si6 0.660176 0.647680 0.067975
Si Si7 0.500000 0.014659 0.250000
Si Si8 0.794512 0.131815 0.706062
O O1 0.351056 0.620405 0.229451
O O2 0.686931 0.419060 0.360350
O O3 0.115710 0.794102 0.201872
O O4 0.320857 0.917512 0.209476
O O5 0.947744 0.739678 0.037055
O O6 0.182069 0.321454 0.298103
O O7 0.093103 0.558739 0.332394
O O8 0.513123 0.280514 0.146616
O O9 0.669399 0.033213 0.162671
O O10 0.393527 0.231951 0.001279
O O11 0.328149 0.886923 0.641927
O O12 0.622280 0.743465 0.106773
O O13 0.500000 0.500000 0.000000
O O14 0.000000 0.107860 0.750000
#
# Coordination Sequence:
#
# PCOD8121377 Si02
#       8
#     2   4   2   4   4   4   2   4
#     4  10  26  44  72  98 130 170 230 276 336 400
#     4  11  24  44  68  97 132 172 222 273 335 392
#     4  10  22  42  60  94 134 176 216 270 322 402
#     4  11  23  41  66  96 136 173 225 269 335 399
#     4  11  23  42  70  97 130 172 217 280 335 388
#     4  10  23  39  62  89 132 175 218 266 327 396
#     4  10  22  46  64  96 130 168 218 272 328 398
#     4  12  23  42  67  96 136 177 218 273 327 400
#
# _framework density 20.643352
#
# number of rings (size 3 to 8) (size 9 to 14) (size 15 to 20)
#    0.000    1.231    3.077    2.308    4.308    0.000 
#    0.000    0.000    0.000    0.000    0.000    0.000 
#    0.000    0.000    0.000    0.000    0.000    0.000 
#
# Total GULP energy -322152.131773 kJ/mol
# GULP energy per Si atom -12390.466607 kJ/mol
# Density = 2.059637 g / cm^3
# Si number density = 20.643352 Si / 1000 Ang^3
#
#
#
# Elastic Constant Matrix: (Units=GPa)
#
#
# Indices 1 2 3 4 5 6 
#
# 1 96.2131 37.9702 28.4551 0.0000 -8.5396 0.0000
# 2 37.9702 129.7507 69.4512 0.0000 -7.2998 0.0000
# 3 28.4551 69.4512 127.1264 0.0000 -17.3060 0.0000
# 4 0.0000 0.0000 0.0000 19.3241 0.0000 -24.6141
# 5 -8.5396 -7.2998 -17.3060 0.0000 36.7914 0.0000
# 6 0.0000 0.0000 0.0000 -24.6141 0.0000 -24.7974
#
#
#
# Elastic Compliance Matrix: (Units=1/GPa)
#
#
# Indices 1 2 3 4 5 6 
#
# 1 0.011964 -0.002965 -0.000812 0.000000 0.001807 0.000000
# 2 -0.002965 0.011643 -0.005851 0.000000 -0.001130 0.000000
# 3 -0.000812 -0.005851 0.011818 0.000000 0.004209 0.000000
# 4 0.000000 0.000000 0.000000 0.022854 0.000000 -0.022685
# 5 0.001807 -0.001130 0.004209 0.000000 0.029355 0.000000
# 6 0.000000 0.000000 0.000000 -0.022685 0.000000 -0.017810
#
#
# Mechanical properties :
#
#
# Convention : Reuss Voigt Hill
#
# Bulk Modulus (GPa) = 61.84854 69.42702 65.63778
# Shear Modulus (GPa) = 52.92684 20.74453 36.83568
#
# Velocity S-wave (km/s) = 5.06896 3.17346 4.22878
# Velocity P-wave (km/s) = 8.01777 6.86531 7.46382
#
# Compressibility (1/GPa) = 0.01616853
#
# Stress axis : x y z
#
# Youngs Moduli (GPa) = 83.58247 85.88896 84.62003
#
# Poissons Ratio (x) = 0.25464 0.06874
# Poissons Ratio (y) = 0.24780 0.49511
# Poissons Ratio (z) = 0.06790 0.50254
#
# Static dielectric constant tensor:
#      x y z
#    x 3.576950 0.000000 -0.396970 
#    y 0.000000 4.007710 0.000000 
#    z -0.396970 0.000000 3.671010 
# 
# 
# High freq. dielectric constant tensor:
#      x y z
#    x 1.800170 0.000000 -0.005530 
#    y 0.000000 1.829180 0.000000 
#    z -0.005530 0.000000 1.818110 
# 
# From -- ./inp_files/41706.got.cif
#   From: 2010.06.25/outbox.cif.g09.slc.cpg/sg13_21_cif.got.tgz:41706.got - 2010.06.28 04:50:58.
