data_PCOD8121376
_publ_section_title
;
Structure prediction by ZEFSAII (Michael W. Deem and Ramdas Pophale) SiO2 
 PCOD8121376
Probable space group: P 2/C
;
_chemical_formula_sum "Si O2"
_cell_formula_units_Z 28
_cell_length_a 25.198340
_cell_length_b 12.529045
_cell_length_c 20.408177
_cell_angle_alpha 90.000000
_cell_angle_beta 167.074084
_cell_angle_gamma 90.000000
_cell_volume 1441.260942
_symmetry_space_group_name_H-M "P 2/C"
_symmetry_group_IT_number 13
_symmetry_cell_setting 'monoclinic'
loop_
_space_group_symop_operation_xyz
x,y,z
-x,y,1/2-z
-x,-y,-z
x,-y,1/2+z
loop_
_atom_site_type_symbol
_atom_site_label
_atom_site_fract_x
_atom_site_fract_y
_atom_site_fract_z
Si Si1 0.500000 0.526423 0.250000
Si Si2 0.000000 0.195345 0.250000
Si Si3 0.533256 0.123881 0.469773
Si Si4 0.992520 0.561097 0.170095
Si Si5 0.720062 0.284613 0.250118
Si Si6 0.361235 0.371707 0.713554
Si Si7 0.152681 0.965249 0.035884
Si Si8 0.047376 0.100038 0.604544
O O1 0.483846 0.591610 0.162380
O O2 0.742405 0.460399 0.536254
O O3 0.002703 0.119476 0.190107
O O4 0.235716 0.265082 0.536456
O O5 0.407013 0.231602 0.340332
O O6 0.691643 0.147181 0.595987
O O7 0.708607 0.092375 0.739284
O O8 0.348922 0.029393 0.229455
O O9 0.000000 0.621885 0.250000
O O10 0.890826 0.629090 0.988164
O O11 0.835913 0.454273 0.995947
O O12 0.855741 0.196266 0.368900
O O13 0.536089 0.346494 0.983323
O O14 0.966734 0.053232 0.839140
O O15 0.000000 0.000000 0.500000
#
# Coordination Sequence:
#
# PCOD8121376 Si02
#       8
#     2   2   4   4   4   4   4   4
#     4  10  22  42  60  84 134 156 198 266 312 358
#     4  12  20  38  62  84 126 160 202 256 320 366
#     4   9  18  38  59  81 120 155 200 250 292 364
#     4  10  23  44  62  87 124 161 205 264 311 371
#     4  11  22  38  68  91 119 166 210 248 316 375
#     4  11  23  40  62  95 122 161 205 260 318 376
#     4   9  19  35  56  84 116 160 193 245 304 362
#     4   9  20  36  58  88 119 152 202 250 297 366
#
# _framework density 19.427434000000002
#
# number of rings (size 3 to 8) (size 9 to 14) (size 15 to 20)
#    0.000    2.000    3.571    1.286    0.000    6.286 
#    5.143    0.000    0.000    0.000    0.000    0.000 
#    0.000    0.000    0.000    0.000    0.000    0.000 
#
# Total GULP energy -346911.325951 kJ/mol
# GULP energy per Si atom -12389.690213 kJ/mol
# Density = 1.938322 g / cm^3
# Si number density = 19.427434 Si / 1000 Ang^3
#
#
#
# Elastic Constant Matrix: (Units=GPa)
#
#
# Indices 1 2 3 4 5 6 
#
# 1 83.8958 47.5782 70.4141 0.0000 17.8229 0.0000
# 2 47.5782 85.8016 57.4813 0.0000 -2.9203 0.0000
# 3 70.4141 57.4813 120.6902 0.0000 8.2951 0.0000
# 4 0.0000 0.0000 0.0000 44.1741 0.0000 -32.6496
# 5 17.8229 -2.9203 8.2951 0.0000 46.4718 0.0000
# 6 0.0000 0.0000 0.0000 -32.6496 0.0000 66.1641
#
#
#
# Elastic Compliance Matrix: (Units=1/GPa)
#
#
# Indices 1 2 3 4 5 6 
#
# 1 0.028827 -0.008029 -0.012352 0.000000 -0.009356 0.000000
# 2 -0.008029 0.019659 -0.005037 0.000000 0.005214 0.000000
# 3 -0.012352 -0.005037 0.017806 0.000000 0.001242 0.000000
# 4 0.000000 0.000000 0.000000 0.035634 0.000000 0.017584
# 5 -0.009356 0.005214 0.001242 0.000000 0.025212 0.000000
# 6 0.000000 0.000000 0.000000 0.017584 0.000000 0.023791
#
#
# Mechanical properties :
#
#
# Convention : Reuss Voigt Hill
#
# Bulk Modulus (GPa) = 64.69738 71.25944 67.97841
# Shear Modulus (GPa) = 24.16433 39.02291 31.59362
#
# Velocity S-wave (km/s) = 3.53062 4.48666 4.03704
# Velocity P-wave (km/s) = 7.07069 7.97493 7.53639
#
# Compressibility (1/GPa) = 0.01545658
#
# Stress axis : x y z
#
# Youngs Moduli (GPa) = 34.68968 50.86791 56.16187
#
# Poissons Ratio (x) = 0.40840 0.69369
# Poissons Ratio (y) = 0.27851 0.28289
# Poissons Ratio (z) = 0.42848 0.25623
#
# Static dielectric constant tensor:
#      x y z
#    x 3.928400 0.000000 0.395820 
#    y 0.000000 3.618620 0.000000 
#    z 0.395820 0.000000 3.700190 
# 
# 
# High freq. dielectric constant tensor:
#      x y z
#    x 1.752450 0.000000 0.013950 
#    y 0.000000 1.753900 0.000000 
#    z 0.013950 0.000000 1.754140 
# 
# From -- ./inp_files/89712.got.cif
#   From: 2010.06.25/outbox.cif.g09.slc.cpg/sg13_45_cif.got.tgz:89712.got - 2010.06.28 04:50:58.
