data_PCOD8121555
_publ_section_title
;
Structure prediction by ZEFSAII (Michael W. Deem and Ramdas Pophale) SiO2 
 PCOD8121555
Probable space group: P 2/C
;
_chemical_formula_sum "Si O2"
_cell_formula_units_Z 28
_cell_length_a 9.957339
_cell_length_b 8.512428
_cell_length_c 16.401294
_cell_angle_alpha 90.000000
_cell_angle_beta 72.334187
_cell_angle_gamma 90.000000
_cell_volume 1324.634551
_symmetry_space_group_name_H-M "P 2/C"
_symmetry_group_IT_number 13
_symmetry_cell_setting 'monoclinic'
loop_
_space_group_symop_operation_xyz
x,y,z
-x,y,1/2-z
-x,-y,-z
x,-y,1/2+z
loop_
_atom_site_type_symbol
_atom_site_label
_atom_site_fract_x
_atom_site_fract_y
_atom_site_fract_z
Si Si1 0.521165 0.240307 0.884197
Si Si2 0.500000 0.993731 0.750000
Si Si3 0.019587 0.637315 0.429615
Si Si4 0.297553 0.250527 0.339984
Si Si5 0.255279 0.841194 0.022407
Si Si6 0.500000 0.515000 0.250000
Si Si7 0.225949 0.790989 0.503064
Si Si8 0.003980 0.348412 0.342190
O O1 0.654352 0.203325 0.915436
O O2 0.551143 0.385214 0.818589
O O3 0.386381 0.270198 0.967451
O O4 0.488936 0.090228 0.834752
O O5 0.639073 0.885147 0.729270
O O6 0.889882 0.751219 0.442466
O O7 0.037418 0.535953 0.343455
O O8 0.000000 0.500000 0.500000
O O9 0.152610 0.746382 0.429611
O O10 0.337323 0.216094 0.426586
O O11 0.364036 0.415594 0.301102
O O12 0.128761 0.250819 0.362806
O O13 0.221919 0.025124 0.022795
O O14 0.145138 0.699113 0.589983
O O15 0.000000 0.298579 0.250000
#
# Coordination Sequence:
#
# PCOD8121555 Si02
#       8
#     4   2   4   4   4   2   4   4
#     4  11  25  43  69 101 136 175 229 277 337 406
#     4  10  24  44  66  96 142 172 212 292 336 400
#     4  10  22  44  64  94 132 175 216 272 331 400
#     4  11  23  44  67  96 137 177 226 278 344 397
#     4  12  24  41  70 103 130 181 226 273 338 407
#     4  10  26  44  66  98 138 182 220 286 342 388
#     4  11  23  44  71  97 137 174 223 278 341 403
#     4  11  26  43  69  98 134 179 229 279 336 401
#
# _framework density 21.137905
#
# number of rings (size 3 to 8) (size 9 to 14) (size 15 to 20)
#    0.000    1.143    4.286    1.714    6.000    1.714 
#    0.000    0.714    0.000    0.000    0.000    0.000 
#    0.000    0.000    0.000    0.000    0.000    0.000 
#
# Total GULP energy -347158.829245 kJ/mol
# GULP energy per Si atom -12398.529616 kJ/mol
# Density = 2.108979 g / cm^3
# Si number density = 21.137905 Si / 1000 Ang^3
#
#
#
# Elastic Constant Matrix: (Units=GPa)
#
#
# Indices 1 2 3 4 5 6 
#
# 1 85.5676 26.0679 21.4406 0.0000 17.0455 0.0000
# 2 26.0679 101.7032 35.4557 0.0000 13.9071 0.0000
# 3 21.4406 35.4557 97.1219 0.0000 11.4192 0.0000
# 4 0.0000 0.0000 0.0000 21.7189 0.0000 -14.3371
# 5 17.0455 13.9071 11.4192 0.0000 31.9611 0.0000
# 6 0.0000 0.0000 0.0000 -14.3371 0.0000 20.0996
#
#
#
# Elastic Compliance Matrix: (Units=1/GPa)
#
#
# Indices 1 2 3 4 5 6 
#
# 1 0.013932 -0.002215 -0.001573 0.000000 -0.005904 0.000000
# 2 -0.002215 0.012026 -0.003575 0.000000 -0.002774 0.000000
# 3 -0.001573 -0.003575 0.012179 0.000000 -0.001957 0.000000
# 4 0.000000 0.000000 0.000000 0.087016 0.000000 0.062069
# 5 -0.005904 -0.002774 -0.001957 0.000000 0.036343 0.000000
# 6 0.000000 0.000000 0.000000 0.062069 0.000000 0.094026
#
#
# Mechanical properties :
#
#
# Convention : Reuss Voigt Hill
#
# Bulk Modulus (GPa) = 42.71583 50.03568 46.37575
# Shear Modulus (GPa) = 17.98229 28.18449 23.08339
#
# Velocity S-wave (km/s) = 2.91986 3.65549 3.30818
# Velocity P-wave (km/s) = 5.62312 6.44509 6.04809
#
# Compressibility (1/GPa) = 0.02341053
#
# Stress axis : x y z
#
# Youngs Moduli (GPa) = 71.77845 83.15316 82.11033
#
# Poissons Ratio (x) = 0.18421 0.12913
# Poissons Ratio (y) = 0.15901 0.29355
# Poissons Ratio (z) = 0.11288 0.29728
#
# Static dielectric constant tensor:
#      x y z
#    x 3.746100 0.000000 0.004910 
#    y 0.000000 4.131840 0.000000 
#    z 0.004910 0.000000 3.974730 
# 
# 
# High freq. dielectric constant tensor:
#      x y z
#    x 1.826480 0.000000 -0.007550 
#    y 0.000000 1.839700 0.000000 
#    z -0.007550 0.000000 1.826210 
# 
# From -- ./inp_files/63786.got.cif
#   From: 2010.06.25/outbox.cif.g09.slc.cpg/sg13_32_cif.got.tgz:63786.got - 2010.06.28 04:50:58.
