data_PCOD8121122
_publ_section_title
;
Structure prediction by ZEFSAII (Michael W. Deem and Ramdas Pophale) SiO2 
 PCOD8121122
Probable space group: P 2/C
;
_chemical_formula_sum "Si O2"
_cell_formula_units_Z 22
_cell_length_a 23.087995
_cell_length_b 8.708203
_cell_length_c 13.056623
_cell_angle_alpha 90.000000
_cell_angle_beta 155.950320
_cell_angle_gamma 90.000000
_cell_volume 1069.802795
_symmetry_space_group_name_H-M "P 2/C"
_symmetry_group_IT_number 13
_symmetry_cell_setting 'monoclinic'
loop_
_space_group_symop_operation_xyz
x,y,z
-x,y,1/2-z
-x,-y,-z
x,-y,1/2+z
loop_
_atom_site_type_symbol
_atom_site_label
_atom_site_fract_x
_atom_site_fract_y
_atom_site_fract_z
Si Si1 0.396207 0.611032 0.769656
Si Si2 0.423779 0.096836 0.961942
Si Si3 0.500000 0.125748 0.750000
Si Si4 0.851292 0.260901 0.045047
Si Si5 0.264912 0.650488 0.935136
Si Si6 0.157427 0.600199 0.537034
O O1 0.325896 0.517785 0.562008
O O2 0.274140 0.674769 0.649554
O O3 0.500000 0.500000 0.000000
O O4 0.482704 0.752290 0.861855
O O5 0.267248 0.138720 0.673541
O O6 0.500000 0.000000 0.000000
O O7 0.404120 0.986478 0.026906
O O8 0.603267 0.231635 0.849008
O O9 0.000000 0.187020 0.250000
O O10 0.848738 0.298000 0.162380
O O11 0.827367 0.416850 0.943077
O O12 0.186914 0.651583 0.700597
O O13 0.000000 0.654803 0.250000
#
# Coordination Sequence:
#
# PCOD8121122 Si02
#       6
#     4   4   2   4   4   4
#     4  11  21  39  67  97 128 171 218 271 321 387
#     4  12  23  43  62  99 136 170 220 266 326 393
#     4  12  26  38  68  98 130 178 212 280 322 388
#     4  10  23  42  65  94 135 171 209 274 325 390
#     4  11  22  43  67  95 131 170 223 270 329 385
#     4  10  22  39  66  99 126 168 219 279 326 381
#
# _framework density 20.564537000000001
#
# number of rings (size 3 to 8) (size 9 to 14) (size 15 to 20)
#    0.000    1.091    5.455    2.182    2.545    6.545 
#    0.000    4.545    0.000    0.000    0.000    0.000 
#    0.000    0.000    0.000    0.000    0.000    0.000 
#
# Total GULP energy -272839.948379 kJ/mol
# GULP energy per Si atom -12401.815835 kJ/mol
# Density = 2.051773 g / cm^3
# Si number density = 20.564537 Si / 1000 Ang^3
#
#
#
# Elastic Constant Matrix: (Units=GPa)
#
#
# Indices 1 2 3 4 5 6 
#
# 1 118.6306 47.8928 60.8162 0.0000 9.5767 0.0000
# 2 47.8928 79.4987 38.1988 0.0000 3.6461 0.0000
# 3 60.8162 38.1988 130.7768 0.0000 9.5283 0.0000
# 4 0.0000 0.0000 0.0000 24.5780 0.0000 1.1619
# 5 9.5767 3.6461 9.5283 0.0000 47.3386 0.0000
# 6 0.0000 0.0000 0.0000 1.1619 0.0000 28.9703
#
#
#
# Elastic Compliance Matrix: (Units=1/GPa)
#
#
# Indices 1 2 3 4 5 6 
#
# 1 0.013058 -0.005740 -0.004299 0.000000 -0.001334 0.000000
# 2 -0.005740 0.017159 -0.002366 0.000000 0.000316 0.000000
# 3 -0.004299 -0.002366 0.010413 0.000000 -0.001044 0.000000
# 4 0.000000 0.000000 0.000000 0.040764 0.000000 -0.001635
# 5 -0.001334 0.000316 -0.001044 0.000000 0.021580 0.000000
# 6 0.000000 0.000000 0.000000 -0.001635 0.000000 0.034584
#
#
# Mechanical properties :
#
#
# Convention : Reuss Voigt Hill
#
# Bulk Modulus (GPa) = 63.20657 69.19129 66.19893
# Shear Modulus (GPa) = 29.82565 32.31060 31.06812
#
# Velocity S-wave (km/s) = 3.81247 3.96811 3.89107
# Velocity P-wave (km/s) = 7.08395 7.39686 7.24209
#
# Compressibility (1/GPa) = 0.01582114
#
# Stress axis : x y z
#
# Youngs Moduli (GPa) = 76.57915 58.27827 96.03582
#
# Poissons Ratio (x) = 0.33452 0.41284
# Poissons Ratio (y) = 0.43957 0.22719
# Poissons Ratio (z) = 0.32920 0.13787
#
# Static dielectric constant tensor:
#      x y z
#    x 4.837850 0.000000 -1.053530 
#    y 0.000000 3.883980 0.000000 
#    z -1.053530 0.000000 5.901930 
# 
# 
# High freq. dielectric constant tensor:
#      x y z
#    x 1.814000 0.000000 0.004920 
#    y 0.000000 1.792570 0.000000 
#    z 0.004920 0.000000 1.799200 
# 
# From -- ./inp_files/49527.got.cif
#   From: 2010.06.25/outbox.cif.g09.slc.cpg/sg13_25_cif.got.tgz:49527.got - 2010.06.28 04:50:58.
