data_PCOD8121071
_publ_section_title
;
Structure prediction by ZEFSAII (Michael W. Deem and Ramdas Pophale) SiO2 
 PCOD8121071
Probable space group: P 2/C
;
_chemical_formula_sum "Si O2"
_cell_formula_units_Z 28
_cell_length_a 8.347099
_cell_length_b 6.552657
_cell_length_c 28.449179
_cell_angle_alpha 90.000000
_cell_angle_beta 120.418596
_cell_angle_gamma 90.000000
_cell_volume 1341.856256
_symmetry_space_group_name_H-M "P 2/C"
_symmetry_group_IT_number 13
_symmetry_cell_setting 'monoclinic'
loop_
_space_group_symop_operation_xyz
x,y,z
-x,y,1/2-z
-x,-y,-z
x,-y,1/2+z
loop_
_atom_site_type_symbol
_atom_site_label
_atom_site_fract_x
_atom_site_fract_y
_atom_site_fract_z
Si Si1 0.101028 0.492297 0.090987
Si Si2 0.511702 0.454592 0.806739
Si Si3 0.200368 0.249901 0.301293
Si Si4 0.747735 0.490867 0.100442
Si Si5 0.062044 0.221880 0.002577
Si Si6 0.393758 0.129801 0.863199
Si Si7 0.538254 0.151943 0.463071
O O1 0.280821 0.472943 0.150480
O O2 0.084432 0.284397 0.060113
O O3 0.919252 0.539949 0.093288
O O4 0.104166 0.663081 0.049925
O O5 0.500000 0.398543 0.750000
O O6 0.362713 0.632513 0.796251
O O7 0.489317 0.251193 0.834772
O O8 0.173762 0.353175 0.346944
O O9 0.000000 0.276747 0.250000
O O10 0.238842 0.008608 0.314066
O O11 0.678414 0.709134 0.109091
O O12 0.588940 0.354782 0.051609
O O13 0.254435 0.240053 0.002411
O O14 0.000000 0.000000 0.000000
O O15 0.520819 0.967406 0.910557
O O16 0.500000 0.000000 0.500000
#
# Coordination Sequence:
#
# PCOD8121071 Si02
#       7
#     4   4   4   4   4   4   4
#     4  11  23  39  60  90 123 160 203 249 311 372
#     4  11  24  42  64  90 124 163 205 259 316 375
#     4  10  22  41  63  87 116 153 202 254 304 364
#     4  10  22  39  61  88 121 158 202 252 301 365
#     4  11  23  38  60  89 126 162 199 255 311 369
#     4  10  22  40  61  88 121 159 205 255 308 373
#     4  11  22  39  63  92 125 166 210 256 313 373
#
# _framework density 20.866619
#
# number of rings (size 3 to 8) (size 9 to 14) (size 15 to 20)
#    0.000    1.429    0.000    6.000    0.000    9.714 
#    0.000    1.429    0.000    0.000    0.000    0.000 
#    0.000    0.000    0.000    0.000    0.000    0.000 
#
# Total GULP energy -346991.057107 kJ/mol
# GULP energy per Si atom -12392.537754 kJ/mol
# Density = 2.081913 g / cm^3
# Si number density = 20.866619 Si / 1000 Ang^3
#
#
#
# Elastic Constant Matrix: (Units=GPa)
#
#
# Indices 1 2 3 4 5 6 
#
# 1 93.2175 28.3143 48.2534 0.0000 6.3960 0.0000
# 2 28.3143 112.2907 32.7348 0.0000 7.6213 0.0000
# 3 48.2534 32.7348 121.2459 0.0000 7.1426 0.0000
# 4 0.0000 0.0000 0.0000 29.5431 0.0000 -3.4365
# 5 6.3960 7.6213 7.1426 0.0000 43.1514 0.0000
# 6 0.0000 0.0000 0.0000 -3.4365 0.0000 23.2561
#
#
#
# Elastic Compliance Matrix: (Units=1/GPa)
#
#
# Indices 1 2 3 4 5 6 
#
# 1 0.013970 -0.002015 -0.004963 0.000000 -0.000893 0.000000
# 2 -0.002015 0.010028 -0.001837 0.000000 -0.001168 0.000000
# 3 -0.004963 -0.001837 0.010761 0.000000 -0.000721 0.000000
# 4 0.000000 0.000000 0.000000 0.034441 0.000000 0.005089
# 5 -0.000893 -0.001168 -0.000721 0.000000 0.023632 0.000000
# 6 0.000000 0.000000 0.000000 0.005089 0.000000 0.043752
#
#
# Mechanical properties :
#
#
# Convention : Reuss Voigt Hill
#
# Bulk Modulus (GPa) = 58.37777 60.59544 59.48660
# Shear Modulus (GPa) = 31.26478 33.68689 32.47583
#
# Velocity S-wave (km/s) = 3.87501 4.02231 3.94934
# Velocity P-wave (km/s) = 6.93241 7.11860 7.02612
#
# Compressibility (1/GPa) = 0.01712981
#
# Stress axis : x y z
#
# Youngs Moduli (GPa) = 71.58142 99.71777 92.92554
#
# Poissons Ratio (x) = 0.20094 0.46120
# Poissons Ratio (y) = 0.14424 0.17068
# Poissons Ratio (z) = 0.35527 0.18315
#
# Static dielectric constant tensor:
#      x y z
#    x 3.737120 0.000000 0.026600 
#    y 0.000000 3.987020 0.000000 
#    z 0.026600 0.000000 4.001830 
# 
# 
# High freq. dielectric constant tensor:
#      x y z
#    x 1.813000 0.000000 -0.001560 
#    y 0.000000 1.829660 0.000000 
#    z -0.001560 0.000000 1.829340 
# 
# From -- ./inp_files/95699.got.cif
#   From: 2010.06.25/outbox.cif.g09.slc.cpg/sg13_48_cif.got.tgz:95699.got - 2010.06.28 04:50:58.
