data_PCOD8121651
_publ_section_title
;
Structure prediction by ZEFSAII (Michael W. Deem and Ramdas Pophale) SiO2 
 PCOD8121651
Probable space group: P 2/C
;
_chemical_formula_sum "Si O2"
_cell_formula_units_Z 26
_cell_length_a 12.651432
_cell_length_b 8.613534
_cell_length_c 25.255159
_cell_angle_alpha 90.000000
_cell_angle_beta 153.290905
_cell_angle_gamma 90.000000
_cell_volume 1236.980889
_symmetry_space_group_name_H-M "P 2/C"
_symmetry_group_IT_number 13
_symmetry_cell_setting 'monoclinic'
loop_
_space_group_symop_operation_xyz
x,y,z
-x,y,1/2-z
-x,-y,-z
x,-y,1/2+z
loop_
_atom_site_type_symbol
_atom_site_label
_atom_site_fract_x
_atom_site_fract_y
_atom_site_fract_z
Si Si1 0.365802 0.239417 0.105844
Si Si2 0.000000 0.560464 0.250000
Si Si3 0.500000 0.486952 0.250000
Si Si4 0.352175 0.768627 0.344926
Si Si5 0.809769 0.276513 0.106226
Si Si6 0.182251 0.264706 0.652366
Si Si7 0.710017 0.133748 0.172528
Si Si8 0.500000 0.991095 0.250000
O O1 0.460057 0.387220 0.179602
O O2 0.507441 0.219231 0.114870
O O3 0.401784 0.088188 0.157283
O O4 0.096515 0.261369 0.969903
O O5 0.796616 0.670075 0.180327
O O6 0.888834 0.452369 0.154368
O O7 0.731317 0.591208 0.344425
O O8 0.626207 0.726215 0.476117
O O9 0.288028 0.716121 0.257811
O O10 0.312659 0.949713 0.336986
O O11 0.690832 0.196560 0.104248
O O12 0.036585 0.177768 0.189385
O O13 0.277343 0.107190 0.669316
#
# Coordination Sequence:
#
# PCOD8121651 Si02
#       8
#     4   2   2   4   4   4   4   2
#     4  11  23  44  71  93 131 171 217 270 325 388
#     4  10  24  42  62  96 130 178 214 258 326 386
#     4  10  26  46  62  96 132 176 212 270 328 386
#     4  12  24  40  70  97 131 171 216 271 323 381
#     4  10  25  45  62  95 143 169 215 266 318 397
#     4  11  25  41  67 101 129 168 220 267 329 387
#     4  10  23  42  68  98 127 174 221 262 326 379
#     4  10  22  46  62  98 130 168 216 272 332 376
#
# _framework density 21.018917999999999
#
# number of rings (size 3 to 8) (size 9 to 14) (size 15 to 20)
#    0.000    1.538    1.538    2.769    8.615    1.231 
#   11.077    0.000    0.000    0.000    0.000    0.000 
#    0.000    0.000    0.000    0.000    0.000    0.000 
#
# Total GULP energy -322521.143595 kJ/mol
# GULP energy per Si atom -12404.659369 kJ/mol
# Density = 2.097108 g / cm^3
# Si number density = 21.018918 Si / 1000 Ang^3
#
#
#
# Elastic Constant Matrix: (Units=GPa)
#
#
# Indices 1 2 3 4 5 6 
#
# 1 88.6998 40.5030 57.3261 0.0000 28.6108 0.0000
# 2 40.5030 131.8450 53.4424 0.0000 16.0301 0.0000
# 3 57.3261 53.4424 140.9097 0.0000 21.8909 0.0000
# 4 0.0000 0.0000 0.0000 29.7904 0.0000 30.3014
# 5 28.6108 16.0301 21.8909 0.0000 35.4239 0.0000
# 6 0.0000 0.0000 0.0000 30.3014 0.0000 41.1863
#
#
#
# Elastic Compliance Matrix: (Units=1/GPa)
#
#
# Indices 1 2 3 4 5 6 
#
# 1 0.019431 -0.002481 -0.005200 0.000000 -0.011358 0.000000
# 2 -0.002481 0.009432 -0.002451 0.000000 -0.000750 0.000000
# 3 -0.005200 -0.002451 0.010307 0.000000 -0.001060 0.000000
# 4 0.000000 0.000000 0.000000 0.133382 0.000000 -0.098131
# 5 -0.011358 -0.000750 -0.001060 0.000000 0.038397 0.000000
# 6 0.000000 0.000000 0.000000 -0.098131 0.000000 0.096477
#
#
# Mechanical properties :
#
#
# Convention : Reuss Voigt Hill
#
# Bulk Modulus (GPa) = 52.89482 73.77750 63.33616
# Shear Modulus (GPa) = 14.97050 35.29233 25.13141
#
# Velocity S-wave (km/s) = 2.67168 4.10210 3.46158
# Velocity P-wave (km/s) = 5.89382 7.59032 6.79522
#
# Compressibility (1/GPa) = 0.01890544
#
# Stress axis : x y z
#
# Youngs Moduli (GPa) = 51.46469 106.02755 97.02538
#
# Poissons Ratio (x) = 0.26301 0.50450
# Poissons Ratio (y) = 0.12766 0.23785
# Poissons Ratio (z) = 0.26760 0.25992
#
# Static dielectric constant tensor:
#      x y z
#    x 3.859060 0.000000 0.104110 
#    y 0.000000 3.998430 0.000000 
#    z 0.104110 0.000000 3.778570 
# 
# 
# High freq. dielectric constant tensor:
#      x y z
#    x 1.826880 0.000000 0.007280 
#    y 0.000000 1.840940 0.000000 
#    z 0.007280 0.000000 1.825090 
# 
# From -- ./inp_files/86474.got.cif
#   From: 2010.06.25/outbox.cif.g09.slc.cpg/sg13_44_cif.got.tgz:86474.got - 2010.06.28 04:50:58.
