data_PCOD8121409
_publ_section_title
;
Structure prediction by ZEFSAII (Michael W. Deem and Ramdas Pophale) SiO2 
 PCOD8121409
Probable space group: P 2/C
;
_chemical_formula_sum "Si O2"
_cell_formula_units_Z 20
_cell_length_a 21.175255
_cell_length_b 5.130970
_cell_length_c 21.961981
_cell_angle_alpha 90.000000
_cell_angle_beta 158.780856
_cell_angle_gamma 90.000000
_cell_volume 863.637505
_symmetry_space_group_name_H-M "P 2/C"
_symmetry_group_IT_number 13
_symmetry_cell_setting 'monoclinic'
loop_
_space_group_symop_operation_xyz
x,y,z
-x,y,1/2-z
-x,-y,-z
x,-y,1/2+z
loop_
_atom_site_type_symbol
_atom_site_label
_atom_site_fract_x
_atom_site_fract_y
_atom_site_fract_z
Si Si1 0.104821 0.922489 0.973261
Si Si2 0.549823 0.824731 0.729803
Si Si3 0.251170 0.053880 0.875512
Si Si4 0.309108 0.445966 0.351539
Si Si5 0.175665 0.411318 0.101752
O O1 0.074941 0.639223 0.975248
O O2 0.298702 0.958414 0.119499
O O3 0.077206 0.138042 0.002105
O O4 0.947909 0.976322 0.783840
O O5 0.500000 0.695593 0.750000
O O6 0.379853 0.964516 0.548749
O O7 0.628032 0.613591 0.752126
O O8 0.252766 0.347528 0.851625
O O9 0.310071 0.848554 0.877123
O O10 0.500000 0.500000 0.500000
O O11 0.180532 0.472636 0.177651
#
# Coordination Sequence:
#
# PCOD8121409 Si02
#       5
#     4   4   4   4   4
#     4  10  23  43  62 102 128 165 224 256 333 388
#     4  10  25  46  68  90 132 172 225 272 324 378
#     4  12  25  40  70  97 129 177 208 272 326 386
#     4  12  22  40  67 100 135 166 216 259 329 402
#     4  10  22  42  64  95 134 166 209 268 321 387
#
# _framework density 23.157862000000002
#
# number of rings (size 3 to 8) (size 9 to 14) (size 15 to 20)
#    1.200    0.000    2.000    4.200    0.000    6.400 
#    0.000    0.000    4.400    0.000    0.000    0.000 
#    0.000    0.000    0.000    0.000    0.000    0.000 
#
# Total GULP energy -247847.255636 kJ/mol
# GULP energy per Si atom -12392.362782 kJ/mol
# Density = 2.310515 g / cm^3
# Si number density = 23.157862 Si / 1000 Ang^3
#
#
#
# Elastic Constant Matrix: (Units=GPa)
#
#
# Indices 1 2 3 4 5 6 
#
# 1 75.9352 12.6264 25.5727 0.0000 -14.3107 0.0000
# 2 12.6264 115.7478 16.1692 0.0000 -1.9128 0.0000
# 3 25.5727 16.1692 178.5229 0.0000 8.8891 0.0000
# 4 0.0000 0.0000 0.0000 31.3472 0.0000 2.3878
# 5 -14.3107 -1.9128 8.8891 0.0000 17.7134 0.0000
# 6 0.0000 0.0000 0.0000 2.3878 0.0000 15.7729
#
#
#
# Elastic Compliance Matrix: (Units=1/GPa)
#
#
# Indices 1 2 3 4 5 6 
#
# 1 0.017341 -0.001197 -0.003145 0.000000 0.015459 0.000000
# 2 -0.001197 0.008866 -0.000647 0.000000 0.000315 0.000000
# 3 -0.003145 -0.000647 0.006401 0.000000 -0.005823 0.000000
# 4 0.000000 0.000000 0.000000 0.032273 0.000000 -0.004886
# 5 0.015459 0.000315 -0.005823 0.000000 0.071900 0.000000
# 6 0.000000 0.000000 0.000000 -0.004886 0.000000 0.064140
#
#
# Mechanical properties :
#
#
# Convention : Reuss Voigt Hill
#
# Bulk Modulus (GPa) = 44.19236 53.21581 48.70408
# Shear Modulus (GPa) = 22.88945 34.02254 28.45599
#
# Velocity S-wave (km/s) = 3.14731 3.83712 3.50920
# Velocity P-wave (km/s) = 5.68612 6.53152 6.12343
#
# Compressibility (1/GPa) = 0.02262835
#
# Stress axis : x y z
#
# Youngs Moduli (GPa) = 57.66763 112.79494 156.23413
#
# Poissons Ratio (x) = 0.13499 0.49141
# Poissons Ratio (y) = 0.06901 0.10112
# Poissons Ratio (z) = 0.18138 0.07301
#
# Static dielectric constant tensor:
#      x y z
#    x 3.715220 0.000000 0.256680 
#    y 0.000000 3.996340 0.000000 
#    z 0.256680 0.000000 4.566010 
# 
# 
# High freq. dielectric constant tensor:
#      x y z
#    x 1.875800 0.000000 0.022640 
#    y 0.000000 1.907040 0.000000 
#    z 0.022640 0.000000 1.941090 
# 
# From -- ./inp_files/69208.got.cif
#   From: 2010.06.25/outbox.cif.g09.slc.cpg/sg13_35_cif.got.tgz:69208.got - 2010.06.28 04:50:58.
