data_PCOD8121506
_publ_section_title
;
Structure prediction by ZEFSAII (Michael W. Deem and Ramdas Pophale) SiO2 
 PCOD8121506
Probable space group: P 2/C
;
_chemical_formula_sum "Si O2"
_cell_formula_units_Z 22
_cell_length_a 25.793558
_cell_length_b 7.640719
_cell_length_c 13.537561
_cell_angle_alpha 90.000000
_cell_angle_beta 157.903189
_cell_angle_gamma 90.000000
_cell_volume 1003.628937
_symmetry_space_group_name_H-M "P 2/C"
_symmetry_group_IT_number 13
_symmetry_cell_setting 'monoclinic'
loop_
_space_group_symop_operation_xyz
x,y,z
-x,y,1/2-z
-x,-y,-z
x,-y,1/2+z
loop_
_atom_site_type_symbol
_atom_site_label
_atom_site_fract_x
_atom_site_fract_y
_atom_site_fract_z
Si Si1 0.731641 0.312030 0.773922
Si Si2 0.262037 0.819879 0.423254
Si Si3 0.698508 0.184829 0.933391
Si Si4 0.537294 0.508988 0.678609
Si Si5 0.000000 0.452198 0.750000
Si Si6 0.986263 0.306980 0.517863
O O1 0.755338 0.175140 0.726685
O O2 0.603028 0.437652 0.511116
O O3 0.690535 0.207323 0.800382
O O4 0.866889 0.426455 0.032148
O O5 0.342017 0.647839 0.596214
O O6 0.112805 0.814197 0.209639
O O7 0.343768 0.989055 0.608443
O O8 0.852859 0.213204 0.241418
O O9 0.596218 0.317450 0.810701
O O10 0.500000 0.500000 0.500000
O O11 0.978035 0.321160 0.620933
O O12 0.000000 0.500000 0.500000
#
# Coordination Sequence:
#
# PCOD8121506 Si02
#       6
#     4   4   4   4   2   4
#     4  11  22  41  67  95 131 178 215 271 336 389
#     4  12  24  42  67  99 137 169 223 275 328 391
#     4  11  24  43  68  97 134 173 222 276 323 394
#     4  10  22  43  66  93 129 177 218 266 332 391
#     4  12  22  40  74  94 128 176 222 266 336 388
#     4  12  21  41  67  98 129 175 217 266 325 392
#
# _framework density 21.920452000000001
#
# number of rings (size 3 to 8) (size 9 to 14) (size 15 to 20)
#    0.000    0.727    5.455    2.182    0.000    4.364 
#    0.000   12.727    0.000    0.000    0.000    0.000 
#    0.000    0.000    0.000    0.000    0.000    0.000 
#
# Total GULP energy -272831.980088 kJ/mol
# GULP energy per Si atom -12401.453640 kJ/mol
# Density = 2.187056 g / cm^3
# Si number density = 21.920452 Si / 1000 Ang^3
#
#
#
# Elastic Constant Matrix: (Units=GPa)
#
#
# Indices 1 2 3 4 5 6 
#
# 1 119.2141 35.8407 8.5269 0.0000 -13.0252 0.0000
# 2 35.8407 114.5851 11.2218 0.0000 -7.2774 0.0000
# 3 8.5269 11.2218 85.9016 0.0000 3.3625 0.0000
# 4 0.0000 0.0000 0.0000 26.2688 0.0000 -5.2004
# 5 -13.0252 -7.2774 3.3625 0.0000 34.6351 0.0000
# 6 0.0000 0.0000 0.0000 -5.2004 0.0000 24.8701
#
#
#
# Elastic Compliance Matrix: (Units=1/GPa)
#
#
# Indices 1 2 3 4 5 6 
#
# 1 0.009601 -0.002736 -0.000717 0.000000 0.003106 0.000000
# 2 -0.002736 0.009757 -0.001047 0.000000 0.001123 0.000000
# 3 -0.000717 -0.001047 0.011914 0.000000 -0.001646 0.000000
# 4 0.000000 0.000000 0.000000 0.039712 0.000000 0.008304
# 5 0.003106 0.001123 -0.001646 0.000000 0.030436 0.000000
# 6 0.000000 0.000000 0.000000 0.008304 0.000000 0.041945
#
#
# Mechanical properties :
#
#
# Convention : Reuss Voigt Hill
#
# Bulk Modulus (GPa) = 44.89972 47.87549 46.38761
# Shear Modulus (GPa) = 31.29134 34.76223 33.02678
#
# Velocity S-wave (km/s) = 3.78232 3.98658 3.88579
# Velocity P-wave (km/s) = 6.29302 6.56341 6.42964
#
# Compressibility (1/GPa) = 0.02227185
#
# Stress axis : x y z
#
# Youngs Moduli (GPa) = 104.15208 102.49390 83.93739
#
# Poissons Ratio (x) = 0.28039 0.06020
# Poissons Ratio (y) = 0.28493 0.08788
# Poissons Ratio (z) = 0.07470 0.10731
#
# Static dielectric constant tensor:
#      x y z
#    x 4.735150 0.000000 -0.460170 
#    y 0.000000 5.559680 0.000000 
#    z -0.460170 0.000000 7.027260 
# 
# 
# High freq. dielectric constant tensor:
#      x y z
#    x 1.871180 0.000000 -0.007360 
#    y 0.000000 1.844470 0.000000 
#    z -0.007360 0.000000 1.880870 
# 
# From -- ./inp_files/59462.got.cif
#   From: 2010.06.25/outbox.cif.g09.slc.cpg/sg13_30_cif.got.tgz:59462.got - 2010.06.28 04:50:58.
