data_PCOD8121207
_publ_section_title
;
Structure prediction by ZEFSAII (Michael W. Deem and Ramdas Pophale) SiO2 
 PCOD8121207
Probable space group: P 2/C
;
_chemical_formula_sum "Si O2"
_cell_formula_units_Z 30
_cell_length_a 18.781051
_cell_length_b 6.989058
_cell_length_c 22.254581
_cell_angle_alpha 90.000000
_cell_angle_beta 151.851396
_cell_angle_gamma 90.000000
_cell_volume 1378.094792
_symmetry_space_group_name_H-M "P 2/C"
_symmetry_group_IT_number 13
_symmetry_cell_setting 'monoclinic'
loop_
_space_group_symop_operation_xyz
x,y,z
-x,y,1/2-z
-x,-y,-z
x,-y,1/2+z
loop_
_atom_site_type_symbol
_atom_site_label
_atom_site_fract_x
_atom_site_fract_y
_atom_site_fract_z
Si Si1 0.984605 0.883758 0.804679
Si Si2 0.779103 0.542903 0.522465
Si Si3 0.217945 0.491191 0.233848
Si Si4 0.155846 0.882912 0.618871
Si Si5 0.318080 0.664208 0.924874
Si Si6 0.396052 0.794428 0.299515
Si Si7 0.500000 0.317827 0.750000
Si Si8 0.944024 0.749644 0.073394
O O1 0.000000 0.974615 0.750000
O O2 0.997345 0.043177 0.864584
O O3 0.819953 0.801826 0.691679
O O4 0.113340 0.724041 0.908793
O O5 0.722129 0.527628 0.548491
O O6 0.639447 0.551267 0.372987
O O7 0.866687 0.348405 0.573180
O O8 0.151566 0.286306 0.164454
O O9 0.334998 0.463653 0.377002
O O10 0.304625 0.597260 0.243885
O O11 0.079789 0.620828 0.151160
O O12 0.176962 0.781860 0.569842
O O13 0.295197 0.020846 0.738337
O O14 0.000000 0.000000 0.500000
O O15 0.463109 0.793280 0.049376
O O16 0.451762 0.809044 0.271900
#
# Coordination Sequence:
#
# PCOD8121207 Si02
#       8
#     4   4   4   4   4   4   2   4
#     4  10  22  40  65  99 132 177 229 268 334 402
#     4  10  22  42  66  97 135 177 225 280 333 395
#     4  12  25  42  69 100 134 177 228 276 341 409
#     4  12  26  43  66 100 131 177 229 278 343 404
#     4  10  23  45  66  99 140 182 221 286 342 397
#     4  11  25  46  68  96 139 177 223 286 338 406
#     4  10  22  44  70  90 132 174 218 276 342 392
#     4  12  24  39  72  98 135 176 228 282 326 409
#
# _framework density 21.769183999999999
#
# number of rings (size 3 to 8) (size 9 to 14) (size 15 to 20)
#    0.000    1.067    2.667    3.200    3.733    0.533 
#    2.400   12.667    0.000    0.000    0.000    0.000 
#    0.000    0.000    0.000    0.000    0.000    0.000 
#
# Total GULP energy -371982.453412 kJ/mol
# GULP energy per Si atom -12399.415114 kJ/mol
# Density = 2.171964 g / cm^3
# Si number density = 21.769184 Si / 1000 Ang^3
#
#
#
# Elastic Constant Matrix: (Units=GPa)
#
#
# Indices 1 2 3 4 5 6 
#
# 1 69.6585 31.8056 31.4127 0.0000 -12.1291 0.0000
# 2 31.8056 91.0725 44.3987 0.0000 -8.5222 0.0000
# 3 31.4127 44.3987 138.9085 0.0000 -5.4292 0.0000
# 4 0.0000 0.0000 0.0000 31.5783 0.0000 -1.8500
# 5 -12.1291 -8.5222 -5.4292 0.0000 40.4751 0.0000
# 6 0.0000 0.0000 0.0000 -1.8500 0.0000 15.0203
#
#
#
# Elastic Compliance Matrix: (Units=1/GPa)
#
#
# Indices 1 2 3 4 5 6 
#
# 1 0.018396 -0.004840 -0.002450 0.000000 0.004165 0.000000
# 2 -0.004840 0.014477 -0.003488 0.000000 0.001130 0.000000
# 3 -0.002450 -0.003488 0.008857 0.000000 -0.000281 0.000000
# 4 0.000000 0.000000 0.000000 0.031898 0.000000 0.003929
# 5 0.004165 0.001130 -0.000281 0.000000 0.026155 0.000000
# 6 0.000000 0.000000 0.000000 0.003929 0.000000 0.067061
#
#
# Mechanical properties :
#
#
# Convention : Reuss Voigt Hill
#
# Bulk Modulus (GPa) = 49.57325 57.20816 53.39070
# Shear Modulus (GPa) = 25.62460 30.21622 27.92041
#
# Velocity S-wave (km/s) = 3.43462 3.72967 3.58518
# Velocity P-wave (km/s) = 6.20890 6.69953 6.45887
#
# Compressibility (1/GPa) = 0.02017217
#
# Stress axis : x y z
#
# Youngs Moduli (GPa) = 54.35995 69.07493 112.90363
#
# Poissons Ratio (x) = 0.33434 0.27664
# Poissons Ratio (y) = 0.26312 0.39386
# Poissons Ratio (z) = 0.13319 0.24097
#
# Static dielectric constant tensor:
#      x y z
#    x 4.215640 0.000000 -0.218330 
#    y 0.000000 3.764320 0.000000 
#    z -0.218330 0.000000 4.287120 
# 
# 
# High freq. dielectric constant tensor:
#      x y z
#    x 1.868920 0.000000 -0.010530 
#    y 0.000000 1.838150 0.000000 
#    z -0.010530 0.000000 1.868430 
# 
# From -- ./inp_files/88381.got.cif
#   From: 2010.06.25/outbox.cif.g09.slc.cpg/sg13_45_cif.got.tgz:88381.got - 2010.06.28 04:50:58.
