data_PCOD8121659
_publ_section_title
;
Structure prediction by ZEFSAII (Michael W. Deem and Ramdas Pophale) SiO2 
 PCOD8121659
Probable space group: P 2/C
;
_chemical_formula_sum "Si O2"
_cell_formula_units_Z 14
_cell_length_a 6.608251
_cell_length_b 4.862335
_cell_length_c 15.673611
_cell_angle_alpha 90.000000
_cell_angle_beta 84.954522
_cell_angle_gamma 90.000000
_cell_volume 501.665691
_symmetry_space_group_name_H-M "P 2/C"
_symmetry_group_IT_number 13
_symmetry_cell_setting 'monoclinic'
loop_
_space_group_symop_operation_xyz
x,y,z
-x,y,1/2-z
-x,-y,-z
x,-y,1/2+z
loop_
_atom_site_type_symbol
_atom_site_label
_atom_site_fract_x
_atom_site_fract_y
_atom_site_fract_z
Si Si1 0.820764 0.916518 0.606177
Si Si2 0.500000 0.942583 0.250000
Si Si3 0.862325 0.684736 0.329981
Si Si4 0.267759 0.422741 0.001213
O O1 0.643984 0.876768 0.683369
O O2 0.752352 0.112146 0.530352
O O3 0.024981 0.038896 0.640551
O O4 0.852461 0.619084 0.561689
O O5 0.639001 0.753325 0.304424
O O6 0.834410 0.451804 0.402284
O O7 0.000000 0.548781 0.250000
O O8 0.500000 0.500000 0.000000
#
# Coordination Sequence:
#
# PCOD8121659 Si02
#       4
#     4   2   4   4
#     4  11  25  46  72 103 141 187 237 294 353 421
#     4  10  22  46  68 106 142 186 234 294 354 422
#     4  10  23  45  72 104 145 187 238 294 358 422
#     4  12  24  46  76 101 142 186 240 291 354 421
#
# _framework density 27.907025999999998
#
# number of rings (size 3 to 8) (size 9 to 14) (size 15 to 20)
#    0.000    1.143    2.857    2.571    0.000    1.143 
#    0.000    8.571    0.000    0.000    0.000    0.000 
#    0.000    0.000    0.000    0.000    0.000    0.000 
#
# Total GULP energy -173658.054826 kJ/mol
# GULP energy per Si atom -12404.146773 kJ/mol
# Density = 2.784351 g / cm^3
# Si number density = 27.907026 Si / 1000 Ang^3
#
#
#
# Elastic Constant Matrix: (Units=GPa)
#
#
# Indices 1 2 3 4 5 6 
#
# 1 164.0460 8.5405 34.2095 0.0000 26.0074 0.0000
# 2 8.5405 76.4912 24.5301 0.0000 -12.7245 0.0000
# 3 34.2095 24.5301 201.0070 0.0000 -35.3347 0.0000
# 4 0.0000 0.0000 0.0000 -1.8467 0.0000 -10.4385
# 5 26.0074 -12.7245 -35.3347 0.0000 50.4246 0.0000
# 6 0.0000 0.0000 0.0000 -10.4385 0.0000 29.9252
#
#
#
# Elastic Compliance Matrix: (Units=1/GPa)
#
#
# Indices 1 2 3 4 5 6 
#
# 1 0.007490 -0.001090 -0.002132 0.000000 -0.005632 0.000000
# 2 -0.001090 0.014067 -0.000922 0.000000 0.003466 0.000000
# 3 -0.002132 -0.000922 0.006390 0.000000 0.005344 0.000000
# 4 0.000000 0.000000 0.000000 -0.182221 0.000000 -0.063562
# 5 -0.005632 0.003466 0.005344 0.000000 0.027356 0.000000
# 6 0.000000 0.000000 0.000000 -0.063562 0.000000 0.011245
#
#
# Mechanical properties :
#
#
# Convention : Reuss Voigt Hill
#
# Bulk Modulus (GPa) = 50.86393 64.01158 57.43775
# Shear Modulus (GPa) = -49.58700 40.65157 -4.46771
#
# Velocity S-wave (km/s) = -4.21986 3.82079 -1.26665
# Velocity P-wave (km/s) = 2.34034 6.51550 4.29969
#
# Compressibility (1/GPa) = 0.01966030
#
# Stress axis : x y z
#
# Youngs Moduli (GPa) = 133.51158 71.08705 156.50010
#
# Poissons Ratio (x) = 0.07745 0.33362
# Poissons Ratio (y) = 0.14546 0.14430
# Poissons Ratio (z) = 0.28462 0.06555
#
# Static dielectric constant tensor:
#      x y z
#    x 5.622080 0.000000 -0.061720 
#    y 0.000000 4.466210 0.000000 
#    z -0.061720 0.000000 5.693870 
# 
# 
# High freq. dielectric constant tensor:
#      x y z
#    x 2.168770 0.000000 0.000100 
#    y 0.000000 2.097380 0.000000 
#    z 0.000100 0.000000 2.150650 
# 
# From -- ./inp_files/44857.got.cif
#   From: 2010.06.25/outbox.cif.g09.slc.cpg/sg13_23_cif.got.tgz:44857.got - 2010.06.28 04:50:58.
