data_PCOD8121187
_publ_section_title
;
Structure prediction by ZEFSAII (Michael W. Deem and Ramdas Pophale) SiO2 
 PCOD8121187
Probable space group: P 2/C
;
_chemical_formula_sum "Si O2"
_cell_formula_units_Z 12
_cell_length_a 5.833835
_cell_length_b 4.681671
_cell_length_c 18.039776
_cell_angle_alpha 90.000000
_cell_angle_beta 105.653577
_cell_angle_gamma 90.000000
_cell_volume 474.430037
_symmetry_space_group_name_H-M "P 2/C"
_symmetry_group_IT_number 13
_symmetry_cell_setting 'monoclinic'
loop_
_space_group_symop_operation_xyz
x,y,z
-x,y,1/2-z
-x,-y,-z
x,-y,1/2+z
loop_
_atom_site_type_symbol
_atom_site_label
_atom_site_fract_x
_atom_site_fract_y
_atom_site_fract_z
Si Si1 0.262712 0.897345 0.940742
Si Si2 0.859012 0.679691 0.418259
Si Si3 0.429625 0.183060 0.159721
O O1 0.340480 0.735953 0.871656
O O2 0.139551 0.677950 0.989954
O O3 0.099139 0.172743 0.909351
O O4 0.500000 0.000000 0.000000
O O5 0.809644 0.364339 0.381078
O O6 0.635608 0.857555 0.365427
O O7 0.500000 0.227240 0.250000
#
# Coordination Sequence:
#
# PCOD8121187 Si02
#       3
#     4   4   4
#     4   9  21  40  64  90 122 163 213 263 313 379
#     4  10  22  40  64  90 121 167 214 258 317 383
#     4  11  23  40  61  92 129 164 208 265 324 381
#
# _framework density 25.293510000000001
#
# number of rings (size 3 to 8) (size 9 to 14) (size 15 to 20)
#    0.000    2.000    0.000    2.000    0.000   18.667 
#    0.000    3.333    0.000    0.000    0.000    0.000 
#    0.000    0.000    0.000    0.000    0.000    0.000 
#
# Total GULP energy -148805.405522 kJ/mol
# GULP energy per Si atom -12400.450460 kJ/mol
# Density = 2.523594 g / cm^3
# Si number density = 25.293510 Si / 1000 Ang^3
#
#
#
# Elastic Constant Matrix: (Units=GPa)
#
#
# Indices 1 2 3 4 5 6 
#
# 1 121.8296 12.1496 66.9973 0.0000 -21.7539 0.0000
# 2 12.1496 75.5736 37.2136 0.0000 -12.2495 0.0000
# 3 66.9973 37.2136 218.8961 0.0000 -21.1906 0.0000
# 4 0.0000 0.0000 0.0000 29.3442 0.0000 4.7823
# 5 -21.7539 -12.2495 -21.1906 0.0000 37.0875 0.0000
# 6 0.0000 0.0000 0.0000 4.7823 0.0000 44.7673
#
#
#
# Elastic Compliance Matrix: (Units=1/GPa)
#
#
# Indices 1 2 3 4 5 6 
#
# 1 0.010578 0.000474 -0.002861 0.000000 0.004727 0.000000
# 2 0.000474 0.014921 -0.002305 0.000000 0.003889 0.000000
# 3 -0.002861 -0.002305 0.005928 0.000000 0.000947 0.000000
# 4 0.000000 0.000000 0.000000 0.034682 0.000000 -0.003705
# 5 0.004727 0.003889 0.000947 0.000000 0.031562 0.000000
# 6 0.000000 0.000000 0.000000 -0.003705 0.000000 0.022734
#
#
# Mechanical properties :
#
#
# Convention : Reuss Voigt Hill
#
# Bulk Modulus (GPa) = 45.36487 72.11335 58.73911
# Shear Modulus (GPa) = 36.46019 42.23573 39.34796
#
# Velocity S-wave (km/s) = 3.80081 4.09078 3.94846
# Velocity P-wave (km/s) = 6.10212 7.13338 6.63781
#
# Compressibility (1/GPa) = 0.02204349
#
# Stress axis : x y z
#
# Youngs Moduli (GPa) = 94.53539 67.01740 168.70292
#
# Poissons Ratio (x) = -0.03178 0.48260
# Poissons Ratio (y) = -0.04483 0.38892
# Poissons Ratio (z) = 0.27043 0.15450
#
# Static dielectric constant tensor:
#      x y z
#    x 5.890090 0.000000 -0.685690 
#    y 0.000000 4.529280 0.000000 
#    z -0.685690 0.000000 4.660150 
# 
# 
# High freq. dielectric constant tensor:
#      x y z
#    x 2.032200 0.000000 0.015470 
#    y 0.000000 2.013700 0.000000 
#    z 0.015470 0.000000 1.991740 
# 
# From -- ./inp_files/42960.got.cif
#   From: 2010.06.25/outbox.cif.g09.slc.cpg/sg13_22_cif.got.tgz:42960.got - 2010.06.28 04:50:58.
