data_PCOD8121739
_publ_section_title
;
Structure prediction by ZEFSAII (Michael W. Deem and Ramdas Pophale) SiO2 
 PCOD8121739
Probable space group: P 2/C
;
_chemical_formula_sum "Si O2"
_cell_formula_units_Z 32
_cell_length_a 16.915457
_cell_length_b 11.299556
_cell_length_c 22.066005
_cell_angle_alpha 90.000000
_cell_angle_beta 159.181639
_cell_angle_gamma 90.000000
_cell_volume 1498.974398
_symmetry_space_group_name_H-M "P 2/C"
_symmetry_group_IT_number 13
_symmetry_cell_setting 'monoclinic'
loop_
_space_group_symop_operation_xyz
x,y,z
-x,y,1/2-z
-x,-y,-z
x,-y,1/2+z
loop_
_atom_site_type_symbol
_atom_site_label
_atom_site_fract_x
_atom_site_fract_y
_atom_site_fract_z
Si Si1 0.257183 0.885424 0.052729
Si Si2 0.511870 0.112250 0.407282
Si Si3 0.844337 0.753416 0.769379
Si Si4 0.370682 0.526127 0.846726
Si Si5 0.230401 0.674096 0.388608
Si Si6 0.867814 0.918593 0.953021
Si Si7 0.357244 0.859052 0.987373
Si Si8 0.793236 0.721326 0.272010
O O1 0.500000 0.856824 0.250000
O O2 0.247097 0.867763 0.974144
O O3 0.161704 0.014481 0.003805
O O4 0.092438 0.790185 0.965916
O O5 0.342366 0.168160 0.333091
O O6 0.715671 0.201277 0.540436
O O7 0.383964 0.092100 0.252298
O O8 0.609017 0.994943 0.508607
O O9 0.823152 0.618160 0.774612
O O10 0.807410 0.780523 0.671650
O O11 0.248634 0.411096 0.729908
O O12 0.500000 0.500000 0.000000
O O13 0.568207 0.584351 0.947650
O O14 0.214502 0.701251 0.305550
O O15 0.000000 0.622739 0.250000
O O16 0.980292 0.788811 0.044567
O O17 0.000000 0.000000 0.000000
O O18 0.599846 0.801845 0.160154
#
# Coordination Sequence:
#
# PCOD8121739 Si02
#       8
#     4   4   4   4   4   4   4   4
#     4  12  25  40  61  98 140 173 218 271 341 407
#     4  11  22  39  64  91 132 172 217 267 345 403
#     4  11  22  40  66  94 128 175 223 280 328 401
#     4   9  19  44  67  91 130 165 232 271 332 398
#     4  10  23  40  66  97 128 169 221 286 329 391
#     4  12  23  41  65  89 135 183 212 272 343 408
#     4  12  22  38  62  99 131 169 219 277 333 409
#     4  11  22  42  68  94 128 180 220 269 339 405
#
# _framework density 21.347929000000001
#
# number of rings (size 3 to 8) (size 9 to 14) (size 15 to 20)
#    0.000    1.000    7.500    0.750    3.500    0.000 
#    4.500    2.500    0.000    0.750    0.000    0.000 
#    0.000    0.000    0.000    0.000    0.000    0.000 
#
# Total GULP energy -396491.901841 kJ/mol
# GULP energy per Si atom -12390.371933 kJ/mol
# Density = 2.129934 g / cm^3
# Si number density = 21.347929 Si / 1000 Ang^3
#
#
#
# Elastic Constant Matrix: (Units=GPa)
#
#
# Indices 1 2 3 4 5 6 
#
# 1 81.4593 23.1027 9.8522 0.0000 10.7730 0.0000
# 2 23.1027 145.0121 47.4148 0.0000 20.1522 0.0000
# 3 9.8522 47.4148 91.2691 0.0000 15.8520 0.0000
# 4 0.0000 0.0000 0.0000 37.3393 0.0000 -1.6482
# 5 10.7730 20.1522 15.8520 0.0000 25.5366 0.0000
# 6 0.0000 0.0000 0.0000 -1.6482 0.0000 12.6900
#
#
#
# Elastic Compliance Matrix: (Units=1/GPa)
#
#
# Indices 1 2 3 4 5 6 
#
# 1 0.013288 -0.001542 0.000144 0.000000 -0.004479 0.000000
# 2 -0.001542 0.008940 -0.003772 0.000000 -0.004063 0.000000
# 3 0.000144 -0.003772 0.013892 0.000000 -0.005708 0.000000
# 4 0.000000 0.000000 0.000000 0.026936 0.000000 0.003499
# 5 -0.004479 -0.004063 -0.005708 0.000000 0.047798 0.000000
# 6 0.000000 0.000000 0.000000 0.003499 0.000000 0.079257
#
#
# Mechanical properties :
#
#
# Convention : Reuss Voigt Hill
#
# Bulk Modulus (GPa) = 38.78855 53.16443 45.97649
# Shear Modulus (GPa) = 23.91852 30.93789 27.42821
#
# Velocity S-wave (km/s) = 3.35089 3.81099 3.58832
# Velocity P-wave (km/s) = 5.76025 6.65753 6.22508
#
# Compressibility (1/GPa) = 0.02578080
#
# Stress axis : x y z
#
# Youngs Moduli (GPa) = 75.25471 111.86224 71.98402
#
# Poissons Ratio (x) = 0.17247 -0.01040
# Poissons Ratio (y) = 0.11603 0.27153
# Poissons Ratio (z) = -0.01087 0.42195
#
# Static dielectric constant tensor:
#      x y z
#    x 3.797270 0.000000 0.115430 
#    y 0.000000 4.398450 0.000000 
#    z 0.115430 0.000000 4.075350 
# 
# 
# High freq. dielectric constant tensor:
#      x y z
#    x 1.823400 0.000000 0.015280 
#    y 0.000000 1.835270 0.000000 
#    z 0.015280 0.000000 1.833980 
# 
# From -- ./inp_files/88193.got.cif
#   From: 2010.06.25/outbox.cif.g09.slc.cpg/sg13_45_cif.got.tgz:88193.got - 2010.06.28 04:50:58.
