data_PCOD8121939
_publ_section_title
;
Structure prediction by ZEFSAII (Michael W. Deem and Ramdas Pophale) SiO2 
 PCOD8121939
Probable space group: P 2/C
;
_chemical_formula_sum "Si O2"
_cell_formula_units_Z 24
_cell_length_a 13.070110
_cell_length_b 11.586898
_cell_length_c 19.025479
_cell_angle_alpha 90.000000
_cell_angle_beta 23.200698
_cell_angle_gamma 90.000000
_cell_volume 1135.080221
_symmetry_space_group_name_H-M "P 2/C"
_symmetry_group_IT_number 13
_symmetry_cell_setting 'monoclinic'
loop_
_space_group_symop_operation_xyz
x,y,z
-x,y,1/2-z
-x,-y,-z
x,-y,1/2+z
loop_
_atom_site_type_symbol
_atom_site_label
_atom_site_fract_x
_atom_site_fract_y
_atom_site_fract_z
Si Si1 0.582148 0.703334 0.013800
Si Si2 0.584023 0.164196 0.117565
Si Si3 0.008564 0.346025 0.825032
Si Si4 0.126401 0.244786 0.308165
Si Si5 0.742288 0.566413 0.046859
Si Si6 0.802597 0.072672 0.434876
O O1 0.652606 0.607003 0.026361
O O2 0.298845 0.680220 0.164153
O O3 0.785063 0.697583 0.821409
O O4 0.600960 0.831121 0.034698
O O5 0.500000 0.177575 0.250000
O O6 0.364200 0.221837 0.208745
O O7 0.852481 0.228129 0.934122
O O8 0.623641 0.030794 0.074117
O O9 0.000000 0.386236 0.750000
O O10 0.890016 0.445427 0.948445
O O11 0.930304 0.338923 0.465048
O O12 0.972981 0.125265 0.391185
O O13 0.500000 0.546798 0.250000
O O14 0.000000 0.029498 0.250000
#
# Coordination Sequence:
#
# PCOD8121939 Si02
#       6
#     4   4   4   4   4   4
#     4  10  23  45  71  97 130 175 225 265 324 395
#     4  12  27  41  64 102 136 171 221 273 334 382
#     4  12  25  43  71  98 131 172 228 272 319 387
#     4  10  23  46  69  95 132 176 225 265 323 400
#     4  11  26  44  69  98 134 176 212 274 339 387
#     4   9  22  43  69  95 128 175 220 269 326 388
#
# _framework density 21.143878999999998
#
# number of rings (size 3 to 8) (size 9 to 14) (size 15 to 20)
#    0.000    1.333    1.667    3.500    7.000    6.667 
#    0.000    0.000    0.000    0.000    0.000    0.000 
#    0.000    0.000    0.000    0.000    0.000    0.000 
#
# Total GULP energy -297716.407483 kJ/mol
# GULP energy per Si atom -12404.850312 kJ/mol
# Density = 2.109575 g / cm^3
# Si number density = 21.143879 Si / 1000 Ang^3
#
#
#
# Elastic Constant Matrix: (Units=GPa)
#
#
# Indices 1 2 3 4 5 6 
#
# 1 76.9275 8.2882 13.3822 0.0000 -9.7054 0.0000
# 2 8.2882 79.7930 23.4521 0.0000 -2.3264 0.0000
# 3 13.3822 23.4521 79.2398 0.0000 -4.7322 0.0000
# 4 0.0000 0.0000 0.0000 12.1987 0.0000 -8.8516
# 5 -9.7054 -2.3264 -4.7322 0.0000 44.4124 0.0000
# 6 0.0000 0.0000 0.0000 -8.8516 0.0000 12.7141
#
#
#
# Elastic Compliance Matrix: (Units=1/GPa)
#
#
# Indices 1 2 3 4 5 6 
#
# 1 0.013768 -0.000783 -0.001928 0.000000 0.002762 0.000000
# 2 -0.000783 0.013775 -0.003937 0.000000 0.000131 0.000000
# 3 -0.001928 -0.003937 0.014163 0.000000 0.000881 0.000000
# 4 0.000000 0.000000 0.000000 0.165668 0.000000 0.115339
# 5 0.002762 0.000131 0.000881 0.000000 0.023221 0.000000
# 6 0.000000 0.000000 0.000000 0.115339 0.000000 0.158953
#
#
# Mechanical properties :
#
#
# Convention : Reuss Voigt Hill
#
# Bulk Modulus (GPa) = 35.19938 36.24504 35.72221
# Shear Modulus (GPa) = 12.12672 26.58756 19.35714
#
# Velocity S-wave (km/s) = 2.39745 3.54991 3.02900
# Velocity P-wave (km/s) = 4.93431 5.82939 5.40043
#
# Compressibility (1/GPa) = 0.02840959
#
# Stress axis : x y z
#
# Youngs Moduli (GPa) = 72.63464 72.59732 70.60455
#
# Poissons Ratio (x) = 0.05682 0.13616
# Poissons Ratio (y) = 0.05685 0.27795
# Poissons Ratio (z) = 0.14008 0.28580
#
# Static dielectric constant tensor:
#      x y z
#    x 3.855580 0.000000 -0.042730 
#    y 0.000000 3.806030 0.000000 
#    z -0.042730 0.000000 3.862240 
# 
# 
# High freq. dielectric constant tensor:
#      x y z
#    x 1.828420 0.000000 -0.008940 
#    y 0.000000 1.835130 0.000000 
#    z -0.008940 0.000000 1.838320 
# 
# From -- ./inp_files/29552.got.cif
#   From: 2010.06.25/outbox.cif.g09.slc.cpg/sg13_15_cif.got.tgz:29552.got - 2010.06.28 04:50:58.
