data_PCOD8121436
_publ_section_title
;
Structure prediction by ZEFSAII (Michael W. Deem and Ramdas Pophale) SiO2 
 PCOD8121436
Probable space group: P 2/C
;
_chemical_formula_sum "Si O2"
_cell_formula_units_Z 16
_cell_length_a 18.417512
_cell_length_b 7.122119
_cell_length_c 13.975937
_cell_angle_alpha 90.000000
_cell_angle_beta 156.948481
_cell_angle_gamma 90.000000
_cell_volume 717.823980
_symmetry_space_group_name_H-M "P 2/C"
_symmetry_group_IT_number 13
_symmetry_cell_setting 'monoclinic'
loop_
_space_group_symop_operation_xyz
x,y,z
-x,y,1/2-z
-x,-y,-z
x,-y,1/2+z
loop_
_atom_site_type_symbol
_atom_site_label
_atom_site_fract_x
_atom_site_fract_y
_atom_site_fract_z
Si Si1 0.326738 0.301022 0.986217
Si Si2 0.962675 0.009535 0.813828
Si Si3 0.800785 0.347118 0.050648
Si Si4 0.341950 0.156395 0.806925
O O1 0.137698 0.184497 0.760734
O O2 0.299642 0.498503 0.006810
O O3 0.374280 0.309661 0.930906
O O4 0.500000 0.200546 0.250000
O O5 0.000000 0.063814 0.750000
O O6 0.831961 0.826334 0.659981
O O7 0.154677 0.963527 0.099724
O O8 0.000000 0.416096 0.250000
O O9 0.668491 0.277654 0.803297
O O10 0.500000 0.000000 0.000000
#
# Coordination Sequence:
#
# PCOD8121436 Si02
#       4
#     4   4   4   4
#     4  12  23  37  64  93 123 168 211 258 318 372
#     4   9  20  41  64  89 126 164 204 261 315 373
#     4   9  22  41  60  91 128 160 209 264 313 374
#     4  10  22  42  67  93 127 171 213 261 320 378
#
# _framework density 22.289587999999998
#
# number of rings (size 3 to 8) (size 9 to 14) (size 15 to 20)
#    0.000    2.500    0.000    4.500    0.000    8.000 
#    0.000    7.500    0.000    0.000    0.000    0.000 
#    0.000    0.000    0.000    0.000    0.000    0.000 
#
# Total GULP energy -198275.878985 kJ/mol
# GULP energy per Si atom -12392.242437 kJ/mol
# Density = 2.223886 g / cm^3
# Si number density = 22.289588 Si / 1000 Ang^3
#
#
#
# Elastic Constant Matrix: (Units=GPa)
#
#
# Indices 1 2 3 4 5 6 
#
# 1 88.6880 77.0912 58.9849 0.0000 -18.9674 0.0000
# 2 77.0912 119.5609 55.8257 0.0000 -5.3083 0.0000
# 3 58.9849 55.8257 146.6825 0.0000 -22.8405 0.0000
# 4 0.0000 0.0000 0.0000 19.5605 0.0000 14.8675
# 5 -18.9674 -5.3083 -22.8405 0.0000 32.2539 0.0000
# 6 0.0000 0.0000 0.0000 14.8675 0.0000 -11.8179
#
#
#
# Elastic Compliance Matrix: (Units=1/GPa)
#
#
# Indices 1 2 3 4 5 6 
#
# 1 0.033513 -0.019097 -0.004079 0.000000 0.013677 0.000000
# 2 -0.019097 0.021095 -0.001750 0.000000 -0.008998 0.000000
# 3 -0.004079 -0.001750 0.009784 0.000000 0.004242 0.000000
# 4 0.000000 0.000000 0.000000 0.026134 0.000000 0.032878
# 5 0.013677 -0.008998 0.004242 0.000000 0.040570 0.000000
# 6 0.000000 0.000000 0.000000 0.032878 0.000000 -0.043256
#
#
# Mechanical properties :
#
#
# Convention : Reuss Voigt Hill
#
# Bulk Modulus (GPa) = 68.77377 82.08168 75.42773
# Shear Modulus (GPa) = 35.07787 18.86793 26.97290
#
# Velocity S-wave (km/s) = 3.97133 2.91261 3.48244
# Velocity P-wave (km/s) = 7.20766 6.94378 7.07695
#
# Compressibility (1/GPa) = 0.01454043
#
# Stress axis : x y z
#
# Youngs Moduli (GPa) = 29.83896 47.40393 102.20461
#
# Poissons Ratio (x) = 0.90528 0.41687
# Poissons Ratio (y) = 0.56984 0.17888
# Poissons Ratio (z) = 0.12171 0.08297
#
# Static dielectric constant tensor:
#      x y z
#    x 4.031250 0.000000 -0.129530 
#    y 0.000000 3.737770 0.000000 
#    z -0.129530 0.000000 4.230930 
# 
# 
# High freq. dielectric constant tensor:
#      x y z
#    x 1.875970 0.000000 -0.007310 
#    y 0.000000 1.856530 0.000000 
#    z -0.007310 0.000000 1.893940 
# 
# From -- ./inp_files/56942.got.cif
#   From: 2010.06.25/outbox.cif.g09.slc.cpg/sg13_29_cif.got.tgz:56942.got - 2010.06.28 04:50:58.
