data_PCOD8121246
_publ_section_title
;
Structure prediction by ZEFSAII (Michael W. Deem and Ramdas Pophale) SiO2 
 PCOD8121246
Probable space group: P 2/C
;
_chemical_formula_sum "Si O2"
_cell_formula_units_Z 18
_cell_length_a 15.960921
_cell_length_b 8.504891
_cell_length_c 10.570219
_cell_angle_alpha 90.000000
_cell_angle_beta 36.935832
_cell_angle_gamma 90.000000
_cell_volume 862.238683
_symmetry_space_group_name_H-M "P 2/C"
_symmetry_group_IT_number 13
_symmetry_cell_setting 'monoclinic'
loop_
_space_group_symop_operation_xyz
x,y,z
-x,y,1/2-z
-x,-y,-z
x,-y,1/2+z
loop_
_atom_site_type_symbol
_atom_site_label
_atom_site_fract_x
_atom_site_fract_y
_atom_site_fract_z
Si Si1 0.071381 0.069392 0.038499
Si Si2 0.365866 0.447877 0.588253
Si Si3 0.500000 0.668588 0.250000
Si Si4 0.929754 0.438282 0.460542
Si Si5 0.383279 0.127720 0.662976
O O1 0.047148 0.253768 0.068022
O O2 0.000000 0.994670 0.250000
O O3 0.237041 0.034332 0.846636
O O4 0.000000 0.000000 0.000000
O O5 0.500000 0.500000 0.500000
O O6 0.374409 0.553530 0.451167
O O7 0.373460 0.257228 0.560416
O O8 0.231519 0.488511 0.835618
O O9 0.579251 0.778193 0.254551
O O10 0.000000 0.513373 0.250000
O O11 0.000000 0.500000 0.500000
O O12 0.500000 0.000000 0.500000
#
# Coordination Sequence:
#
# PCOD8121246 Si02
#       5
#     4   4   2   4   4
#     4  10  24  43  63  93 134 169 215 270 333 392
#     4   9  21  39  62  94 127 169 213 262 331 383
#     4  10  22  40  70  90 136 170 222 286 328 396
#     4  10  23  40  66  95 129 167 218 267 326 391
#     4  10  23  41  65  98 126 176 223 270 331 396
#
# _framework density 20.875889000000001
#
# number of rings (size 3 to 8) (size 9 to 14) (size 15 to 20)
#    0.000    2.222    0.000    0.000   15.556    3.556 
#    4.000    0.000    0.000    0.000    0.000    0.000 
#    0.000    0.000    0.000    0.000    0.000    0.000 
#
# Total GULP energy -223022.983901 kJ/mol
# GULP energy per Si atom -12390.165772 kJ/mol
# Density = 2.082837 g / cm^3
# Si number density = 20.875889 Si / 1000 Ang^3
#
#
#
# Elastic Constant Matrix: (Units=GPa)
#
#
# Indices 1 2 3 4 5 6 
#
# 1 136.8061 42.1416 90.1748 0.0000 1.7077 0.0000
# 2 42.1416 65.9948 77.2657 0.0000 -1.9032 0.0000
# 3 90.1748 77.2657 214.3640 0.0000 -7.6740 0.0000
# 4 0.0000 0.0000 0.0000 34.2462 0.0000 4.4640
# 5 1.7077 -1.9032 -7.6740 0.0000 43.6263 0.0000
# 6 0.0000 0.0000 0.0000 4.4640 0.0000 43.7092
#
#
#
# Elastic Compliance Matrix: (Units=1/GPa)
#
#
# Indices 1 2 3 4 5 6 
#
# 1 0.010425 -0.002609 -0.003486 0.000000 -0.001135 0.000000
# 2 -0.002609 0.026880 -0.008600 0.000000 -0.000238 0.000000
# 3 -0.003486 -0.008600 0.009281 0.000000 0.001394 0.000000
# 4 0.000000 0.000000 0.000000 0.029594 0.000000 -0.003022
# 5 -0.001135 -0.000238 0.001394 0.000000 0.023201 0.000000
# 6 0.000000 0.000000 0.000000 -0.003022 0.000000 0.023187
#
#
# Mechanical properties :
#
#
# Convention : Reuss Voigt Hill
#
# Bulk Modulus (GPa) = 58.14778 92.92546 75.53662
# Shear Modulus (GPa) = 31.70778 38.15520 34.93149
#
# Velocity S-wave (km/s) = 3.90150 4.27982 4.09503
# Velocity P-wave (km/s) = 6.94335 8.30857 7.65645
#
# Compressibility (1/GPa) = 0.01719756
#
# Stress axis : x y z
#
# Youngs Moduli (GPa) = 95.92371 37.20198 107.74743
#
# Poissons Ratio (x) = 0.09705 0.37558
# Poissons Ratio (y) = 0.25023 0.92662
# Poissons Ratio (z) = 0.33437 0.31994
#
# Static dielectric constant tensor:
#      x y z
#    x 3.968840 0.000000 0.274370 
#    y 0.000000 4.204190 0.000000 
#    z 0.274370 0.000000 4.014260 
# 
# 
# High freq. dielectric constant tensor:
#      x y z
#    x 1.818530 0.000000 -0.009660 
#    y 0.000000 1.808270 0.000000 
#    z -0.009660 0.000000 1.830330 
# 
# From -- ./inp_files/27819.got.cif
#   From: 2010.06.25/outbox.cif.g09.slc.cpg/sg13_14_cif.got.tgz:27819.got - 2010.06.28 04:50:58.
