data_PCOD8121160
_publ_section_title
;
Structure prediction by ZEFSAII (Michael W. Deem and Ramdas Pophale) SiO2 
 PCOD8121160
Probable space group: P 2/C
;
_chemical_formula_sum "Si O2"
_cell_formula_units_Z 18
_cell_length_a 8.265799
_cell_length_b 11.807169
_cell_length_c 9.531848
_cell_angle_alpha 90.000000
_cell_angle_beta 125.127464
_cell_angle_gamma 90.000000
_cell_volume 760.841392
_symmetry_space_group_name_H-M "P 2/C"
_symmetry_group_IT_number 13
_symmetry_cell_setting 'monoclinic'
loop_
_space_group_symop_operation_xyz
x,y,z
-x,y,1/2-z
-x,-y,-z
x,-y,1/2+z
loop_
_atom_site_type_symbol
_atom_site_label
_atom_site_fract_x
_atom_site_fract_y
_atom_site_fract_z
Si Si1 0.275355 0.311043 0.793589
Si Si2 0.725397 0.689267 0.517835
Si Si3 0.735207 0.896351 0.709081
Si Si4 0.000000 0.500266 0.750000
Si Si5 0.264819 0.103936 0.974468
O O1 0.266662 0.256278 0.633816
O O2 0.195262 0.220273 0.866462
O O3 0.141005 0.422699 0.725424
O O4 0.500489 0.345705 0.942868
O O5 0.805177 0.780339 0.670177
O O6 0.860579 0.577911 0.584385
O O7 0.500009 0.902569 0.594677
O O8 0.820548 0.000281 0.660123
O O9 0.820705 0.900113 0.909989
#
# Coordination Sequence:
#
# PCOD8121160 Si02
#       5
#     4   4   4   2   4
#     4  10  22  40  62  89 122 160 202 249 301 357
#     4  10  22  40  62  89 122 160 202 249 301 357
#     4   9  17  32  58  90 122 156 195 242 299 361
#     4  12  24  40  62  88 118 160 210 256 298 350
#     4   9  17  32  58  90 122 156 195 242 299 361
#
# _framework density 23.658017999999998
#
# number of rings (size 3 to 8) (size 9 to 14) (size 15 to 20)
#    0.000    2.222    0.000    2.667    0.000    8.889 
#    0.000    5.556    0.000    5.333    0.000    0.000 
#    0.000    0.000    0.000    0.000    0.000    0.000 
#
# Total GULP energy -223207.062192 kJ/mol
# GULP energy per Si atom -12400.392344 kJ/mol
# Density = 2.360417 g / cm^3
# Si number density = 23.658018 Si / 1000 Ang^3
#
#
#
# Elastic Constant Matrix: (Units=GPa)
#
#
# Indices 1 2 3 4 5 6 
#
# 1 72.8346 58.7038 75.3860 0.0000 -4.9135 0.0000
# 2 58.7038 171.2003 80.4242 0.0000 -17.7220 0.0000
# 3 75.3860 80.4242 135.7743 0.0000 -47.1365 0.0000
# 4 0.0000 0.0000 0.0000 26.8240 0.0000 -24.6543
# 5 -4.9135 -17.7220 -47.1365 0.0000 38.6795 0.0000
# 6 0.0000 0.0000 0.0000 -24.6543 0.0000 -2.5609
#
#
#
# Elastic Compliance Matrix: (Units=1/GPa)
#
#
# Indices 1 2 3 4 5 6 
#
# 1 0.094617 -0.003449 -0.081236 0.000000 -0.088559 0.000000
# 2 -0.003449 0.008536 -0.003355 0.000000 -0.000616 0.000000
# 3 -0.081236 -0.003355 0.087257 0.000000 0.094479 0.000000
# 4 0.000000 0.000000 0.000000 0.003785 0.000000 -0.036442
# 5 -0.088559 -0.000616 0.094479 0.000000 0.129458 0.000000
# 6 0.000000 0.000000 0.000000 -0.036442 0.000000 -0.039650
#
#
# Mechanical properties :
#
#
# Convention : Reuss Voigt Hill
#
# Bulk Modulus (GPa) = 69.78257 89.87078 79.82668
# Shear Modulus (GPa) = 10.75589 23.60821 17.18205
#
# Velocity S-wave (km/s) = 2.13454 3.16237 2.69786
# Velocity P-wave (km/s) = 5.96954 7.16966 6.59695
#
# Compressibility (1/GPa) = 0.01433022
#
# Stress axis : x y z
#
# Youngs Moduli (GPa) = 10.56891 117.14965 11.46035
#
# Poissons Ratio (x) = 0.40405 0.93100
# Poissons Ratio (y) = 0.03645 0.03845
# Poissons Ratio (z) = 0.85858 0.39303
#
# Static dielectric constant tensor:
#      x y z
#    x 4.153140 0.000000 -0.069860 
#    y 0.000000 4.065940 0.000000 
#    z -0.069860 0.000000 4.240130 
# 
# 
# High freq. dielectric constant tensor:
#      x y z
#    x 1.945440 0.000000 0.005820 
#    y 0.000000 1.923970 0.000000 
#    z 0.005820 0.000000 1.939180 
# 
# From -- ./inp_files/11940.got.cif
#   From: 2010.06.25/outbox.cif.g09.slc.cpg/sg13_6_cif.got.tgz:11940.got - 2010.06.28 04:50:58.
