data_PCOD8121644
_publ_section_title
;
Structure prediction by ZEFSAII (Michael W. Deem and Ramdas Pophale) SiO2 
 PCOD8121644
Probable space group: P 2/C
;
_chemical_formula_sum "Si O2"
_cell_formula_units_Z 22
_cell_length_a 9.831094
_cell_length_b 17.254640
_cell_length_c 9.380452
_cell_angle_alpha 90.000000
_cell_angle_beta 41.223465
_cell_angle_gamma 90.000000
_cell_volume 1048.613191
_symmetry_space_group_name_H-M "P 2/C"
_symmetry_group_IT_number 13
_symmetry_cell_setting 'monoclinic'
loop_
_space_group_symop_operation_xyz
x,y,z
-x,y,1/2-z
-x,-y,-z
x,-y,1/2+z
loop_
_atom_site_type_symbol
_atom_site_label
_atom_site_fract_x
_atom_site_fract_y
_atom_site_fract_z
Si Si1 0.793019 0.554400 0.848142
Si Si2 0.734398 0.593383 0.575057
Si Si3 0.000000 0.725332 0.250000
Si Si4 0.500000 0.660016 0.250000
Si Si5 0.000000 0.132004 0.250000
Si Si6 0.750326 0.791550 0.197334
Si Si7 0.436413 0.068977 0.951293
O O1 0.793127 0.552013 0.677155
O O2 0.000000 0.592360 0.750000
O O3 0.779540 0.465667 0.910714
O O4 0.603129 0.605117 0.051601
O O5 0.500000 0.619544 0.750000
O O6 0.862214 0.671997 0.460718
O O7 0.136707 0.780630 0.241614
O O8 0.659503 0.710908 0.213769
O O9 0.913970 0.181766 0.449438
O O10 0.809777 0.081337 0.339790
O O11 0.562869 0.851117 0.374351
O O12 0.500000 0.035243 0.750000
O O13 0.500000 0.000000 0.000000
#
# Coordination Sequence:
#
# PCOD8121644 Si02
#       7
#     4   4   2   2   2   4   4
#     4  12  26  41  67  90 128 176 227 286 348 399
#     4  12  26  44  62  96 130 177 233 285 346 408
#     4  12  28  41  65  98 144 170 230 294 340 397
#     4  12  24  42  70  94 130 176 232 282 336 414
#     4  10  22  45  71  96 138 180 226 260 338 403
#     4  11  25  44  66 102 134 178 228 279 335 405
#     4  10  23  44  71 105 139 176 223 269 328 410
#
# _framework density 20.980090000000001
#
# number of rings (size 3 to 8) (size 9 to 14) (size 15 to 20)
#    0.000    0.727    4.545    3.273    6.364    6.545 
#    0.000    0.000    0.000    0.000    0.000    0.000 
#    0.000    0.000    0.000    0.000    0.000    0.000 
#
# Total GULP energy -272853.108038 kJ/mol
# GULP energy per Si atom -12402.414002 kJ/mol
# Density = 2.093234 g / cm^3
# Si number density = 20.980090 Si / 1000 Ang^3
#
#
#
# Elastic Constant Matrix: (Units=GPa)
#
#
# Indices 1 2 3 4 5 6 
#
# 1 149.2262 40.9445 53.0487 0.0000 -1.2432 0.0000
# 2 40.9445 91.3376 37.6906 0.0000 -2.9910 0.0000
# 3 53.0487 37.6906 104.5130 0.0000 -16.0695 0.0000
# 4 0.0000 0.0000 0.0000 -0.0838 0.0000 4.7984
# 5 -1.2432 -2.9910 -16.0695 0.0000 45.0614 0.0000
# 6 0.0000 0.0000 0.0000 4.7984 0.0000 16.3097
#
#
#
# Elastic Compliance Matrix: (Units=1/GPa)
#
#
# Indices 1 2 3 4 5 6 
#
# 1 0.008673 -0.002388 -0.003733 0.000000 -0.001251 0.000000
# 2 -0.002388 0.013551 -0.003752 0.000000 -0.000504 0.000000
# 3 -0.003733 -0.003752 0.013503 0.000000 0.004463 0.000000
# 4 0.000000 0.000000 0.000000 -0.668671 0.000000 0.196727
# 5 -0.001251 -0.000504 0.004463 0.000000 0.023716 0.000000
# 6 0.000000 0.000000 0.000000 0.196727 0.000000 0.003435
#
#
# Mechanical properties :
#
#
# Convention : Reuss Voigt Hill
#
# Bulk Modulus (GPa) = 62.58240 67.60492 65.09366
# Shear Modulus (GPa) = -8.61001 26.48368 8.93684
#
# Velocity S-wave (km/s) = -2.02800 3.55678 2.06614
# Velocity P-wave (km/s) = 4.94069 7.01148 6.06512
#
# Compressibility (1/GPa) = 0.01597893
#
# Stress axis : x y z
#
# Youngs Moduli (GPa) = 115.29604 73.79609 74.06023
#
# Poissons Ratio (x) = 0.17626 0.27649
# Poissons Ratio (y) = 0.27538 0.27788
# Poissons Ratio (z) = 0.43044 0.27689
#
# Static dielectric constant tensor:
#      x y z
#    x 4.031760 0.000000 -0.249550 
#    y 0.000000 3.649170 0.000000 
#    z -0.249550 0.000000 3.781130 
# 
# 
# High freq. dielectric constant tensor:
#      x y z
#    x 1.840170 0.000000 -0.008830 
#    y 0.000000 1.810380 0.000000 
#    z -0.008830 0.000000 1.835390 
# 
# From -- ./inp_files/13061.got.cif
#   From: 2010.06.25/outbox.cif.g09.slc.cpg/sg13_7_cif.got.tgz:13061.got - 2010.06.28 04:50:58.
