data_PCOD8121962
_publ_section_title
;
Structure prediction by ZEFSAII (Michael W. Deem and Ramdas Pophale) SiO2 
 PCOD8121962
Probable space group: P 2/C
;
_chemical_formula_sum "Si O2"
_cell_formula_units_Z 28
_cell_length_a 17.244058
_cell_length_b 6.594613
_cell_length_c 14.291616
_cell_angle_alpha 90.000000
_cell_angle_beta 124.976284
_cell_angle_gamma 90.000000
_cell_volume 1331.681800
_symmetry_space_group_name_H-M "P 2/C"
_symmetry_group_IT_number 13
_symmetry_cell_setting 'monoclinic'
loop_
_space_group_symop_operation_xyz
x,y,z
-x,y,1/2-z
-x,-y,-z
x,-y,1/2+z
loop_
_atom_site_type_symbol
_atom_site_label
_atom_site_fract_x
_atom_site_fract_y
_atom_site_fract_z
Si Si1 0.587175 0.588543 0.505232
Si Si2 0.939092 0.198020 0.981847
Si Si3 0.310052 0.917577 0.806839
Si Si4 0.326217 0.816937 0.477357
Si Si5 0.982364 0.583363 0.125924
Si Si6 0.808855 0.872328 0.947594
Si Si7 0.498865 0.055571 0.853384
O O1 0.500000 0.500000 0.500000
O O2 0.649278 0.721209 0.616615
O O3 0.661802 0.423888 0.518710
O O4 0.542366 0.717765 0.389122
O O5 0.932224 0.317501 0.877123
O O6 0.844242 0.105932 0.961623
O O7 0.978003 0.349089 0.089697
O O8 0.000000 0.000000 0.000000
O O9 0.231432 0.824850 0.683270
O O10 0.265832 0.078900 0.851226
O O11 0.391574 0.046814 0.812614
O O12 0.276951 0.876506 0.539580
O O13 0.432546 0.908043 0.539968
O O14 0.000000 0.597649 0.250000
O O15 0.886287 0.704901 0.032052
O O16 0.500000 0.974220 0.750000
#
# Coordination Sequence:
#
# PCOD8121962 Si02
#       7
#     4   4   4   4   4   4   4
#     4  11  21  38  61  86 126 183 227 267 319 371
#     4   9  22  47  69  97 134 170 210 264 340 404
#     4  11  23  40  63  91 134 172 222 272 318 388
#     4  11  23  41  61  95 131 176 223 271 326 378
#     4  10  23  46  74 103 130 169 221 264 334 424
#     4  11  25  42  68 103 133 168 214 278 341 392
#     4  11  21  38  61  87 126 181 227 264 319 385
#
# _framework density 21.026046000000001
#
# number of rings (size 3 to 8) (size 9 to 14) (size 15 to 20)
#    0.000    1.429    4.286    0.857    2.000    7.429 
#   10.286    0.000    0.000    0.000    0.000    0.000 
#    0.000    0.000    0.000    0.000    0.000    0.000 
#
# Total GULP energy -346900.121729 kJ/mol
# GULP energy per Si atom -12389.290062 kJ/mol
# Density = 2.097819 g / cm^3
# Si number density = 21.026046 Si / 1000 Ang^3
#
#
#
# Elastic Constant Matrix: (Units=GPa)
#
#
# Indices 1 2 3 4 5 6 
#
# 1 56.4093 43.9274 24.4576 0.0000 -4.9516 0.0000
# 2 43.9274 141.8899 53.8929 0.0000 -4.8825 0.0000
# 3 24.4576 53.8929 135.1424 0.0000 -11.4167 0.0000
# 4 0.0000 0.0000 0.0000 20.4477 0.0000 -3.0595
# 5 -4.9516 -4.8825 -11.4167 0.0000 31.5476 0.0000
# 6 0.0000 0.0000 0.0000 -3.0595 0.0000 34.2921
#
#
#
# Elastic Compliance Matrix: (Units=1/GPa)
#
#
# Indices 1 2 3 4 5 6 
#
# 1 0.023794 -0.006748 -0.001432 0.000000 0.002172 0.000000
# 2 -0.006748 0.010220 -0.002899 0.000000 -0.000526 0.000000
# 3 -0.001432 -0.002899 0.009034 0.000000 0.002596 0.000000
# 4 0.000000 0.000000 0.000000 0.049567 0.000000 0.004422
# 5 0.002172 -0.000526 0.002596 0.000000 0.032897 0.000000
# 6 0.000000 0.000000 0.000000 0.004422 0.000000 0.029556
#
#
# Mechanical properties :
#
#
# Convention : Reuss Voigt Hill
#
# Bulk Modulus (GPa) = 47.86763 64.22193 56.04478
# Shear Modulus (GPa) = 27.14636 31.33505 29.24071
#
# Velocity S-wave (km/s) = 3.59706 3.86462 3.73324
# Velocity P-wave (km/s) = 6.32986 7.10803 6.73020
#
# Compressibility (1/GPa) = 0.02089094
#
# Stress axis : x y z
#
# Youngs Moduli (GPa) = 42.02816 97.85113 110.69310
#
# Poissons Ratio (x) = 0.66027 0.15848
# Poissons Ratio (y) = 0.28359 0.32087
# Poissons Ratio (z) = 0.06017 0.28365
#
# Static dielectric constant tensor:
#      x y z
#    x 3.694390 0.000000 -0.211730 
#    y 0.000000 4.117680 0.000000 
#    z -0.211730 0.000000 3.832450 
# 
# 
# High freq. dielectric constant tensor:
#      x y z
#    x 1.822070 0.000000 -0.015450 
#    y 0.000000 1.832500 0.000000 
#    z -0.015450 0.000000 1.816230 
# 
# From -- ./inp_files/54722.got.cif
#   From: 2010.06.25/outbox.cif.g09.slc.cpg/sg13_28_cif.got.tgz:54722.got - 2010.06.28 04:50:58.
