data_PCOD8121565
_publ_section_title
;
Structure prediction by ZEFSAII (Michael W. Deem and Ramdas Pophale) SiO2 
 PCOD8121565
Probable space group: P 2/C
;
_chemical_formula_sum "Si O2"
_cell_formula_units_Z 30
_cell_length_a 22.447924
_cell_length_b 6.978622
_cell_length_c 18.499559
_cell_angle_alpha 90.000000
_cell_angle_beta 30.953056
_cell_angle_gamma 90.000000
_cell_volume 1490.574958
_symmetry_space_group_name_H-M "P 2/C"
_symmetry_group_IT_number 13
_symmetry_cell_setting 'monoclinic'
loop_
_space_group_symop_operation_xyz
x,y,z
-x,y,1/2-z
-x,-y,-z
x,-y,1/2+z
loop_
_atom_site_type_symbol
_atom_site_label
_atom_site_fract_x
_atom_site_fract_y
_atom_site_fract_z
Si Si1 0.521916 0.156652 0.115928
Si Si2 0.042018 0.856644 0.124431
Si Si3 0.500000 0.511871 0.750000
Si Si4 0.741596 0.854787 0.289138
Si Si5 0.289687 0.996317 0.332949
Si Si6 0.861248 0.145464 0.259931
Si Si7 0.349511 0.156047 0.921500
Si Si8 0.927328 0.555850 0.144412
O O1 0.493992 0.353441 0.186373
O O2 0.402173 0.123469 0.196934
O O3 0.559900 0.988568 0.133141
O O4 0.617462 0.178401 0.954462
O O5 0.000000 0.832949 0.250000
O O6 0.006604 0.665819 0.119120
O O7 0.982461 0.042357 0.150597
O O8 0.179826 0.877935 0.972553
O O9 0.390870 0.375829 0.882717
O O10 0.736519 0.860000 0.207801
O O11 0.818035 0.678140 0.234482
O O12 0.801405 0.054237 0.251349
O O13 0.335557 0.873052 0.351398
O O14 0.776694 0.118985 0.415225
O O15 0.880489 0.367851 0.230940
O O16 0.000000 0.500000 0.000000
#
# Coordination Sequence:
#
# PCOD8121565 Si02
#       8
#     4   4   2   4   4   4   4   4
#     4  11  23  43  64  91 129 168 213 259 327 384
#     4  11  24  41  67  98 129 166 215 269 317 374
#     4  12  20  40  64  92 118 170 210 262 326 374
#     4  10  24  42  67  92 128 173 208 263 319 388
#     4  12  21  43  63  94 129 162 212 264 316 378
#     4  10  22  44  65  90 129 168 209 257 323 379
#     4  11  22  40  66  91 124 165 212 266 319 379
#     4  11  23  44  65  94 131 172 212 258 324 385
#
# _framework density 20.126462
#
# number of rings (size 3 to 8) (size 9 to 14) (size 15 to 20)
#    0.000    1.067    4.000    2.800    0.000    3.733 
#    9.600    0.667    0.000    0.000    0.000    0.000 
#    0.000    0.000    0.000    0.000    0.000    0.000 
#
# Total GULP energy -371909.107842 kJ/mol
# GULP energy per Si atom -12396.970261 kJ/mol
# Density = 2.008065 g / cm^3
# Si number density = 20.126462 Si / 1000 Ang^3
#
#
#
# Elastic Constant Matrix: (Units=GPa)
#
#
# Indices 1 2 3 4 5 6 
#
# 1 87.5312 23.8267 42.6644 0.0000 2.3558 0.0000
# 2 23.8267 117.2295 32.8065 0.0000 -10.9289 0.0000
# 3 42.6644 32.8065 139.0308 0.0000 -11.3139 0.0000
# 4 0.0000 0.0000 0.0000 27.6795 0.0000 7.4583
# 5 2.3558 -10.9289 -11.3139 0.0000 39.1709 0.0000
# 6 0.0000 0.0000 0.0000 7.4583 0.0000 14.2355
#
#
#
# Elastic Compliance Matrix: (Units=1/GPa)
#
#
# Indices 1 2 3 4 5 6 
#
# 1 0.013994 -0.001951 -0.004042 0.000000 -0.002554 0.000000
# 2 -0.001951 0.009557 -0.001464 0.000000 0.002361 0.000000
# 3 -0.004042 -0.001464 0.008976 0.000000 0.002427 0.000000
# 4 0.000000 0.000000 0.000000 0.042067 0.000000 -0.022040
# 5 -0.002554 0.002361 0.002427 0.000000 0.027042 0.000000
# 6 0.000000 0.000000 0.000000 -0.022040 0.000000 0.081794
#
#
# Mechanical properties :
#
#
# Convention : Reuss Voigt Hill
#
# Bulk Modulus (GPa) = 56.77764 60.26520 58.52142
# Shear Modulus (GPa) = 24.48392 32.51677 28.50035
#
# Velocity S-wave (km/s) = 3.49163 4.02384 3.76714
# Velocity P-wave (km/s) = 6.67285 7.18308 6.93266
#
# Compressibility (1/GPa) = 0.01761257
#
# Stress axis : x y z
#
# Youngs Moduli (GPa) = 71.45685 104.63854 111.40850
#
# Poissons Ratio (x) = 0.20418 0.45030
# Poissons Ratio (y) = 0.13943 0.16312
# Poissons Ratio (z) = 0.28882 0.15321
#
# Static dielectric constant tensor:
#      x y z
#    x 3.680020 0.000000 -0.063820 
#    y 0.000000 3.328330 0.000000 
#    z -0.063820 0.000000 3.894100 
# 
# 
# High freq. dielectric constant tensor:
#      x y z
#    x 1.786260 0.000000 0.000830 
#    y 0.000000 1.778400 0.000000 
#    z 0.000830 0.000000 1.812960 
# 
# From -- ./inp_files/82009.got.cif
#   From: 2010.06.25/outbox.cif.g09.slc.cpg/sg13_42_cif.got.tgz:82009.got - 2010.06.28 04:50:58.
