data_PCOD8121195
_publ_section_title
;
Structure prediction by ZEFSAII (Michael W. Deem and Ramdas Pophale) SiO2 
 PCOD8121195
Probable space group: P 2/C
;
_chemical_formula_sum "Si O2"
_cell_formula_units_Z 24
_cell_length_a 5.406857
_cell_length_b 10.244741
_cell_length_c 22.346210
_cell_angle_alpha 90.000000
_cell_angle_beta 56.355659
_cell_angle_gamma 90.000000
_cell_volume 1030.457748
_symmetry_space_group_name_H-M "P 2/C"
_symmetry_group_IT_number 13
_symmetry_cell_setting 'monoclinic'
loop_
_space_group_symop_operation_xyz
x,y,z
-x,y,1/2-z
-x,-y,-z
x,-y,1/2+z
loop_
_atom_site_type_symbol
_atom_site_label
_atom_site_fract_x
_atom_site_fract_y
_atom_site_fract_z
Si Si1 0.837437 0.139321 0.335591
Si Si2 0.792689 0.355237 0.920258
Si Si3 0.307071 0.770801 0.181788
Si Si4 0.408814 0.481721 0.824575
Si Si5 0.349982 0.988197 0.830309
Si Si6 0.488599 0.625415 0.578005
O O1 0.505880 0.082356 0.366536
O O2 0.792173 0.279459 0.373680
O O3 0.000000 0.153659 0.250000
O O4 0.004293 0.048127 0.363319
O O5 0.699682 0.234004 0.889943
O O6 0.609161 0.484399 0.930600
O O7 0.133449 0.384478 0.862917
O O8 0.722514 0.315337 0.998675
O O9 0.321469 0.619697 0.200005
O O10 0.000000 0.833149 0.250000
O O11 0.586688 0.857055 0.167721
O O12 0.500000 0.550132 0.750000
O O13 0.358163 0.599560 0.878054
O O14 0.500000 0.936489 0.750000
#
# Coordination Sequence:
#
# PCOD8121195 Si02
#       6
#     4   4   4   4   4   4
#     4  10  23  40  65  95 127 175 226 273 332 401
#     4  10  23  42  61  95 132 175 218 271 358 399
#     4  11  21  38  65  97 129 168 224 292 335 401
#     4  11  22  35  67  99 127 171 227 282 340 404
#     4  10  22  40  64  96 130 170 222 285 338 384
#     4  10  24  41  62  90 138 176 216 276 339 423
#
# _framework density 23.290620000000001
#
# number of rings (size 3 to 8) (size 9 to 14) (size 15 to 20)
#    0.000    1.667    1.667    2.500    7.000    0.667 
#    0.000    1.667    0.000    0.000    0.000    0.000 
#    0.000    0.000    0.000    0.000    0.000    0.000 
#
# Total GULP energy -297317.581198 kJ/mol
# GULP energy per Si atom -12388.232550 kJ/mol
# Density = 2.323761 g / cm^3
# Si number density = 23.290620 Si / 1000 Ang^3
#
#
#
# Elastic Constant Matrix: (Units=GPa)
#
#
# Indices 1 2 3 4 5 6 
#
# 1 136.2932 24.8402 56.1850 0.0000 13.7570 0.0000
# 2 24.8402 32.0058 39.8079 0.0000 11.1446 0.0000
# 3 56.1850 39.8079 146.4821 0.0000 25.7655 0.0000
# 4 0.0000 0.0000 0.0000 9.1250 0.0000 -9.1312
# 5 13.7570 11.1446 25.7655 0.0000 29.9617 0.0000
# 6 0.0000 0.0000 0.0000 -9.1312 0.0000 18.6448
#
#
#
# Elastic Compliance Matrix: (Units=1/GPa)
#
#
# Indices 1 2 3 4 5 6 
#
# 1 0.009070 -0.003953 -0.002275 0.000000 -0.000738 0.000000
# 2 -0.003953 0.050473 -0.010860 0.000000 -0.007620 0.000000
# 3 -0.002275 -0.010860 0.011495 0.000000 -0.004801 0.000000
# 4 0.000000 0.000000 0.000000 0.214911 0.000000 0.105252
# 5 -0.000738 -0.007620 -0.004801 0.000000 0.040678 0.000000
# 6 0.000000 0.000000 0.000000 0.105252 0.000000 0.105181
#
#
# Mechanical properties :
#
#
# Convention : Reuss Voigt Hill
#
# Bulk Modulus (GPa) = 27.12787 61.82746 44.47767
# Shear Modulus (GPa) = 10.45433 24.47619 17.46526
#
# Velocity S-wave (km/s) = 2.12094 3.24528 2.74137
# Velocity P-wave (km/s) = 4.20365 6.37543 5.39985
#
# Compressibility (1/GPa) = 0.03686246
#
# Stress axis : x y z
#
# Youngs Moduli (GPa) = 110.25600 19.81258 86.99355
#
# Poissons Ratio (x) = 0.07832 0.19789
# Poissons Ratio (y) = 0.43584 0.94475
# Poissons Ratio (z) = 0.25081 0.21516
#
# Static dielectric constant tensor:
#      x y z
#    x 4.546200 0.000000 0.370900 
#    y 0.000000 3.917790 0.000000 
#    z 0.370900 0.000000 4.283400 
# 
# 
# High freq. dielectric constant tensor:
#      x y z
#    x 1.926120 0.000000 0.016390 
#    y 0.000000 1.905120 0.000000 
#    z 0.016390 0.000000 1.893470 
# 
# From -- ./inp_files/83641.got.cif
#   From: 2010.06.25/outbox.cif.g09.slc.cpg/sg13_42_cif.got.tgz:83641.got - 2010.06.28 04:50:58.
