data_PCOD8121364
_publ_section_title
;
Structure prediction by ZEFSAII (Michael W. Deem and Ramdas Pophale) SiO2 
 PCOD8121364
Probable space group: P 2/C
;
_chemical_formula_sum "Si O2"
_cell_formula_units_Z 24
_cell_length_a 11.114726
_cell_length_b 5.505154
_cell_length_c 19.993504
_cell_angle_alpha 90.000000
_cell_angle_beta 114.865045
_cell_angle_gamma 90.000000
_cell_volume 1109.962735
_symmetry_space_group_name_H-M "P 2/C"
_symmetry_group_IT_number 13
_symmetry_cell_setting 'monoclinic'
loop_
_space_group_symop_operation_xyz
x,y,z
-x,y,1/2-z
-x,-y,-z
x,-y,1/2+z
loop_
_atom_site_type_symbol
_atom_site_label
_atom_site_fract_x
_atom_site_fract_y
_atom_site_fract_z
Si Si1 0.153138 0.610404 0.966270
Si Si2 0.620398 0.685029 0.026397
Si Si3 0.143732 0.344662 0.104349
Si Si4 0.692491 0.007965 0.931082
Si Si5 0.633925 0.617826 0.738890
Si Si6 0.416311 0.121874 0.843249
O O1 0.232355 0.436246 0.934075
O O2 0.006858 0.664625 0.903649
O O3 0.149711 0.521972 0.042432
O O4 0.238486 0.854720 0.991316
O O5 0.606566 0.884252 0.081803
O O6 0.500000 0.500000 0.000000
O O7 0.612707 0.791449 0.949453
O O8 0.193837 0.077925 0.093588
O O9 0.239260 0.431532 0.185115
O O10 0.574679 0.142340 0.863224
O O11 0.500000 0.629715 0.750000
O O12 0.641419 0.380385 0.694001
O O13 0.648338 0.877115 0.703231
#
# Coordination Sequence:
#
# PCOD8121364 Si02
#       6
#     4   4   4   4   4   4
#     4  10  22  41  70  93 133 167 227 280 331 391
#     4  11  23  40  65  98 131 169 225 279 332 389
#     4  10  23  42  64 101 130 174 220 275 340 389
#     4  11  21  39  68  98 127 168 221 285 326 388
#     4  12  25  42  66  97 137 175 216 272 333 411
#     4  12  25  40  67  98 135 175 219 272 335 401
#
# _framework density 21.622350000000001
#
# number of rings (size 3 to 8) (size 9 to 14) (size 15 to 20)
#    0.000    1.000    3.333    3.500    4.667    0.000 
#    0.000    0.833    0.000    0.000    0.000    0.000 
#    0.000    0.000    0.000    0.000    0.000    0.000 
#
# Total GULP energy -297434.224998 kJ/mol
# GULP energy per Si atom -12393.092708 kJ/mol
# Density = 2.157314 g / cm^3
# Si number density = 21.622350 Si / 1000 Ang^3
#
#
#
# Elastic Constant Matrix: (Units=GPa)
#
#
# Indices 1 2 3 4 5 6 
#
# 1 115.0742 25.1938 35.2974 0.0000 32.6998 0.0000
# 2 25.1938 99.9043 23.7923 0.0000 9.2736 0.0000
# 3 35.2974 23.7923 91.1068 0.0000 29.9862 0.0000
# 4 0.0000 0.0000 0.0000 29.7195 0.0000 -3.8483
# 5 32.6998 9.2736 29.9862 0.0000 42.6589 0.0000
# 6 0.0000 0.0000 0.0000 -3.8483 0.0000 33.1176
#
#
#
# Elastic Compliance Matrix: (Units=1/GPa)
#
#
# Indices 1 2 3 4 5 6 
#
# 1 0.011706 -0.001881 -0.001594 0.000000 -0.007444 0.000000
# 2 -0.001881 0.010983 -0.002378 0.000000 0.000726 0.000000
# 3 -0.001594 -0.002378 0.015147 0.000000 -0.008908 0.000000
# 4 0.000000 0.000000 0.000000 0.034162 0.000000 0.003970
# 5 -0.007444 0.000726 -0.008908 0.000000 0.035252 0.000000
# 6 0.000000 0.000000 0.000000 0.003970 0.000000 0.030657
#
#
# Mechanical properties :
#
#
# Convention : Reuss Voigt Hill
#
# Bulk Modulus (GPa) = 38.27253 52.73912 45.50582
# Shear Modulus (GPa) = 31.58096 35.88600 33.73348
#
# Velocity S-wave (km/s) = 3.82589 4.07833 3.95412
# Velocity P-wave (km/s) = 6.10372 6.82795 6.47597
#
# Compressibility (1/GPa) = 0.02612840
#
# Stress axis : x y z
#
# Youngs Moduli (GPa) = 85.42532 91.04965 66.02066
#
# Poissons Ratio (x) = 0.17131 0.10523
# Poissons Ratio (y) = 0.16073 0.15702
# Poissons Ratio (z) = 0.13616 0.21655
#
# Static dielectric constant tensor:
#      x y z
#    x 3.990360 0.000000 0.090560 
#    y 0.000000 4.045870 0.000000 
#    z 0.090560 0.000000 3.882220 
# 
# 
# High freq. dielectric constant tensor:
#      x y z
#    x 1.841790 0.000000 0.007160 
#    y 0.000000 1.859230 0.000000 
#    z 0.007160 0.000000 1.831260 
# 
# From -- ./inp_files/77310.got.cif
#   From: 2010.06.25/outbox.cif.g09.slc.cpg/sg13_39_cif.got.tgz:77310.got - 2010.06.28 04:50:58.
