data_PCOD8121146
_publ_section_title
;
Structure prediction by ZEFSAII (Michael W. Deem and Ramdas Pophale) SiO2 
 PCOD8121146
Probable space group: P 2/C
;
_chemical_formula_sum "Si O2"
_cell_formula_units_Z 20
_cell_length_a 16.616899
_cell_length_b 5.324654
_cell_length_c 10.500036
_cell_angle_alpha 90.000000
_cell_angle_beta 110.088512
_cell_angle_gamma 90.000000
_cell_volume 872.515596
_symmetry_space_group_name_H-M "P 2/C"
_symmetry_group_IT_number 13
_symmetry_cell_setting 'monoclinic'
loop_
_space_group_symop_operation_xyz
x,y,z
-x,y,1/2-z
-x,-y,-z
x,-y,1/2+z
loop_
_atom_site_type_symbol
_atom_site_label
_atom_site_fract_x
_atom_site_fract_y
_atom_site_fract_z
Si Si1 0.396875 0.750816 0.907370
Si Si2 0.843316 0.584528 0.321032
Si Si3 0.910065 0.908006 0.769770
Si Si4 0.441938 0.250062 0.840139
Si Si5 0.769435 0.659569 0.550280
O O1 0.384755 0.503800 0.811643
O O2 0.380604 0.003810 0.815410
O O3 0.495359 0.751383 0.003999
O O4 0.329361 0.747254 0.987949
O O5 0.907116 0.341318 0.358515
O O6 0.784040 0.572010 0.414041
O O7 0.896960 0.842544 0.347191
O O8 0.785440 0.565696 0.161314
O O9 0.834802 0.885628 0.622403
O O10 0.000000 0.925653 0.750000
O O11 0.500000 0.235410 0.750000
#
# Coordination Sequence:
#
# PCOD8121146 Si02
#       5
#     4   4   4   4   4
#     4  10  23  38  61  90 120 160 207 250 311 366
#     4  10  25  42  65  96 127 170 211 262 320 377
#     4  10  24  42  65  97 128 167 213 266 320 376
#     4  10  22  40  60  89 121 161 202 256 308 367
#     4  10  26  42  67  96 129 170 214 265 316 384
#
# _framework density 22.922228
#
# number of rings (size 3 to 8) (size 9 to 14) (size 15 to 20)
#    1.200    0.800    0.000    1.200    8.400    1.600 
#    0.000    0.000    0.000    0.000    0.000    0.000 
#    0.000    0.000    0.000    0.000    0.000    0.000 
#
# Total GULP energy -247822.863813 kJ/mol
# GULP energy per Si atom -12391.143191 kJ/mol
# Density = 2.287006 g / cm^3
# Si number density = 22.922228 Si / 1000 Ang^3
#
#
#
# Elastic Constant Matrix: (Units=GPa)
#
#
# Indices 1 2 3 4 5 6 
#
# 1 112.3572 51.3442 26.1842 0.0000 -38.9588 0.0000
# 2 51.3442 219.4053 55.0286 0.0000 -34.3233 0.0000
# 3 26.1842 55.0286 106.9876 0.0000 -46.8311 0.0000
# 4 0.0000 0.0000 0.0000 20.9608 0.0000 -9.3265
# 5 -38.9588 -34.3233 -46.8311 0.0000 45.7246 0.0000
# 6 0.0000 0.0000 0.0000 -9.3265 0.0000 15.1571
#
#
#
# Elastic Compliance Matrix: (Units=1/GPa)
#
#
# Indices 1 2 3 4 5 6 
#
# 1 0.013859 -0.001981 0.003888 0.000000 0.014303 0.000000
# 2 -0.001981 0.005632 -0.002357 0.000000 0.000126 0.000000
# 3 0.003888 -0.002357 0.018640 0.000000 0.020634 0.000000
# 4 0.000000 0.000000 0.000000 0.065695 0.000000 0.040423
# 5 0.014303 0.000126 0.020634 0.000000 0.055285 0.000000
# 6 0.000000 0.000000 0.000000 0.040423 0.000000 0.090849
#
#
# Mechanical properties :
#
#
# Convention : Reuss Voigt Hill
#
# Bulk Modulus (GPa) = 26.85929 78.20710 52.53320
# Shear Modulus (GPa) = 18.99199 36.78138 27.88668
#
# Velocity S-wave (km/s) = 2.88156 4.01011 3.49173
# Velocity P-wave (km/s) = 4.77642 7.45881 6.26291
#
# Compressibility (1/GPa) = 0.03723107
#
# Stress axis : x y z
#
# Youngs Moduli (GPa) = 72.15654 177.55175 53.64917
#
# Poissons Ratio (x) = 0.35168 -0.20858
# Poissons Ratio (y) = 0.14292 0.12644
# Poissons Ratio (z) = -0.28053 0.41846
#
# Static dielectric constant tensor:
#      x y z
#    x 3.922820 0.000000 -0.049470 
#    y 0.000000 4.485780 0.000000 
#    z -0.049470 0.000000 3.695500 
# 
# 
# High freq. dielectric constant tensor:
#      x y z
#    x 1.896340 0.000000 -0.023300 
#    y 0.000000 1.913380 0.000000 
#    z -0.023300 0.000000 1.878450 
# 
# From -- ./inp_files/35116.got.cif
#   From: 2010.06.25/outbox.cif.g09.slc.cpg/sg13_18_cif.got.tgz:35116.got - 2010.06.28 04:50:58.
