data_PCOD8121833
_publ_section_title
;
Structure prediction by ZEFSAII (Michael W. Deem and Ramdas Pophale) SiO2 
 PCOD8121833
Probable space group: P 2/C
;
_chemical_formula_sum "Si O2"
_cell_formula_units_Z 26
_cell_length_a 6.334728
_cell_length_b 11.598318
_cell_length_c 21.623373
_cell_angle_alpha 90.000000
_cell_angle_beta 47.942349
_cell_angle_gamma 90.000000
_cell_volume 1179.576247
_symmetry_space_group_name_H-M "P 2/C"
_symmetry_group_IT_number 13
_symmetry_cell_setting 'monoclinic'
loop_
_space_group_symop_operation_xyz
x,y,z
-x,y,1/2-z
-x,-y,-z
x,-y,1/2+z
loop_
_atom_site_type_symbol
_atom_site_label
_atom_site_fract_x
_atom_site_fract_y
_atom_site_fract_z
Si Si1 0.673615 0.224408 0.561553
Si Si2 0.855976 0.923533 0.338777
Si Si3 0.331016 0.444729 0.589170
Si Si4 0.500000 0.760605 0.750000
Si Si5 0.821909 0.286418 0.664738
Si Si6 0.305598 0.327327 0.166177
Si Si7 0.107873 0.156548 0.109554
O O1 0.457391 0.120405 0.615901
O O2 0.504723 0.340020 0.581757
O O3 0.854762 0.246319 0.587437
O O4 0.879990 0.192048 0.464627
O O5 0.000000 0.979987 0.250000
O O6 0.056303 0.818008 0.319143
O O7 0.813891 0.022288 0.398395
O O8 0.500000 0.500000 0.500000
O O9 0.316864 0.540414 0.644660
O O10 0.012201 0.402189 0.634691
O O11 0.477996 0.687221 0.818456
O O12 0.783677 0.836146 0.696609
O O13 0.500000 0.313487 0.750000
O O14 0.336525 0.237683 0.102110
O O15 0.000000 0.295030 0.250000
#
# Coordination Sequence:
#
# PCOD8121833 Si02
#       7
#     4   4   4   2   4   4   4
#     4  11  25  43  68 100 136 177 231 286 344 407
#     4  11  23  43  69  96 138 178 224 285 344 412
#     4  11  25  45  69  95 138 179 224 290 339 406
#     4  10  24  40  68  96 138 178 230 282 338 422
#     4  11  26  44  69 102 133 181 233 278 345 416
#     4  10  23  43  62  96 133 177 227 275 340 405
#     4  11  24  43  68 100 135 181 226 286 346 407
#
# _framework density 22.041813000000001
#
# number of rings (size 3 to 8) (size 9 to 14) (size 15 to 20)
#    0.000    1.231    3.077    1.846    5.385    4.923 
#    1.385    0.000    0.000    0.000    0.000    0.000 
#    0.000    0.000    0.000    0.000    0.000    0.000 
#
# Total GULP energy -322339.594513 kJ/mol
# GULP energy per Si atom -12397.676712 kJ/mol
# Density = 2.199164 g / cm^3
# Si number density = 22.041813 Si / 1000 Ang^3
#
#
#
# Elastic Constant Matrix: (Units=GPa)
#
#
# Indices 1 2 3 4 5 6 
#
# 1 85.1030 30.5741 30.6062 0.0000 8.1053 0.0000
# 2 30.5741 115.1653 29.3909 0.0000 -6.2583 0.0000
# 3 30.6062 29.3909 103.3411 0.0000 13.7764 0.0000
# 4 0.0000 0.0000 0.0000 32.0983 0.0000 3.9305
# 5 8.1053 -6.2583 13.7764 0.0000 39.3056 0.0000
# 6 0.0000 0.0000 0.0000 3.9305 0.0000 25.6309
#
#
#
# Elastic Compliance Matrix: (Units=1/GPa)
#
#
# Indices 1 2 3 4 5 6 
#
# 1 0.014177 -0.003129 -0.002992 0.000000 -0.002373 0.000000
# 2 -0.003129 0.010302 -0.002421 0.000000 0.003134 0.000000
# 3 -0.002992 -0.002421 0.011771 0.000000 -0.003894 0.000000
# 4 0.000000 0.000000 0.000000 0.031750 0.000000 -0.004869
# 5 -0.002373 0.003134 -0.003894 0.000000 0.027795 0.000000
# 6 0.000000 0.000000 0.000000 -0.004869 0.000000 0.039762
#
#
# Mechanical properties :
#
#
# Convention : Reuss Voigt Hill
#
# Bulk Modulus (GPa) = 52.17994 53.86133 53.02063
# Shear Modulus (GPa) = 31.44065 33.60952 32.52509
#
# Velocity S-wave (km/s) = 3.78088 3.90911 3.84553
# Velocity P-wave (km/s) = 6.54100 6.69805 6.61999
#
# Compressibility (1/GPa) = 0.01916445
#
# Stress axis : x y z
#
# Youngs Moduli (GPa) = 70.53808 97.06831 84.95710
#
# Poissons Ratio (x) = 0.30372 0.25423
# Poissons Ratio (y) = 0.22071 0.20569
# Poissons Ratio (z) = 0.21109 0.23501
#
# Static dielectric constant tensor:
#      x y z
#    x 4.357690 0.000000 0.372740 
#    y 0.000000 2.731070 0.000000 
#    z 0.372740 0.000000 4.197240 
# 
# 
# High freq. dielectric constant tensor:
#      x y z
#    x 1.863750 0.000000 0.010870 
#    y 0.000000 1.869680 0.000000 
#    z 0.010870 0.000000 1.877220 
# 
# From -- ./inp_files/73539.got.cif
#   From: 2010.06.25/outbox.cif.g09.slc.cpg/sg13_37_cif.got.tgz:73539.got - 2010.06.28 04:50:58.
