data_PCOD8121088
_publ_section_title
;
Structure prediction by ZEFSAII (Michael W. Deem and Ramdas Pophale) SiO2 
 PCOD8121088
Probable space group: P 2/C
;
_chemical_formula_sum "Si O2"
_cell_formula_units_Z 22
_cell_length_a 25.784960
_cell_length_b 6.377445
_cell_length_c 15.312432
_cell_angle_alpha 90.000000
_cell_angle_beta 156.639005
_cell_angle_gamma 90.000000
_cell_volume 998.448722
_symmetry_space_group_name_H-M "P 2/C"
_symmetry_group_IT_number 13
_symmetry_cell_setting 'monoclinic'
loop_
_space_group_symop_operation_xyz
x,y,z
-x,y,1/2-z
-x,-y,-z
x,-y,1/2+z
loop_
_atom_site_type_symbol
_atom_site_label
_atom_site_fract_x
_atom_site_fract_y
_atom_site_fract_z
Si Si1 0.950464 0.567048 0.018876
Si Si2 0.831040 0.022470 0.385579
Si Si3 0.000000 0.290209 0.250000
Si Si4 0.557166 0.446809 0.211508
Si Si5 0.573878 0.806760 0.571835
Si Si6 0.702701 0.335854 0.602770
O O1 0.946262 0.818596 0.030904
O O2 0.798378 0.505747 0.793769
O O3 0.000000 0.500000 0.000000
O O4 0.036948 0.443161 0.225244
O O5 0.710924 0.140835 0.242075
O O6 0.882141 0.860864 0.538357
O O7 0.777065 0.889199 0.219029
O O8 0.608075 0.363316 0.198438
O O9 0.673895 0.411447 0.460115
O O10 0.519658 0.693611 0.144923
O O11 0.429253 0.317401 0.044768
O O12 0.500000 0.000000 0.500000
#
# Coordination Sequence:
#
# PCOD8121088 Si02
#       6
#     4   4   2   4   4   4
#     4  11  25  45  68  99 135 183 231 293 346 405
#     4  11  23  43  67  98 135 179 232 280 339 422
#     4  10  26  44  72  96 138 176 238 290 350 400
#     4  10  22  39  62  95 135 171 215 275 335 400
#     4  11  22  39  66  97 130 175 224 271 342 407
#     4  10  22  41  61  95 134 173 222 273 335 404
#
# _framework density 22.034182000000001
#
# number of rings (size 3 to 8) (size 9 to 14) (size 15 to 20)
#    0.000    1.455    3.636    0.545    0.000   10.182 
#    0.000    0.000    0.000    0.000    0.000    0.000 
#    0.000    0.000    0.000    0.000    0.000    0.000 
#
# Total GULP energy -272679.890998 kJ/mol
# GULP energy per Si atom -12394.540500 kJ/mol
# Density = 2.198403 g / cm^3
# Si number density = 22.034182 Si / 1000 Ang^3
#
#
#
# Elastic Constant Matrix: (Units=GPa)
#
#
# Indices 1 2 3 4 5 6 
#
# 1 109.6284 55.2006 35.6528 0.0000 -24.5229 0.0000
# 2 55.2006 157.2390 58.3876 0.0000 -16.9446 0.0000
# 3 35.6528 58.3876 91.2236 0.0000 -28.8632 0.0000
# 4 0.0000 0.0000 0.0000 37.8644 0.0000 -4.1798
# 5 -24.5229 -16.9446 -28.8632 0.0000 33.7324 0.0000
# 6 0.0000 0.0000 0.0000 -4.1798 0.0000 36.6784
#
#
#
# Elastic Compliance Matrix: (Units=1/GPa)
#
#
# Indices 1 2 3 4 5 6 
#
# 1 0.012601 -0.003493 -0.000474 0.000000 0.007000 0.000000
# 2 -0.003493 0.009318 -0.005377 0.000000 -0.002460 0.000000
# 3 -0.000474 -0.005377 0.018683 0.000000 0.012941 0.000000
# 4 0.000000 0.000000 0.000000 0.026746 0.000000 0.003048
# 5 0.007000 -0.002460 0.012941 0.000000 0.044571 0.000000
# 6 0.000000 0.000000 0.000000 0.003048 0.000000 0.027611
#
#
# Mechanical properties :
#
#
# Convention : Reuss Voigt Hill
#
# Bulk Modulus (GPa) = 45.63393 72.95255 59.29324
# Shear Modulus (GPa) = 30.20731 35.57837 32.89284
#
# Velocity S-wave (km/s) = 3.70662 4.02268 3.86788
# Velocity P-wave (km/s) = 6.25094 7.39977 6.84948
#
# Compressibility (1/GPa) = 0.02191352
#
# Stress axis : x y z
#
# Youngs Moduli (GPa) = 79.36083 107.32449 53.52422
#
# Poissons Ratio (x) = 0.37491 0.02537
# Poissons Ratio (y) = 0.27723 0.28778
# Poissons Ratio (z) = 0.03762 0.57705
#
# Static dielectric constant tensor:
#      x y z
#    x 3.845260 0.000000 -0.219310 
#    y 0.000000 4.336920 0.000000 
#    z -0.219310 0.000000 3.980570 
# 
# 
# High freq. dielectric constant tensor:
#      x y z
#    x 1.856320 0.000000 -0.009860 
#    y 0.000000 1.879520 0.000000 
#    z -0.009860 0.000000 1.859880 
# 
# From -- ./inp_files/72175.got.cif
#   From: 2010.06.25/outbox.cif.g09.slc.cpg/sg13_37_cif.got.tgz:72175.got - 2010.06.28 04:50:58.
