data_PCOD8121454
_publ_section_title
;
Structure prediction by ZEFSAII (Michael W. Deem and Ramdas Pophale) SiO2 
 PCOD8121454
Probable space group: P 2/C
;
_chemical_formula_sum "Si O2"
_cell_formula_units_Z 32
_cell_length_a 9.070245
_cell_length_b 13.258009
_cell_length_c 15.501136
_cell_angle_alpha 90.000000
_cell_angle_beta 55.292111
_cell_angle_gamma 90.000000
_cell_volume 1532.383107
_symmetry_space_group_name_H-M "P 2/C"
_symmetry_group_IT_number 13
_symmetry_cell_setting 'monoclinic'
loop_
_space_group_symop_operation_xyz
x,y,z
-x,y,1/2-z
-x,-y,-z
x,-y,1/2+z
loop_
_atom_site_type_symbol
_atom_site_label
_atom_site_fract_x
_atom_site_fract_y
_atom_site_fract_z
Si Si1 0.397586 0.740543 0.201819
Si Si2 0.058872 0.864311 0.322186
Si Si3 0.025093 0.067451 0.406487
Si Si4 0.720021 0.598348 0.403051
Si Si5 0.232668 0.244934 0.992693
Si Si6 0.334618 0.371725 0.112383
Si Si7 0.069530 0.300521 0.525675
Si Si8 0.299144 0.245739 0.298399
O O1 0.500000 0.690677 0.250000
O O2 0.264784 0.831077 0.274111
O O3 0.281954 0.661355 0.185128
O O4 0.560584 0.783187 0.090863
O O5 0.000000 0.820859 0.250000
O O6 0.925988 0.814100 0.437627
O O7 0.038855 0.984734 0.326511
O O8 0.195598 0.139625 0.334835
O O9 0.852701 0.137752 0.456404
O O10 0.000000 0.000000 0.500000
O O11 0.737397 0.485423 0.362845
O O12 0.545297 0.623888 0.518808
O O13 0.891293 0.622757 0.408253
O O14 0.216360 0.316200 0.080438
O O15 0.131816 0.307492 0.948578
O O16 0.292497 0.313075 0.214615
O O17 0.217390 0.314751 0.402106
O O18 0.500000 0.214842 0.250000
#
# Coordination Sequence:
#
# PCOD8121454 Si02
#       8
#     4   4   4   4   4   4   4   4
#     4  11  21  41  67  94 127 172 218 269 331 401
#     4  12  24  41  65  96 130 173 224 273 340 396
#     4  11  23  42  64  93 134 172 216 279 336 390
#     4  10  22  42  68  96 133 169 221 272 329 395
#     4  10  23  41  66  93 134 168 217 281 331 390
#     4  10  23  43  64  99 133 173 218 275 329 400
#     4  11  21  43  66  94 134 171 217 282 324 389
#     4  11  23  41  68  95 133 177 225 268 336 402
#
# _framework density 20.882507
#
# number of rings (size 3 to 8) (size 9 to 14) (size 15 to 20)
#    0.000    1.250    6.250    0.000    1.750    4.000 
#    2.250    5.625    0.000    0.000    0.000    0.000 
#    0.000    0.000    0.000    0.000    0.000    0.000 
#
# Total GULP energy -396418.826040 kJ/mol
# GULP energy per Si atom -12388.088314 kJ/mol
# Density = 2.083498 g / cm^3
# Si number density = 20.882507 Si / 1000 Ang^3
#
#
#
# Elastic Constant Matrix: (Units=GPa)
#
#
# Indices 1 2 3 4 5 6 
#
# 1 107.3921 60.4403 53.1446 0.0000 16.8020 0.0000
# 2 60.4403 142.4117 50.3373 0.0000 8.8517 0.0000
# 3 53.1446 50.3373 92.6231 0.0000 8.9500 0.0000
# 4 0.0000 0.0000 0.0000 28.2531 0.0000 -2.4976
# 5 16.8020 8.8517 8.9500 0.0000 42.0271 0.0000
# 6 0.0000 0.0000 0.0000 -2.4976 0.0000 20.6820
#
#
#
# Elastic Compliance Matrix: (Units=1/GPa)
#
#
# Indices 1 2 3 4 5 6 
#
# 1 0.015263 -0.004050 -0.006176 0.000000 -0.003934 0.000000
# 2 -0.004050 0.009795 -0.003019 0.000000 0.000199 0.000000
# 3 -0.006176 -0.003019 0.016010 0.000000 -0.000304 0.000000
# 4 0.000000 0.000000 0.000000 0.035776 0.000000 0.004320
# 5 -0.003934 0.000199 -0.000304 0.000000 0.025390 0.000000
# 6 0.000000 0.000000 0.000000 0.004320 0.000000 0.048873
#
#
# Mechanical properties :
#
#
# Convention : Reuss Voigt Hill
#
# Bulk Modulus (GPa) = 68.59552 74.47458 71.53505
# Shear Modulus (GPa) = 27.40364 30.09275 28.74820
#
# Velocity S-wave (km/s) = 3.62647 3.80024 3.71437
# Velocity P-wave (km/s) = 7.10314 7.41598 7.26125
#
# Compressibility (1/GPa) = 0.01457821
#
# Stress axis : x y z
#
# Youngs Moduli (GPa) = 65.51832 102.08799 62.45985
#
# Poissons Ratio (x) = 0.41346 0.38577
# Poissons Ratio (y) = 0.26535 0.18856
# Poissons Ratio (z) = 0.40466 0.30819
#
# Static dielectric constant tensor:
#      x y z
#    x 4.044080 0.000000 0.148940 
#    y 0.000000 3.853490 0.000000 
#    z 0.148940 0.000000 4.067190 
# 
# 
# High freq. dielectric constant tensor:
#      x y z
#    x 1.821720 0.000000 0.005950 
#    y 0.000000 1.799810 0.000000 
#    z 0.005950 0.000000 1.833300 
# 
# From -- ./inp_files/47690.got.cif
#   From: 2010.06.25/outbox.cif.g09.slc.cpg/sg13_24_cif.got.tgz:47690.got - 2010.06.28 04:50:58.
