data_PCOD8121883
_publ_section_title
;
Structure prediction by ZEFSAII (Michael W. Deem and Ramdas Pophale) SiO2 
 PCOD8121883
Probable space group: P 2/C
;
_chemical_formula_sum "Si O2"
_cell_formula_units_Z 32
_cell_length_a 19.063393
_cell_length_b 8.877687
_cell_length_c 24.584573
_cell_angle_alpha 90.000000
_cell_angle_beta 158.957253
_cell_angle_gamma 90.000000
_cell_volume 1493.946392
_symmetry_space_group_name_H-M "P 2/C"
_symmetry_group_IT_number 13
_symmetry_cell_setting 'monoclinic'
loop_
_space_group_symop_operation_xyz
x,y,z
-x,y,1/2-z
-x,-y,-z
x,-y,1/2+z
loop_
_atom_site_type_symbol
_atom_site_label
_atom_site_fract_x
_atom_site_fract_y
_atom_site_fract_z
Si Si1 0.795157 0.805420 0.129683
Si Si2 0.153736 0.212006 0.238891
Si Si3 0.389621 0.883314 0.007434
Si Si4 0.191452 0.120409 0.737013
Si Si5 0.480993 0.361981 0.823606
Si Si6 0.203143 0.587270 0.029731
Si Si7 0.062757 0.360554 0.005641
Si Si8 0.400372 0.354334 0.324297
O O1 0.814435 0.795982 0.209059
O O2 0.000000 0.759782 0.250000
O O3 0.623776 0.697980 0.984037
O O4 0.729960 0.969597 0.062479
O O5 0.255469 0.213210 0.370700
O O6 0.296118 0.311355 0.304508
O O7 0.098238 0.046410 0.175171
O O8 0.954381 0.296769 0.105794
O O9 0.588372 0.921435 0.119787
O O10 0.434718 0.795661 0.095319
O O11 0.092095 0.224891 0.617964
O O12 0.646669 0.450514 0.909608
O O13 0.301165 0.331954 0.653092
O O14 0.410032 0.463877 0.823291
O O15 0.109349 0.428928 0.980158
O O16 0.261240 0.288599 0.174970
O O17 0.000000 0.500000 0.000000
#
# Coordination Sequence:
#
# PCOD8121883 Si02
#       8
#     4   4   4   4   4   4   4   4
#     4  11  25  44  64  92 134 173 215 269 326 390
#     4  11  22  40  67  94 130 165 221 269 321 392
#     4  11  23  42  65  93 130 168 215 266 327 387
#     4  11  23  42  67  97 125 173 213 267 328 391
#     4  10  25  41  64  91 132 173 213 269 330 385
#     4  10  23  44  61  91 133 170 214 269 325 386
#     4  11  23  41  69  97 128 167 218 271 327 386
#     4  11  22  44  62  97 128 168 221 269 319 391
#
# _framework density 21.419778000000001
#
# number of rings (size 3 to 8) (size 9 to 14) (size 15 to 20)
#    0.000    1.250    3.750    2.250    5.250    3.000 
#    0.000    0.000    0.000    0.000    0.000    0.000 
#    0.000    0.000    0.000    0.000    0.000    0.000 
#
# Total GULP energy -396633.075717 kJ/mol
# GULP energy per Si atom -12394.783616 kJ/mol
# Density = 2.137103 g / cm^3
# Si number density = 21.419778 Si / 1000 Ang^3
#
#
#
# Elastic Constant Matrix: (Units=GPa)
#
#
# Indices 1 2 3 4 5 6 
#
# 1 43.1542 -6.8689 -0.7806 0.0000 3.9245 0.0000
# 2 -6.8689 27.5272 17.9030 0.0000 -10.1162 0.0000
# 3 -0.7806 17.9030 118.2724 0.0000 6.7354 0.0000
# 4 0.0000 0.0000 0.0000 46.3832 0.0000 -2.6124
# 5 3.9245 -10.1162 6.7354 0.0000 30.6803 0.0000
# 6 0.0000 0.0000 0.0000 -2.6124 0.0000 29.7418
#
#
#
# Elastic Compliance Matrix: (Units=1/GPa)
#
#
# Indices 1 2 3 4 5 6 
#
# 1 0.024226 0.006186 -0.000725 0.000000 -0.000900 0.000000
# 2 0.006186 0.049832 -0.008499 0.000000 0.017506 0.000000
# 3 -0.000725 -0.008499 0.010016 0.000000 -0.004909 0.000000
# 4 0.000000 0.000000 0.000000 0.021667 0.000000 0.001903
# 5 -0.000900 0.017506 -0.004909 0.000000 0.039559 0.000000
# 6 0.000000 0.000000 0.000000 0.001903 0.000000 0.033790
#
#
# Mechanical properties :
#
#
# Convention : Reuss Voigt Hill
#
# Bulk Modulus (GPa) = 12.82086 23.27343 18.04715
# Shear Modulus (GPa) = 23.67798 33.27440 28.47619
#
# Velocity S-wave (km/s) = 3.32840 3.94565 3.65010
# Velocity P-wave (km/s) = 4.55736 5.62552 5.11938
#
# Compressibility (1/GPa) = 0.07799788
#
# Stress axis : x y z
#
# Youngs Moduli (GPa) = 41.27784 20.06729 99.83669
#
# Poissons Ratio (x) = -0.12414 0.07241
# Poissons Ratio (y) = -0.25535 0.84854
# Poissons Ratio (z) = 0.02994 0.17056
#
# Static dielectric constant tensor:
#      x y z
#    x 3.807410 0.000000 0.019440 
#    y 0.000000 3.746840 0.000000 
#    z 0.019440 0.000000 4.169390 
# 
# 
# High freq. dielectric constant tensor:
#      x y z
#    x 1.833930 0.000000 0.004820 
#    y 0.000000 1.823710 0.000000 
#    z 0.004820 0.000000 1.859190 
# 
# From -- ./inp_files/93590.got.cif
#   From: 2010.06.25/outbox.cif.g09.slc.cpg/sg13_47_cif.got.tgz:93590.got - 2010.06.28 04:50:58.
