data_PCOD8121606
_publ_section_title
;
Structure prediction by ZEFSAII (Michael W. Deem and Ramdas Pophale) SiO2 
 PCOD8121606
Probable space group: P 2/C
;
_chemical_formula_sum "Si O2"
_cell_formula_units_Z 20
_cell_length_a 11.842505
_cell_length_b 6.415225
_cell_length_c 20.658195
_cell_angle_alpha 90.000000
_cell_angle_beta 143.890021
_cell_angle_gamma 90.000000
_cell_volume 924.935832
_symmetry_space_group_name_H-M "P 2/C"
_symmetry_group_IT_number 13
_symmetry_cell_setting 'monoclinic'
loop_
_space_group_symop_operation_xyz
x,y,z
-x,y,1/2-z
-x,-y,-z
x,-y,1/2+z
loop_
_atom_site_type_symbol
_atom_site_label
_atom_site_fract_x
_atom_site_fract_y
_atom_site_fract_z
Si Si1 0.368741 0.152054 0.248382
Si Si2 0.983664 0.418629 0.080106
Si Si3 0.190800 0.514635 0.871991
Si Si4 0.510572 0.805718 0.552466
Si Si5 0.119888 0.188225 0.585292
O O1 0.500000 0.235197 0.250000
O O2 0.188769 0.305367 0.171582
O O3 0.484464 0.135936 0.369348
O O4 0.307785 0.913196 0.203981
O O5 0.012560 0.670701 0.089834
O O6 0.873164 0.358110 0.094036
O O7 0.841487 0.346989 0.956292
O O8 0.300576 0.671177 0.875326
O O9 0.000000 0.426085 0.750000
O O10 0.318805 0.320845 0.950946
O O11 0.500000 0.000000 0.500000
O O12 0.000000 0.000000 0.500000
#
# Coordination Sequence:
#
# PCOD8121606 Si02
#       5
#     4   4   4   4   4
#     4  11  25  42  65 105 138 173 227 282 353 409
#     4  10  22  44  71  94 136 178 225 283 338 416
#     4  11  25  47  70  99 138 187 238 281 354 415
#     4  11  28  45  70 102 141 183 233 290 349 419
#     4   9  22  39  65  98 126 173 219 272 337 396
#
# _framework density 21.623123
#
# number of rings (size 3 to 8) (size 9 to 14) (size 15 to 20)
#    0.000    1.600    2.000    0.000   14.000    3.200 
#    0.000    0.000    0.000    0.000    0.000    0.000 
#    0.000    0.000    0.000    0.000    0.000    0.000 
#
# Total GULP energy -247915.477000 kJ/mol
# GULP energy per Si atom -12395.773850 kJ/mol
# Density = 2.157391 g / cm^3
# Si number density = 21.623123 Si / 1000 Ang^3
#
#
#
# Elastic Constant Matrix: (Units=GPa)
#
#
# Indices 1 2 3 4 5 6 
#
# 1 149.9233 37.9019 66.3151 0.0000 -11.9032 0.0000
# 2 37.9019 111.0980 60.7522 0.0000 2.2627 0.0000
# 3 66.3151 60.7522 151.7208 0.0000 -11.9167 0.0000
# 4 0.0000 0.0000 0.0000 40.6154 0.0000 -1.8817
# 5 -11.9032 2.2627 -11.9167 0.0000 41.5328 0.0000
# 6 0.0000 0.0000 0.0000 -1.8817 0.0000 19.5749
#
#
#
# Elastic Compliance Matrix: (Units=1/GPa)
#
#
# Indices 1 2 3 4 5 6 
#
# 1 0.008474 -0.001239 -0.003081 0.000000 0.001612 0.000000
# 2 -0.001239 0.011870 -0.004389 0.000000 -0.002261 0.000000
# 3 -0.003081 -0.004389 0.009867 0.000000 0.002187 0.000000
# 4 0.000000 0.000000 0.000000 0.024731 0.000000 0.002377
# 5 0.001612 -0.002261 0.002187 0.000000 0.025290 0.000000
# 6 0.000000 0.000000 0.000000 0.002377 0.000000 0.051314
#
#
# Mechanical properties :
#
#
# Convention : Reuss Voigt Hill
#
# Bulk Modulus (GPa) = 78.16939 82.52006 80.34472
# Shear Modulus (GPa) = 32.63078 36.86280 34.74679
#
# Velocity S-wave (km/s) = 3.88889 4.13339 4.01300
# Velocity P-wave (km/s) = 7.50959 7.81189 7.66223
#
# Compressibility (1/GPa) = 0.01279273
#
# Stress axis : x y z
#
# Youngs Moduli (GPa) = 118.00524 84.24709 101.34732
#
# Poissons Ratio (x) = 0.10438 0.31228
# Poissons Ratio (y) = 0.14620 0.44481
# Poissons Ratio (z) = 0.36360 0.36976
#
# Static dielectric constant tensor:
#      x y z
#    x 4.068110 0.000000 -0.172760 
#    y 0.000000 4.066800 0.000000 
#    z -0.172760 0.000000 4.117730 
# 
# 
# High freq. dielectric constant tensor:
#      x y z
#    x 1.850830 0.000000 -0.014110 
#    y 0.000000 1.845580 0.000000 
#    z -0.014110 0.000000 1.857150 
# 
# From -- ./inp_files/77089.got.cif
#   From: 2010.06.25/outbox.cif.g09.slc.cpg/sg13_39_cif.got.tgz:77089.got - 2010.06.28 04:50:58.
