data_PCOD8121086
_publ_section_title
;
Structure prediction by ZEFSAII (Michael W. Deem and Ramdas Pophale) SiO2 
 PCOD8121086
Probable space group: P 2/C
;
_chemical_formula_sum "Si O2"
_cell_formula_units_Z 22
_cell_length_a 12.979074
_cell_length_b 12.177062
_cell_length_c 11.433555
_cell_angle_alpha 90.000000
_cell_angle_beta 33.908809
_cell_angle_gamma 90.000000
_cell_volume 1008.097716
_symmetry_space_group_name_H-M "P 2/C"
_symmetry_group_IT_number 13
_symmetry_cell_setting 'monoclinic'
loop_
_space_group_symop_operation_xyz
x,y,z
-x,y,1/2-z
-x,-y,-z
x,-y,1/2+z
loop_
_atom_site_type_symbol
_atom_site_label
_atom_site_fract_x
_atom_site_fract_y
_atom_site_fract_z
Si Si1 0.162650 0.635023 0.454666
Si Si2 0.009724 0.872245 0.609963
Si Si3 0.663132 0.637490 0.461947
Si Si4 0.000000 0.459376 0.750000
Si Si5 0.692408 0.966008 0.758463
Si Si6 0.500000 0.456100 0.750000
Si Si7 0.500000 0.168239 0.250000
O O1 0.044810 0.743326 0.583867
O O2 0.260864 0.634387 0.238680
O O3 0.323898 0.622935 0.400440
O O4 0.022978 0.533834 0.610727
O O5 0.000000 0.921358 0.750000
O O6 0.813808 0.888347 0.728969
O O7 0.182378 0.926773 0.380638
O O8 0.518976 0.537422 0.618949
O O9 0.583186 0.757151 0.567616
O O10 0.826105 0.619401 0.401492
O O11 0.652065 0.907091 0.672041
O O12 0.500000 0.000000 0.000000
#
# Coordination Sequence:
#
# PCOD8121086 Si02
#       7
#     4   4   4   2   4   2   2
#     4  11  21  40  62  94 127 175 212 273 331 392
#     4  11  25  43  68 101 131 169 225 276 340 405
#     4  10  22  39  62  92 127 174 217 268 324 394
#     4  10  22  40  60  92 132 166 216 266 320 394
#     4  11  25  47  69  96 134 175 221 283 338 402
#     4   9  22  39  60  92 132 169 224 267 328 398
#     4  11  24  43  66  96 126 173 224 265 336 390
#
# _framework density 21.82328
#
# number of rings (size 3 to 8) (size 9 to 14) (size 15 to 20)
#    0.000    1.455    0.909    3.273    2.545    5.091 
#    3.273    0.000    0.000    0.000    0.000    0.000 
#    0.000    0.000    0.000    0.000    0.000    0.000 
#
# Total GULP energy -272738.418027 kJ/mol
# GULP energy per Si atom -12397.200819 kJ/mol
# Density = 2.177361 g / cm^3
# Si number density = 21.823280 Si / 1000 Ang^3
#
#
#
# Elastic Constant Matrix: (Units=GPa)
#
#
# Indices 1 2 3 4 5 6 
#
# 1 116.3618 36.1048 28.6984 0.0000 -8.6132 0.0000
# 2 36.1048 70.9129 13.6830 0.0000 -13.4512 0.0000
# 3 28.6984 13.6830 122.1559 0.0000 3.9107 0.0000
# 4 0.0000 0.0000 0.0000 6.5871 0.0000 -15.7337
# 5 -8.6132 -13.4512 3.9107 0.0000 49.6700 0.0000
# 6 0.0000 0.0000 0.0000 -15.7337 0.0000 19.7300
#
#
#
# Elastic Compliance Matrix: (Units=1/GPa)
#
#
# Indices 1 2 3 4 5 6 
#
# 1 0.010656 -0.004917 -0.001974 0.000000 0.000672 0.000000
# 2 -0.004917 0.017539 -0.000937 0.000000 0.003971 0.000000
# 3 -0.001974 -0.000937 0.008796 0.000000 -0.001289 0.000000
# 4 0.000000 0.000000 0.000000 -0.167789 0.000000 -0.133804
# 5 0.000672 0.003971 -0.001289 0.000000 0.021426 0.000000
# 6 0.000000 0.000000 0.000000 -0.133804 0.000000 -0.056018
#
#
# Mechanical properties :
#
#
# Convention : Reuss Voigt Hill
#
# Bulk Modulus (GPa) = 46.86945 51.82254 49.34600
# Shear Modulus (GPa) = -35.05784 30.59371 -2.23207
#
# Velocity S-wave (km/s) = -4.01239 3.74824 -1.01243
# Velocity P-wave (km/s) = 0.24022 6.52153 4.61455
#
# Compressibility (1/GPa) = 0.02133586
#
# Stress axis : x y z
#
# Youngs Moduli (GPa) = 93.84196 57.01484 113.68518
#
# Poissons Ratio (x) = 0.28035 0.22444
# Poissons Ratio (y) = 0.46144 0.10647
# Poissons Ratio (z) = 0.18526 0.05340
#
# Static dielectric constant tensor:
#      x y z
#    x 3.927060 0.000000 0.005220 
#    y 0.000000 3.836220 0.000000 
#    z 0.005220 0.000000 4.183660 
# 
# 
# High freq. dielectric constant tensor:
#      x y z
#    x 1.850620 0.000000 -0.001700 
#    y 0.000000 1.854350 0.000000 
#    z -0.001700 0.000000 1.876110 
# 
# From -- ./inp_files/37143.got.cif
#   From: 2010.06.25/outbox.cif.g09.slc.cpg/sg13_19_cif.got.tgz:37143.got - 2010.06.28 04:50:58.
