data_PCOD8121102
_publ_section_title
;
Structure prediction by ZEFSAII (Michael W. Deem and Ramdas Pophale) SiO2 
 PCOD8121102
Probable space group: P 2/C
;
_chemical_formula_sum "Si O2"
_cell_formula_units_Z 20
_cell_length_a 11.884596
_cell_length_b 18.961838
_cell_length_c 5.146165
_cell_angle_alpha 90.000000
_cell_angle_beta 52.950868
_cell_angle_gamma 90.000000
_cell_volume 925.584970
_symmetry_space_group_name_H-M "P 2/C"
_symmetry_group_IT_number 13
_symmetry_cell_setting 'monoclinic'
loop_
_space_group_symop_operation_xyz
x,y,z
-x,y,1/2-z
-x,-y,-z
x,-y,1/2+z
loop_
_atom_site_type_symbol
_atom_site_label
_atom_site_fract_x
_atom_site_fract_y
_atom_site_fract_z
Si Si1 0.661563 0.210007 0.574384
Si Si2 0.232833 0.642880 0.588075
Si Si3 0.500000 0.548099 0.250000
Si Si4 0.000000 0.951504 0.250000
Si Si5 0.000000 0.548432 0.750000
Si Si6 0.000000 0.286649 0.750000
Si Si7 0.185241 0.827335 0.153325
O O1 0.500000 0.193406 0.750000
O O2 0.695733 0.288073 0.639804
O O3 0.726713 0.158046 0.703682
O O4 0.723858 0.205790 0.202204
O O5 0.362221 0.594895 0.495799
O O6 0.137768 0.598018 0.520528
O O7 0.124168 0.663684 0.970007
O O8 0.500000 0.500000 0.500000
O O9 0.134672 0.901845 0.108284
O O10 0.000000 0.000000 0.500000
O O11 0.000000 0.500000 0.500000
O O12 0.938455 0.230878 0.617922
#
# Coordination Sequence:
#
# PCOD8121102 Si02
#       7
#     4   4   2   2   2   2   4
#     4  11  22  40  65  96 128 169 212 276 338 388
#     4  11  23  44  65  95 121 169 218 270 341 405
#     4  12  28  46  62  88 130 170 214 270 328 412
#     4  11  22  40  68  98 134 181 216 258 316 381
#     4  12  25  40  60  84 117 160 208 264 322 394
#     4   9  21  40  70  98 125 161 214 292 334 383
#     4  10  22  39  64 101 134 162 218 274 323 372
#
# _framework density 21.607956000000001
#
# number of rings (size 3 to 8) (size 9 to 14) (size 15 to 20)
#    0.000    1.200    1.000    4.800    0.000   12.000 
#    0.000    0.000    0.000   12.000    0.000    0.000 
#    0.000    0.000    0.000    0.000    0.000    0.000 
#
# Total GULP energy -247795.665475 kJ/mol
# GULP energy per Si atom -12389.783274 kJ/mol
# Density = 2.155878 g / cm^3
# Si number density = 21.607956 Si / 1000 Ang^3
#
#
#
# Elastic Constant Matrix: (Units=GPa)
#
#
# Indices 1 2 3 4 5 6 
#
# 1 152.6238 42.2809 51.2000 0.0000 -11.8038 0.0000
# 2 42.2809 102.3244 41.1375 0.0000 -10.8007 0.0000
# 3 51.2000 41.1375 97.6801 0.0000 -1.1179 0.0000
# 4 0.0000 0.0000 0.0000 4.2748 0.0000 -9.7437
# 5 -11.8038 -10.8007 -1.1179 0.0000 45.5845 0.0000
# 6 0.0000 0.0000 0.0000 -9.7437 0.0000 1.2997
#
#
#
# Elastic Compliance Matrix: (Units=1/GPa)
#
#
# Indices 1 2 3 4 5 6 
#
# 1 0.008401 -0.001847 -0.003607 0.000000 0.001649 0.000000
# 2 -0.001847 0.012504 -0.004271 0.000000 0.002380 0.000000
# 3 -0.003607 -0.004271 0.013908 0.000000 -0.001605 0.000000
# 4 0.000000 0.000000 0.000000 -0.014541 0.000000 -0.109010
# 5 0.001649 0.002380 -0.001605 0.000000 0.022889 0.000000
# 6 0.000000 0.000000 0.000000 -0.109010 0.000000 -0.047825
#
#
# Mechanical properties :
#
#
# Convention : Reuss Voigt Hill
#
# Bulk Modulus (GPa) = 65.08547 69.09611 67.09079
# Shear Modulus (GPa) = 251.16568 24.76580 137.96574
#
# Velocity S-wave (km/s) = 10.79305 3.38915 7.99926
# Velocity P-wave (km/s) = 13.62007 6.88198 10.79046
#
# Compressibility (1/GPa) = 0.01536441
#
# Stress axis : x y z
#
# Youngs Moduli (GPa) = 119.02884 79.97278 71.90015
#
# Poissons Ratio (x) = 0.14774 0.25933
# Poissons Ratio (y) = 0.21989 0.30705
# Poissons Ratio (z) = 0.42931 0.34153
#
# Static dielectric constant tensor:
#      x y z
#    x 4.139270 0.000000 -0.369630 
#    y 0.000000 4.360020 0.000000 
#    z -0.369630 0.000000 3.673740 
# 
# 
# High freq. dielectric constant tensor:
#      x y z
#    x 1.862940 0.000000 -0.004900 
#    y 0.000000 1.848820 0.000000 
#    z -0.004900 0.000000 1.836280 
# 
# From -- ./inp_files/3579.got.cif
#   From: 2010.06.25/outbox.cif.g09.slc.cpg/sg13_2_cif.got.tgz:3579.got - 2010.06.28 04:50:58.
