data_PCOD8121052
_publ_section_title
;
Structure prediction by ZEFSAII (Michael W. Deem and Ramdas Pophale) SiO2 
 PCOD8121052
Probable space group: P 2/C
;
_chemical_formula_sum "Si O2"
_cell_formula_units_Z 32
_cell_length_a 9.637648
_cell_length_b 13.518907
_cell_length_c 21.340751
_cell_angle_alpha 90.000000
_cell_angle_beta 37.743481
_cell_angle_gamma 90.000000
_cell_volume 1702.017799
_symmetry_space_group_name_H-M "P 2/C"
_symmetry_group_IT_number 13
_symmetry_cell_setting 'monoclinic'
loop_
_space_group_symop_operation_xyz
x,y,z
-x,y,1/2-z
-x,-y,-z
x,-y,1/2+z
loop_
_atom_site_type_symbol
_atom_site_label
_atom_site_fract_x
_atom_site_fract_y
_atom_site_fract_z
Si Si1 0.972918 0.724258 0.829973
Si Si2 0.542947 0.753397 0.140835
Si Si3 0.123853 0.789444 0.374822
Si Si4 0.464319 0.213668 0.191108
Si Si5 0.833261 0.587186 0.990212
Si Si6 0.707280 0.082708 0.001893
Si Si7 0.190939 0.375074 0.464188
Si Si8 0.605601 0.869553 0.998835
O O1 0.803773 0.817475 0.888768
O O2 0.000000 0.682766 0.750000
O O3 0.200232 0.770873 0.775866
O O4 0.874397 0.635141 0.907365
O O5 0.298766 0.757187 0.259212
O O6 0.735178 0.812507 0.112057
O O7 0.633055 0.641348 0.100483
O O8 0.508944 0.797094 0.085081
O O9 0.971260 0.884413 0.411399
O O10 0.959374 0.696624 0.440031
O O11 0.500000 0.180072 0.250000
O O12 0.565223 0.127138 0.110854
O O13 0.578223 0.319321 0.135691
O O14 0.758831 0.472583 0.011986
O O15 0.070074 0.595220 0.942664
O O16 0.603434 0.113601 0.972510
O O17 0.697943 0.964320 0.004084
#
# Coordination Sequence:
#
# PCOD8121052 Si02
#       8
#     4   4   4   4   4   4   4   4
#     4  11  21  38  59  84 118 150 185 235 288 338
#     4   9  19  36  55  82 114 147 182 229 285 328
#     4   9  19  36  56  81 114 145 184 235 277 324
#     4  11  21  38  59  88 115 147 190 235 284 336
#     4   9  18  34  58  85 113 147 185 232 275 330
#     4  10  22  39  58  82 111 147 191 235 273 342
#     4   9  18  34  58  86 112 144 191 230 273 331
#     4  10  22  39  58  81 111 150 190 228 285 336
#
# _framework density 18.801214000000002
#
# number of rings (size 3 to 8) (size 9 to 14) (size 15 to 20)
#    0.000    2.250    2.500    0.000    1.750    3.000 
#    4.500    0.625    5.500    0.000    0.000    0.000 
#    0.000    0.000    0.000    0.000    0.000    0.000 
#
# Total GULP energy -396722.773912 kJ/mol
# GULP energy per Si atom -12397.586685 kJ/mol
# Density = 1.875842 g / cm^3
# Si number density = 18.801214 Si / 1000 Ang^3
#
#
#
# Elastic Constant Matrix: (Units=GPa)
#
#
# Indices 1 2 3 4 5 6 
#
# 1 65.0843 13.8432 21.2130 0.0000 10.6221 0.0000
# 2 13.8432 76.2879 8.6059 0.0000 10.1153 0.0000
# 3 21.2130 8.6059 83.3547 0.0000 7.1871 0.0000
# 4 0.0000 0.0000 0.0000 13.9625 0.0000 2.9884
# 5 10.6221 10.1153 7.1871 0.0000 33.4589 0.0000
# 6 0.0000 0.0000 0.0000 2.9884 0.0000 23.5655
#
#
#
# Elastic Compliance Matrix: (Units=1/GPa)
#
#
# Indices 1 2 3 4 5 6 
#
# 1 0.017799 -0.002238 -0.003943 0.000000 -0.004127 0.000000
# 2 -0.002238 0.014032 -0.000586 0.000000 -0.003406 0.000000
# 3 -0.003943 -0.000586 0.013182 0.000000 -0.001403 0.000000
# 4 0.000000 0.000000 0.000000 0.073619 0.000000 -0.009336
# 5 -0.004127 -0.003406 -0.001403 0.000000 0.032529 0.000000
# 6 0.000000 0.000000 0.000000 -0.009336 0.000000 0.043619
#
#
# Mechanical properties :
#
#
# Convention : Reuss Voigt Hill
#
# Bulk Modulus (GPa) = 31.76561 34.67234 33.21897
# Shear Modulus (GPa) = 22.85135 26.26835 24.55985
#
# Velocity S-wave (km/s) = 3.49007 3.74192 3.61819
# Velocity P-wave (km/s) = 5.75960 6.09515 5.92975
#
# Compressibility (1/GPa) = 0.03148059
#
# Stress axis : x y z
#
# Youngs Moduli (GPa) = 56.18176 71.26574 75.86245
#
# Poissons Ratio (x) = 0.15948 0.29912
# Poissons Ratio (y) = 0.12573 0.04442
# Poissons Ratio (z) = 0.22152 0.04173
#
# Static dielectric constant tensor:
#      x y z
#    x 3.457300 0.000000 -0.003580 
#    y 0.000000 3.473370 0.000000 
#    z -0.003580 0.000000 3.520910 
# 
# 
# High freq. dielectric constant tensor:
#      x y z
#    x 1.728300 0.000000 0.002030 
#    y 0.000000 1.720210 0.000000 
#    z 0.002030 0.000000 1.735070 
# 
# From -- ./inp_files/76601.got.cif
#   From: 2010.06.25/outbox.cif.g09.slc.cpg/sg13_39_cif.got.tgz:76601.got - 2010.06.28 04:50:58.
