data_PCOD8121196
_publ_section_title
;
Structure prediction by ZEFSAII (Michael W. Deem and Ramdas Pophale) SiO2 
 PCOD8121196
Probable space group: P 2/C
;
_chemical_formula_sum "Si O2"
_cell_formula_units_Z 26
_cell_length_a 5.262399
_cell_length_b 13.236485
_cell_length_c 19.181652
_cell_angle_alpha 90.000000
_cell_angle_beta 117.692806
_cell_angle_gamma 90.000000
_cell_volume 1183.061900
_symmetry_space_group_name_H-M "P 2/C"
_symmetry_group_IT_number 13
_symmetry_cell_setting 'monoclinic'
loop_
_space_group_symop_operation_xyz
x,y,z
-x,y,1/2-z
-x,-y,-z
x,-y,1/2+z
loop_
_atom_site_type_symbol
_atom_site_label
_atom_site_fract_x
_atom_site_fract_y
_atom_site_fract_z
Si Si1 0.254742 0.085840 0.334479
Si Si2 0.046947 0.265425 0.385840
Si Si3 0.500000 0.196636 0.250000
Si Si4 0.900595 0.777031 0.454954
Si Si5 0.620583 0.909577 0.061248
Si Si6 0.334626 0.589734 0.157216
Si Si7 0.837786 0.531288 0.657482
O O1 0.520756 0.123219 0.321076
O O2 0.000000 0.109305 0.250000
O O3 0.227134 0.161430 0.397356
O O4 0.251503 0.968827 0.355279
O O5 0.769764 0.270036 0.298767
O O6 0.967659 0.272031 0.457746
O O7 0.241994 0.360644 0.387210
O O8 0.625443 0.840332 0.440959
O O9 0.783004 0.694116 0.387393
O O10 0.137329 0.846470 0.447811
O O11 0.500000 0.000000 0.000000
O O12 0.500000 0.613409 0.250000
O O13 0.547969 0.533817 0.130320
O O14 0.053680 0.522325 0.131658
O O15 0.000000 0.547502 0.750000
#
# Coordination Sequence:
#
# PCOD8121196 Si02
#       7
#     4   4   2   4   4   4   4
#     4  10  23  39  63  96 131 169 226 279 328 401
#     4  11  24  39  66 101 133 171 219 277 343 395
#     4  10  22  40  64  96 138 168 224 284 336 396
#     4  12  27  43  70  96 137 178 223 275 334 395
#     4  12  25  44  67  94 131 181 218 270 338 395
#     4  10  24  45  66  97 133 176 227 272 320 398
#     4  10  22  41  70  95 130 175 217 273 336 389
#
# _framework density 21.976870000000002
#
# number of rings (size 3 to 8) (size 9 to 14) (size 15 to 20)
#    0.000    1.231    1.538    3.692    9.692    2.462 
#    0.000    0.000    0.000    0.000    0.000    0.000 
#    0.000    0.000    0.000    0.000    0.000    0.000 
#
# Total GULP energy -322275.085492 kJ/mol
# GULP energy per Si atom -12395.195596 kJ/mol
# Density = 2.192685 g / cm^3
# Si number density = 21.976870 Si / 1000 Ang^3
#
#
#
# Elastic Constant Matrix: (Units=GPa)
#
#
# Indices 1 2 3 4 5 6 
#
# 1 161.7004 74.0125 28.9788 0.0000 -8.8141 0.0000
# 2 74.0125 150.8135 47.7080 0.0000 0.3781 0.0000
# 3 28.9788 47.7080 76.2096 0.0000 -12.5502 0.0000
# 4 0.0000 0.0000 0.0000 35.0732 0.0000 -5.6533
# 5 -8.8141 0.3781 -12.5502 0.0000 24.8632 0.0000
# 6 0.0000 0.0000 0.0000 -5.6533 0.0000 48.3257
#
#
#
# Elastic Compliance Matrix: (Units=1/GPa)
#
#
# Indices 1 2 3 4 5 6 
#
# 1 0.008190 -0.003980 -0.000147 0.000000 0.002890 0.000000
# 2 -0.003980 0.010411 -0.005739 0.000000 -0.004466 0.000000
# 3 -0.000147 -0.005739 0.018297 0.000000 0.009271 0.000000
# 4 0.000000 0.000000 0.000000 0.029060 0.000000 0.003399
# 5 0.002890 -0.004466 0.009271 0.000000 0.045992 0.000000
# 6 0.000000 0.000000 0.000000 0.003399 0.000000 0.021091
#
#
# Mechanical properties :
#
#
# Convention : Reuss Voigt Hill
#
# Bulk Modulus (GPa) = 58.25652 76.68024 67.46838
# Shear Modulus (GPa) = 31.54693 37.52070 34.53382
#
# Velocity S-wave (km/s) = 3.79286 4.13641 3.96835
# Velocity P-wave (km/s) = 6.76363 7.60133 7.19468
#
# Compressibility (1/GPa) = 0.01716546
#
# Stress axis : x y z
#
# Youngs Moduli (GPa) = 122.10308 96.05533 54.65342
#
# Poissons Ratio (x) = 0.38230 0.00802
# Poissons Ratio (y) = 0.48597 0.31367
# Poissons Ratio (z) = 0.01792 0.55129
#
# Static dielectric constant tensor:
#      x y z
#    x 5.620590 0.000000 -1.236250 
#    y 0.000000 4.218140 0.000000 
#    z -1.236250 0.000000 4.923020 
# 
# 
# High freq. dielectric constant tensor:
#      x y z
#    x 1.873610 0.000000 -0.011220 
#    y 0.000000 1.867170 0.000000 
#    z -0.011220 0.000000 1.863250 
# 
# From -- ./inp_files/73447.got.cif
#   From: 2010.06.25/outbox.cif.g09.slc.cpg/sg13_37_cif.got.tgz:73447.got - 2010.06.28 04:50:58.
