data_PCOD8121309
_publ_section_title
;
Structure prediction by ZEFSAII (Michael W. Deem and Ramdas Pophale) SiO2 
 PCOD8121309
Probable space group: P 2/C
;
_chemical_formula_sum "Si O2"
_cell_formula_units_Z 26
_cell_length_a 13.770627
_cell_length_b 6.100157
_cell_length_c 14.059757
_cell_angle_alpha 90.000000
_cell_angle_beta 76.582225
_cell_angle_gamma 90.000000
_cell_volume 1148.823247
_symmetry_space_group_name_H-M "P 2/C"
_symmetry_group_IT_number 13
_symmetry_cell_setting 'monoclinic'
loop_
_space_group_symop_operation_xyz
x,y,z
-x,y,1/2-z
-x,-y,-z
x,-y,1/2+z
loop_
_atom_site_type_symbol
_atom_site_label
_atom_site_fract_x
_atom_site_fract_y
_atom_site_fract_z
Si Si1 0.575898 0.807152 0.011429
Si Si2 0.168090 0.907315 0.769935
Si Si3 0.000000 0.602959 0.750000
Si Si4 0.319993 0.428050 0.167142
Si Si5 0.847932 0.287778 0.865620
Si Si6 0.411784 0.458671 0.334643
Si Si7 0.262389 0.103767 0.445947
O O1 0.545541 0.660747 0.111046
O O2 0.685039 0.902606 0.011818
O O3 0.583238 0.645432 0.917846
O O4 0.500000 0.000000 0.000000
O O5 0.256706 0.793413 0.692233
O O6 0.211410 0.979827 0.861409
O O7 0.073909 0.743505 0.799662
O O8 0.129102 0.117560 0.723030
O O9 0.937387 0.461847 0.840951
O O10 0.261083 0.608135 0.122097
O O11 0.340160 0.541093 0.265035
O O12 0.834677 0.182014 0.972283
O O13 0.500000 0.347735 0.250000
O O14 0.349763 0.284812 0.410786
#
# Coordination Sequence:
#
# PCOD8121309 Si02
#       7
#     4   4   2   4   4   4   4
#     4  12  25  40  67 102 137 180 232 287 341 402
#     4  10  22  43  67  99 134 171 224 284 339 416
#     4  10  24  42  68 102 132 174 224 282 350 416
#     4  10  22  41  65  91 133 178 226 271 335 409
#     4  11  21  43  71  92 136 178 219 280 348 411
#     4  11  25  41  62  96 135 180 232 281 333 400
#     4  11  24  42  70  98 133 184 230 276 348 412
#
# _framework density 22.631854000000001
#
# number of rings (size 3 to 8) (size 9 to 14) (size 15 to 20)
#    0.000    1.231    3.077    2.308    2.154    4.923 
#    0.000    3.077    0.000    0.000    0.000    0.000 
#    0.000    0.000    0.000    0.000    0.000    0.000 
#
# Total GULP energy -322245.164065 kJ/mol
# GULP energy per Si atom -12394.044772 kJ/mol
# Density = 2.258034 g / cm^3
# Si number density = 22.631854 Si / 1000 Ang^3
#
#
#
# Elastic Constant Matrix: (Units=GPa)
#
#
# Indices 1 2 3 4 5 6 
#
# 1 83.0603 29.7215 36.4063 0.0000 -6.1078 0.0000
# 2 29.7215 85.3794 53.1234 0.0000 0.6368 0.0000
# 3 36.4063 53.1234 131.0734 0.0000 1.2458 0.0000
# 4 0.0000 0.0000 0.0000 33.2545 0.0000 1.0673
# 5 -6.1078 0.6368 1.2458 0.0000 34.8125 0.0000
# 6 0.0000 0.0000 0.0000 1.0673 0.0000 32.9034
#
#
#
# Elastic Compliance Matrix: (Units=1/GPa)
#
#
# Indices 1 2 3 4 5 6 
#
# 1 0.014656 -0.003441 -0.002702 0.000000 0.002731 0.000000
# 2 -0.003441 0.016470 -0.005713 0.000000 -0.000701 0.000000
# 3 -0.002702 -0.005713 0.010702 0.000000 -0.000753 0.000000
# 4 0.000000 0.000000 0.000000 0.030102 0.000000 -0.000976
# 5 0.002731 -0.000701 -0.000753 0.000000 0.029244 0.000000
# 6 0.000000 0.000000 0.000000 -0.000976 0.000000 0.030424
#
#
# Mechanical properties :
#
#
# Convention : Reuss Voigt Hill
#
# Bulk Modulus (GPa) = 55.19829 59.77951 57.48890
# Shear Modulus (GPa) = 30.98867 32.21154 31.60011
#
# Velocity S-wave (km/s) = 3.70435 3.77674 3.74072
# Velocity P-wave (km/s) = 6.53750 6.74459 6.64185
#
# Compressibility (1/GPa) = 0.01811650
#
# Stress axis : x y z
#
# Youngs Moduli (GPa) = 68.23182 60.71633 93.43726
#
# Poissons Ratio (x) = 0.20892 0.25248
# Poissons Ratio (y) = 0.23479 0.53379
# Poissons Ratio (z) = 0.18437 0.34686
#
# Static dielectric constant tensor:
#      x y z
#    x 4.088750 0.000000 0.106420 
#    y 0.000000 3.981690 0.000000 
#    z 0.106420 0.000000 4.002740 
# 
# 
# High freq. dielectric constant tensor:
#      x y z
#    x 1.892160 0.000000 0.002510 
#    y 0.000000 1.883350 0.000000 
#    z 0.002510 0.000000 1.898660 
# 
# From -- ./inp_files/52206.got.cif
#   From: 2010.06.25/outbox.cif.g09.slc.cpg/sg13_27_cif.got.tgz:52206.got - 2010.06.28 04:50:58.
