data_PCOD8121222
_publ_section_title
;
Structure prediction by ZEFSAII (Michael W. Deem and Ramdas Pophale) SiO2 
 PCOD8121222
Probable space group: P 2/C
;
_chemical_formula_sum "Si O2"
_cell_formula_units_Z 18
_cell_length_a 15.601997
_cell_length_b 7.554671
_cell_length_c 22.469808
_cell_angle_alpha 90.000000
_cell_angle_beta 160.897625
_cell_angle_gamma 90.000000
_cell_volume 866.730627
_symmetry_space_group_name_H-M "P 2/C"
_symmetry_group_IT_number 13
_symmetry_cell_setting 'monoclinic'
loop_
_space_group_symop_operation_xyz
x,y,z
-x,y,1/2-z
-x,-y,-z
x,-y,1/2+z
loop_
_atom_site_type_symbol
_atom_site_label
_atom_site_fract_x
_atom_site_fract_y
_atom_site_fract_z
Si Si1 0.031543 0.165243 0.883901
Si Si2 0.463012 0.585781 0.657994
Si Si3 0.719155 0.057098 0.337321
Si Si4 0.000000 0.921851 0.750000
Si Si5 0.524408 0.231631 0.630343
O O1 0.969737 0.043162 0.787922
O O2 0.765535 0.199211 0.744424
O O3 0.161076 0.351791 0.948836
O O4 0.262386 0.076261 0.077983
O O5 0.500000 0.519704 0.750000
O O6 0.652357 0.750829 0.765697
O O7 0.539011 0.430842 0.663236
O O8 0.523768 0.905793 0.185033
O O9 0.000000 0.000000 0.500000
O O10 0.746201 0.796961 0.582200
#
# Coordination Sequence:
#
# PCOD8121222 Si02
#       5
#     4   4   4   2   4
#     4  10  23  44  66  95 132 169 219 272 317 391
#     4  10  22  40  67 101 130 160 220 276 319 384
#     4   9  20  41  69  94 126 166 218 271 323 367
#     4  12  24  42  68  90 138 178 216 256 326 396
#     4  11  24  43  67  96 130 176 216 264 334 376
#
# _framework density 20.767697999999999
#
# number of rings (size 3 to 8) (size 9 to 14) (size 15 to 20)
#    0.000    1.778    2.222    0.667    3.111    8.889 
#    4.000    2.222    0.000    0.000    0.000    0.000 
#    0.000    0.000    0.000    0.000    0.000    0.000 
#
# Total GULP energy -223166.776640 kJ/mol
# GULP energy per Si atom -12398.154258 kJ/mol
# Density = 2.072043 g / cm^3
# Si number density = 20.767698 Si / 1000 Ang^3
#
#
#
# Elastic Constant Matrix: (Units=GPa)
#
#
# Indices 1 2 3 4 5 6 
#
# 1 103.1828 72.3343 48.8754 0.0000 7.3765 0.0000
# 2 72.3343 156.0861 65.8639 0.0000 -5.7341 0.0000
# 3 48.8754 65.8639 140.9594 0.0000 3.1828 0.0000
# 4 0.0000 0.0000 0.0000 34.1791 0.0000 -1.4881
# 5 7.3765 -5.7341 3.1828 0.0000 29.7252 0.0000
# 6 0.0000 0.0000 0.0000 -1.4881 0.0000 23.1440
#
#
#
# Elastic Compliance Matrix: (Units=1/GPa)
#
#
# Indices 1 2 3 4 5 6 
#
# 1 0.015665 -0.006469 -0.002298 0.000000 -0.004889 0.000000
# 2 -0.006469 0.010765 -0.002877 0.000000 0.003990 0.000000
# 3 -0.002298 -0.002877 0.009258 0.000000 -0.000976 0.000000
# 4 0.000000 0.000000 0.000000 0.029340 0.000000 0.001887
# 5 -0.004889 0.003990 -0.000976 0.000000 0.035729 0.000000
# 6 0.000000 0.000000 0.000000 0.001887 0.000000 0.043329
#
#
# Mechanical properties :
#
#
# Convention : Reuss Voigt Hill
#
# Bulk Modulus (GPa) = 80.65637 86.04172 83.34905
# Shear Modulus (GPa) = 29.15315 31.61999 30.38657
#
# Velocity S-wave (km/s) = 3.75076 3.90623 3.82928
# Velocity P-wave (km/s) = 7.59469 7.86545 7.73126
#
# Compressibility (1/GPa) = 0.01239828
#
# Stress axis : x y z
#
# Youngs Moduli (GPa) = 63.83693 92.88992 108.01984
#
# Poissons Ratio (x) = 0.60093 0.24827
# Poissons Ratio (y) = 0.41298 0.31079
# Poissons Ratio (z) = 0.14672 0.26726
#
# Static dielectric constant tensor:
#      x y z
#    x 3.924530 0.000000 -0.014330 
#    y 0.000000 3.722490 0.000000 
#    z -0.014330 0.000000 4.183500 
# 
# 
# High freq. dielectric constant tensor:
#      x y z
#    x 1.813500 0.000000 0.015660 
#    y 0.000000 1.805420 0.000000 
#    z 0.015660 0.000000 1.832150 
# 
# From -- ./inp_files/79701.got.cif
#   From: 2010.06.25/outbox.cif.g09.slc.cpg/sg13_40_cif.got.tgz:79701.got - 2010.06.28 04:50:58.
