data_PCOD8121429
_publ_section_title
;
Structure prediction by ZEFSAII (Michael W. Deem and Ramdas Pophale) SiO2 
 PCOD8121429
Probable space group: P 2/C
;
_chemical_formula_sum "Si O2"
_cell_formula_units_Z 30
_cell_length_a 14.271961
_cell_length_b 6.584203
_cell_length_c 16.700591
_cell_angle_alpha 90.000000
_cell_angle_beta 60.650704
_cell_angle_gamma 90.000000
_cell_volume 1367.917133
_symmetry_space_group_name_H-M "P 2/C"
_symmetry_group_IT_number 13
_symmetry_cell_setting 'monoclinic'
loop_
_space_group_symop_operation_xyz
x,y,z
-x,y,1/2-z
-x,-y,-z
x,-y,1/2+z
loop_
_atom_site_type_symbol
_atom_site_label
_atom_site_fract_x
_atom_site_fract_y
_atom_site_fract_z
Si Si1 0.273161 0.613937 0.355600
Si Si2 0.908222 0.613422 0.486786
Si Si3 0.452582 0.251355 0.103996
Si Si4 0.268555 0.536582 0.176741
Si Si5 0.340367 0.900446 0.061621
Si Si6 0.815907 0.959310 0.007305
Si Si7 0.500000 0.414114 0.250000
Si Si8 0.092299 0.349021 0.151733
O O1 0.210194 0.469554 0.443158
O O2 0.232792 0.562332 0.283503
O O3 0.238926 0.844968 0.393607
O O4 0.400013 0.565554 0.310940
O O5 0.933290 0.562199 0.382992
O O6 0.000000 0.500000 0.500000
O O7 0.893778 0.856296 0.503831
O O8 0.391589 0.463843 0.114767
O O9 0.479644 0.255152 0.186871
O O10 0.373991 0.066439 0.113421
O O11 0.558077 0.235267 0.006484
O O12 0.255574 0.754734 0.140831
O O13 0.196653 0.368814 0.163309
O O14 0.285396 0.985132 0.005295
O O15 0.894528 0.815849 0.923569
O O16 0.000000 0.279538 0.250000
#
# Coordination Sequence:
#
# PCOD8121429 Si02
#       8
#     4   4   4   4   4   4   2   4
#     4  10  25  42  67  99 143 186 235 292 346 431
#     4  11  24  47  70  98 136 184 227 293 361 416
#     4  10  23  38  64  96 135 179 231 281 340 420
#     4  11  22  43  63  96 133 177 228 284 344 403
#     4  11  22  39  66  99 130 180 228 285 345 414
#     4  11  24  45  69  99 137 179 231 285 350 426
#     4  10  22  42  66  98 148 196 228 294 364 414
#     4  11  24  43  69  99 130 170 228 289 346 421
#
# _framework density 21.931152999999998
#
# number of rings (size 3 to 8) (size 9 to 14) (size 15 to 20)
#    0.000    1.333    2.667    2.000    1.867   10.133 
#    4.800    1.333    0.000    0.000    0.000    0.000 
#    0.000    0.000    0.000    0.000    0.000    0.000 
#
# Total GULP energy -371830.641724 kJ/mol
# GULP energy per Si atom -12394.354724 kJ/mol
# Density = 2.188124 g / cm^3
# Si number density = 21.931153 Si / 1000 Ang^3
#
#
#
# Elastic Constant Matrix: (Units=GPa)
#
#
# Indices 1 2 3 4 5 6 
#
# 1 108.3771 42.7072 40.1734 0.0000 9.3396 0.0000
# 2 42.7072 119.4409 52.3249 0.0000 5.7063 0.0000
# 3 40.1734 52.3249 106.2513 0.0000 -0.2110 0.0000
# 4 0.0000 0.0000 0.0000 31.0990 0.0000 2.4450
# 5 9.3396 5.7063 -0.2110 0.0000 39.6748 0.0000
# 6 0.0000 0.0000 0.0000 2.4450 0.0000 35.0226
#
#
#
# Elastic Compliance Matrix: (Units=1/GPa)
#
#
# Indices 1 2 3 4 5 6 
#
# 1 0.011635 -0.002700 -0.003074 0.000000 -0.002367 0.000000
# 2 -0.002700 0.011400 -0.004595 0.000000 -0.001028 0.000000
# 3 -0.003074 -0.004595 0.012840 0.000000 0.001453 0.000000
# 4 0.000000 0.000000 0.000000 0.032333 0.000000 -0.002257
# 5 -0.002367 -0.001028 0.001453 0.000000 0.025918 0.000000
# 6 0.000000 0.000000 0.000000 -0.002257 0.000000 0.028711
#
#
# Mechanical properties :
#
#
# Convention : Reuss Voigt Hill
#
# Bulk Modulus (GPa) = 66.06967 67.16449 66.61708
# Shear Modulus (GPa) = 33.64301 34.41689 34.02995
#
# Velocity S-wave (km/s) = 3.92092 3.96576 3.94340
# Velocity P-wave (km/s) = 7.11965 7.18758 7.15370
#
# Compressibility (1/GPa) = 0.01513554
#
# Stress axis : x y z
#
# Youngs Moduli (GPa) = 85.95101 87.71879 77.88338
#
# Poissons Ratio (x) = 0.23687 0.23940
# Poissons Ratio (y) = 0.23210 0.35789
# Poissons Ratio (z) = 0.26420 0.40308
#
# Static dielectric constant tensor:
#      x y z
#    x 3.965630 0.000000 0.107090 
#    y 0.000000 3.942380 0.000000 
#    z 0.107090 0.000000 3.961430 
# 
# 
# High freq. dielectric constant tensor:
#      x y z
#    x 1.867880 0.000000 0.006200 
#    y 0.000000 1.856580 0.000000 
#    z 0.006200 0.000000 1.864260 
# 
# From -- ./inp_files/67505.got.cif
#   From: 2010.06.25/outbox.cif.g09.slc.cpg/sg13_34_cif.got.tgz:67505.got - 2010.06.28 04:50:58.
