data_PCOD8121765
_publ_section_title
;
Structure prediction by ZEFSAII (Michael W. Deem and Ramdas Pophale) SiO2 
 PCOD8121765
Probable space group: P 2/C
;
_chemical_formula_sum "Si O2"
_cell_formula_units_Z 26
_cell_length_a 26.919592
_cell_length_b 5.137702
_cell_length_c 17.450289
_cell_angle_alpha 90.000000
_cell_angle_beta 28.730892
_cell_angle_gamma 90.000000
_cell_volume 1160.141166
_symmetry_space_group_name_H-M "P 2/C"
_symmetry_group_IT_number 13
_symmetry_cell_setting 'monoclinic'
loop_
_space_group_symop_operation_xyz
x,y,z
-x,y,1/2-z
-x,-y,-z
x,-y,1/2+z
loop_
_atom_site_type_symbol
_atom_site_label
_atom_site_fract_x
_atom_site_fract_y
_atom_site_fract_z
Si Si1 0.229232 0.273884 0.685168
Si Si2 0.893324 0.244514 0.113862
Si Si3 0.000000 0.465633 0.250000
Si Si4 0.813539 0.224756 0.927356
Si Si5 0.019359 0.886314 0.852784
Si Si6 0.603519 0.242592 0.924496
Si Si7 0.370933 0.741043 0.707249
O O1 0.166667 0.488728 0.819380
O O2 0.223900 0.353863 0.602606
O O3 0.345950 0.276645 0.559790
O O4 0.183782 0.990379 0.761843
O O5 0.973022 0.274483 0.077732
O O6 0.959428 0.162115 0.948907
O O7 0.097789 0.621492 0.148007
O O8 0.956209 0.283568 0.377664
O O9 0.865719 0.946453 0.836153
O O10 0.714763 0.193278 0.114004
O O11 0.646263 0.461513 0.808432
O O12 0.634541 0.961296 0.850031
O O13 0.480821 0.260557 0.101864
#
# Coordination Sequence:
#
# PCOD8121765 Si02
#       7
#     4   4   2   4   4   4   4
#     4  11  23  41  68 100 129 176 217 275 323 394
#     4  10  23  41  64  90 135 170 224 264 320 385
#     4  12  24  40  60  94 134 174 222 268 332 396
#     4  11  26  41  65  96 137 167 225 271 337 381
#     4  10  24  40  59  91 131 180 220 270 320 393
#     4  10  23  44  70  97 129 168 223 262 337 395
#     4  10  24  45  68  98 130 170 213 279 325 398
#
# _framework density 22.411064
#
# number of rings (size 3 to 8) (size 9 to 14) (size 15 to 20)
#    0.000    1.538    1.538    1.385    6.462    4.923 
#    0.000    0.000    0.000    7.385    0.000    0.000 
#    0.000    0.000    0.000    0.000    0.000    0.000 
#
# Total GULP energy -322371.349636 kJ/mol
# GULP energy per Si atom -12398.898063 kJ/mol
# Density = 2.236006 g / cm^3
# Si number density = 22.411064 Si / 1000 Ang^3
#
#
#
# Elastic Constant Matrix: (Units=GPa)
#
#
# Indices 1 2 3 4 5 6 
#
# 1 160.3748 30.7673 55.9424 0.0000 -27.7712 0.0000
# 2 30.7673 72.5223 5.1382 0.0000 -8.1851 0.0000
# 3 55.9424 5.1382 115.4345 0.0000 -1.0561 0.0000
# 4 0.0000 0.0000 0.0000 24.4997 0.0000 0.2385
# 5 -27.7712 -8.1851 -1.0561 0.0000 24.7295 0.0000
# 6 0.0000 0.0000 0.0000 0.2385 0.0000 22.6327
#
#
#
# Elastic Compliance Matrix: (Units=1/GPa)
#
#
# Indices 1 2 3 4 5 6 
#
# 1 0.010220 -0.002834 -0.004732 0.000000 0.010337 0.000000
# 2 -0.002834 0.015151 0.000716 0.000000 0.001863 0.000000
# 3 -0.004732 0.000716 0.010882 0.000000 -0.004612 0.000000
# 4 0.000000 0.000000 0.000000 0.040821 0.000000 -0.000430
# 5 0.010337 0.001863 -0.004612 0.000000 0.052465 0.000000
# 6 0.000000 0.000000 0.000000 -0.000430 0.000000 0.044188
#
#
# Mechanical properties :
#
#
# Convention : Reuss Voigt Hill
#
# Bulk Modulus (GPa) = 44.34042 59.11415 51.72728
# Shear Modulus (GPa) = 25.64842 31.47130 28.55986
#
# Velocity S-wave (km/s) = 3.38665 3.75143 3.57370
# Velocity P-wave (km/s) = 5.92626 6.72300 6.33716
#
# Compressibility (1/GPa) = 0.02255279
#
# Stress axis : x y z
#
# Youngs Moduli (GPa) = 97.85153 66.00406 91.89427
#
# Poissons Ratio (x) = 0.18704 0.43484
# Poissons Ratio (y) = 0.27728 -0.06579
# Poissons Ratio (z) = 0.46303 -0.04726
#
# Static dielectric constant tensor:
#      x y z
#    x 4.321140 0.000000 -0.075520 
#    y 0.000000 4.099200 0.000000 
#    z -0.075520 0.000000 3.949010 
# 
# 
# High freq. dielectric constant tensor:
#      x y z
#    x 1.892570 0.000000 -0.003240 
#    y 0.000000 1.894530 0.000000 
#    z -0.003240 0.000000 1.860510 
# 
# From -- ./inp_files/71674.got.cif
#   From: 2010.06.25/outbox.cif.g09.slc.cpg/sg13_36_cif.got.tgz:71674.got - 2010.06.28 04:50:58.
