data_PCOD8121360
_publ_section_title
;
Structure prediction by ZEFSAII (Michael W. Deem and Ramdas Pophale) SiO2 
 PCOD8121360
Probable space group: P 2/C
;
_chemical_formula_sum "Si O2"
_cell_formula_units_Z 28
_cell_length_a 20.817944
_cell_length_b 8.627528
_cell_length_c 14.798822
_cell_angle_alpha 90.000000
_cell_angle_beta 151.137392
_cell_angle_gamma 90.000000
_cell_volume 1283.034995
_symmetry_space_group_name_H-M "P 2/C"
_symmetry_group_IT_number 13
_symmetry_cell_setting 'monoclinic'
loop_
_space_group_symop_operation_xyz
x,y,z
-x,y,1/2-z
-x,-y,-z
x,-y,1/2+z
loop_
_atom_site_type_symbol
_atom_site_label
_atom_site_fract_x
_atom_site_fract_y
_atom_site_fract_z
Si Si1 0.116515 0.470602 0.505977
Si Si2 0.129122 0.113384 0.559219
Si Si3 0.354105 0.824531 0.612075
Si Si4 0.141382 0.010567 0.260730
Si Si5 0.372575 0.895870 0.833482
Si Si6 0.244604 0.686526 0.812244
Si Si7 0.192112 0.472925 0.900428
O O1 0.133948 0.287454 0.531095
O O2 0.181506 0.557260 0.670125
O O3 0.197122 0.512059 0.514553
O O4 0.962708 0.521884 0.318093
O O5 0.998069 0.024253 0.357357
O O6 0.131247 0.120083 0.671014
O O7 0.251649 0.014183 0.675235
O O8 0.500000 0.831994 0.750000
O O9 0.375935 0.800857 0.745032
O O10 0.263648 0.686636 0.461697
O O11 0.269434 0.979806 0.482335
O O12 0.144685 0.175648 0.213029
O O13 0.366202 0.772346 0.908952
O O14 0.500000 0.000000 0.000000
O O15 0.276421 0.602793 0.947644
#
# Coordination Sequence:
#
# PCOD8121360 Si02
#       7
#     4   4   4   4   4   4   4
#     4  11  23  42  68 105 143 175 229 295 350 424
#     4  10  22  41  70 102 142 174 228 291 352 418
#     4  12  26  47  66  99 140 183 239 291 345 426
#     4  10  23  39  73 104 131 185 225 288 354 408
#     4  11  26  48  70  99 139 189 238 289 357 412
#     4  11  22  45  69 102 141 181 228 285 348 422
#     4  11  25  40  70 102 139 183 233 282 360 417
#
# _framework density 21.823255
#
# number of rings (size 3 to 8) (size 9 to 14) (size 15 to 20)
#    0.000    1.143    2.857    3.000    8.000    0.571 
#    2.571    2.143    0.000    0.000    0.000    0.000 
#    0.000    0.000    0.000    0.000    0.000    0.000 
#
# Total GULP energy -346937.540266 kJ/mol
# GULP energy per Si atom -12390.626438 kJ/mol
# Density = 2.177358 g / cm^3
# Si number density = 21.823255 Si / 1000 Ang^3
#
#
#
# Elastic Constant Matrix: (Units=GPa)
#
#
# Indices 1 2 3 4 5 6 
#
# 1 122.7469 46.9865 56.7611 0.0000 15.3085 0.0000
# 2 46.9865 98.0666 43.4236 0.0000 14.6548 0.0000
# 3 56.7611 43.4236 70.0298 0.0000 18.4716 0.0000
# 4 0.0000 0.0000 0.0000 28.3959 0.0000 0.2602
# 5 15.3085 14.6548 18.4716 0.0000 35.5774 0.0000
# 6 0.0000 0.0000 0.0000 0.2602 0.0000 35.0056
#
#
#
# Elastic Compliance Matrix: (Units=1/GPa)
#
#
# Indices 1 2 3 4 5 6 
#
# 1 0.013372 -0.002220 -0.009484 0.000000 0.000085 0.000000
# 2 -0.002220 0.014491 -0.006794 0.000000 -0.001486 0.000000
# 3 -0.009484 -0.006794 0.028231 0.000000 -0.007778 0.000000
# 4 0.000000 0.000000 0.000000 0.035219 0.000000 -0.000262
# 5 0.000085 -0.001486 -0.007778 0.000000 0.032722 0.000000
# 6 0.000000 0.000000 0.000000 -0.000262 0.000000 0.028569
#
#
# Mechanical properties :
#
#
# Convention : Reuss Voigt Hill
#
# Bulk Modulus (GPa) = 52.36197 65.02064 58.69130
# Shear Modulus (GPa) = 25.51463 29.37392 27.44427
#
# Velocity S-wave (km/s) = 3.42299 3.67276 3.55007
# Velocity P-wave (km/s) = 6.29827 6.91696 6.61486
#
# Compressibility (1/GPa) = 0.01909783
#
# Stress axis : x y z
#
# Youngs Moduli (GPa) = 74.78521 69.00623 35.42182
#
# Poissons Ratio (x) = 0.15319 0.33594
# Poissons Ratio (y) = 0.16602 0.24067
# Poissons Ratio (z) = 0.70926 0.46885
#
# Static dielectric constant tensor:
#      x y z
#    x 4.221180 0.000000 -0.019120 
#    y 0.000000 3.934050 0.000000 
#    z -0.019120 0.000000 3.695170 
# 
# 
# High freq. dielectric constant tensor:
#      x y z
#    x 1.874190 0.000000 -0.002250 
#    y 0.000000 1.863620 0.000000 
#    z -0.002250 0.000000 1.833250 
# 
# From -- ./inp_files/57538.got.cif
#   From: 2010.06.25/outbox.cif.g09.slc.cpg/sg13_29_cif.got.tgz:57538.got - 2010.06.28 04:50:58.
