data_PCOD8121812
_publ_section_title
;
Structure prediction by ZEFSAII (Michael W. Deem and Ramdas Pophale) SiO2 
 PCOD8121812
Probable space group: P 2/C
;
_chemical_formula_sum "Si O2"
_cell_formula_units_Z 16
_cell_length_a 9.685949
_cell_length_b 4.667473
_cell_length_c 13.692018
_cell_angle_alpha 90.000000
_cell_angle_beta 118.866628
_cell_angle_gamma 90.000000
_cell_volume 542.087696
_symmetry_space_group_name_H-M "P 2/C"
_symmetry_group_IT_number 13
_symmetry_cell_setting 'monoclinic'
loop_
_space_group_symop_operation_xyz
x,y,z
-x,y,1/2-z
-x,-y,-z
x,-y,1/2+z
loop_
_atom_site_type_symbol
_atom_site_label
_atom_site_fract_x
_atom_site_fract_y
_atom_site_fract_z
Si Si1 0.991040 0.772971 0.081659
Si Si2 0.528412 0.110702 0.370908
Si Si3 0.280923 0.616973 0.999037
Si Si4 0.770134 0.779023 0.177480
O O1 0.163277 0.717863 0.190313
O O2 0.894934 0.912107 0.141603
O O3 0.000000 0.000000 0.000000
O O4 0.890938 0.483533 0.012810
O O5 0.500000 0.042649 0.250000
O O6 0.686587 0.945470 0.462875
O O7 0.377705 0.994940 0.378507
O O8 0.571101 0.441894 0.402734
O O9 0.278673 0.536138 0.882325
#
# Coordination Sequence:
#
# PCOD8121812 Si02
#       4
#     4   4   4   4
#     4   9  19  41  68  96 134 176 225 279 339 404
#     4  12  23  41  67 100 134 181 227 281 338 407
#     4  10  23  42  66  95 137 175 227 280 341 401
#     4   9  21  40  66  97 139 175 230 279 345 404
#
# _framework density 29.515516999999999
#
# number of rings (size 3 to 8) (size 9 to 14) (size 15 to 20)
#    1.500    0.500    0.000    3.750    0.000    0.000 
#    0.000   12.500    0.000    0.000    0.000    0.000 
#    0.000    0.000    0.000    0.000    0.000    0.000 
#
# Total GULP energy -198320.373457 kJ/mol
# GULP energy per Si atom -12395.023341 kJ/mol
# Density = 2.944834 g / cm^3
# Si number density = 29.515517 Si / 1000 Ang^3
#
#
#
# Elastic Constant Matrix: (Units=GPa)
#
#
# Indices 1 2 3 4 5 6 
#
# 1 64.9877 3.3377 -0.7626 0.0000 11.4181 0.0000
# 2 3.3377 74.9682 19.9860 0.0000 -11.2190 0.0000
# 3 -0.7626 19.9860 211.9130 0.0000 0.8512 0.0000
# 4 0.0000 0.0000 0.0000 14.3457 0.0000 -0.3835
# 5 11.4181 -11.2190 0.8512 0.0000 50.0558 0.0000
# 6 0.0000 0.0000 0.0000 -0.3835 0.0000 8.9197
#
#
#
# Elastic Compliance Matrix: (Units=1/GPa)
#
#
# Indices 1 2 3 4 5 6 
#
# 1 0.016163 -0.001372 0.000204 0.000000 -0.003998 0.000000
# 2 -0.001372 0.014294 -0.001367 0.000000 0.003540 0.000000
# 3 0.000204 -0.001367 0.004850 0.000000 -0.000435 0.000000
# 4 0.000000 0.000000 0.000000 0.069787 0.000000 0.003000
# 5 -0.003998 0.003540 -0.000435 0.000000 0.021690 0.000000
# 6 0.000000 0.000000 0.000000 0.003000 0.000000 0.112241
#
#
# Mechanical properties :
#
#
# Convention : Reuss Voigt Hill
#
# Bulk Modulus (GPa) = 33.07331 44.11013 38.59172
# Shear Modulus (GPa) = 19.67138 36.61809 28.14474
#
# Velocity S-wave (km/s) = 2.58442 3.52609 3.09132
# Velocity P-wave (km/s) = 4.48724 5.61738 5.08381
#
# Compressibility (1/GPa) = 0.03023586
#
# Stress axis : x y z
#
# Youngs Moduli (GPa) = 61.87049 69.95769 206.17056
#
# Poissons Ratio (x) = 0.09599 -0.04198
# Poissons Ratio (y) = 0.08490 0.28190
# Poissons Ratio (z) = -0.01260 0.09565
#
# Static dielectric constant tensor:
#      x y z
#    x 6.122230 0.000000 0.094010 
#    y 0.000000 4.932510 0.000000 
#    z 0.094010 0.000000 5.709480 
# 
# 
# High freq. dielectric constant tensor:
#      x y z
#    x 2.231450 0.000000 0.002700 
#    y 0.000000 2.188510 0.000000 
#    z 0.002700 0.000000 2.223920 
# 
# From -- ./inp_files/48749.got.cif
#   From: 2010.06.25/outbox.cif.g09.slc.cpg/sg13_25_cif.got.tgz:48749.got - 2010.06.28 04:50:58.
