data_PCOD8121784
_publ_section_title
;
Structure prediction by ZEFSAII (Michael W. Deem and Ramdas Pophale) SiO2 
 PCOD8121784
Probable space group: P 2/C
;
_chemical_formula_sum "Si O2"
_cell_formula_units_Z 12
_cell_length_a 5.259362
_cell_length_b 9.703162
_cell_length_c 10.082416
_cell_angle_alpha 90.000000
_cell_angle_beta 66.502076
_cell_angle_gamma 90.000000
_cell_volume 471.862633
_symmetry_space_group_name_H-M "P 2/C"
_symmetry_group_IT_number 13
_symmetry_cell_setting 'monoclinic'
loop_
_space_group_symop_operation_xyz
x,y,z
-x,y,1/2-z
-x,-y,-z
x,-y,1/2+z
loop_
_atom_site_type_symbol
_atom_site_label
_atom_site_fract_x
_atom_site_fract_y
_atom_site_fract_z
Si Si1 0.295867 0.119921 0.678312
Si Si2 0.826828 0.540281 0.909334
Si Si3 0.377942 0.188712 0.141648
O O1 0.500000 0.177866 0.750000
O O2 0.382559 0.156159 0.512621
O O3 0.000000 0.194446 0.750000
O O4 0.244168 0.956588 0.709994
O O5 0.836374 0.705995 0.883075
O O6 0.000000 0.471938 0.750000
O O7 0.500000 0.500000 0.000000
O O8 0.000000 0.500000 0.000000
O O9 0.500000 0.259654 0.250000
#
# Coordination Sequence:
#
# PCOD8121784 Si02
#       3
#     4   4   4
#     4  10  23  41  68 106 140 175 221 278 348 421
#     4  12  27  47  70  98 135 184 238 289 343 405
#     4  10  23  44  70  99 140 182 224 281 350 417
#
# _framework density 25.43113
#
# number of rings (size 3 to 8) (size 9 to 14) (size 15 to 20)
#    0.000    1.333    0.000    4.000    0.000   24.000 
#    0.000    0.000    0.000    0.000    0.000    0.000 
#    0.000    0.000    0.000    0.000    0.000    0.000 
#
# Total GULP energy -148664.613549 kJ/mol
# GULP energy per Si atom -12388.717796 kJ/mol
# Density = 2.537325 g / cm^3
# Si number density = 25.431130 Si / 1000 Ang^3
#
#
#
# Elastic Constant Matrix: (Units=GPa)
#
#
# Indices 1 2 3 4 5 6 
#
# 1 220.7513 20.8265 97.8893 0.0000 9.4608 0.0000
# 2 20.8265 79.4156 15.6977 0.0000 31.4814 0.0000
# 3 97.8893 15.6977 180.4844 0.0000 23.4346 0.0000
# 4 0.0000 0.0000 0.0000 -41.7605 0.0000 20.4928
# 5 9.4608 31.4814 23.4346 0.0000 62.4420 0.0000
# 6 0.0000 0.0000 0.0000 20.4928 0.0000 -1.9061
#
#
#
# Elastic Compliance Matrix: (Units=1/GPa)
#
#
# Indices 1 2 3 4 5 6 
#
# 1 0.006082 -0.001334 -0.003312 0.000000 0.000994 0.000000
# 2 -0.001334 0.016052 0.000370 0.000000 -0.008030 0.000000
# 3 -0.003312 0.000370 0.007636 0.000000 -0.002551 0.000000
# 4 0.000000 0.000000 0.000000 0.005600 0.000000 0.060210
# 5 0.000994 -0.008030 -0.002551 0.000000 0.020870 0.000000
# 6 0.000000 0.000000 0.000000 0.060210 0.000000 0.122697
#
#
# Mechanical properties :
#
#
# Convention : Reuss Voigt Hill
#
# Bulk Modulus (GPa) = 47.13048 83.27537 65.20293
# Shear Modulus (GPa) = 25.69889 26.83758 26.26824
#
# Velocity S-wave (km/s) = 3.18233 3.25207 3.21739
# Velocity P-wave (km/s) = 5.66355 6.84966 6.28465
#
# Compressibility (1/GPa) = 0.02121769
#
# Stress axis : x y z
#
# Youngs Moduli (GPa) = 164.42633 62.29840 130.96336
#
# Poissons Ratio (x) = 0.08313 0.43370
# Poissons Ratio (y) = 0.21942 -0.04849
# Poissons Ratio (z) = 0.54451 -0.02306
#
# Static dielectric constant tensor:
#      x y z
#    x 4.537100 0.000000 0.036140 
#    y 0.000000 4.748710 0.000000 
#    z 0.036140 0.000000 5.584200 
# 
# 
# High freq. dielectric constant tensor:
#      x y z
#    x 2.019630 0.000000 -0.015580 
#    y 0.000000 2.002340 0.000000 
#    z -0.015580 0.000000 2.037850 
# 
# From -- ./inp_files/8518.got.cif
#   From: 2010.06.25/outbox.cif.g09.slc.cpg/sg13_5_cif.got.tgz:8518.got - 2010.06.28 04:50:58.
