data_PCOD8121290
_publ_section_title
;
Structure prediction by ZEFSAII (Michael W. Deem and Ramdas Pophale) SiO2 
 PCOD8121290
Probable space group: P 2/C
;
_chemical_formula_sum "Si O2"
_cell_formula_units_Z 10
_cell_length_a 10.462473
_cell_length_b 7.923240
_cell_length_c 10.690330
_cell_angle_alpha 90.000000
_cell_angle_beta 28.040841
_cell_angle_gamma 90.000000
_cell_volume 416.600013
_symmetry_space_group_name_H-M "P 2/C"
_symmetry_group_IT_number 13
_symmetry_cell_setting 'monoclinic'
loop_
_space_group_symop_operation_xyz
x,y,z
-x,y,1/2-z
-x,-y,-z
x,-y,1/2+z
loop_
_atom_site_type_symbol
_atom_site_label
_atom_site_fract_x
_atom_site_fract_y
_atom_site_fract_z
Si Si1 0.553980 0.196266 0.462775
Si Si2 0.500000 0.607165 0.750000
Si Si3 0.902611 0.366645 0.486066
O O1 0.530391 0.278443 0.346047
O O2 0.330282 0.256275 0.751349
O O3 0.500000 0.000000 0.500000
O O4 0.850217 0.241844 0.267914
O O5 0.761795 0.483017 0.499129
O O6 0.000000 0.500000 0.500000
#
# Coordination Sequence:
#
# PCOD8121290 Si02
#       3
#     4   2   4
#     4  11  24  42  64  98 129 161 215 269 313 373
#     4  10  22  42  66  90 130 176 208 258 318 376
#     4  10  22  41  64  91 124 169 215 253 311 390
#
# _framework density 24.003838999999999
#
# number of rings (size 3 to 8) (size 9 to 14) (size 15 to 20)
#    0.000    1.600    0.000    6.000    0.000   16.000 
#    0.000    8.000    0.000    0.000    0.000    0.000 
#    0.000    0.000    0.000    0.000    0.000    0.000 
#
# Total GULP energy -123887.074561 kJ/mol
# GULP energy per Si atom -12388.707456 kJ/mol
# Density = 2.394921 g / cm^3
# Si number density = 24.003839 Si / 1000 Ang^3
#
#
#
# Elastic Constant Matrix: (Units=GPa)
#
#
# Indices 1 2 3 4 5 6 
#
# 1 86.9225 61.4060 34.4316 0.0000 -13.8122 0.0000
# 2 61.4060 203.8305 93.0862 0.0000 -27.6105 0.0000
# 3 34.4316 93.0862 197.3488 0.0000 -23.8192 0.0000
# 4 0.0000 0.0000 0.0000 39.4067 0.0000 -0.0374
# 5 -13.8122 -27.6105 -23.8192 0.0000 48.8958 0.0000
# 6 0.0000 0.0000 0.0000 -0.0374 0.0000 40.8116
#
#
#
# Elastic Compliance Matrix: (Units=1/GPa)
#
#
# Indices 1 2 3 4 5 6 
#
# 1 0.014795 -0.004007 -0.000489 0.000000 0.001679 0.000000
# 2 -0.004007 0.007574 -0.002650 0.000000 0.001854 0.000000
# 3 -0.000489 -0.002650 0.006593 0.000000 0.001577 0.000000
# 4 0.000000 0.000000 0.000000 0.025376 0.000000 0.000023
# 5 0.001679 0.001854 0.001577 0.000000 0.022741 0.000000
# 6 0.000000 0.000000 0.000000 0.000023 0.000000 0.024503
#
#
# Mechanical properties :
#
#
# Convention : Reuss Voigt Hill
#
# Bulk Modulus (GPa) = 68.15784 96.21661 82.18723
# Shear Modulus (GPa) = 41.40292 45.76802 43.58547
#
# Velocity S-wave (km/s) = 4.15763 4.37131 4.26581
# Velocity P-wave (km/s) = 7.17663 8.10239 7.65352
#
# Compressibility (1/GPa) = 0.01467183
#
# Stress axis : x y z
#
# Youngs Moduli (GPa) = 67.58880 132.02340 151.68224
#
# Poissons Ratio (x) = 0.52896 0.07416
# Poissons Ratio (y) = 0.27080 0.40194
# Poissons Ratio (z) = 0.03304 0.34985
#
# Static dielectric constant tensor:
#      x y z
#    x 6.831480 0.000000 -3.304700 
#    y 0.000000 4.525580 0.000000 
#    z -3.304700 0.000000 8.530110 
# 
# 
# High freq. dielectric constant tensor:
#      x y z
#    x 1.970130 0.000000 -0.013780 
#    y 0.000000 1.954870 0.000000 
#    z -0.013780 0.000000 1.978640 
# 
# From -- ./inp_files/25037.got.cif
#   From: 2010.06.25/outbox.cif.g09.slc.cpg/sg13_13_cif.got.tgz:25037.got - 2010.06.28 04:50:58.
