data_PCOD8121508
_publ_section_title
;
Structure prediction by ZEFSAII (Michael W. Deem and Ramdas Pophale) SiO2 
 PCOD8121508
Probable space group: P 2/C
;
_chemical_formula_sum "Si O2"
_cell_formula_units_Z 28
_cell_length_a 15.205295
_cell_length_b 9.334341
_cell_length_c 20.765036
_cell_angle_alpha 90.000000
_cell_angle_beta 152.474653
_cell_angle_gamma 90.000000
_cell_volume 1362.026866
_symmetry_space_group_name_H-M "P 2/C"
_symmetry_group_IT_number 13
_symmetry_cell_setting 'monoclinic'
loop_
_space_group_symop_operation_xyz
x,y,z
-x,y,1/2-z
-x,-y,-z
x,-y,1/2+z
loop_
_atom_site_type_symbol
_atom_site_label
_atom_site_fract_x
_atom_site_fract_y
_atom_site_fract_z
Si Si1 0.165938 0.965262 0.655283
Si Si2 0.038610 0.738971 0.673252
Si Si3 0.685021 0.234932 0.685322
Si Si4 0.779176 0.819965 0.105473
Si Si5 0.460000 0.755107 0.799405
Si Si6 0.159884 0.524499 0.656872
Si Si7 0.731911 0.842267 0.561007
O O1 0.179865 0.103799 0.709042
O O2 0.102131 0.836508 0.656908
O O3 0.358014 0.910282 0.743994
O O4 0.000000 0.000000 0.500000
O O5 0.053131 0.581094 0.652075
O O6 0.183300 0.748892 0.826159
O O7 0.827405 0.785808 0.557200
O O8 0.678626 0.245477 0.603787
O O9 0.748369 0.376123 0.762650
O O10 0.486155 0.191357 0.586611
O O11 0.000000 0.770125 0.250000
O O12 0.771699 0.991573 0.100142
O O13 0.662369 0.756156 0.968967
O O14 0.500000 0.732712 0.750000
O O15 0.327577 0.626250 0.738948
O O16 0.000000 0.500000 0.500000
#
# Coordination Sequence:
#
# PCOD8121508 Si02
#       7
#     4   4   4   4   4   4   4
#     4  11  22  38  67  98 135 181 230 286 342 407
#     4  10  22  43  66  94 139 173 225 276 353 402
#     4  12  23  42  71  99 134 178 237 279 348 399
#     4  12  24  43  74 108 139 177 230 300 345 406
#     4  11  27  45  69 103 144 183 234 287 346 413
#     4  11  27  49  65  94 147 193 224 282 346 421
#     4  11  21  40  72 103 131 169 225 303 335 407
#
# _framework density 20.557597999999999
#
# number of rings (size 3 to 8) (size 9 to 14) (size 15 to 20)
#    0.000    0.857    4.286    3.857    6.000    3.429 
#    2.571    2.143    0.000    0.000    0.000    0.000 
#    0.000    0.000    0.000    0.000    0.000    0.000 
#
# Total GULP energy -347150.974081 kJ/mol
# GULP energy per Si atom -12398.249074 kJ/mol
# Density = 2.051081 g / cm^3
# Si number density = 20.557598 Si / 1000 Ang^3
#
#
#
# Elastic Constant Matrix: (Units=GPa)
#
#
# Indices 1 2 3 4 5 6 
#
# 1 125.3790 37.7087 40.1757 0.0000 0.7229 0.0000
# 2 37.7087 95.5453 29.2390 0.0000 -5.4680 0.0000
# 3 40.1757 29.2390 141.3670 0.0000 -1.0946 0.0000
# 4 0.0000 0.0000 0.0000-1012.1694 0.0000 489.5301
# 5 0.7229 -5.4680 -1.0946 0.0000 34.0337 0.0000
# 6 0.0000 0.0000 0.0000 489.5301 0.0000 -200.8232
#
#
#
# Elastic Compliance Matrix: (Units=1/GPa)
#
#
# Indices 1 2 3 4 5 6 
#
# 1 0.009608 -0.003202 -0.002074 0.000000 -0.000785 0.000000
# 2 -0.003202 0.012342 -0.001627 0.000000 0.001999 0.000000
# 3 -0.002074 -0.001627 0.008000 0.000000 0.000040 0.000000
# 4 0.000000 0.000000 0.000000 0.005521 0.000000 0.013459
# 5 -0.000785 0.001999 0.000040 0.000000 0.029722 0.000000
# 6 0.000000 0.000000 0.000000 0.013459 0.000000 0.027828
#
#
# Mechanical properties :
#
#
# Convention : Reuss Voigt Hill
#
# Bulk Modulus (GPa) = 61.94585 64.05979 63.00282
# Shear Modulus (GPa) = 44.55926 -218.78059 -87.11067
#
# Velocity S-wave (km/s) = 4.66073 -10.32736 -6.51659
# Velocity P-wave (km/s) = 7.69165 10.53456 5.08997
#
# Compressibility (1/GPa) = 0.01614313
#
# Stress axis : x y z
#
# Youngs Moduli (GPa) = 104.07869 81.02152 124.99713
#
# Poissons Ratio (x) = 0.25944 0.25929
# Poissons Ratio (y) = 0.33328 0.20340
# Poissons Ratio (z) = 0.21590 0.13184
#
# Static dielectric constant tensor:
#      x y z
#    x 3.968150 0.000000 0.125820 
#    y 0.000000 3.764020 0.000000 
#    z 0.125820 0.000000 3.863010 
# 
# 
# High freq. dielectric constant tensor:
#      x y z
#    x 1.813870 0.000000 0.000260 
#    y 0.000000 1.800690 0.000000 
#    z 0.000260 0.000000 1.812490 
# 
# From -- ./inp_files/80018.got.cif
#   From: 2010.06.25/outbox.cif.g09.slc.cpg/sg13_41_cif.got.tgz:80018.got - 2010.06.28 04:50:58.
