data_PCOD8121649
_publ_section_title
;
Structure prediction by ZEFSAII (Michael W. Deem and Ramdas Pophale) SiO2 
 PCOD8121649
Probable space group: P 2/C
;
_chemical_formula_sum "Si O2"
_cell_formula_units_Z 20
_cell_length_a 29.395038
_cell_length_b 5.268545
_cell_length_c 13.574814
_cell_angle_alpha 90.000000
_cell_angle_beta 154.767585
_cell_angle_gamma 90.000000
_cell_volume 896.199922
_symmetry_space_group_name_H-M "P 2/C"
_symmetry_group_IT_number 13
_symmetry_cell_setting 'monoclinic'
loop_
_space_group_symop_operation_xyz
x,y,z
-x,y,1/2-z
-x,-y,-z
x,-y,1/2+z
loop_
_atom_site_type_symbol
_atom_site_label
_atom_site_fract_x
_atom_site_fract_y
_atom_site_fract_z
Si Si1 0.658898 0.897069 0.818988
Si Si2 0.882890 0.660337 0.478250
Si Si3 0.708005 0.417170 0.248406
Si Si4 0.477630 0.790484 0.598603
Si Si5 0.208425 0.828661 0.769271
O O1 0.735900 0.705291 0.909844
O O2 0.591916 0.737233 0.769338
O O3 0.582571 0.003853 0.584697
O O4 0.724157 0.123110 0.999375
O O5 0.797077 0.632918 0.399764
O O6 0.862693 0.428378 0.360770
O O7 0.000000 0.637453 0.750000
O O8 0.868241 0.929101 0.396585
O O9 0.712408 0.205143 0.169728
O O10 0.589029 0.531951 0.020707
O O11 0.500000 0.905626 0.750000
#
# Coordination Sequence:
#
# PCOD8121649 Si02
#       5
#     4   4   4   4   4
#     4  11  23  41  65 101 137 181 224 279 333 405
#     4  10  22  45  73  99 133 181 225 282 344 399
#     4  10  23  39  67  95 140 171 227 279 333 394
#     4  11  24  40  64  98 137 184 226 273 333 409
#     4  10  24  43  71  97 140 173 226 277 342 397
#
# _framework density 22.316451000000001
#
# number of rings (size 3 to 8) (size 9 to 14) (size 15 to 20)
#    1.200    0.400    0.000    4.800    2.800    4.000 
#    0.000    2.000    0.000    0.000    0.000    0.000 
#    0.000    0.000    0.000    0.000    0.000    0.000 
#
# Total GULP energy -247859.369708 kJ/mol
# GULP energy per Si atom -12392.968485 kJ/mol
# Density = 2.226566 g / cm^3
# Si number density = 22.316451 Si / 1000 Ang^3
#
#
#
# Elastic Constant Matrix: (Units=GPa)
#
#
# Indices 1 2 3 4 5 6 
#
# 1 63.7903 13.8180 35.9461 0.0000 -26.3601 0.0000
# 2 13.8180 112.6442 32.0223 0.0000 -2.6459 0.0000
# 3 35.9461 32.0223 104.6118 0.0000 -14.1940 0.0000
# 4 0.0000 0.0000 0.0000 29.6394 0.0000 6.7919
# 5 -26.3601 -2.6459 -14.1940 0.0000 29.9382 0.0000
# 6 0.0000 0.0000 0.0000 6.7919 0.0000 21.8174
#
#
#
# Elastic Compliance Matrix: (Units=1/GPa)
#
#
# Indices 1 2 3 4 5 6 
#
# 1 0.028737 -0.001152 -0.006522 0.000000 0.022108 0.000000
# 2 -0.001152 0.009780 -0.002798 0.000000 -0.001476 0.000000
# 3 -0.006522 -0.002798 0.012658 0.000000 0.000011 0.000000
# 4 0.000000 0.000000 0.000000 0.036331 0.000000 -0.011310
# 5 0.022108 -0.001476 0.000011 0.000000 0.052743 0.000000
# 6 0.000000 0.000000 0.000000 -0.011310 0.000000 0.049356
#
#
# Mechanical properties :
#
#
# Convention : Reuss Voigt Hill
#
# Bulk Modulus (GPa) = 33.07878 49.40209 41.24043
# Shear Modulus (GPa) = 22.66284 29.56301 26.11292
#
# Velocity S-wave (km/s) = 3.19018 3.64362 3.42441
# Velocity P-wave (km/s) = 5.33146 6.31557 5.84426
#
# Compressibility (1/GPa) = 0.03023086
#
# Stress axis : x y z
#
# Youngs Moduli (GPa) = 34.79830 102.25399 78.99921
#
# Poissons Ratio (x) = 0.11777 0.51525
# Poissons Ratio (y) = 0.04008 0.22105
# Poissons Ratio (z) = 0.22696 0.28612
#
# Static dielectric constant tensor:
#      x y z
#    x 4.113160 0.000000 -0.137410 
#    y 0.000000 3.819710 0.000000 
#    z -0.137410 0.000000 3.750730 
# 
# 
# High freq. dielectric constant tensor:
#      x y z
#    x 1.867130 0.000000 -0.013480 
#    y 0.000000 1.878730 0.000000 
#    z -0.013480 0.000000 1.863280 
# 
# From -- ./inp_files/42561.got.cif
#   From: 2010.06.25/outbox.cif.g09.slc.cpg/sg13_22_cif.got.tgz:42561.got - 2010.06.28 04:50:58.
