data_PCOD8121534
_publ_section_title
;
Structure prediction by ZEFSAII (Michael W. Deem and Ramdas Pophale) SiO2 
 PCOD8121534
Probable space group: P 2/C
;
_chemical_formula_sum "Si O2"
_cell_formula_units_Z 20
_cell_length_a 15.629500
_cell_length_b 12.348944
_cell_length_c 7.573469
_cell_angle_alpha 90.000000
_cell_angle_beta 35.945807
_cell_angle_gamma 90.000000
_cell_volume 858.069561
_symmetry_space_group_name_H-M "P 2/C"
_symmetry_group_IT_number 13
_symmetry_cell_setting 'monoclinic'
loop_
_space_group_symop_operation_xyz
x,y,z
-x,y,1/2-z
-x,-y,-z
x,-y,1/2+z
loop_
_atom_site_type_symbol
_atom_site_label
_atom_site_fract_x
_atom_site_fract_y
_atom_site_fract_z
Si Si1 0.000000 0.714464 0.750000
Si Si2 0.647495 0.133231 0.299480
Si Si3 0.946174 0.883008 0.146612
Si Si4 0.500000 0.971314 0.750000
Si Si5 0.609185 0.369005 0.330555
Si Si6 0.300498 0.592072 0.213701
O O1 0.006043 0.790348 0.568702
O O2 0.143460 0.638916 0.533724
O O3 0.638957 0.053398 0.483178
O O4 0.647100 0.256856 0.364726
O O5 0.508556 0.105015 0.407554
O O6 0.774033 0.108697 0.949013
O O7 0.000000 0.848221 0.250000
O O8 0.000000 0.000000 0.000000
O O9 0.697591 0.460657 0.291427
O O10 0.432768 0.381124 0.629571
O O11 0.665431 0.363026 0.036283
#
# Coordination Sequence:
#
# PCOD8121534 Si02
#       6
#     2   4   4   2   4   4
#     4  12  26  46  74 104 150 192 234 312 352 434
#     4  11  23  44  65 103 134 184 232 301 351 433
#     4  12  26  44  70 104 146 193 241 288 367 435
#     4  10  24  38  72  98 136 172 238 294 358 432
#     4  10  22  43  70  95 141 180 237 298 353 427
#     4  10  23  43  68 102 135 188 239 290 363 423
#
# _framework density 23.308130999999999
#
# number of rings (size 3 to 8) (size 9 to 14) (size 15 to 20)
#    0.000    1.200    3.000    2.400    0.000    8.800 
#    1.800    0.000    0.000    0.000    0.000    0.000 
#    0.000    0.000    0.000    0.000    0.000    0.000 
#
# Total GULP energy -247852.740621 kJ/mol
# GULP energy per Si atom -12392.637031 kJ/mol
# Density = 2.325508 g / cm^3
# Si number density = 23.308131 Si / 1000 Ang^3
#
#
#
# Elastic Constant Matrix: (Units=GPa)
#
#
# Indices 1 2 3 4 5 6 
#
# 1 70.9313 37.6237 25.3836 0.0000 4.5242 0.0000
# 2 37.6237 176.7937 64.1774 0.0000 -10.7676 0.0000
# 3 25.3836 64.1774 148.8857 0.0000 -12.7260 0.0000
# 4 0.0000 0.0000 0.0000 20.8775 0.0000 12.9860
# 5 4.5242 -10.7676 -12.7260 0.0000 34.8001 0.0000
# 6 0.0000 0.0000 0.0000 12.9860 0.0000 29.1786
#
#
#
# Elastic Compliance Matrix: (Units=1/GPa)
#
#
# Indices 1 2 3 4 5 6 
#
# 1 0.016642 -0.003112 -0.001820 0.000000 -0.003792 0.000000
# 2 -0.003112 0.007325 -0.002476 0.000000 0.001766 0.000000
# 3 -0.001820 -0.002476 0.008309 0.000000 0.002509 0.000000
# 4 0.000000 0.000000 0.000000 0.066234 0.000000 -0.029478
# 5 -0.003792 0.001766 0.002509 0.000000 0.030692 0.000000
# 6 0.000000 0.000000 0.000000 -0.029478 0.000000 0.047391
#
#
# Mechanical properties :
#
#
# Convention : Reuss Voigt Hill
#
# Bulk Modulus (GPa) = 57.27476 72.33112 64.80294
# Shear Modulus (GPa) = 25.35137 34.93297 30.14217
#
# Velocity S-wave (km/s) = 3.30155 3.87556 3.60002
# Velocity P-wave (km/s) = 6.25778 7.15029 6.71887
#
# Compressibility (1/GPa) = 0.01745970
#
# Stress axis : x y z
#
# Youngs Moduli (GPa) = 60.08909 136.52127 120.35771
#
# Poissons Ratio (x) = 0.42483 0.21906
# Poissons Ratio (y) = 0.18699 0.29800
# Poissons Ratio (z) = 0.10937 0.33802
#
# Static dielectric constant tensor:
#      x y z
#    x 3.952960 0.000000 -0.178560 
#    y 0.000000 4.280780 0.000000 
#    z -0.178560 0.000000 5.592770 
# 
# 
# High freq. dielectric constant tensor:
#      x y z
#    x 1.900830 0.000000 0.012550 
#    y 0.000000 1.936090 0.000000 
#    z 0.012550 0.000000 1.929730 
# 
# From -- ./inp_files/11897.got.cif
#   From: 2010.06.25/outbox.cif.g09.slc.cpg/sg13_6_cif.got.tgz:11897.got - 2010.06.28 04:50:58.
