data_PCOD8121201
_publ_section_title
;
Structure prediction by ZEFSAII (Michael W. Deem and Ramdas Pophale) SiO2 
 PCOD8121201
Probable space group: P 2/C
;
_chemical_formula_sum "Si O2"
_cell_formula_units_Z 22
_cell_length_a 14.610077
_cell_length_b 12.876639
_cell_length_c 11.543493
_cell_angle_alpha 90.000000
_cell_angle_beta 30.289827
_cell_angle_gamma 90.000000
_cell_volume 1095.330633
_symmetry_space_group_name_H-M "P 2/C"
_symmetry_group_IT_number 13
_symmetry_cell_setting 'monoclinic'
loop_
_space_group_symop_operation_xyz
x,y,z
-x,y,1/2-z
-x,-y,-z
x,-y,1/2+z
loop_
_atom_site_type_symbol
_atom_site_label
_atom_site_fract_x
_atom_site_fract_y
_atom_site_fract_z
Si Si1 0.792029 0.107557 0.947647
Si Si2 0.704745 0.130266 0.500617
Si Si3 0.000000 0.277187 0.250000
Si Si4 0.618290 0.716392 0.507355
Si Si5 0.287641 0.231140 0.247670
Si Si6 0.973793 0.378602 0.526700
O O1 0.000000 0.124959 0.750000
O O2 0.720485 0.172556 0.915364
O O3 0.689447 0.152802 0.169990
O O4 0.747056 0.988643 0.977436
O O5 0.500000 0.158386 0.750000
O O6 0.825043 0.203047 0.450518
O O7 0.749927 0.157695 0.319476
O O8 0.990841 0.346722 0.374075
O O9 0.500000 0.680580 0.750000
O O10 0.486835 0.715661 0.537242
O O11 0.779358 0.637595 0.299948
O O12 0.129388 0.317661 0.429928
O O13 0.000000 0.500000 0.500000
#
# Coordination Sequence:
#
# PCOD8121201 Si02
#       6
#     4   4   2   4   4   4
#     4  11  21  38  62  91 123 162 205 243 300 367
#     4  11  22  38  60  88 127 163 199 245 302 367
#     4  10  24  40  60  92 124 162 202 252 306 364
#     4  10  22  40  65  93 124 160 206 255 298 364
#     4  10  23  40  61  89 123 162 203 253 303 362
#     4  11  24  43  66  90 122 162 206 259 311 358
#
# _framework density 20.085260999999999
#
# number of rings (size 3 to 8) (size 9 to 14) (size 15 to 20)
#    0.000    1.455    2.727    2.727    0.000    8.727 
#    0.000    3.636    0.000    0.000    0.000    0.000 
#    0.000    0.000    0.000    0.000    0.000    0.000 
#
# Total GULP energy -272686.325764 kJ/mol
# GULP energy per Si atom -12394.832989 kJ/mol
# Density = 2.003955 g / cm^3
# Si number density = 20.085261 Si / 1000 Ang^3
#
#
#
# Elastic Constant Matrix: (Units=GPa)
#
#
# Indices 1 2 3 4 5 6 
#
# 1 106.1752 56.1223 38.9001 0.0000 -25.1477 0.0000
# 2 56.1223 159.0278 63.2845 0.0000 -3.2964 0.0000
# 3 38.9001 63.2845 121.6983 0.0000 -29.6857 0.0000
# 4 0.0000 0.0000 0.0000 -132.7294 0.0000 29.1101
# 5 -25.1477 -3.2964 -29.6857 0.0000 38.7545 0.0000
# 6 0.0000 0.0000 0.0000 29.1101 0.0000 16.2980
#
#
#
# Elastic Compliance Matrix: (Units=1/GPa)
#
#
# Indices 1 2 3 4 5 6 
#
# 1 0.013989 -0.004829 0.000189 0.000000 0.008812 0.000000
# 2 -0.004829 0.009902 -0.005121 0.000000 -0.006214 0.000000
# 3 0.000189 -0.005121 0.013212 0.000000 0.009807 0.000000
# 4 0.000000 0.000000 0.000000 -0.005414 0.000000 0.009669
# 5 0.008812 -0.006214 0.009807 0.000000 0.038505 0.000000
# 6 0.000000 0.000000 0.000000 0.009669 0.000000 0.044087
#
#
# Mechanical properties :
#
#
# Convention : Reuss Voigt Hill
#
# Bulk Modulus (GPa) = 56.88334 78.16836 67.52585
# Shear Modulus (GPa) = 35.80032 -0.29575 17.75228
#
# Velocity S-wave (km/s) = 4.22645 -0.38414 2.97618
# Velocity P-wave (km/s) = 7.22493 6.22945 6.74558
#
# Compressibility (1/GPa) = 0.01757984
#
# Stress axis : x y z
#
# Youngs Moduli (GPa) = 71.48568 100.99276 75.68923
#
# Poissons Ratio (x) = 0.48774 -0.01433
# Poissons Ratio (y) = 0.34524 0.38762
# Poissons Ratio (z) = -0.01353 0.51720
#
# Static dielectric constant tensor:
#      x y z
#    x 4.107990 0.000000 -0.372640 
#    y 0.000000 3.446320 0.000000 
#    z -0.372640 0.000000 3.945390 
# 
# 
# High freq. dielectric constant tensor:
#      x y z
#    x 1.799330 0.000000 -0.020490 
#    y 0.000000 1.769490 0.000000 
#    z -0.020490 0.000000 1.793190 
# 
# From -- ./inp_files/33630.got.cif
#   From: 2010.06.25/outbox.cif.g09.slc.cpg/sg13_17_cif.got.tgz:33630.got - 2010.06.28 04:50:58.
