data_PCOD8121769
_publ_section_title
;
Structure prediction by ZEFSAII (Michael W. Deem and Ramdas Pophale) SiO2 
 PCOD8121769
Probable space group: P 2/C
;
_chemical_formula_sum "Si O2"
_cell_formula_units_Z 26
_cell_length_a 7.888223
_cell_length_b 12.381391
_cell_length_c 14.967897
_cell_angle_alpha 90.000000
_cell_angle_beta 58.297748
_cell_angle_gamma 90.000000
_cell_volume 1243.746906
_symmetry_space_group_name_H-M "P 2/C"
_symmetry_group_IT_number 13
_symmetry_cell_setting 'monoclinic'
loop_
_space_group_symop_operation_xyz
x,y,z
-x,y,1/2-z
-x,-y,-z
x,-y,1/2+z
loop_
_atom_site_type_symbol
_atom_site_label
_atom_site_fract_x
_atom_site_fract_y
_atom_site_fract_z
Si Si1 0.702742 0.564931 0.936392
Si Si2 0.000000 0.209655 0.750000
Si Si3 0.143721 0.869127 0.790012
Si Si4 0.557223 0.694291 0.832601
Si Si5 0.163923 0.653458 0.054419
Si Si6 0.874716 0.252569 0.498097
Si Si7 0.265962 0.908116 0.322207
O O1 0.718359 0.610653 0.830496
O O2 0.864333 0.474231 0.916028
O O3 0.500000 0.500000 0.000000
O O4 0.708806 0.668862 0.000745
O O5 0.150687 0.281579 0.650309
O O6 0.144612 0.140273 0.772844
O O7 0.344986 0.813843 0.695795
O O8 0.000000 0.909992 0.750000
O O9 0.209460 0.965521 0.837454
O O10 0.032354 0.778631 0.878520
O O11 0.500000 0.653989 0.750000
O O12 0.365080 0.693189 0.949928
O O13 0.975102 0.677043 0.046441
O O14 0.787975 0.143969 0.566931
O O15 0.500000 0.890190 0.250000
#
# Coordination Sequence:
#
# PCOD8121769 Si02
#       7
#     4   2   4   4   4   4   4
#     4  10  23  41  65 100 134 175 224 276 342 406
#     4  10  24  46  64  96 138 180 226 284 332 426
#     4  12  23  43  69  98 134 171 233 284 346 403
#     4  11  22  41  67  98 134 172 223 284 334 407
#     4  10  23  43  66  95 139 175 228 270 350 402
#     4  11  23  44  68  96 133 177 224 290 333 418
#     4  11  26  44  68  96 136 180 230 281 355 401
#
# _framework density 20.904575000000001
#
# number of rings (size 3 to 8) (size 9 to 14) (size 15 to 20)
#    0.000    1.231    3.846    1.385    4.308    1.231 
#   11.077    1.538    0.000    0.000    0.000    0.000 
#    0.000    0.000    0.000    0.000    0.000    0.000 
#
# Total GULP energy -322266.214751 kJ/mol
# GULP energy per Si atom -12394.854414 kJ/mol
# Density = 2.085700 g / cm^3
# Si number density = 20.904575 Si / 1000 Ang^3
#
#
#
# Elastic Constant Matrix: (Units=GPa)
#
#
# Indices 1 2 3 4 5 6 
#
# 1 95.5823 50.4703 39.3306 0.0000 10.7704 0.0000
# 2 50.4703 144.2677 50.0993 0.0000 8.0825 0.0000
# 3 39.3306 50.0993 108.6398 0.0000 2.1802 0.0000
# 4 0.0000 0.0000 0.0000 26.1514 0.0000 -8.2825
# 5 10.7704 8.0825 2.1802 0.0000 29.6595 0.0000
# 6 0.0000 0.0000 0.0000 -8.2825 0.0000 24.1858
#
#
#
# Elastic Compliance Matrix: (Units=1/GPa)
#
#
# Indices 1 2 3 4 5 6 
#
# 1 0.014190 -0.003557 -0.003418 0.000000 -0.003932 0.000000
# 2 -0.003557 0.009262 -0.002963 0.000000 -0.001014 0.000000
# 3 -0.003418 -0.002963 0.011785 0.000000 0.001182 0.000000
# 4 0.000000 0.000000 0.000000 0.042891 0.000000 0.014688
# 5 -0.003932 -0.001014 0.001182 0.000000 0.035333 0.000000
# 6 0.000000 0.000000 0.000000 0.014688 0.000000 0.046377
#
#
# Mechanical properties :
#
#
# Convention : Reuss Voigt Hill
#
# Bulk Modulus (GPa) = 65.10133 69.81003 67.45568
# Shear Modulus (GPa) = 27.05145 29.90531 28.47838
#
# Velocity S-wave (km/s) = 3.60119 3.78638 3.69494
# Velocity P-wave (km/s) = 6.96428 7.25139 7.10928
#
# Compressibility (1/GPa) = 0.01536067
#
# Stress axis : x y z
#
# Youngs Moduli (GPa) = 70.47279 107.97190 84.85535
#
# Poissons Ratio (x) = 0.38405 0.29003
# Poissons Ratio (y) = 0.25067 0.25142
# Poissons Ratio (z) = 0.24087 0.31992
#
# Static dielectric constant tensor:
#      x y z
#    x 4.113130 0.000000 0.269750 
#    y 0.000000 4.353130 0.000000 
#    z 0.269750 0.000000 3.794240 
# 
# 
# High freq. dielectric constant tensor:
#      x y z
#    x 1.833090 0.000000 0.014250 
#    y 0.000000 1.825030 0.000000 
#    z 0.014250 0.000000 1.809000 
# 
# From -- ./inp_files/46769.got.cif
#   From: 2010.06.25/outbox.cif.g09.slc.cpg/sg13_24_cif.got.tgz:46769.got - 2010.06.28 04:50:58.
