data_PCOD8121878
_publ_section_title
;
Structure prediction by ZEFSAII (Michael W. Deem and Ramdas Pophale) SiO2 
 PCOD8121878
Probable space group: P 2/C
;
_chemical_formula_sum "Si O2"
_cell_formula_units_Z 26
_cell_length_a 14.937412
_cell_length_b 6.231411
_cell_length_c 12.037350
_cell_angle_alpha 90.000000
_cell_angle_beta 94.303818
_cell_angle_gamma 90.000000
_cell_volume 1117.290904
_symmetry_space_group_name_H-M "P 2/C"
_symmetry_group_IT_number 13
_symmetry_cell_setting 'monoclinic'
loop_
_space_group_symop_operation_xyz
x,y,z
-x,y,1/2-z
-x,-y,-z
x,-y,1/2+z
loop_
_atom_site_type_symbol
_atom_site_label
_atom_site_fract_x
_atom_site_fract_y
_atom_site_fract_z
Si Si1 0.315884 0.867931 0.354449
Si Si2 0.549885 0.813782 0.567993
Si Si3 0.067120 0.656968 0.068849
Si Si4 0.381221 0.430777 0.053751
Si Si5 0.837116 0.170080 0.132820
Si Si6 0.000000 0.957146 0.250000
Si Si7 0.235770 0.507971 0.212865
O O1 0.361563 0.707862 0.443740
O O2 0.285667 0.733783 0.243441
O O3 0.385241 0.066543 0.335517
O O4 0.225424 0.966624 0.396276
O O5 0.609762 0.678077 0.484730
O O6 0.476139 0.652829 0.615752
O O7 0.500000 0.000000 0.500000
O O8 0.137294 0.533308 0.152587
O O9 0.008785 0.815099 0.139826
O O10 0.122717 0.783211 0.982774
O O11 0.000000 0.500000 0.000000
O O12 0.301624 0.390790 0.133197
O O13 0.778779 0.367679 0.177066
O O14 0.913695 0.108704 0.228802
#
# Coordination Sequence:
#
# PCOD8121878 Si02
#       7
#     4   4   4   4   4   2   4
#     4  11  23  43  68 101 140 181 238 291 356 427
#     4   9  20  44  69  99 137 183 236 296 359 426
#     4  12  26  46  74 102 146 187 236 304 359 434
#     4  10  23  43  72  99 141 188 235 298 357 427
#     4  12  27  45  70 103 140 184 237 296 353 435
#     4  12  26  48  72 106 140 190 242 290 374 436
#     4  12  25  44  68 105 142 189 243 295 363 429
#
# _framework density 23.270575000000001
#
# number of rings (size 3 to 8) (size 9 to 14) (size 15 to 20)
#    0.000    0.923    1.538    5.077    4.308    2.462 
#    0.000   18.462    0.000    0.000    0.000    0.000 
#    0.000    0.000    0.000    0.000    0.000    0.000 
#
# Total GULP energy -322346.698285 kJ/mol
# GULP energy per Si atom -12397.949934 kJ/mol
# Density = 2.321761 g / cm^3
# Si number density = 23.270575 Si / 1000 Ang^3
#
#
#
# Elastic Constant Matrix: (Units=GPa)
#
#
# Indices 1 2 3 4 5 6 
#
# 1 107.3121 36.8864 19.1977 0.0000 9.5619 0.0000
# 2 36.8864 105.8686 29.0094 0.0000 8.8404 0.0000
# 3 19.1977 29.0094 72.9413 0.0000 1.0467 0.0000
# 4 0.0000 0.0000 0.0000 28.4928 0.0000 10.0752
# 5 9.5619 8.8404 1.0467 0.0000 36.5174 0.0000
# 6 0.0000 0.0000 0.0000 10.0752 0.0000 58.6680
#
#
#
# Elastic Compliance Matrix: (Units=1/GPa)
#
#
# Indices 1 2 3 4 5 6 
#
# 1 0.010876 -0.003191 -0.001564 0.000000 -0.002030 0.000000
# 2 -0.003191 0.011760 -0.003810 0.000000 -0.001902 0.000000
# 3 -0.001564 -0.003810 0.015624 0.000000 0.000884 0.000000
# 4 0.000000 0.000000 0.000000 0.037366 0.000000 -0.006417
# 5 -0.002030 -0.001902 0.000884 0.000000 0.028351 0.000000
# 6 0.000000 0.000000 0.000000 -0.006417 0.000000 0.018147
#
#
# Mechanical properties :
#
#
# Convention : Reuss Voigt Hill
#
# Bulk Modulus (GPa) = 47.32699 50.70101 49.01400
# Shear Modulus (GPa) = 34.17665 38.13754 36.15709
#
# Velocity S-wave (km/s) = 3.83647 4.05269 3.94606
# Velocity P-wave (km/s) = 6.32507 6.61317 6.47072
#
# Compressibility (1/GPa) = 0.02112959
#
# Stress axis : x y z
#
# Youngs Moduli (GPa) = 91.94284 85.03110 64.00440
#
# Poissons Ratio (x) = 0.27136 0.10012
# Poissons Ratio (y) = 0.29342 0.24386
# Poissons Ratio (z) = 0.14382 0.32397
#
# Static dielectric constant tensor:
#      x y z
#    x 4.098400 0.000000 0.272560 
#    y 0.000000 4.516920 0.000000 
#    z 0.272560 0.000000 3.856660 
# 
# 
# High freq. dielectric constant tensor:
#      x y z
#    x 1.947570 0.000000 0.012730 
#    y 0.000000 1.932090 0.000000 
#    z 0.012730 0.000000 1.893640 
# 
# From -- ./inp_files/38213.got.cif
#   From: 2010.06.25/outbox.cif.g09.slc.cpg/sg13_20_cif.got.tgz:38213.got - 2010.06.28 04:50:58.
