data_PCOD8121779
_publ_section_title
;
Structure prediction by ZEFSAII (Michael W. Deem and Ramdas Pophale) SiO2 
 PCOD8121779
Probable space group: P 2/C
;
_chemical_formula_sum "Si O2"
_cell_formula_units_Z 28
_cell_length_a 23.712919
_cell_length_b 10.678051
_cell_length_c 28.966803
_cell_angle_alpha 90.000000
_cell_angle_beta 10.015992
_cell_angle_gamma 90.000000
_cell_volume 1275.659305
_symmetry_space_group_name_H-M "P 2/C"
_symmetry_group_IT_number 13
_symmetry_cell_setting 'monoclinic'
loop_
_space_group_symop_operation_xyz
x,y,z
-x,y,1/2-z
-x,-y,-z
x,-y,1/2+z
loop_
_atom_site_type_symbol
_atom_site_label
_atom_site_fract_x
_atom_site_fract_y
_atom_site_fract_z
Si Si1 0.358932 0.877014 0.589794
Si Si2 0.434759 0.374024 0.749517
Si Si3 0.590133 0.279347 0.032845
Si Si4 0.315132 0.380000 0.167133
Si Si5 0.676507 0.633890 0.558742
Si Si6 0.618199 0.006597 0.298667
Si Si7 0.387777 0.894606 0.290372
O O1 0.485562 0.741698 0.505324
O O2 0.441660 0.893798 0.468806
O O3 0.500000 0.000000 0.500000
O O4 0.986448 0.868514 0.901766
O O5 0.500000 0.358056 0.750000
O O6 0.659431 0.490513 0.552892
O O7 0.539911 0.235613 0.647106
O O8 0.061065 0.403159 0.039737
O O9 0.959914 0.320505 0.727301
O O10 0.364365 0.366982 0.182843
O O11 0.500182 0.288385 0.159839
O O12 0.531127 0.137267 0.063793
O O13 0.500000 0.500000 0.000000
O O14 0.500000 0.650874 0.750000
O O15 0.540360 0.996670 0.306783
O O16 0.000000 0.000000 0.000000
O O17 0.500000 0.943801 0.250000
#
# Coordination Sequence:
#
# PCOD8121779 Si02
#       7
#     4   4   4   4   4   4   4
#     4  11  22  44  67  93 136 180 218 275 339 399
#     4   9  19  41  64  90 131 173 217 274 344 398
#     4  11  25  41  65 104 135 174 240 278 331 427
#     4  11  22  39  68 102 133 172 229 283 333 407
#     4  10  23  44  67  92 138 184 215 285 349 400
#     4  12  24  42  68  97 133 183 227 273 343 410
#     4  10  23  41  66  99 131 170 228 285 330 405
#
# _framework density 21.949435000000001
#
# number of rings (size 3 to 8) (size 9 to 14) (size 15 to 20)
#    0.000    1.429    2.857    2.571    0.000    8.571 
#    0.000    4.286    0.000    0.000    0.000    0.000 
#    0.000    0.000    0.000    0.000    0.000    0.000 
#
# Total GULP energy -346907.783805 kJ/mol
# GULP energy per Si atom -12389.563707 kJ/mol
# Density = 2.189948 g / cm^3
# Si number density = 21.949435 Si / 1000 Ang^3
#
#
#
# Elastic Constant Matrix: (Units=GPa)
#
#
# Indices 1 2 3 4 5 6 
#
# 1 153.4033 43.1425 40.3924 0.0000 -4.9056 0.0000
# 2 43.1425 137.4452 47.4459 0.0000 -6.7694 0.0000
# 3 40.3924 47.4459 79.0291 0.0000 -10.3725 0.0000
# 4 0.0000 0.0000 0.0000 38.4782 0.0000 1.5680
# 5 -4.9056 -6.7694 -10.3725 0.0000 37.5282 0.0000
# 6 0.0000 0.0000 0.0000 1.5680 0.0000 39.6960
#
#
#
# Elastic Compliance Matrix: (Units=1/GPa)
#
#
# Indices 1 2 3 4 5 6 
#
# 1 0.007723 -0.001340 -0.003157 0.000000 -0.000105 0.000000
# 2 -0.001340 0.009411 -0.004945 0.000000 0.000156 0.000000
# 3 -0.003157 -0.004945 0.017707 0.000000 0.003589 0.000000
# 4 0.000000 0.000000 0.000000 0.026031 0.000000 -0.001028
# 5 -0.000105 0.000156 0.003589 0.000000 0.027653 0.000000
# 6 0.000000 0.000000 0.000000 -0.001028 0.000000 0.025232
#
#
# Mechanical properties :
#
#
# Convention : Reuss Voigt Hill
#
# Bulk Modulus (GPa) = 62.66304 70.20435 66.43369
# Shear Modulus (GPa) = 36.24271 39.06693 37.65482
#
# Velocity S-wave (km/s) = 4.06789 4.22342 4.14638
# Velocity P-wave (km/s) = 7.11860 7.47242 7.29765
#
# Compressibility (1/GPa) = 0.01595837
#
# Stress axis : x y z
#
# Youngs Moduli (GPa) = 129.47609 106.26210 56.47551
#
# Poissons Ratio (x) = 0.14236 0.17829
# Poissons Ratio (y) = 0.17346 0.27925
# Poissons Ratio (z) = 0.40875 0.52543
#
# Static dielectric constant tensor:
#      x y z
#    x 4.339040 0.000000 -0.065610 
#    y 0.000000 5.001990 0.000000 
#    z -0.065610 0.000000 3.679790 
# 
# 
# High freq. dielectric constant tensor:
#      x y z
#    x 1.878350 0.000000 -0.017880 
#    y 0.000000 1.875410 0.000000 
#    z -0.017880 0.000000 1.843040 
# 
# From -- ./inp_files/97711.got.cif
#   From: 2010.06.25/outbox.cif.g09.slc.cpg/sg13_49_cif.got.tgz:97711.got - 2010.06.28 04:50:58.
