data_PCOD8121526
_publ_section_title
;
Structure prediction by ZEFSAII (Michael W. Deem and Ramdas Pophale) SiO2 
 PCOD8121526
Probable space group: P 2/C
;
_chemical_formula_sum "Si O2"
_cell_formula_units_Z 26
_cell_length_a 15.742093
_cell_length_b 12.601768
_cell_length_c 16.790791
_cell_angle_alpha 90.000000
_cell_angle_beta 22.140319
_cell_angle_gamma 90.000000
_cell_volume 1255.346987
_symmetry_space_group_name_H-M "P 2/C"
_symmetry_group_IT_number 13
_symmetry_cell_setting 'monoclinic'
loop_
_space_group_symop_operation_xyz
x,y,z
-x,y,1/2-z
-x,-y,-z
x,-y,1/2+z
loop_
_atom_site_type_symbol
_atom_site_label
_atom_site_fract_x
_atom_site_fract_y
_atom_site_fract_z
Si Si1 0.092704 0.630765 0.001610
Si Si2 0.000000 0.545906 0.250000
Si Si3 0.339562 0.541415 0.205454
Si Si4 0.184004 0.142158 0.150391
Si Si5 0.074827 0.850701 0.934086
Si Si6 0.350142 0.641329 0.455679
Si Si7 0.626777 0.958642 0.313729
O O1 0.890236 0.585476 0.126947
O O2 0.032527 0.626047 0.147364
O O3 0.301962 0.552560 0.802773
O O4 0.151100 0.746203 0.915692
O O5 0.784338 0.469747 0.428519
O O6 0.467228 0.639825 0.133020
O O7 0.500000 0.500000 0.000000
O O8 0.115432 0.148337 0.303088
O O9 0.000000 0.085900 0.250000
O O10 0.187027 0.261482 0.114689
O O11 0.429191 0.084580 0.926366
O O12 0.221116 0.943247 0.850986
O O13 0.806346 0.866549 0.180422
O O14 0.500000 0.663291 0.250000
O O15 0.500000 0.000000 0.500000
#
# Coordination Sequence:
#
# PCOD8121526 Si02
#       7
#     4   2   4   4   4   4   4
#     4  11  24  38  65  92 127 176 216 261 316 391
#     4  12  24  42  56  92 146 168 222 266 314 388
#     4  11  22  37  60  91 127 169 217 255 320 385
#     4  11  24  36  67 102 130 162 213 276 337 381
#     4  10  22  43  69  93 126 175 218 265 329 395
#     4  12  24  39  59  94 135 173 207 268 320 378
#     4   9  21  44  69  92 123 164 213 277 326 395
#
# _framework density 20.711404999999999
#
# number of rings (size 3 to 8) (size 9 to 14) (size 15 to 20)
#    0.000    1.231    3.846    1.846    6.462    1.231 
#    0.000    0.000   18.615    0.000    0.000    0.000 
#    0.000    0.000    0.000    0.000    0.000    0.000 
#
# Total GULP energy -322138.005173 kJ/mol
# GULP energy per Si atom -12389.923276 kJ/mol
# Density = 2.066427 g / cm^3
# Si number density = 20.711405 Si / 1000 Ang^3
#
#
#
# Elastic Constant Matrix: (Units=GPa)
#
#
# Indices 1 2 3 4 5 6 
#
# 1 114.4360 41.1285 40.8086 0.0000 -2.9053 0.0000
# 2 41.1285 81.0200 28.2511 0.0000 -5.4736 0.0000
# 3 40.8086 28.2511 101.6112 0.0000 -5.7508 0.0000
# 4 0.0000 0.0000 0.0000 16.1441 0.0000 -0.4799
# 5 -2.9053 -5.4736 -5.7508 0.0000 46.0378 0.0000
# 6 0.0000 0.0000 0.0000 -0.4799 0.0000 26.6520
#
#
#
# Elastic Compliance Matrix: (Units=1/GPa)
#
#
# Indices 1 2 3 4 5 6 
#
# 1 0.011641 -0.004752 -0.003368 0.000000 -0.000251 0.000000
# 2 -0.004752 0.015669 -0.002376 0.000000 0.001266 0.000000
# 3 -0.003368 -0.002376 0.011911 0.000000 0.000993 0.000000
# 4 0.000000 0.000000 0.000000 0.061975 0.000000 0.001116
# 5 -0.000251 0.001266 0.000993 0.000000 0.021980 0.000000
# 6 0.000000 0.000000 0.000000 0.001116 0.000000 0.037541
#
#
# Mechanical properties :
#
#
# Convention : Reuss Voigt Hill
#
# Bulk Modulus (GPa) = 54.86033 57.49373 56.17703
# Shear Modulus (GPa) = 26.62599 30.22538 28.42569
#
# Velocity S-wave (km/s) = 3.58938 3.82430 3.70870
# Velocity P-wave (km/s) = 6.61239 6.87896 6.74699
#
# Compressibility (1/GPa) = 0.01822811
#
# Stress axis : x y z
#
# Youngs Moduli (GPa) = 85.90240 63.82015 83.95541
#
# Poissons Ratio (x) = 0.30327 0.28279
# Poissons Ratio (y) = 0.40820 0.19951
# Poissons Ratio (z) = 0.28934 0.15166
#
# Static dielectric constant tensor:
#      x y z
#    x 3.839480 0.000000 -0.278670 
#    y 0.000000 3.919200 0.000000 
#    z -0.278670 0.000000 4.122790 
# 
# 
# High freq. dielectric constant tensor:
#      x y z
#    x 1.801920 0.000000 -0.011370 
#    y 0.000000 1.797950 0.000000 
#    z -0.011370 0.000000 1.832320 
# 
# From -- ./inp_files/69916.got.cif
#   From: 2010.06.25/outbox.cif.g09.slc.cpg/sg13_35_cif.got.tgz:69916.got - 2010.06.28 04:50:58.
