data_PCOD8121955
_publ_section_title
;
Structure prediction by ZEFSAII (Michael W. Deem and Ramdas Pophale) SiO2 
 PCOD8121955
Probable space group: P 2/C
;
_chemical_formula_sum "Si O2"
_cell_formula_units_Z 28
_cell_length_a 16.556711
_cell_length_b 5.336595
_cell_length_c 17.738977
_cell_angle_alpha 90.000000
_cell_angle_beta 57.117189
_cell_angle_gamma 90.000000
_cell_volume 1316.236257
_symmetry_space_group_name_H-M "P 2/C"
_symmetry_group_IT_number 13
_symmetry_cell_setting 'monoclinic'
loop_
_space_group_symop_operation_xyz
x,y,z
-x,y,1/2-z
-x,-y,-z
x,-y,1/2+z
loop_
_atom_site_type_symbol
_atom_site_label
_atom_site_fract_x
_atom_site_fract_y
_atom_site_fract_z
Si Si1 0.290039 0.740708 0.501872
Si Si2 0.523460 0.534754 0.151667
Si Si3 0.119883 0.747024 0.470992
Si Si4 0.641880 0.260546 0.845821
Si Si5 0.435927 0.140555 0.470951
Si Si6 0.252170 0.259747 0.194966
Si Si7 0.901842 0.247316 0.110269
O O1 0.362406 0.538908 0.426468
O O2 0.197750 0.769649 0.496954
O O3 0.250930 0.693251 0.606003
O O4 0.357447 0.984374 0.464820
O O5 0.500000 0.502743 0.250000
O O6 0.459449 0.762840 0.150090
O O7 0.491888 0.283967 0.122347
O O8 0.134397 0.489644 0.417873
O O9 0.016045 0.745390 0.563493
O O10 0.131145 0.991253 0.413379
O O11 0.700817 0.500366 0.785818
O O12 0.695461 0.997648 0.808887
O O13 0.623375 0.327489 0.943445
O O14 0.500000 0.000000 0.500000
O O15 0.144298 0.246933 0.282812
#
# Coordination Sequence:
#
# PCOD8121955 Si02
#       7
#     4   4   4   4   4   4   4
#     4  11  25  41  64  95 133 172 223 279 326 395
#     4  12  26  39  61  97 136 173 225 280 332 387
#     4  10  24  44  70  98 134 169 216 281 343 392
#     4  11  23  42  63  93 130 182 217 269 319 404
#     4  11  22  45  64  86 136 185 224 268 337 392
#     4  11  24  40  70  94 128 176 227 261 332 397
#     4  10  23  46  69  97 131 174 217 274 344 409
#
# _framework density 21.272779
#
# number of rings (size 3 to 8) (size 9 to 14) (size 15 to 20)
#    0.000    1.143    2.857    3.000    6.000    1.143 
#    0.000    0.000    0.000    6.857    0.000    0.000 
#    0.000    0.000    0.000    0.000    0.000    0.000 
#
# Total GULP energy -346942.310197 kJ/mol
# GULP energy per Si atom -12390.796793 kJ/mol
# Density = 2.122436 g / cm^3
# Si number density = 21.272779 Si / 1000 Ang^3
#
#
#
# Elastic Constant Matrix: (Units=GPa)
#
#
# Indices 1 2 3 4 5 6 
#
# 1 145.3671 46.2046 57.7508 0.0000 -1.7568 0.0000
# 2 46.2046 132.9360 49.8874 0.0000 5.4787 0.0000
# 3 57.7508 49.8874 176.9047 0.0000 -7.3726 0.0000
# 4 0.0000 0.0000 0.0000 14.1199 0.0000 4.3540
# 5 -1.7568 5.4787 -7.3726 0.0000 23.8374 0.0000
# 6 0.0000 0.0000 0.0000 4.3540 0.0000 23.0787
#
#
#
# Elastic Compliance Matrix: (Units=1/GPa)
#
#
# Indices 1 2 3 4 5 6 
#
# 1 0.008409 -0.002146 -0.002121 0.000000 0.000457 0.000000
# 2 -0.002146 0.009136 -0.001996 0.000000 -0.002875 0.000000
# 3 -0.002121 -0.001996 0.007011 0.000000 0.002471 0.000000
# 4 0.000000 0.000000 0.000000 0.075196 0.000000 -0.014186
# 5 0.000457 -0.002875 0.002471 0.000000 0.043410 0.000000
# 6 0.000000 0.000000 0.000000 -0.014186 0.000000 0.046006
#
#
# Mechanical properties :
#
#
# Convention : Reuss Voigt Hill
#
# Bulk Modulus (GPa) = 83.11820 84.76593 83.94206
# Shear Modulus (GPa) = 24.30686 32.29820 28.30253
#
# Velocity S-wave (km/s) = 3.38394 3.90075 3.65150
# Velocity P-wave (km/s) = 7.37736 7.76025 7.57123
#
# Compressibility (1/GPa) = 0.01203106
#
# Stress axis : x y z
#
# Youngs Moduli (GPa) = 118.91571 109.46218 142.63439
#
# Poissons Ratio (x) = 0.23487 0.30254
# Poissons Ratio (y) = 0.25515 0.28464
# Poissons Ratio (z) = 0.25223 0.21844
#
# Static dielectric constant tensor:
#      x y z
#    x 3.729410 0.000000 -0.412790 
#    y 0.000000 4.176090 0.000000 
#    z -0.412790 0.000000 4.579130 
# 
# 
# High freq. dielectric constant tensor:
#      x y z
#    x 1.814150 0.000000 -0.010820 
#    y 0.000000 1.853590 0.000000 
#    z -0.010820 0.000000 1.841170 
# 
# From -- ./inp_files/67478.got.cif
#   From: 2010.06.25/outbox.cif.g09.slc.cpg/sg13_34_cif.got.tgz:67478.got - 2010.06.28 04:50:58.
