data_PCOD8121053
_publ_section_title
;
Structure prediction by ZEFSAII (Michael W. Deem and Ramdas Pophale) SiO2 
 PCOD8121053
Probable space group: P 2/C
;
_chemical_formula_sum "Si O2"
_cell_formula_units_Z 32
_cell_length_a 12.548717
_cell_length_b 14.134432
_cell_length_c 21.897128
_cell_angle_alpha 90.000000
_cell_angle_beta 154.521015
_cell_angle_gamma 90.000000
_cell_volume 1670.763870
_symmetry_space_group_name_H-M "P 2/C"
_symmetry_group_IT_number 13
_symmetry_cell_setting 'monoclinic'
loop_
_space_group_symop_operation_xyz
x,y,z
-x,y,1/2-z
-x,-y,-z
x,-y,1/2+z
loop_
_atom_site_type_symbol
_atom_site_label
_atom_site_fract_x
_atom_site_fract_y
_atom_site_fract_z
Si Si1 0.670267 0.307797 0.421457
Si Si2 0.080435 0.813852 0.354979
Si Si3 0.322924 0.708560 0.100962
Si Si4 0.855163 0.978047 0.613270
Si Si5 0.575833 0.136749 0.658581
Si Si6 0.800723 0.775366 0.864306
Si Si7 0.758642 0.502980 0.418710
Si Si8 0.157548 0.020668 0.142276
O O1 0.372173 0.302374 0.259030
O O2 0.794236 0.243310 0.433158
O O3 0.773043 0.414737 0.472431
O O4 0.745932 0.263997 0.524729
O O5 0.834386 0.837923 0.263652
O O6 0.000000 0.767306 0.250000
O O7 0.228328 0.912468 0.422120
O O8 0.500000 0.703735 0.250000
O O9 0.463767 0.762573 0.120394
O O10 0.245281 0.600575 0.044559
O O11 0.081448 0.769839 0.988594
O O12 0.610316 0.913285 0.485016
O O13 0.000000 0.946739 0.750000
O O14 0.004753 0.967295 0.626734
O O15 0.635251 0.061973 0.744068
O O16 0.701966 0.880133 0.797257
O O17 0.500000 0.490446 0.250000
O O18 0.000000 0.500000 0.500000
O O19 0.000000 0.000000 0.000000
#
# Coordination Sequence:
#
# PCOD8121053 Si02
#       8
#     4   4   4   4   4   4   4   4
#     4  11  21  38  58  87 120 151 198 244 308 375
#     4  10  23  40  59  85 114 163 208 249 295 354
#     4  11  21  35  59  90 124 154 194 246 304 371
#     4  10  22  39  58  84 119 165 211 246 297 363
#     4  11  23  38  60  88 121 160 205 251 304 363
#     4  11  20  36  57  88 123 153 188 242 312 357
#     4  11  21  37  61  91 122 157 192 248 315 378
#     4  11  22  35  56  87 127 160 197 244 309 366
#
# _framework density 19.152916000000001
#
# number of rings (size 3 to 8) (size 9 to 14) (size 15 to 20)
#    0.000    1.250    3.750    3.750    1.750    6.500 
#    0.000    0.000    0.000    1.500    0.000    0.000 
#    0.000    0.000    0.000    0.000    0.000    0.000 
#
# Total GULP energy -396628.585795 kJ/mol
# GULP energy per Si atom -12394.643306 kJ/mol
# Density = 1.910932 g / cm^3
# Si number density = 19.152916 Si / 1000 Ang^3
#
#
#
# Elastic Constant Matrix: (Units=GPa)
#
#
# Indices 1 2 3 4 5 6 
#
# 1 44.5284 23.7572 25.4309 0.0000 -11.1910 0.0000
# 2 23.7572 130.2659 34.3079 0.0000 -6.5136 0.0000
# 3 25.4309 34.3079 93.0190 0.0000 -11.6005 0.0000
# 4 0.0000 0.0000 0.0000 24.9895 0.0000 2.7686
# 5 -11.1910 -6.5136 -11.6005 0.0000 38.4726 0.0000
# 6 0.0000 0.0000 0.0000 2.7686 0.0000 24.9617
#
#
#
# Elastic Compliance Matrix: (Units=1/GPa)
#
#
# Indices 1 2 3 4 5 6 
#
# 1 0.029243 -0.003458 -0.005956 0.000000 0.006125 0.000000
# 2 -0.003458 0.008921 -0.002371 0.000000 -0.000211 0.000000
# 3 -0.005956 -0.002371 0.013495 0.000000 0.001935 0.000000
# 4 0.000000 0.000000 0.000000 0.040515 0.000000 -0.004494
# 5 0.006125 -0.000211 0.001935 0.000000 0.028322 0.000000
# 6 0.000000 0.000000 0.000000 -0.004494 0.000000 0.040560
#
#
# Mechanical properties :
#
#
# Convention : Reuss Voigt Hill
#
# Bulk Modulus (GPa) = 35.60113 48.31168 41.95641
# Shear Modulus (GPa) = 25.77463 29.97259 27.87361
#
# Velocity S-wave (km/s) = 3.67240 3.96019 3.81900
# Velocity P-wave (km/s) = 6.05064 6.79630 6.43428
#
# Compressibility (1/GPa) = 0.02808900
#
# Stress axis : x y z
#
# Youngs Moduli (GPa) = 34.19564 112.09120 74.10381
#
# Poissons Ratio (x) = 0.38767 0.44133
# Poissons Ratio (y) = 0.11827 0.17571
# Poissons Ratio (z) = 0.20365 0.26578
#
# Static dielectric constant tensor:
#      x y z
#    x 3.542670 0.000000 -0.027280 
#    y 0.000000 3.877770 0.000000 
#    z -0.027280 0.000000 3.627130 
# 
# 
# High freq. dielectric constant tensor:
#      x y z
#    x 1.719190 0.000000 0.015750 
#    y 0.000000 1.748900 0.000000 
#    z 0.015750 0.000000 1.748960 
# 
# From -- ./inp_files/87553.got.cif
#   From: 2010.06.25/outbox.cif.g09.slc.cpg/sg13_44_cif.got.tgz:87553.got - 2010.06.28 04:50:58.
