data_PCOD8121945
_publ_section_title
;
Structure prediction by ZEFSAII (Michael W. Deem and Ramdas Pophale) SiO2 
 PCOD8121945
Probable space group: P 2/C
;
_chemical_formula_sum "Si O2"
_cell_formula_units_Z 22
_cell_length_a 5.157673
_cell_length_b 12.390612
_cell_length_c 13.930499
_cell_angle_alpha 90.000000
_cell_angle_beta 107.258106
_cell_angle_gamma 90.000000
_cell_volume 850.171600
_symmetry_space_group_name_H-M "P 2/C"
_symmetry_group_IT_number 13
_symmetry_cell_setting 'monoclinic'
loop_
_space_group_symop_operation_xyz
x,y,z
-x,y,1/2-z
-x,-y,-z
x,-y,1/2+z
loop_
_atom_site_type_symbol
_atom_site_label
_atom_site_fract_x
_atom_site_fract_y
_atom_site_fract_z
Si Si1 0.239694 0.796079 0.398818
Si Si2 0.500000 0.693447 0.750000
Si Si3 0.003229 0.420472 0.589547
Si Si4 0.500000 0.319320 0.750000
Si Si5 0.453004 0.122851 0.389272
Si Si6 0.000000 0.439041 0.250000
Si Si7 0.939888 0.998042 0.383038
O O1 0.349539 0.759519 0.308331
O O2 0.453401 0.864130 0.488267
O O3 0.143574 0.692419 0.450278
O O4 0.982095 0.875497 0.350070
O O5 0.530756 0.760045 0.655607
O O6 0.222416 0.626064 0.713405
O O7 0.300728 0.395125 0.665920
O O8 0.842114 0.484526 0.655936
O O9 0.000000 0.500000 0.500000
O O10 0.148847 0.077109 0.350183
O O11 0.635175 0.043582 0.341786
O O12 0.000000 0.000000 0.500000
#
# Coordination Sequence:
#
# PCOD8121945 Si02
#       7
#     4   2   4   2   4   2   4
#     4  11  25  45  75 105 153 194 252 323 389 465
#     4  12  27  47  72 106 146 200 261 315 382 470
#     4  12  28  49  75 110 154 208 261 330 392 466
#     4  12  27  47  74 116 152 202 271 313 408 458
#     4  11  25  47  74 111 148 205 254 316 391 464
#     4  12  26  50  70 110 148 196 268 316 380 470
#     4  10  23  45  74 110 152 199 254 315 388 473
#
# _framework density 25.877127000000002
#
# number of rings (size 3 to 8) (size 9 to 14) (size 15 to 20)
#    0.000    0.727    1.818    4.909   10.182    1.455 
#    3.273    0.000    0.000    0.000    0.000    0.000 
#    0.000    0.000    0.000    0.000    0.000    0.000 
#
# Total GULP energy -272696.408049 kJ/mol
# GULP energy per Si atom -12395.291275 kJ/mol
# Density = 2.581823 g / cm^3
# Si number density = 25.877127 Si / 1000 Ang^3
#
#
#
# Elastic Constant Matrix: (Units=GPa)
#
#
# Indices 1 2 3 4 5 6 
#
# 1 115.4084 43.4258 40.6695 0.0000 -22.4238 0.0000
# 2 43.4258 163.4025 53.6777 0.0000 -20.3873 0.0000
# 3 40.6695 53.6777 112.2961 0.0000 -10.4927 0.0000
# 4 0.0000 0.0000 0.0000 35.8110 0.0000 -17.1071
# 5 -22.4238 -20.3873 -10.4927 0.0000 32.3616 0.0000
# 6 0.0000 0.0000 0.0000 -17.1071 0.0000 29.0447
#
#
#
# Elastic Compliance Matrix: (Units=1/GPa)
#
#
# Indices 1 2 3 4 5 6 
#
# 1 0.011373 -0.001298 -0.002927 0.000000 0.006113 0.000000
# 2 -0.001298 0.007828 -0.002985 0.000000 0.003064 0.000000
# 3 -0.002927 -0.002985 0.011371 0.000000 -0.000222 0.000000
# 4 0.000000 0.000000 0.000000 0.038858 0.000000 0.022887
# 5 0.006113 0.003064 -0.000222 0.000000 0.036995 0.000000
# 6 0.000000 0.000000 0.000000 0.022887 0.000000 0.047910
#
#
# Mechanical properties :
#
#
# Convention : Reuss Voigt Hill
#
# Bulk Modulus (GPa) = 61.91592 74.07255 67.99424
# Shear Modulus (GPa) = 28.71270 36.33239 32.52254
#
# Velocity S-wave (km/s) = 3.33465 3.75111 3.54899
# Velocity P-wave (km/s) = 6.22939 6.88825 6.56709
#
# Compressibility (1/GPa) = 0.01615093
#
# Stress axis : x y z
#
# Youngs Moduli (GPa) = 87.93026 127.74998 87.94052
#
# Poissons Ratio (x) = 0.16583 0.25740
# Poissons Ratio (y) = 0.11414 0.26253
# Poissons Ratio (z) = 0.25737 0.38137
#
# Static dielectric constant tensor:
#      x y z
#    x 3.895470 0.000000 -0.754110 
#    y 0.000000 5.529360 0.000000 
#    z -0.754110 0.000000 4.506160 
# 
# 
# High freq. dielectric constant tensor:
#      x y z
#    x 2.027620 0.000000 -0.014300 
#    y 0.000000 2.055990 0.000000 
#    z -0.014300 0.000000 2.042450 
# 
# From -- ./inp_files/43783.got.cif
#   From: 2010.06.25/outbox.cif.g09.slc.cpg/sg13_22_cif.got.tgz:43783.got - 2010.06.28 04:50:58.
