data_PCOD8121123
_publ_section_title
;
Structure prediction by ZEFSAII (Michael W. Deem and Ramdas Pophale) SiO2 
 PCOD8121123
Probable space group: P 2/C
;
_chemical_formula_sum "Si O2"
_cell_formula_units_Z 24
_cell_length_a 14.659626
_cell_length_b 8.365344
_cell_length_c 9.682837
_cell_angle_alpha 90.000000
_cell_angle_beta 107.937302
_cell_angle_gamma 90.000000
_cell_volume 1129.717276
_symmetry_space_group_name_H-M "P 2/C"
_symmetry_group_IT_number 13
_symmetry_cell_setting 'monoclinic'
loop_
_space_group_symop_operation_xyz
x,y,z
-x,y,1/2-z
-x,-y,-z
x,-y,1/2+z
loop_
_atom_site_type_symbol
_atom_site_label
_atom_site_fract_x
_atom_site_fract_y
_atom_site_fract_z
Si Si1 0.494355 0.842678 0.907570
Si Si2 0.714347 0.822832 0.635072
Si Si3 0.209327 0.684048 0.104282
Si Si4 0.177677 0.682138 0.566135
Si Si5 0.987754 0.842069 0.405986
Si Si6 0.691182 0.801872 0.101630
O O1 0.500000 0.889159 0.750000
O O2 0.393575 0.753275 0.891214
O O3 0.587869 0.741333 0.995917
O O4 0.500000 0.000000 0.000000
O O5 0.768348 0.721964 0.543790
O O6 0.776395 0.804500 0.802518
O O7 0.707204 0.008610 0.592064
O O8 0.194011 0.497531 0.122748
O O9 0.116599 0.775381 0.114012
O O10 0.299909 0.747125 0.235365
O O11 0.226687 0.709725 0.442061
O O12 0.064921 0.712923 0.495105
O O13 0.000000 0.881793 0.250000
O O14 0.000000 0.000000 0.500000
#
# Coordination Sequence:
#
# PCOD8121123 Si02
#       6
#     4   4   4   4   4   4
#     4  10  22  39  67 101 133 175 229 283 327 384
#     4  11  24  42  72  98 133 178 230 279 326 394
#     4  12  27  44  67 102 135 179 218 276 346 395
#     4  12  25  46  68  98 141 174 218 279 340 402
#     4  12  27  47  72 101 131 174 228 276 325 402
#     4  11  22  44  69  97 135 175 231 276 325 397
#
# _framework density 21.244253
#
# number of rings (size 3 to 8) (size 9 to 14) (size 15 to 20)
#    0.000    0.667    3.333    4.500    9.333    0.000 
#    0.000    5.000    0.000    0.000    0.000    0.000 
#    0.000    0.000    0.000    0.000    0.000    0.000 
#
# Total GULP energy -297672.058722 kJ/mol
# GULP energy per Si atom -12403.002447 kJ/mol
# Density = 2.119590 g / cm^3
# Si number density = 21.244253 Si / 1000 Ang^3
#
#
#
# Elastic Constant Matrix: (Units=GPa)
#
#
# Indices 1 2 3 4 5 6 
#
# 1 117.4838 29.7873 52.5999 0.0000 2.4203 0.0000
# 2 29.7873 89.2064 27.5402 0.0000 2.7359 0.0000
# 3 52.5999 27.5402 123.0040 0.0000 9.5799 0.0000
# 4 0.0000 0.0000 0.0000 29.2980 0.0000 1.8046
# 5 2.4203 2.7359 9.5799 0.0000 43.6886 0.0000
# 6 0.0000 0.0000 0.0000 1.8046 0.0000 8.9167
#
#
#
# Elastic Compliance Matrix: (Units=1/GPa)
#
#
# Indices 1 2 3 4 5 6 
#
# 1 0.010988 -0.002386 -0.004200 0.000000 0.000462 0.000000
# 2 -0.002386 0.012562 -0.001771 0.000000 -0.000266 0.000000
# 3 -0.004200 -0.001771 0.010475 0.000000 -0.001953 0.000000
# 4 0.000000 0.000000 0.000000 0.034563 0.000000 -0.006995
# 5 0.000462 -0.000266 -0.001953 0.000000 0.023309 0.000000
# 6 0.000000 0.000000 0.000000 -0.006995 0.000000 0.113564
#
#
# Mechanical properties :
#
#
# Convention : Reuss Voigt Hill
#
# Bulk Modulus (GPa) = 57.77605 61.06100 59.41852
# Shear Modulus (GPa) = 21.93502 31.03180 26.48341
#
# Velocity S-wave (km/s) = 3.21676 3.82608 3.53457
# Velocity P-wave (km/s) = 6.40717 6.95149 6.68488
#
# Compressibility (1/GPa) = 0.01730821
#
# Stress axis : x y z
#
# Youngs Moduli (GPa) = 91.00865 79.60618 95.46775
#
# Poissons Ratio (x) = 0.18997 0.40100
# Poissons Ratio (y) = 0.21719 0.16911
# Poissons Ratio (z) = 0.38227 0.14101
#
# Static dielectric constant tensor:
#      x y z
#    x 4.926470 0.000000 0.656260 
#    y 0.000000 4.017740 0.000000 
#    z 0.656260 0.000000 4.433640 
# 
# 
# High freq. dielectric constant tensor:
#      x y z
#    x 1.849800 0.000000 0.006900 
#    y 0.000000 1.809760 0.000000 
#    z 0.006900 0.000000 1.854830 
# 
# From -- ./inp_files/18159.got.cif
#   From: 2010.06.25/outbox.cif.g09.slc.cpg/sg13_10_cif.got.tgz:18159.got - 2010.06.28 04:50:58.
