data_PCOD8121032
_publ_section_title
;
Structure prediction by ZEFSAII (Michael W. Deem and Ramdas Pophale) SiO2 
 PCOD8121032
Probable space group: P 2/C
;
_chemical_formula_sum "Si O2"
_cell_formula_units_Z 22
_cell_length_a 5.154450
_cell_length_b 10.961174
_cell_length_c 19.194749
_cell_angle_alpha 90.000000
_cell_angle_beta 68.942391
_cell_angle_gamma 90.000000
_cell_volume 1012.058705
_symmetry_space_group_name_H-M "P 2/C"
_symmetry_group_IT_number 13
_symmetry_cell_setting 'monoclinic'
loop_
_space_group_symop_operation_xyz
x,y,z
-x,y,1/2-z
-x,-y,-z
x,-y,1/2+z
loop_
_atom_site_type_symbol
_atom_site_label
_atom_site_fract_x
_atom_site_fract_y
_atom_site_fract_z
Si Si1 0.898130 0.793083 0.390372
Si Si2 0.000000 0.764270 0.750000
Si Si3 0.044332 0.931749 0.628764
Si Si4 0.532045 0.336673 0.665021
Si Si5 0.341664 0.175626 0.438231
Si Si6 0.484390 0.616900 0.668998
O O1 0.729612 0.725328 0.346238
O O2 0.700089 0.801623 0.476380
O O3 0.174166 0.719544 0.385931
O O4 0.978817 0.925069 0.352991
O O5 0.868569 0.857104 0.704850
O O6 0.181798 0.673848 0.683964
O O7 0.366086 0.892237 0.600393
O O8 0.905209 0.909882 0.566883
O O9 0.500000 0.321286 0.750000
O O10 0.523271 0.477954 0.643298
O O11 0.310498 0.302917 0.398502
O O12 0.500000 0.639139 0.750000
#
# Coordination Sequence:
#
# PCOD8121032 Si02
#       6
#     4   2   4   4   4   4
#     4  12  25  44  64 100 135 171 210 265 333 390
#     4  10  22  38  68  90 126 164 226 272 312 378
#     4  11  23  40  67  98 129 171 212 267 321 385
#     4  11  27  42  66  90 133 176 215 269 319 384
#     4  11  23  42  70  96 133 169 216 269 321 379
#     4  10  22  42  65  92 126 171 226 265 319 376
#
# _framework density 21.737869
#
# number of rings (size 3 to 8) (size 9 to 14) (size 15 to 20)
#    0.000    1.091    1.818    3.818    7.636    1.455 
#    0.000    0.000    0.000    0.000    0.000    0.000 
#    0.000    0.000    0.000    0.000    0.000    0.000 
#
# Total GULP energy -272693.073273 kJ/mol
# GULP energy per Si atom -12395.139694 kJ/mol
# Density = 2.168839 g / cm^3
# Si number density = 21.737869 Si / 1000 Ang^3
#
#
#
# Elastic Constant Matrix: (Units=GPa)
#
#
# Indices 1 2 3 4 5 6 
#
# 1 106.3058 59.1434 6.5217 0.0000 7.5597 0.0000
# 2 59.1434 188.7294 34.6306 0.0000 -1.4573 0.0000
# 3 6.5217 34.6306 51.9321 0.0000 4.3988 0.0000
# 4 0.0000 0.0000 0.0000 24.9765 0.0000 -1.2021
# 5 7.5597 -1.4573 4.3988 0.0000 33.3783 0.0000
# 6 0.0000 0.0000 0.0000 -1.2021 0.0000 26.6762
#
#
#
# Elastic Compliance Matrix: (Units=1/GPa)
#
#
# Indices 1 2 3 4 5 6 
#
# 1 0.011739 -0.003964 0.001425 0.000000 -0.003020 0.000000
# 2 -0.003964 0.007397 -0.004589 0.000000 0.001825 0.000000
# 3 0.001425 -0.004589 0.022432 0.000000 -0.003479 0.000000
# 4 0.000000 0.000000 0.000000 0.040125 0.000000 0.001808
# 5 -0.003020 0.001825 -0.003479 0.000000 0.031182 0.000000
# 6 0.000000 0.000000 0.000000 0.001808 0.000000 0.037568
#
#
# Mechanical properties :
#
#
# Convention : Reuss Voigt Hill
#
# Bulk Modulus (GPa) = 36.61459 60.83988 48.72724
# Shear Modulus (GPa) = 28.76814 33.45098 31.10956
#
# Velocity S-wave (km/s) = 3.64182 3.92705 3.78712
# Velocity P-wave (km/s) = 5.87912 6.97216 6.44884
#
# Compressibility (1/GPa) = 0.02731152
#
# Stress axis : x y z
#
# Youngs Moduli (GPa) = 85.18411 135.19172 44.57889
#
# Poissons Ratio (x) = 0.53584 -0.06351
# Poissons Ratio (y) = 0.33763 0.20459
# Poissons Ratio (z) = -0.12135 0.62046
#
# Static dielectric constant tensor:
#      x y z
#    x 3.899030 0.000000 0.037500 
#    y 0.000000 4.067660 0.000000 
#    z 0.037500 0.000000 3.888890 
# 
# 
# High freq. dielectric constant tensor:
#      x y z
#    x 1.853670 0.000000 0.008060 
#    y 0.000000 1.868250 0.000000 
#    z 0.008060 0.000000 1.851280 
# 
# From -- ./inp_files/73007.got.cif
#   From: 2010.06.25/outbox.cif.g09.slc.cpg/sg13_37_cif.got.tgz:73007.got - 2010.06.28 04:50:58.
