data_PCOD8121367
_publ_section_title
;
Structure prediction by ZEFSAII (Michael W. Deem and Ramdas Pophale) SiO2 
 PCOD8121367
Probable space group: P 2/C
;
_chemical_formula_sum "Si O2"
_cell_formula_units_Z 28
_cell_length_a 12.427723
_cell_length_b 8.021108
_cell_length_c 14.346113
_cell_angle_alpha 90.000000
_cell_angle_beta 118.865561
_cell_angle_gamma 90.000000
_cell_volume 1252.399054
_symmetry_space_group_name_H-M "P 2/C"
_symmetry_group_IT_number 13
_symmetry_cell_setting 'monoclinic'
loop_
_space_group_symop_operation_xyz
x,y,z
-x,y,1/2-z
-x,-y,-z
x,-y,1/2+z
loop_
_atom_site_type_symbol
_atom_site_label
_atom_site_fract_x
_atom_site_fract_y
_atom_site_fract_z
Si Si1 0.198804 0.477723 0.183770
Si Si2 0.349366 0.153294 0.426465
Si Si3 0.977727 0.783144 0.350108
Si Si4 0.886430 0.124855 0.268194
Si Si5 0.450703 0.057069 0.131173
Si Si6 0.643093 0.488754 0.581509
Si Si7 0.761351 0.296330 0.474161
O O1 0.145879 0.293453 0.189169
O O2 0.318952 0.531274 0.293956
O O3 0.237805 0.458645 0.092402
O O4 0.099779 0.624583 0.148075
O O5 0.227862 0.055331 0.342649
O O6 0.446477 0.163021 0.381277
O O7 0.299843 0.337316 0.428659
O O8 0.412137 0.091108 0.546736
O O9 0.104628 0.781893 0.459579
O O10 0.000000 0.763954 0.250000
O O11 0.916573 0.964248 0.346334
O O12 0.000000 0.169715 0.250000
O O13 0.500000 0.984821 0.250000
O O14 0.332059 0.164059 0.109351
O O15 0.500000 0.500000 0.500000
O O16 0.708473 0.341089 0.553624
#
# Coordination Sequence:
#
# PCOD8121367 Si02
#       7
#     4   4   4   4   4   4   4
#     4  11  25  43  67 101 136 174 224 278 332 392
#     4  10  23  42  65  96 129 172 219 274 328 400
#     4  11  22  44  70  97 135 179 222 275 330 396
#     4  10  22  41  70  97 128 178 220 265 338 395
#     4  11  22  42  66  94 132 167 218 273 333 391
#     4  11  23  44  68  93 134 179 219 272 335 403
#     4  12  25  43  67  98 133 175 222 274 337 392
#
# _framework density 22.357091
#
# number of rings (size 3 to 8) (size 9 to 14) (size 15 to 20)
#    0.000    1.143    2.857    4.286    2.000    0.571 
#    7.714    0.000    0.000    0.000    0.000    0.000 
#    0.000    0.000    0.000    0.000    0.000    0.000 
#
# Total GULP energy -347042.561112 kJ/mol
# GULP energy per Si atom -12394.377183 kJ/mol
# Density = 2.230621 g / cm^3
# Si number density = 22.357091 Si / 1000 Ang^3
#
#
#
# Elastic Constant Matrix: (Units=GPa)
#
#
# Indices 1 2 3 4 5 6 
#
# 1 80.9942 18.6877 54.2497 0.0000 26.9099 0.0000
# 2 18.6877 77.3650 17.1985 0.0000 10.4583 0.0000
# 3 54.2497 17.1985 137.3161 0.0000 23.3774 0.0000
# 4 0.0000 0.0000 0.0000 27.0298 0.0000 3.7919
# 5 26.9099 10.4583 23.3774 0.0000 46.0920 0.0000
# 6 0.0000 0.0000 0.0000 3.7919 0.0000 29.5043
#
#
#
# Elastic Compliance Matrix: (Units=1/GPa)
#
#
# Indices 1 2 3 4 5 6 
#
# 1 0.019565 -0.002313 -0.006112 0.000000 -0.007798 0.000000
# 2 -0.002313 0.013812 -0.000561 0.000000 -0.001499 0.000000
# 3 -0.006112 -0.000561 0.010002 0.000000 -0.001377 0.000000
# 4 0.000000 0.000000 0.000000 0.037676 0.000000 -0.004842
# 5 -0.007798 -0.001499 -0.001377 0.000000 0.027287 0.000000
# 6 0.000000 0.000000 0.000000 -0.004842 0.000000 0.034516
#
#
# Mechanical properties :
#
#
# Convention : Reuss Voigt Hill
#
# Bulk Modulus (GPa) = 39.36049 52.88301 46.12175
# Shear Modulus (GPa) = 29.53369 34.22784 31.88076
#
# Velocity S-wave (km/s) = 3.63850 3.91699 3.78031
# Velocity P-wave (km/s) = 5.94097 6.64547 6.30307
#
# Compressibility (1/GPa) = 0.02540619
#
# Stress axis : x y z
#
# Youngs Moduli (GPa) = 51.11155 72.40192 99.98028
#
# Poissons Ratio (x) = 0.16747 0.61112
# Poissons Ratio (y) = 0.11823 0.05607
# Poissons Ratio (z) = 0.31241 0.04061
#
# Static dielectric constant tensor:
#      x y z
#    x 4.004720 0.000000 0.197730 
#    y 0.000000 4.088270 0.000000 
#    z 0.197730 0.000000 4.345280 
# 
# 
# High freq. dielectric constant tensor:
#      x y z
#    x 1.871450 0.000000 0.019150 
#    y 0.000000 1.877520 0.000000 
#    z 0.019150 0.000000 1.895190 
# 
# From -- ./inp_files/50421.got.cif
#   From: 2010.06.25/outbox.cif.g09.slc.cpg/sg13_26_cif.got.tgz:50421.got - 2010.06.28 04:50:58.
