data_PCOD8121597
_publ_section_title
;
Structure prediction by ZEFSAII (Michael W. Deem and Ramdas Pophale) SiO2 
 PCOD8121597
Probable space group: P 2/C
;
_chemical_formula_sum "Si O2"
_cell_formula_units_Z 20
_cell_length_a 16.572496
_cell_length_b 5.303527
_cell_length_c 27.653710
_cell_angle_alpha 90.000000
_cell_angle_beta 160.014490
_cell_angle_gamma 90.000000
_cell_volume 830.722389
_symmetry_space_group_name_H-M "P 2/C"
_symmetry_group_IT_number 13
_symmetry_cell_setting 'monoclinic'
loop_
_space_group_symop_operation_xyz
x,y,z
-x,y,1/2-z
-x,-y,-z
x,-y,1/2+z
loop_
_atom_site_type_symbol
_atom_site_label
_atom_site_fract_x
_atom_site_fract_y
_atom_site_fract_z
Si Si1 0.787306 0.950067 0.105244
Si Si2 0.530005 0.546878 0.210195
Si Si3 0.923286 0.253332 0.089164
Si Si4 0.819621 0.037333 0.355360
Si Si5 0.341585 0.690385 0.883380
O O1 0.000000 0.775437 0.250000
O O2 0.828226 0.059404 0.075345
O O3 0.787445 0.153245 0.148354
O O4 0.527450 0.834829 0.953706
O O5 0.500000 0.596619 0.250000
O O6 0.651493 0.278184 0.269920
O O7 0.673375 0.779040 0.267563
O O8 0.273097 0.549682 0.039861
O O9 0.021956 0.077587 0.102401
O O10 0.138918 0.418645 0.233548
O O11 0.000000 0.000000 0.500000
O O12 0.500000 0.500000 0.000000
#
# Coordination Sequence:
#
# PCOD8121597 Si02
#       5
#     4   4   4   4   4
#     4   9  21  44  67 100 144 191 249 310 374 451
#     4  12  27  49  76 111 152 202 255 316 387 457
#     4  11  25  45  75 106 152 203 250 321 389 457
#     4  12  27  50  76 113 154 200 260 316 381 463
#     4  10  22  44  69 105 141 190 250 309 374 456
#
# _framework density 24.075433
#
# number of rings (size 3 to 8) (size 9 to 14) (size 15 to 20)
#    0.000    1.200    2.000    2.400    2.800    2.400 
#   14.400    0.000    0.000    0.000    0.000    0.000 
#    0.000    0.000    0.000    0.000    0.000    0.000 
#
# Total GULP energy -247791.563651 kJ/mol
# GULP energy per Si atom -12389.578183 kJ/mol
# Density = 2.402064 g / cm^3
# Si number density = 24.075433 Si / 1000 Ang^3
#
#
#
# Elastic Constant Matrix: (Units=GPa)
#
#
# Indices 1 2 3 4 5 6 
#
# 1 159.0721 24.7770 62.6807 0.0000 5.9388 0.0000
# 2 24.7770 98.0469 57.6590 0.0000 -1.1246 0.0000
# 3 62.6807 57.6590 240.4900 0.0000 -22.2201 0.0000
# 4 0.0000 0.0000 0.0000 38.9776 0.0000 5.4451
# 5 5.9388 -1.1246 -22.2201 0.0000 39.9306 0.0000
# 6 0.0000 0.0000 0.0000 5.4451 0.0000 37.6069
#
#
#
# Elastic Compliance Matrix: (Units=1/GPa)
#
#
# Indices 1 2 3 4 5 6 
#
# 1 0.007233 -0.000730 -0.001910 0.000000 -0.002159 0.000000
# 2 -0.000730 0.012013 -0.002792 0.000000 -0.001107 0.000000
# 3 -0.001910 -0.002792 0.005634 0.000000 0.003341 0.000000
# 4 0.000000 0.000000 0.000000 0.026185 0.000000 -0.003791
# 5 -0.002159 -0.001107 0.003341 0.000000 0.027192 0.000000
# 6 0.000000 0.000000 0.000000 -0.003791 0.000000 0.027140
#
#
# Mechanical properties :
#
#
# Convention : Reuss Voigt Hill
#
# Bulk Modulus (GPa) = 71.34234 87.53804 79.44019
# Shear Modulus (GPa) = 41.34502 46.80249 44.07375
#
# Velocity S-wave (km/s) = 4.14854 4.41386 4.28325
# Velocity P-wave (km/s) = 7.25564 7.90032 7.58483
#
# Compressibility (1/GPa) = 0.01401692
#
# Stress axis : x y z
#
# Youngs Moduli (GPa) = 138.25045 83.24351 177.49105
#
# Poissons Ratio (x) = 0.06073 0.33898
# Poissons Ratio (y) = 0.10086 0.49561
# Poissons Ratio (z) = 0.26404 0.23244
#
# Static dielectric constant tensor:
#      x y z
#    x 4.635610 0.000000 -0.078150 
#    y 0.000000 9.134050 0.000010 
#    z -0.078150 0.000010 4.557340 
# 
# 
# High freq. dielectric constant tensor:
#      x y z
#    x 1.980100 0.000000 0.004100 
#    y 0.000000 1.922640 0.000000 
#    z 0.004100 0.000000 1.996060 
# 
# From -- ./inp_files/97205.got.cif
#   From: 2010.06.25/outbox.cif.g09.slc.cpg/sg13_49_cif.got.tgz:97205.got - 2010.06.28 04:50:58.
