data_PCOD8121172
_publ_section_title
;
Structure prediction by ZEFSAII (Michael W. Deem and Ramdas Pophale) SiO2 
 PCOD8121172
Probable space group: P 2/C
;
_chemical_formula_sum "Si O2"
_cell_formula_units_Z 28
_cell_length_a 8.646020
_cell_length_b 17.200119
_cell_length_c 19.626212
_cell_angle_alpha 90.000000
_cell_angle_beta 26.742841
_cell_angle_gamma 90.000000
_cell_volume 1313.360670
_symmetry_space_group_name_H-M "P 2/C"
_symmetry_group_IT_number 13
_symmetry_cell_setting 'monoclinic'
loop_
_space_group_symop_operation_xyz
x,y,z
-x,y,1/2-z
-x,-y,-z
x,-y,1/2+z
loop_
_atom_site_type_symbol
_atom_site_label
_atom_site_fract_x
_atom_site_fract_y
_atom_site_fract_z
Si Si1 0.401706 0.960066 0.467847
Si Si2 0.975768 0.772256 0.150397
Si Si3 0.197554 0.365574 0.103524
Si Si4 0.558305 0.208998 0.527225
Si Si5 0.190454 0.066703 0.823269
Si Si6 0.169527 0.602749 0.063553
Si Si7 0.668370 0.471364 0.256995
O O1 0.248667 0.873501 0.540829
O O2 0.726421 0.947745 0.289776
O O3 0.500000 0.000000 0.500000
O O4 0.126955 0.010935 0.534543
O O5 0.633381 0.761240 0.329696
O O6 0.908198 0.842668 0.123769
O O7 0.291893 0.801659 0.070942
O O8 0.065213 0.689822 0.079449
O O9 0.597572 0.389853 0.959006
O O10 0.000000 0.384947 0.250000
O O11 0.003969 0.414789 0.121498
O O12 0.160538 0.274657 0.100313
O O13 0.500000 0.042346 0.750000
O O14 0.377787 0.558560 0.922696
O O15 0.821087 0.555782 0.218357
O O16 0.500000 0.476850 0.250000
#
# Coordination Sequence:
#
# PCOD8121172 Si02
#       7
#     4   4   4   4   4   4   4
#     4  11  21  39  65  90 119 161 210 249 296 364
#     4   9  19  38  61  86 117 157 204 245 299 362
#     4   9  20  38  59  85 119 151 201 250 297 353
#     4   9  18  36  62  89 111 155 205 247 292 352
#     4  11  23  40  60  93 129 160 199 255 313 367
#     4  10  22  40  63  87 115 161 204 249 299 359
#     4  11  23  40  58  88 123 154 201 250 307 363
#
# _framework density 21.319354000000001
#
# number of rings (size 3 to 8) (size 9 to 14) (size 15 to 20)
#    0.000    2.000    1.429    1.714    2.000    1.714 
#   12.857    0.714    0.000    0.000    0.000    0.000 
#    0.000    0.000    0.000    0.000    0.000    0.000 
#
# Total GULP energy -347086.574555 kJ/mol
# GULP energy per Si atom -12395.949091 kJ/mol
# Density = 2.127083 g / cm^3
# Si number density = 21.319354 Si / 1000 Ang^3
#
#
#
# Elastic Constant Matrix: (Units=GPa)
#
#
# Indices 1 2 3 4 5 6 
#
# 1 67.1645 45.0045 19.2560 0.0000 -17.6794 0.0000
# 2 45.0045 174.2229 52.7523 0.0000 -14.9630 0.0000
# 3 19.2560 52.7523 53.0752 0.0000 -8.7308 0.0000
# 4 0.0000 0.0000 0.0000 41.3723 0.0000 -5.2589
# 5 -17.6794 -14.9630 -8.7308 0.0000 26.6484 0.0000
# 6 0.0000 0.0000 0.0000 -5.2589 0.0000 21.0078
#
#
#
# Elastic Compliance Matrix: (Units=1/GPa)
#
#
# Indices 1 2 3 4 5 6 
#
# 1 0.020961 -0.003879 -0.001924 0.000000 0.011098 0.000000
# 2 -0.003879 0.009036 -0.007570 0.000000 0.000020 0.000000
# 3 -0.001924 -0.007570 0.027644 0.000000 0.003530 0.000000
# 4 0.000000 0.000000 0.000000 0.024965 0.000000 0.006250
# 5 0.011098 0.000020 0.003530 0.000000 0.046056 0.000000
# 6 0.000000 0.000000 0.000000 0.006250 0.000000 0.049166
#
#
# Mechanical properties :
#
#
# Convention : Reuss Voigt Hill
#
# Bulk Modulus (GPa) = 32.36807 58.72091 45.54449
# Shear Modulus (GPa) = 23.26978 29.63567 26.45273
#
# Velocity S-wave (km/s) = 3.30735 3.73243 3.52630
# Velocity P-wave (km/s) = 5.45895 6.79544 6.16353
#
# Compressibility (1/GPa) = 0.03089464
#
# Stress axis : x y z
#
# Youngs Moduli (GPa) = 47.70845 110.67387 36.17435
#
# Poissons Ratio (x) = 0.42928 0.06959
# Poissons Ratio (y) = 0.18505 0.27384
# Poissons Ratio (z) = 0.09178 0.83781
#
# Static dielectric constant tensor:
#      x y z
#    x 3.621580 0.000000 -0.203550 
#    y 0.000000 4.129150 0.000000 
#    z -0.203550 0.000000 3.763970 
# 
# 
# High freq. dielectric constant tensor:
#      x y z
#    x 1.810500 0.000000 -0.010550 
#    y 0.000000 1.854760 0.000000 
#    z -0.010550 0.000000 1.818560 
# 
# From -- ./inp_files/76684.got.cif
#   From: 2010.06.25/outbox.cif.g09.slc.cpg/sg13_39_cif.got.tgz:76684.got - 2010.06.28 04:50:58.
