data_PCOD8121875
_publ_section_title
;
Structure prediction by ZEFSAII (Michael W. Deem and Ramdas Pophale) SiO2 
 PCOD8121875
Probable space group: P 2/C
;
_chemical_formula_sum "Si O2"
_cell_formula_units_Z 28
_cell_length_a 10.829602
_cell_length_b 9.140689
_cell_length_c 15.477005
_cell_angle_alpha 90.000000
_cell_angle_beta 122.250877
_cell_angle_gamma 90.000000
_cell_volume 1295.700944
_symmetry_space_group_name_H-M "P 2/C"
_symmetry_group_IT_number 13
_symmetry_cell_setting 'monoclinic'
loop_
_space_group_symop_operation_xyz
x,y,z
-x,y,1/2-z
-x,-y,-z
x,-y,1/2+z
loop_
_atom_site_type_symbol
_atom_site_label
_atom_site_fract_x
_atom_site_fract_y
_atom_site_fract_z
Si Si1 0.935028 0.354516 0.516154
Si Si2 0.162849 0.452329 0.842116
Si Si3 0.438649 0.084519 0.364695
Si Si4 0.280826 0.865651 0.634181
Si Si5 0.211788 0.185781 0.600516
Si Si6 0.376160 0.748068 0.322659
Si Si7 0.656807 0.288485 0.020206
O O1 0.841793 0.384905 0.565390
O O2 0.822547 0.275222 0.410341
O O3 0.000000 0.500000 0.500000
O O4 0.067869 0.250289 0.589736
O O5 0.231077 0.329499 0.805411
O O6 0.270999 0.591044 0.890521
O O7 0.000000 0.498436 0.750000
O O8 0.608147 0.113262 0.404935
O O9 0.354191 0.157688 0.253885
O O10 0.395978 0.157461 0.438726
O O11 0.400406 0.914339 0.363099
O O12 0.187103 0.013401 0.599856
O O13 0.352996 0.241721 0.709506
O O14 0.224877 0.233165 0.505439
O O15 0.516965 0.656842 0.410326
#
# Coordination Sequence:
#
# PCOD8121875 Si02
#       7
#     4   4   4   4   4   4   4
#     4  12  25  45  65  94 136 185 220 270 342 415
#     4  12  27  45  66  97 142 183 234 279 343 413
#     4  10  23  43  72 102 134 166 234 294 338 400
#     4  10  23  44  69 100 132 178 222 284 345 406
#     4  11  23  43  68  99 136 174 227 282 344 403
#     4  11  23  45  71 100 133 179 232 288 344 410
#     4  12  24  41  71 102 133 180 225 290 342 413
#
# _framework density 21.609923999999999
#
# number of rings (size 3 to 8) (size 9 to 14) (size 15 to 20)
#    0.000    0.857    4.286    2.571    4.000    0.000 
#    0.000    2.143    0.000    0.000    0.000    0.000 
#    0.000    0.000    0.000    0.000    0.000    0.000 
#
# Total GULP energy -347083.108917 kJ/mol
# GULP energy per Si atom -12395.825318 kJ/mol
# Density = 2.156074 g / cm^3
# Si number density = 21.609924 Si / 1000 Ang^3
#
#
#
# Elastic Constant Matrix: (Units=GPa)
#
#
# Indices 1 2 3 4 5 6 
#
# 1 61.9542 45.2489 26.6432 0.0000 5.4661 0.0000
# 2 45.2489 112.1755 48.4959 0.0000 12.6700 0.0000
# 3 26.6432 48.4959 104.1384 0.0000 9.0442 0.0000
# 4 0.0000 0.0000 0.0000 35.6169 0.0000 5.3233
# 5 5.4661 12.6700 9.0442 0.0000 45.8208 0.0000
# 6 0.0000 0.0000 0.0000 5.3233 0.0000 37.2964
#
#
#
# Elastic Compliance Matrix: (Units=1/GPa)
#
#
# Indices 1 2 3 4 5 6 
#
# 1 0.023202 -0.008503 -0.001974 0.000000 -0.000027 0.000000
# 2 -0.008503 0.014479 -0.004383 0.000000 -0.002124 0.000000
# 3 -0.001974 -0.004383 0.012233 0.000000 -0.000967 0.000000
# 4 0.000000 0.000000 0.000000 0.028689 0.000000 -0.004095
# 5 -0.000027 -0.002124 -0.000967 0.000000 0.022606 0.000000
# 6 0.000000 0.000000 0.000000 -0.004095 0.000000 0.027397
#
#
# Mechanical properties :
#
#
# Convention : Reuss Voigt Hill
#
# Bulk Modulus (GPa) = 49.51819 57.67156 53.59488
# Shear Modulus (GPa) = 30.29266 34.27216 32.28241
#
# Velocity S-wave (km/s) = 3.74812 3.98671 3.86925
# Velocity P-wave (km/s) = 6.45720 6.92368 6.69450
#
# Compressibility (1/GPa) = 0.02019460
#
# Stress axis : x y z
#
# Youngs Moduli (GPa) = 43.09894 69.06484 81.74780
#
# Poissons Ratio (x) = 0.58724 0.16139
# Poissons Ratio (y) = 0.36646 0.35829
# Poissons Ratio (z) = 0.08509 0.30270
#
# Static dielectric constant tensor:
#      x y z
#    x 4.003190 0.000000 -0.115540 
#    y 0.000000 3.626120 0.000000 
#    z -0.115540 0.000000 4.329100 
# 
# 
# High freq. dielectric constant tensor:
#      x y z
#    x 1.849930 0.000000 0.000090 
#    y 0.000000 1.840270 0.000000 
#    z 0.000090 0.000000 1.862810 
# 
# From -- ./inp_files/50447.got.cif
#   From: 2010.06.25/outbox.cif.g09.slc.cpg/sg13_26_cif.got.tgz:50447.got - 2010.06.28 04:50:58.
