data_PCOD8121173
_publ_section_title
;
Structure prediction by ZEFSAII (Michael W. Deem and Ramdas Pophale) SiO2 
 PCOD8121173
Probable space group: P 2/C
;
_chemical_formula_sum "Si O2"
_cell_formula_units_Z 26
_cell_length_a 15.425623
_cell_length_b 11.616804
_cell_length_c 24.871560
_cell_angle_alpha 90.000000
_cell_angle_beta 18.637193
_cell_angle_gamma 90.000000
_cell_volume 1424.309882
_symmetry_space_group_name_H-M "P 2/C"
_symmetry_group_IT_number 13
_symmetry_cell_setting 'monoclinic'
loop_
_space_group_symop_operation_xyz
x,y,z
-x,y,1/2-z
-x,-y,-z
x,-y,1/2+z
loop_
_atom_site_type_symbol
_atom_site_label
_atom_site_fract_x
_atom_site_fract_y
_atom_site_fract_z
Si Si1 0.432130 0.825485 0.162044
Si Si2 0.206424 0.098773 0.899911
Si Si3 0.993221 0.793307 0.876454
Si Si4 0.699034 0.661064 0.353408
Si Si5 0.000000 0.163304 0.750000
Si Si6 0.525202 0.954630 0.926111
Si Si7 0.860054 0.414584 0.274336
O O1 0.268672 0.815359 0.313826
O O2 0.381499 0.709708 0.157806
O O3 0.343106 0.944795 0.186824
O O4 0.750731 0.845217 0.983920
O O5 0.500000 0.049657 0.750000
O O6 0.058618 0.180618 0.030209
O O7 0.000000 0.000000 0.000000
O O8 0.274535 0.847208 0.692402
O O9 0.004415 0.658235 0.853840
O O10 0.867231 0.760841 0.282104
O O11 0.879832 0.545974 0.241924
O O12 0.446360 0.628634 0.539133
O O13 0.223364 0.086711 0.587054
O O14 0.500000 0.000000 0.000000
O O15 0.000000 0.399115 0.250000
#
# Coordination Sequence:
#
# PCOD8121173 Si02
#       7
#     4   4   4   4   2   4   4
#     4  11  22  39  60  86 119 159 197 243 297 363
#     4  10  22  40  63  87 119 164 206 245 298 357
#     4  11  22  39  59  85 116 159 200 243 293 356
#     4  11  23  36  58  88 117 155 196 245 301 359
#     4  12  22  34  50  94 122 152 192 238 300 374
#     4  12  22  33  55  87 122 148 187 238 306 356
#     4  11  21  39  61  83 117 157 199 243 303 356
#
# _framework density 18.254453999999999
#
# number of rings (size 3 to 8) (size 9 to 14) (size 15 to 20)
#    0.000    0.923    6.923    0.923    0.000    0.000 
#    0.000    0.769    0.000    0.000    0.000    0.000 
#    0.000    0.000    0.000    0.000    0.000    0.000 
#
# Total GULP energy -322263.411552 kJ/mol
# GULP energy per Si atom -12394.746598 kJ/mol
# Density = 1.821291 g / cm^3
# Si number density = 18.254454 Si / 1000 Ang^3
#
#
#
# Elastic Constant Matrix: (Units=GPa)
#
#
# Indices 1 2 3 4 5 6 
#
# 1 96.7664 43.0906 37.7086 0.0000 13.1520 0.0000
# 2 43.0906 104.6715 32.9295 0.0000 13.8941 0.0000
# 3 37.7086 32.9295 86.1481 0.0000 3.5808 0.0000
# 4 0.0000 0.0000 0.0000 23.2193 0.0000 -8.6334
# 5 13.1520 13.8941 3.5808 0.0000 28.9756 0.0000
# 6 0.0000 0.0000 0.0000 -8.6334 0.0000 29.6149
#
#
#
# Elastic Compliance Matrix: (Units=1/GPa)
#
#
# Indices 1 2 3 4 5 6 
#
# 1 0.014461 -0.003946 -0.004651 0.000000 -0.004097 0.000000
# 2 -0.003946 0.012619 -0.002934 0.000000 -0.003897 0.000000
# 3 -0.004651 -0.002934 0.014695 0.000000 0.001702 0.000000
# 4 0.000000 0.000000 0.000000 0.048303 0.000000 0.014082
# 5 -0.004097 -0.003897 0.001702 0.000000 0.038030 0.000000
# 6 0.000000 0.000000 0.000000 0.014082 0.000000 0.037872
#
#
# Mechanical properties :
#
#
# Convention : Reuss Voigt Hill
#
# Bulk Modulus (GPa) = 53.44361 57.22704 55.33532
# Shear Modulus (GPa) = 25.60450 27.95244 26.77847
#
# Velocity S-wave (km/s) = 3.74925 3.91739 3.83424
# Velocity P-wave (km/s) = 6.93420 7.20270 7.06972
#
# Compressibility (1/GPa) = 0.01871131
#
# Stress axis : x y z
#
# Youngs Moduli (GPa) = 69.15326 79.24832 68.05246
#
# Poissons Ratio (x) = 0.31272 0.31651
# Poissons Ratio (y) = 0.27288 0.19967
# Poissons Ratio (z) = 0.32163 0.23252
#
# Static dielectric constant tensor:
#      x y z
#    x 3.434730 0.000000 -0.240120 
#    y 0.000000 2.625420 0.000000 
#    z -0.240120 0.000000 3.292960 
# 
# 
# High freq. dielectric constant tensor:
#      x y z
#    x 1.707630 0.000000 -0.014160 
#    y 0.000000 1.701830 0.000000 
#    z -0.014160 0.000000 1.707650 
# 
# From -- ./inp_files/32892.got.cif
#   From: 2010.06.25/outbox.cif.g09.slc.cpg/sg13_17_cif.got.tgz:32892.got - 2010.06.28 04:50:58.
