data_PCOD8121616
_publ_section_title
;
Structure prediction by ZEFSAII (Michael W. Deem and Ramdas Pophale) SiO2 
 PCOD8121616
Probable space group: P 2/C
;
_chemical_formula_sum "Si O2"
_cell_formula_units_Z 26
_cell_length_a 8.943544
_cell_length_b 14.755811
_cell_length_c 14.449616
_cell_angle_alpha 90.000000
_cell_angle_beta 37.650604
_cell_angle_gamma 90.000000
_cell_volume 1164.822724
_symmetry_space_group_name_H-M "P 2/C"
_symmetry_group_IT_number 13
_symmetry_cell_setting 'monoclinic'
loop_
_space_group_symop_operation_xyz
x,y,z
-x,y,1/2-z
-x,-y,-z
x,-y,1/2+z
loop_
_atom_site_type_symbol
_atom_site_label
_atom_site_fract_x
_atom_site_fract_y
_atom_site_fract_z
Si Si1 0.248535 0.871323 0.743215
Si Si2 0.864756 0.445473 0.472990
Si Si3 0.500000 0.006616 0.750000
Si Si4 0.503887 0.326820 0.934100
Si Si5 0.000000 0.586055 0.250000
Si Si6 0.701476 0.674960 0.774785
Si Si7 0.319323 0.135750 0.000299
Si Si8 0.500000 0.459007 0.250000
O O1 0.366480 0.777136 0.721713
O O2 0.359708 0.899283 0.587251
O O3 0.294135 0.945741 0.800098
O O4 0.965638 0.845945 0.872660
O O5 0.588293 0.407293 0.586584
O O6 0.952548 0.520944 0.359150
O O7 0.771501 0.491066 0.616460
O O8 0.040467 0.358901 0.394775
O O9 0.387814 0.063221 0.888847
O O10 0.483713 0.225722 0.900416
O O11 0.776049 0.346526 0.836736
O O12 0.296483 0.328810 0.115792
O O13 0.490603 0.606214 0.844116
#
# Coordination Sequence:
#
# PCOD8121616 Si02
#       8
#     4   4   2   4   2   4   4   2
#     4  10  22  44  72  95 132 179 222 268 344 418
#     4  12  22  40  65  90 131 177 225 265 322 384
#     4  12  23  43  70 110 128 160 226 289 339 408
#     4  11  22  42  65  92 130 175 229 262 329 394
#     4  12  22  38  66  96 126 182 222 272 310 386
#     4  11  21  41  63  91 127 182 218 267 324 394
#     4  10  23  44  70  97 134 178 213 274 349 409
#     4  12  25  35  54 102 134 168 224 277 319 374
#
# _framework density 22.320993000000001
#
# number of rings (size 3 to 8) (size 9 to 14) (size 15 to 20)
#    0.000    0.923    4.615    3.231    0.000    0.615 
#    2.769    4.615    0.000    0.000    0.000    0.000 
#    0.000    0.000    0.000    0.000    0.000    0.000 
#
# Total GULP energy -322134.870069 kJ/mol
# GULP energy per Si atom -12389.802695 kJ/mol
# Density = 2.227019 g / cm^3
# Si number density = 22.320993 Si / 1000 Ang^3
#
#
#
# Elastic Constant Matrix: (Units=GPa)
#
#
# Indices 1 2 3 4 5 6 
#
# 1 76.1396 47.8626 24.8768 0.0000 5.8239 0.0000
# 2 47.8626 133.5516 57.5562 0.0000 14.3784 0.0000
# 3 24.8768 57.5562 100.1612 0.0000 7.0322 0.0000
# 4 0.0000 0.0000 0.0000 -50.7926 0.0000 -75.9030
# 5 5.8239 14.3784 7.0322 0.0000 34.9020 0.0000
# 6 0.0000 0.0000 0.0000 -75.9030 0.0000 -32.7223
#
#
#
# Elastic Compliance Matrix: (Units=1/GPa)
#
#
# Indices 1 2 3 4 5 6 
#
# 1 0.017026 -0.005655 -0.000957 0.000000 -0.000319 0.000000
# 2 -0.005655 0.012148 -0.005367 0.000000 -0.002980 0.000000
# 3 -0.000957 -0.005367 0.013328 0.000000 -0.000315 0.000000
# 4 0.000000 0.000000 0.000000 0.007983 0.000000 -0.018516
# 5 -0.000319 -0.002980 -0.000315 0.000000 0.029996 0.000000
# 6 0.000000 0.000000 0.000000 -0.018516 0.000000 0.012391
#
#
# Mechanical properties :
#
#
# Convention : Reuss Voigt Hill
#
# Bulk Modulus (GPa) = 53.92602 63.38264 58.65433
# Shear Modulus (GPa) = 40.64727 2.24789 21.44758
#
# Velocity S-wave (km/s) = 4.27199 1.00462 3.10315
# Velocity P-wave (km/s) = 6.96742 5.45924 6.25892
#
# Compressibility (1/GPa) = 0.01854393
#
# Stress axis : x y z
#
# Youngs Moduli (GPa) = 58.73515 82.31624 75.03169
#
# Poissons Ratio (x) = 0.46551 0.07178
# Poissons Ratio (y) = 0.33215 0.40270
# Poissons Ratio (z) = 0.05619 0.44180
#
# Static dielectric constant tensor:
#      x y z
#    x 4.199980 0.000000 0.039010 
#    y 0.000000 4.120660 0.000000 
#    z 0.039010 0.000000 3.891310 
# 
# 
# High freq. dielectric constant tensor:
#      x y z
#    x 1.887830 0.000000 0.002020 
#    y 0.000000 1.881360 0.000000 
#    z 0.002020 0.000000 1.873700 
# 
# From -- ./inp_files/47914.got.cif
#   From: 2010.06.25/outbox.cif.g09.slc.cpg/sg13_24_cif.got.tgz:47914.got - 2010.06.28 04:50:58.
