data_PCOD8121535
_publ_section_title
;
Structure prediction by ZEFSAII (Michael W. Deem and Ramdas Pophale) SiO2 
 PCOD8121535
Probable space group: P 2/C
;
_chemical_formula_sum "Si O2"
_cell_formula_units_Z 24
_cell_length_a 19.758456
_cell_length_b 6.439141
_cell_length_c 19.084069
_cell_angle_alpha 90.000000
_cell_angle_beta 153.213606
_cell_angle_gamma 90.000000
_cell_volume 1094.224145
_symmetry_space_group_name_H-M "P 2/C"
_symmetry_group_IT_number 13
_symmetry_cell_setting 'monoclinic'
loop_
_space_group_symop_operation_xyz
x,y,z
-x,y,1/2-z
-x,-y,-z
x,-y,1/2+z
loop_
_atom_site_type_symbol
_atom_site_label
_atom_site_fract_x
_atom_site_fract_y
_atom_site_fract_z
Si Si1 0.996587 0.371543 0.426512
Si Si2 0.279814 0.127999 0.655956
Si Si3 0.396103 0.723344 0.027190
Si Si4 0.827524 0.011486 0.088670
Si Si5 0.781318 0.338063 0.652834
Si Si6 0.249488 0.040922 0.276695
O O1 0.920024 0.507179 0.294917
O O2 0.909092 0.155316 0.357704
O O3 0.000000 0.500000 0.500000
O O4 0.164640 0.317636 0.558851
O O5 0.232000 0.989121 0.545466
O O6 0.284866 0.975148 0.727264
O O7 0.440741 0.232587 0.790856
O O8 0.269092 0.818163 0.959951
O O9 0.369437 0.475933 0.996443
O O10 0.381424 0.827496 0.936308
O O11 0.000000 0.085596 0.250000
O O12 0.811903 0.787480 0.110277
O O13 0.760250 0.188995 0.700045
#
# Coordination Sequence:
#
# PCOD8121535 Si02
#       6
#     4   4   4   4   4   4
#     4  11  23  41  69 104 135 173 233 280 331 410
#     4  12  23  43  71 100 139 176 225 286 338 409
#     4  10  24  46  65 101 139 172 225 283 345 404
#     4  11  25  45  68  92 134 182 229 279 336 413
#     4  10  22  45  67  95 137 177 221 278 342 404
#     4  10  22  43  70  98 135 176 226 276 337 405
#
# _framework density 21.933347999999999
#
# number of rings (size 3 to 8) (size 9 to 14) (size 15 to 20)
#    0.000    1.333    1.667    4.500    2.333    2.667 
#    6.000    5.000    0.000    0.000    0.000    0.000 
#    0.000    0.000    0.000    0.000    0.000    0.000 
#
# Total GULP energy -297706.327170 kJ/mol
# GULP energy per Si atom -12404.430299 kJ/mol
# Density = 2.188343 g / cm^3
# Si number density = 21.933348 Si / 1000 Ang^3
#
#
#
# Elastic Constant Matrix: (Units=GPa)
#
#
# Indices 1 2 3 4 5 6 
#
# 1 130.2122 60.0100 68.9467 0.0000 -24.9418 0.0000
# 2 60.0100 130.8302 57.4659 0.0000 0.4548 0.0000
# 3 68.9467 57.4659 161.7582 0.0000 4.4456 0.0000
# 4 0.0000 0.0000 0.0000 22.7735 0.0000 -9.8396
# 5 -24.9418 0.4548 4.4456 0.0000 46.0892 0.0000
# 6 0.0000 0.0000 0.0000 -9.8396 0.0000 31.5452
#
#
#
# Elastic Compliance Matrix: (Units=1/GPa)
#
#
# Indices 1 2 3 4 5 6 
#
# 1 0.013486 -0.004259 -0.004449 0.000000 0.007770 0.000000
# 2 -0.004259 0.010404 -0.001819 0.000000 -0.002232 0.000000
# 3 -0.004449 -0.001819 0.008814 0.000000 -0.003240 0.000000
# 4 0.000000 0.000000 0.000000 0.050750 0.000000 0.015830
# 5 0.007770 -0.002232 -0.003240 0.000000 0.026236 0.000000
# 6 0.000000 0.000000 0.000000 0.015830 0.000000 0.036638
#
#
# Mechanical properties :
#
#
# Convention : Reuss Voigt Hill
#
# Bulk Modulus (GPa) = 85.83975 88.40509 87.12242
# Shear Modulus (GPa) = 29.19425 35.84012 32.51719
#
# Velocity S-wave (km/s) = 3.65231 4.04672 3.85456
# Velocity P-wave (km/s) = 7.55032 7.88849 7.72126
#
# Compressibility (1/GPa) = 0.01164961
#
# Stress axis : x y z
#
# Youngs Moduli (GPa) = 74.14846 96.11742 113.45918
#
# Poissons Ratio (x) = 0.40936 0.50477
# Poissons Ratio (y) = 0.31579 0.20643
# Poissons Ratio (z) = 0.32988 0.17488
#
# Static dielectric constant tensor:
#      x y z
#    x 3.927510 0.000000 -0.155440 
#    y 0.000000 3.902010 0.000000 
#    z -0.155440 0.000000 4.263940 
# 
# 
# High freq. dielectric constant tensor:
#      x y z
#    x 1.857820 0.000000 -0.011230 
#    y 0.000000 1.858860 0.000000 
#    z -0.011230 0.000000 1.874850 
# 
# From -- ./inp_files/81406.got.cif
#   From: 2010.06.25/outbox.cif.g09.slc.cpg/sg13_41_cif.got.tgz:81406.got - 2010.06.28 04:50:58.
