data_PCOD8121719
_publ_section_title
;
Structure prediction by ZEFSAII (Michael W. Deem and Ramdas Pophale) SiO2 
 PCOD8121719
Probable space group: P 2/C
;
_chemical_formula_sum "Si O2"
_cell_formula_units_Z 18
_cell_length_a 13.742322
_cell_length_b 11.826159
_cell_length_c 10.335390
_cell_angle_alpha 90.000000
_cell_angle_beta 149.698866
_cell_angle_gamma 90.000000
_cell_volume 847.481764
_symmetry_space_group_name_H-M "P 2/C"
_symmetry_group_IT_number 13
_symmetry_cell_setting 'monoclinic'
loop_
_space_group_symop_operation_xyz
x,y,z
-x,y,1/2-z
-x,-y,-z
x,-y,1/2+z
loop_
_atom_site_type_symbol
_atom_site_label
_atom_site_fract_x
_atom_site_fract_y
_atom_site_fract_z
Si Si1 0.167071 0.280452 0.186344
Si Si2 0.940738 0.085451 0.044310
Si Si3 0.574841 0.213069 0.693349
Si Si4 0.000000 0.374998 0.750000
Si Si5 0.290954 0.563022 0.039375
O O1 0.378840 0.233151 0.384500
O O2 0.190280 0.397924 0.290179
O O3 0.069713 0.196078 0.176050
O O4 0.020425 0.294389 0.897884
O O5 0.000000 0.030662 0.250000
O O6 0.711893 0.118896 0.783379
O O7 0.000000 0.000000 0.000000
O O8 0.500000 0.175657 0.750000
O O9 0.694386 0.331033 0.844198
O O10 0.815670 0.455234 0.526716
O O11 0.500000 0.514678 0.250000
#
# Coordination Sequence:
#
# PCOD8121719 Si02
#       5
#     4   4   4   2   4
#     4  10  23  40  61  90 135 170 211 264 324 374
#     4  12  24  43  72  95 125 163 216 271 332 391
#     4   9  19  42  67  90 128 176 211 257 325 386
#     4  12  22  34  60 100 132 166 220 258 310 372
#     4   9  19  36  62  88 127 176 214 255 313 379
#
# _framework density 21.239394999999998
#
# number of rings (size 3 to 8) (size 9 to 14) (size 15 to 20)
#    0.000    2.222    4.444    2.000    1.556    6.222 
#    0.000    0.000    0.000    0.000    0.000    0.000 
#    0.000    0.000    0.000    0.000    0.000    0.000 
#
# Total GULP energy -223058.879543 kJ/mol
# GULP energy per Si atom -12392.159975 kJ/mol
# Density = 2.119105 g / cm^3
# Si number density = 21.239395 Si / 1000 Ang^3
#
#
#
# Elastic Constant Matrix: (Units=GPa)
#
#
# Indices 1 2 3 4 5 6 
#
# 1 88.3990 48.6857 37.2166 0.0000 -0.2951 0.0000
# 2 48.6857 54.7545 27.4529 0.0000 10.5997 0.0000
# 3 37.2166 27.4529 78.1613 0.0000 3.6860 0.0000
# 4 0.0000 0.0000 0.0000 10.1792 0.0000 3.2610
# 5 -0.2951 10.5997 3.6860 0.0000 44.6470 0.0000
# 6 0.0000 0.0000 0.0000 3.2610 0.0000 26.4428
#
#
#
# Elastic Compliance Matrix: (Units=1/GPa)
#
#
# Indices 1 2 3 4 5 6 
#
# 1 0.024699 -0.020623 -0.004774 0.000000 0.005454 0.000000
# 2 -0.020623 0.040387 -0.003922 0.000000 -0.009401 0.000000
# 3 -0.004774 -0.003922 0.016466 0.000000 -0.000460 0.000000
# 4 0.000000 0.000000 0.000000 0.102280 0.000000 -0.012613
# 5 0.005454 -0.009401 -0.000460 0.000000 0.024704 0.000000
# 6 0.000000 0.000000 0.000000 -0.012613 0.000000 0.039373
#
#
# Mechanical properties :
#
#
# Convention : Reuss Voigt Hill
#
# Bulk Modulus (GPa) = 43.64237 49.78057 46.71147
# Shear Modulus (GPa) = 15.91415 23.45111 19.68263
#
# Velocity S-wave (km/s) = 2.74026 3.32645 3.04748
# Velocity P-wave (km/s) = 5.53213 6.18405 5.86715
#
# Compressibility (1/GPa) = 0.02291351
#
# Stress axis : x y z
#
# Youngs Moduli (GPa) = 40.48800 24.76031 60.72959
#
# Poissons Ratio (x) = 0.51064 0.28992
# Poissons Ratio (y) = 0.83500 0.23819
# Poissons Ratio (z) = 0.19328 0.09711
#
# Static dielectric constant tensor:
#      x y z
#    x 3.675840 0.000000 0.315440 
#    y 0.000000 3.505110 0.000000 
#    z 0.315440 0.000000 4.004620 
# 
# 
# High freq. dielectric constant tensor:
#      x y z
#    x 1.815960 0.000000 0.017340 
#    y 0.000000 1.802720 0.000000 
#    z 0.017340 0.000000 1.842780 
# 
# From -- ./inp_files/37017.got.cif
#   From: 2010.06.25/outbox.cif.g09.slc.cpg/sg13_19_cif.got.tgz:37017.got - 2010.06.28 04:50:58.
