data_PCOD8121748
_publ_section_title
;
Structure prediction by ZEFSAII (Michael W. Deem and Ramdas Pophale) SiO2 
 PCOD8121748
Probable space group: P 2/C
;
_chemical_formula_sum "Si O2"
_cell_formula_units_Z 16
_cell_length_a 19.672831
_cell_length_b 6.855261
_cell_length_c 5.260866
_cell_angle_alpha 90.000000
_cell_angle_beta 74.246499
_cell_angle_gamma 90.000000
_cell_volume 682.843453
_symmetry_space_group_name_H-M "P 2/C"
_symmetry_group_IT_number 13
_symmetry_cell_setting 'monoclinic'
loop_
_space_group_symop_operation_xyz
x,y,z
-x,y,1/2-z
-x,-y,-z
x,-y,1/2+z
loop_
_atom_site_type_symbol
_atom_site_label
_atom_site_fract_x
_atom_site_fract_y
_atom_site_fract_z
Si Si1 0.711629 0.284457 0.502546
Si Si2 0.500000 0.868129 0.750000
Si Si3 0.000000 0.629379 0.750000
Si Si4 0.859236 0.125651 0.418501
Si Si5 0.651227 0.718915 0.563625
O O1 0.796045 0.281754 0.449484
O O2 0.681025 0.501036 0.498743
O O3 0.689337 0.175036 0.263693
O O4 0.673943 0.174515 0.777790
O O5 0.567113 0.724435 0.682308
O O6 0.500000 0.000000 0.500000
O O7 0.067821 0.764645 0.687340
O O8 0.000000 0.500000 0.500000
O O9 0.853874 0.037416 0.706000
#
# Coordination Sequence:
#
# PCOD8121748 Si02
#       5
#     4   2   2   4   4
#     4  10  23  40  70  96 135 178 233 281 357 411
#     4  12  26  42  66  96 138 182 230 292 358 410
#     4  12  28  46  78 106 148 192 242 278 346 438
#     4  12  26  46  73 107 147 185 235 302 355 402
#     4  10  23  42  65  97 136 176 239 284 345 423
#
# _framework density 23.431429000000001
#
# number of rings (size 3 to 8) (size 9 to 14) (size 15 to 20)
#    0.000    1.000    0.000    5.250    7.000   10.000 
#    0.000    0.000    0.000    0.000    0.000    0.000 
#    0.000    0.000    0.000    0.000    0.000    0.000 
#
# Total GULP energy -198350.839749 kJ/mol
# GULP energy per Si atom -12396.927484 kJ/mol
# Density = 2.337810 g / cm^3
# Si number density = 23.431429 Si / 1000 Ang^3
#
#
#
# Elastic Constant Matrix: (Units=GPa)
#
#
# Indices 1 2 3 4 5 6 
#
# 1 166.0759 25.2718 29.0409 0.0000 -21.9199 0.0000
# 2 25.2718 75.4423 -6.4099 0.0000 -11.2126 0.0000
# 3 29.0409 -6.4099 165.6833 0.0000 29.8014 0.0000
# 4 0.0000 0.0000 0.0000 13.7043 0.0000 -10.6871
# 5 -21.9199 -11.2126 29.8014 0.0000 63.8102 0.0000
# 6 0.0000 0.0000 0.0000 -10.6871 0.0000 66.7164
#
#
#
# Elastic Compliance Matrix: (Units=1/GPa)
#
#
# Indices 1 2 3 4 5 6 
#
# 1 0.007044 -0.002083 -0.001839 0.000000 0.002913 0.000000
# 2 -0.002083 0.014228 0.000649 0.000000 0.001481 0.000000
# 3 -0.001839 0.000649 0.007070 0.000000 -0.003820 0.000000
# 4 0.000000 0.000000 0.000000 0.083387 0.000000 0.013357
# 5 0.002913 0.001481 -0.003820 0.000000 0.018716 0.000000
# 6 0.000000 0.000000 0.000000 0.013357 0.000000 0.017129
#
#
# Mechanical properties :
#
#
# Convention : Reuss Voigt Hill
#
# Bulk Modulus (GPa) = 45.87918 55.88968 50.88443
# Shear Modulus (GPa) = 30.98158 52.79944 41.89051
#
# Velocity S-wave (km/s) = 3.64018 4.75211 4.23282
# Velocity P-wave (km/s) = 6.10660 7.34944 6.75666
#
# Compressibility (1/GPa) = 0.02179638
#
# Stress axis : x y z
#
# Youngs Moduli (GPa) = 141.95666 70.28255 141.43950
#
# Poissons Ratio (x) = 0.14641 0.26014
# Poissons Ratio (y) = 0.29571 -0.09181
# Poissons Ratio (z) = 0.26109 -0.04562
#
# Static dielectric constant tensor:
#      x y z
#    x 4.210690 0.000000 0.357110 
#    y 0.000000 4.085960 0.000000 
#    z 0.357110 0.000000 5.900100 
# 
# 
# High freq. dielectric constant tensor:
#      x y z
#    x 1.944020 0.000000 0.011430 
#    y 0.000000 1.917320 0.000000 
#    z 0.011430 0.000000 1.967140 
# 
# From -- ./inp_files/4629.got.cif
#   From: 2010.06.25/outbox.cif.g09.slc.cpg/sg13_3_cif.got.tgz:4629.got - 2010.06.28 04:50:58.
