data_PCOD8121202
_publ_section_title
;
Structure prediction by ZEFSAII (Michael W. Deem and Ramdas Pophale) SiO2 
 PCOD8121202
Probable space group: P 2/C
;
_chemical_formula_sum "Si O2"
_cell_formula_units_Z 24
_cell_length_a 22.919483
_cell_length_b 7.423102
_cell_length_c 16.935023
_cell_angle_alpha 90.000000
_cell_angle_beta 22.739216
_cell_angle_gamma 90.000000
_cell_volume 1113.698247
_symmetry_space_group_name_H-M "P 2/C"
_symmetry_group_IT_number 13
_symmetry_cell_setting 'monoclinic'
loop_
_space_group_symop_operation_xyz
x,y,z
-x,y,1/2-z
-x,-y,-z
x,-y,1/2+z
loop_
_atom_site_type_symbol
_atom_site_label
_atom_site_fract_x
_atom_site_fract_y
_atom_site_fract_z
Si Si1 0.852345 0.578071 0.283426
Si Si2 0.354837 0.120146 0.203487
Si Si3 0.856242 0.184425 0.532212
Si Si4 0.200634 0.456122 0.325311
Si Si5 0.818364 0.223865 0.397339
Si Si6 0.653462 0.121194 0.099224
O O1 0.793739 0.499205 0.273984
O O2 0.782052 0.434903 0.433722
O O3 0.787037 0.769124 0.390525
O O4 0.032967 0.603914 0.061790
O O5 0.329101 0.308841 0.188844
O O6 0.354419 0.158858 0.297521
O O7 0.215015 0.000040 0.347935
O O8 0.500000 0.000000 0.000000
O O9 0.759038 0.355776 0.682403
O O10 0.853904 0.177598 0.441824
O O11 0.029652 0.193408 0.345531
O O12 0.685307 0.088513 0.537351
O O13 0.500000 0.181924 0.250000
#
# Coordination Sequence:
#
# PCOD8121202 Si02
#       6
#     4   4   4   4   4   4
#     4  10  22  40  65  94 122 164 211 271 326 376
#     4  11  25  41  62  92 128 172 210 258 318 387
#     4   9  19  38  63  88 114 158 211 265 315 370
#     4  10  22  40  66  94 123 160 215 270 323 386
#     4   9  19  38  63  86 116 156 211 265 314 376
#     4  11  25  41  60  92 128 170 210 258 323 394
#
# _framework density 21.549823
#
# number of rings (size 3 to 8) (size 9 to 14) (size 15 to 20)
#    0.000    2.000    0.000    2.000    4.667    4.667 
#    3.000    5.000    0.000    0.000    0.000    0.000 
#    0.000    0.000    0.000    0.000    0.000    0.000 
#
# Total GULP energy -297418.729099 kJ/mol
# GULP energy per Si atom -12392.447046 kJ/mol
# Density = 2.150077 g / cm^3
# Si number density = 21.549823 Si / 1000 Ang^3
#
#
#
# Elastic Constant Matrix: (Units=GPa)
#
#
# Indices 1 2 3 4 5 6 
#
# 1 61.9612 27.7110 27.7768 0.0000 -6.1551 0.0000
# 2 27.7110 89.7428 13.7072 0.0000 0.5868 0.0000
# 3 27.7768 13.7072 45.3223 0.0000 4.9059 0.0000
# 4 0.0000 0.0000 0.0000 58.6705 0.0000 5.7023
# 5 -6.1551 0.5868 4.9059 0.0000 21.0252 0.0000
# 6 0.0000 0.0000 0.0000 5.7023 0.0000 35.4911
#
#
#
# Elastic Compliance Matrix: (Units=1/GPa)
#
#
# Indices 1 2 3 4 5 6 
#
# 1 0.027276 -0.006028 -0.016185 0.000000 0.011930 0.000000
# 2 -0.006028 0.013020 -0.000013 0.000000 -0.002125 0.000000
# 3 -0.016185 -0.000013 0.033342 0.000000 -0.012518 0.000000
# 4 0.000000 0.000000 0.000000 0.017315 0.000000 -0.002782
# 5 0.011930 -0.002125 -0.012518 0.000000 0.054035 0.000000
# 6 0.000000 0.000000 0.000000 -0.002782 0.000000 0.028623
#
#
# Mechanical properties :
#
#
# Convention : Reuss Voigt Hill
#
# Bulk Modulus (GPa) = 34.26309 37.26849 35.76579
# Shear Modulus (GPa) = 21.94992 31.55945 26.75469
#
# Velocity S-wave (km/s) = 3.19496 3.83101 3.52735
# Velocity P-wave (km/s) = 5.43547 6.07458 5.76389
#
# Compressibility (1/GPa) = 0.02918593
#
# Stress axis : x y z
#
# Youngs Moduli (GPa) = 36.66273 76.80319 29.99202
#
# Poissons Ratio (x) = 0.46299 0.48541
# Poissons Ratio (y) = 0.22101 0.00040
# Poissons Ratio (z) = 0.59337 0.00102
#
# Static dielectric constant tensor:
#      x y z
#    x 3.734330 0.000000 -0.031760 
#    y 0.000000 4.344700 0.000000 
#    z -0.031760 0.000000 4.042160 
# 
# 
# High freq. dielectric constant tensor:
#      x y z
#    x 1.835190 0.000000 0.005210 
#    y 0.000000 1.858250 0.000000 
#    z 0.005210 0.000000 1.834430 
# 
# From -- ./inp_files/71075.got.cif
#   From: 2010.06.25/outbox.cif.g09.slc.cpg/sg13_36_cif.got.tgz:71075.got - 2010.06.28 04:50:58.
