data_PCOD8121161
_publ_section_title
;
Structure prediction by ZEFSAII (Michael W. Deem and Ramdas Pophale) SiO2 
 PCOD8121161
Probable space group: P 2/C
;
_chemical_formula_sum "Si O2"
_cell_formula_units_Z 20
_cell_length_a 24.284337
_cell_length_b 5.161297
_cell_length_c 11.214194
_cell_angle_alpha 90.000000
_cell_angle_beta 147.505767
_cell_angle_gamma 90.000000
_cell_volume 755.094083
_symmetry_space_group_name_H-M "P 2/C"
_symmetry_group_IT_number 13
_symmetry_cell_setting 'monoclinic'
loop_
_space_group_symop_operation_xyz
x,y,z
-x,y,1/2-z
-x,-y,-z
x,-y,1/2+z
loop_
_atom_site_type_symbol
_atom_site_label
_atom_site_fract_x
_atom_site_fract_y
_atom_site_fract_z
Si Si1 0.752967 0.251121 0.861030
Si Si2 0.397763 0.507441 0.738102
Si Si3 0.659243 0.977841 0.498122
Si Si4 0.921550 0.397906 0.000577
Si Si5 0.879067 0.098846 0.296934
O O1 0.701085 0.452030 0.858189
O O2 0.662778 0.059488 0.645342
O O3 0.806186 0.395248 0.845731
O O4 0.844483 0.092705 0.094748
O O5 0.390253 0.790270 0.668092
O O6 0.402752 0.286373 0.642832
O O7 0.500000 0.500000 0.000000
O O8 0.777368 0.940060 0.686622
O O9 0.000000 0.439469 0.250000
O O10 0.929799 0.628491 0.922027
O O11 0.951690 0.139467 0.976428
#
# Coordination Sequence:
#
# PCOD8121161 Si02
#       5
#     4   4   4   4   4
#     4  10  22  41  65  87 125 165 197 254 311 350
#     4  11  24  42  64  94 125 158 208 254 299 367
#     4  10  22  41  64  92 124 162 206 248 303 368
#     4  11  24  40  61  92 123 158 208 252 300 368
#     4  10  22  40  62  89 122 160 205 251 302 366
#
# _framework density 26.486767
#
# number of rings (size 3 to 8) (size 9 to 14) (size 15 to 20)
#    0.000    1.600    0.000    6.000    0.000   16.800 
#    0.000    4.000    0.000    0.000    0.000    0.000 
#    0.000    0.000    0.000    0.000    0.000    0.000 
#
# Total GULP energy -247968.706186 kJ/mol
# GULP energy per Si atom -12398.435309 kJ/mol
# Density = 2.642648 g / cm^3
# Si number density = 26.486767 Si / 1000 Ang^3
#
#
#
# Elastic Constant Matrix: (Units=GPa)
#
#
# Indices 1 2 3 4 5 6 
#
# 1 55.3921 17.4775 15.4711 0.0000 -10.2976 0.0000
# 2 17.4775 168.8982 64.5246 0.0000 -9.2508 0.0000
# 3 15.4711 64.5246 168.0829 0.0000 -18.4265 0.0000
# 4 0.0000 0.0000 0.0000 52.0220 0.0000 -4.2449
# 5 -10.2976 -9.2508 -18.4265 0.0000 37.2742 0.0000
# 6 0.0000 0.0000 0.0000 -4.2449 0.0000 15.2384
#
#
#
# Elastic Compliance Matrix: (Units=1/GPa)
#
#
# Indices 1 2 3 4 5 6 
#
# 1 0.019597 -0.001498 -0.000715 0.000000 0.004689 0.000000
# 2 -0.001498 0.007059 -0.002564 0.000000 0.000070 0.000000
# 3 -0.000715 -0.002564 0.007304 0.000000 0.002777 0.000000
# 4 0.000000 0.000000 0.000000 0.019670 0.000000 0.005479
# 5 0.004689 0.000070 0.002777 0.000000 0.029514 0.000000
# 6 0.000000 0.000000 0.000000 0.005479 0.000000 0.067150
#
#
# Mechanical properties :
#
#
# Convention : Reuss Voigt Hill
#
# Bulk Modulus (GPa) = 40.97308 65.25773 53.11540
# Shear Modulus (GPa) = 29.76480 40.56692 35.16586
#
# Velocity S-wave (km/s) = 3.35589 3.91780 3.64768
# Velocity P-wave (km/s) = 5.52439 6.71989 6.15125
#
# Compressibility (1/GPa) = 0.02440627
#
# Stress axis : x y z
#
# Youngs Moduli (GPa) = 51.02801 141.65795 136.91007
#
# Poissons Ratio (x) = 0.21221 0.09785
# Poissons Ratio (y) = 0.07644 0.35108
# Poissons Ratio (z) = 0.03647 0.36326
#
# Static dielectric constant tensor:
#      x y z
#    x 4.813150 0.000000 -0.165170 
#    y 0.000000 5.263030 0.000000 
#    z -0.165170 0.000000 5.394640 
# 
# 
# High freq. dielectric constant tensor:
#      x y z
#    x 2.064690 0.000000 -0.002140 
#    y 0.000000 2.059900 0.000000 
#    z -0.002140 0.000000 2.087130 
# 
# From -- ./inp_files/35173.got.cif
#   From: 2010.06.25/outbox.cif.g09.slc.cpg/sg13_18_cif.got.tgz:35173.got - 2010.06.28 04:50:58.
