data_PCOD8121889
_publ_section_title
;
Structure prediction by ZEFSAII (Michael W. Deem and Ramdas Pophale) SiO2 
 PCOD8121889
Probable space group: P 2/C
;
_chemical_formula_sum "Si O2"
_cell_formula_units_Z 24
_cell_length_a 34.247080
_cell_length_b 4.902236
_cell_length_c 16.357742
_cell_angle_alpha 90.000000
_cell_angle_beta 156.857584
_cell_angle_gamma 90.000000
_cell_volume 1079.328153
_symmetry_space_group_name_H-M "P 2/C"
_symmetry_group_IT_number 13
_symmetry_cell_setting 'monoclinic'
loop_
_space_group_symop_operation_xyz
x,y,z
-x,y,1/2-z
-x,-y,-z
x,-y,1/2+z
loop_
_atom_site_type_symbol
_atom_site_label
_atom_site_fract_x
_atom_site_fract_y
_atom_site_fract_z
Si Si1 0.388897 0.720315 0.345702
Si Si2 0.054517 0.422843 0.273610
Si Si3 0.621848 0.220181 0.277637
Si Si4 0.741364 0.477567 0.764291
Si Si5 0.755525 0.989017 0.677983
Si Si6 0.027557 0.088916 0.964265
O O1 0.344935 0.517378 0.190694
O O2 0.506844 0.741626 0.576896
O O3 0.354566 0.623754 0.369544
O O4 0.352557 0.020073 0.249281
O O5 0.169610 0.514356 0.499677
O O6 0.000000 0.521484 0.250000
O O7 0.007680 0.600482 0.111014
O O8 0.032852 0.104473 0.215176
O O9 0.672500 0.103081 0.456290
O O10 0.715675 0.739116 0.657995
O O11 0.783792 0.237725 0.790029
O O12 0.854012 0.909922 0.819019
O O13 0.000000 0.000000 0.000000
#
# Coordination Sequence:
#
# PCOD8121889 Si02
#       6
#     4   4   4   4   4   4
#     4  10  23  44  67  95 121 172 214 262 334 393
#     4  12  23  44  63  91 137 176 211 270 323 394
#     4  10  23  44  68  91 131 162 214 274 324 387
#     4  12  25  40  68  96 131 173 220 263 332 392
#     4  12  24  42  63  99 131 169 217 279 323 386
#     4  12  26  41  63  96 132 175 222 266 328 384
#
# _framework density 22.236055
#
# number of rings (size 3 to 8) (size 9 to 14) (size 15 to 20)
#    0.000    0.667    3.333    4.000    4.667    0.667 
#    0.000    1.667    0.000    0.000    0.000    0.000 
#    0.000    0.000    0.000    0.000    0.000    0.000 
#
# Total GULP energy -297532.892158 kJ/mol
# GULP energy per Si atom -12397.203840 kJ/mol
# Density = 2.218544 g / cm^3
# Si number density = 22.236055 Si / 1000 Ang^3
#
#
#
# Elastic Constant Matrix: (Units=GPa)
#
#
# Indices 1 2 3 4 5 6 
#
# 1 105.7761 27.8904 40.9050 0.0000 -1.5214 0.0000
# 2 27.8904 110.0427 36.3718 0.0000 5.6659 0.0000
# 3 40.9050 36.3718 93.9494 0.0000 -0.7188 0.0000
# 4 0.0000 0.0000 0.0000 31.9886 0.0000 -5.7146
# 5 -1.5214 5.6659 -0.7188 0.0000 18.6583 0.0000
# 6 0.0000 0.0000 0.0000 -5.7146 0.0000 37.7165
#
#
#
# Elastic Compliance Matrix: (Units=1/GPa)
#
#
# Indices 1 2 3 4 5 6 
#
# 1 0.011595 -0.001533 -0.004445 0.000000 0.001240 0.000000
# 2 -0.001533 0.010833 -0.003554 0.000000 -0.003552 0.000000
# 3 -0.004445 -0.003554 0.013965 0.000000 0.001255 0.000000
# 4 0.000000 0.000000 0.000000 0.032131 0.000000 0.004868
# 5 0.001240 -0.003552 0.001255 0.000000 0.054823 0.000000
# 6 0.000000 0.000000 0.000000 0.004868 0.000000 0.027251
#
#
# Mechanical properties :
#
#
# Convention : Reuss Voigt Hill
#
# Bulk Modulus (GPa) = 57.70745 57.78916 57.74831
# Shear Modulus (GPa) = 28.49978 31.31274 29.90626
#
# Velocity S-wave (km/s) = 3.58396 3.75667 3.67133
# Velocity P-wave (km/s) = 6.56771 6.69792 6.63313
#
# Compressibility (1/GPa) = 0.01732878
#
# Stress axis : x y z
#
# Youngs Moduli (GPa) = 86.24304 92.30675 71.60824
#
# Poissons Ratio (x) = 0.14154 0.31832
# Poissons Ratio (y) = 0.13224 0.25447
# Poissons Ratio (z) = 0.38338 0.32803
#
# Static dielectric constant tensor:
#      x y z
#    x 3.924730 0.000000 -0.011440 
#    y 0.000000 4.501220 0.000000 
#    z -0.011440 0.000000 3.809870 
# 
# 
# High freq. dielectric constant tensor:
#      x y z
#    x 1.877220 0.000000 0.000460 
#    y 0.000000 1.896810 0.000000 
#    z 0.000460 0.000000 1.865670 
# 
# From -- ./inp_files/59703.got.cif
#   From: 2010.06.25/outbox.cif.g09.slc.cpg/sg13_30_cif.got.tgz:59703.got - 2010.06.28 04:50:58.
