data_PCOD8121264
_publ_section_title
;
Structure prediction by ZEFSAII (Michael W. Deem and Ramdas Pophale) SiO2 
 PCOD8121264
Probable space group: P 2/C
;
_chemical_formula_sum "Si O2"
_cell_formula_units_Z 24
_cell_length_a 6.417972
_cell_length_b 12.236376
_cell_length_c 16.191504
_cell_angle_alpha 90.000000
_cell_angle_beta 65.017290
_cell_angle_gamma 90.000000
_cell_volume 1152.589404
_symmetry_space_group_name_H-M "P 2/C"
_symmetry_group_IT_number 13
_symmetry_cell_setting 'monoclinic'
loop_
_space_group_symop_operation_xyz
x,y,z
-x,y,1/2-z
-x,-y,-z
x,-y,1/2+z
loop_
_atom_site_type_symbol
_atom_site_label
_atom_site_fract_x
_atom_site_fract_y
_atom_site_fract_z
Si Si1 0.973907 0.433403 0.120296
Si Si2 0.161833 0.348798 0.533740
Si Si3 0.341338 0.034217 0.102136
Si Si4 0.635685 0.282182 0.394237
Si Si5 0.500000 0.045989 0.750000
Si Si6 0.971818 0.849681 0.163539
Si Si7 0.500000 0.635455 0.750000
O O1 0.722139 0.442784 0.203350
O O2 0.094353 0.551773 0.105032
O O3 0.136758 0.354485 0.145050
O O4 0.952281 0.380377 0.033810
O O5 0.438334 0.332228 0.487504
O O6 0.053148 0.235323 0.581394
O O7 0.286138 0.160783 0.095322
O O8 0.450983 0.024118 0.175482
O O9 0.110483 0.963543 0.135271
O O10 0.500000 0.000000 0.000000
O O11 0.524734 0.282842 0.322294
O O12 0.292062 0.124933 0.809484
O O13 0.000000 0.797783 0.250000
#
# Coordination Sequence:
#
# PCOD8121264 Si02
#       7
#     4   4   4   4   2   4   2
#     4  10  23  39  63  90 124 162 205 255 309 365
#     4  10  22  41  61  92 122 159 210 254 303 374
#     4  11  23  41  64  94 124 167 207 254 315 366
#     4  11  22  40  65  89 124 159 209 253 308 368
#     4  10  25  41  60  96 132 159 209 258 304 382
#     4  10  23  40  61  91 124 162 206 253 310 369
#     4  10  23  39  58  94 122 163 201 254 312 364
#
# _framework density 20.822679999999998
#
# number of rings (size 3 to 8) (size 9 to 14) (size 15 to 20)
#    0.000    1.667    1.667    1.500    2.333    9.333 
#    0.000    0.000    0.000    0.000    0.000    0.000 
#    0.000    0.000    0.000    0.000    0.000    0.000 
#
# Total GULP energy -297573.177223 kJ/mol
# GULP energy per Si atom -12398.882384 kJ/mol
# Density = 2.077529 g / cm^3
# Si number density = 20.822680 Si / 1000 Ang^3
#
#
#
# Elastic Constant Matrix: (Units=GPa)
#
#
# Indices 1 2 3 4 5 6 
#
# 1 118.3833 59.9392 40.8934 0.0000 -30.6954 0.0000
# 2 59.9392 149.1063 44.5168 0.0000 -18.2564 0.0000
# 3 40.8934 44.5168 100.3875 0.0000 -26.6077 0.0000
# 4 0.0000 0.0000 0.0000 24.5461 0.0000 1.7221
# 5 -30.6954 -18.2564 -26.6077 0.0000 35.3975 0.0000
# 6 0.0000 0.0000 0.0000 1.7221 0.0000 20.8672
#
#
#
# Elastic Compliance Matrix: (Units=1/GPa)
#
#
# Indices 1 2 3 4 5 6 
#
# 1 0.012996 -0.003788 -0.001430 0.000000 0.008241 0.000000
# 2 -0.003788 0.008923 -0.002578 0.000000 -0.000621 0.000000
# 3 -0.001430 -0.002578 0.013745 0.000000 0.007762 0.000000
# 4 0.000000 0.000000 0.000000 0.040977 0.000000 -0.003382
# 5 0.008241 -0.000621 0.007762 0.000000 0.040911 0.000000
# 6 0.000000 0.000000 0.000000 -0.003382 0.000000 0.048201
#
#
# Mechanical properties :
#
#
# Convention : Reuss Voigt Hill
#
# Bulk Modulus (GPa) = 49.82400 73.17509 61.49955
# Shear Modulus (GPa) = 26.59063 30.99732 28.79397
#
# Velocity S-wave (km/s) = 3.57739 3.86247 3.72266
# Velocity P-wave (km/s) = 6.40651 7.42360 6.93373
#
# Compressibility (1/GPa) = 0.02007065
#
# Stress axis : x y z
#
# Youngs Moduli (GPa) = 76.94737 112.06656 72.75635
#
# Poissons Ratio (x) = 0.42455 0.10402
# Poissons Ratio (y) = 0.29150 0.18760
# Poissons Ratio (z) = 0.11001 0.28896
#
# Static dielectric constant tensor:
#      x y z
#    x 3.760230 0.000000 -0.087250 
#    y 0.000000 3.640200 0.000000 
#    z -0.087250 0.000000 4.050460 
# 
# 
# High freq. dielectric constant tensor:
#      x y z
#    x 1.816750 0.000000 -0.008520 
#    y 0.000000 1.807350 0.000000 
#    z -0.008520 0.000000 1.828350 
# 
# From -- ./inp_files/61066.got.cif
#   From: 2010.06.25/outbox.cif.g09.slc.cpg/sg13_31_cif.got.tgz:61066.got - 2010.06.28 04:50:58.
