data_PCOD8121623
_publ_section_title
;
Structure prediction by ZEFSAII (Michael W. Deem and Ramdas Pophale) SiO2 
 PCOD8121623
Probable space group: P 2/C
;
_chemical_formula_sum "Si O2"
_cell_formula_units_Z 20
_cell_length_a 11.808025
_cell_length_b 5.512306
_cell_length_c 19.538921
_cell_angle_alpha 90.000000
_cell_angle_beta 140.758948
_cell_angle_gamma 90.000000
_cell_volume 804.506625
_symmetry_space_group_name_H-M "P 2/C"
_symmetry_group_IT_number 13
_symmetry_cell_setting 'monoclinic'
loop_
_space_group_symop_operation_xyz
x,y,z
-x,y,1/2-z
-x,-y,-z
x,-y,1/2+z
loop_
_atom_site_type_symbol
_atom_site_label
_atom_site_fract_x
_atom_site_fract_y
_atom_site_fract_z
Si Si1 0.939869 0.746975 0.007423
Si Si2 0.711157 0.819577 0.529997
Si Si3 0.948498 0.108745 0.798853
Si Si4 0.578551 0.466120 0.357288
Si Si5 0.400157 0.817276 0.881155
O O1 0.020323 0.718372 0.121681
O O2 0.722851 0.747329 0.909078
O O3 0.000000 0.500000 0.000000
O O4 0.000000 0.000000 0.000000
O O5 0.677314 0.678333 0.444393
O O6 0.655849 0.678245 0.574432
O O7 0.597807 0.068519 0.480317
O O8 0.921517 0.876238 0.630588
O O9 0.000000 0.236011 0.750000
O O10 0.743344 0.024780 0.703580
O O11 0.500000 0.572213 0.250000
O O12 0.411173 0.372840 0.324166
#
# Coordination Sequence:
#
# PCOD8121623 Si02
#       5
#     4   4   4   4   4
#     4  12  27  48  71 106 152 195 246 309 372 446
#     4  10  22  45  71 104 143 189 249 315 373 446
#     4  10  22  47  77 107 142 196 246 311 376 448
#     4  12  26  42  69 104 146 199 245 310 376 456
#     4  10  22  44  74 101 144 186 253 308 383 443
#
# _framework density 24.859957000000001
#
# number of rings (size 3 to 8) (size 9 to 14) (size 15 to 20)
#    0.000    1.200    2.000    3.000    2.800    0.800 
#    0.000    4.000    0.000    0.000    0.000    0.000 
#    0.000    0.000    0.000    0.000    0.000    0.000 
#
# Total GULP energy -247910.899310 kJ/mol
# GULP energy per Si atom -12395.544965 kJ/mol
# Density = 2.480337 g / cm^3
# Si number density = 24.859957 Si / 1000 Ang^3
#
#
#
# Elastic Constant Matrix: (Units=GPa)
#
#
# Indices 1 2 3 4 5 6 
#
# 1 146.8351 53.4186 55.7305 0.0000 -37.9121 0.0000
# 2 53.4186 84.8830 19.1308 0.0000 -19.4683 0.0000
# 3 55.7305 19.1308 129.8616 0.0000 -33.3593 0.0000
# 4 0.0000 0.0000 0.0000 35.3166 0.0000 -6.9491
# 5 -37.9121 -19.4683 -33.3593 0.0000 66.9328 0.0000
# 6 0.0000 0.0000 0.0000 -6.9491 0.0000 27.2226
#
#
#
# Elastic Compliance Matrix: (Units=1/GPa)
#
#
# Indices 1 2 3 4 5 6 
#
# 1 0.010677 -0.005353 -0.003027 0.000000 0.002982 0.000000
# 2 -0.005353 0.015433 0.000456 0.000000 0.001684 0.000000
# 3 -0.003027 0.000456 0.009778 0.000000 0.003291 0.000000
# 4 0.000000 0.000000 0.000000 0.029813 0.000000 0.007610
# 5 0.002982 0.001684 0.003291 0.000000 0.018760 0.000000
# 6 0.000000 0.000000 0.000000 0.007610 0.000000 0.038677
#
#
# Mechanical properties :
#
#
# Convention : Reuss Voigt Hill
#
# Bulk Modulus (GPa) = 49.90064 68.68216 59.29140
# Shear Modulus (GPa) = 34.32543 41.44772 37.88658
#
# Velocity S-wave (km/s) = 3.71988 4.08762 3.90808
# Velocity P-wave (km/s) = 6.21017 7.06865 6.65327
#
# Compressibility (1/GPa) = 0.02003982
#
# Stress axis : x y z
#
# Youngs Moduli (GPa) = 93.66274 64.79605 102.27070
#
# Poissons Ratio (x) = 0.34684 0.30961
# Poissons Ratio (y) = 0.50136 -0.04667
# Poissons Ratio (z) = 0.28355 -0.02957
#
# Static dielectric constant tensor:
#      x y z
#    x 5.215180 0.000000 -0.191710 
#    y 0.000000 3.803120 0.000000 
#    z -0.191710 0.000000 4.596640 
# 
# 
# High freq. dielectric constant tensor:
#      x y z
#    x 2.023140 0.000000 -0.006480 
#    y 0.000000 1.944390 0.000000 
#    z -0.006480 0.000000 2.001050 
# 
# From -- ./inp_files/77359.got.cif
#   From: 2010.06.25/outbox.cif.g09.slc.cpg/sg13_39_cif.got.tgz:77359.got - 2010.06.28 04:50:58.
