data_PCOD8121675
_publ_section_title
;
Structure prediction by ZEFSAII (Michael W. Deem and Ramdas Pophale) SiO2 
 PCOD8121675
Probable space group: P 2/C
;
_chemical_formula_sum "Si O2"
_cell_formula_units_Z 30
_cell_length_a 12.054548
_cell_length_b 13.754542
_cell_length_c 8.686816
_cell_angle_alpha 90.000000
_cell_angle_beta 68.709409
_cell_angle_gamma 90.000000
_cell_volume 1342.015379
_symmetry_space_group_name_H-M "P 2/C"
_symmetry_group_IT_number 13
_symmetry_cell_setting 'monoclinic'
loop_
_space_group_symop_operation_xyz
x,y,z
-x,y,1/2-z
-x,-y,-z
x,-y,1/2+z
loop_
_atom_site_type_symbol
_atom_site_label
_atom_site_fract_x
_atom_site_fract_y
_atom_site_fract_z
Si Si1 0.247145 0.912718 0.027681
Si Si2 0.024303 0.232229 0.066369
Si Si3 0.000000 0.882230 0.250000
Si Si4 0.216700 0.702171 0.895797
Si Si5 0.338147 0.598002 0.077993
Si Si6 0.286077 0.718940 0.386605
Si Si7 0.634160 0.927367 0.220552
Si Si8 0.607280 0.614751 0.906483
O O1 0.119286 0.945223 0.164665
O O2 0.349590 0.915972 0.105009
O O3 0.233363 0.804290 0.972482
O O4 0.278991 0.986591 0.876831
O O5 0.915767 0.309131 0.105415
O O6 0.000000 0.180545 0.250000
O O7 0.023251 0.172516 0.904247
O O8 0.149736 0.288094 0.012558
O O9 0.318380 0.699039 0.714643
O O10 0.241921 0.608150 0.990185
O O11 0.298352 0.686037 0.205791
O O12 0.337172 0.491925 0.155584
O O13 0.467982 0.617204 0.936183
O O14 0.331424 0.828877 0.385381
O O15 0.374102 0.642647 0.425083
O O16 0.500000 0.956417 0.250000
#
# Coordination Sequence:
#
# PCOD8121675 Si02
#       8
#     4   4   2   4   4   4   4   4
#     4  11  26  45  69 104 136 183 233 282 347 423
#     4  11  22  44  72 101 139 186 240 287 349 428
#     4  10  22  48  70 102 138 186 240 294 348 410
#     4  11  23  44  67  98 139 180 227 291 348 409
#     4  11  23  44  67 100 140 177 232 288 347 420
#     4  12  23  45  69  95 139 182 227 283 351 411
#     4  12  26  45  68 102 142 180 226 283 346 424
#     4  11  24  40  70 104 132 181 233 283 348 423
#
# _framework density 22.354437999999998
#
# number of rings (size 3 to 8) (size 9 to 14) (size 15 to 20)
#    0.000    0.800    4.000    3.600    1.867    3.733 
#    1.200    4.000    0.000    0.000    0.000    0.000 
#    0.000    0.000    0.000    0.000    0.000    0.000 
#
# Total GULP energy -371695.537763 kJ/mol
# GULP energy per Si atom -12389.851259 kJ/mol
# Density = 2.230356 g / cm^3
# Si number density = 22.354438 Si / 1000 Ang^3
#
#
#
# Elastic Constant Matrix: (Units=GPa)
#
#
# Indices 1 2 3 4 5 6 
#
# 1 91.6096 20.7218 23.6919 0.0000 -7.3825 0.0000
# 2 20.7218 75.9970 24.5178 0.0000 -11.4884 0.0000
# 3 23.6919 24.5178 104.2625 0.0000 -10.3812 0.0000
# 4 0.0000 0.0000 0.0000 34.4858 0.0000 -0.4666
# 5 -7.3825 -11.4884 -10.3812 0.0000 36.9611 0.0000
# 6 0.0000 0.0000 0.0000 -0.4666 0.0000 20.2009
#
#
#
# Elastic Compliance Matrix: (Units=1/GPa)
#
#
# Indices 1 2 3 4 5 6 
#
# 1 0.012094 -0.002471 -0.002061 0.000000 0.001069 0.000000
# 2 -0.002471 0.015221 -0.002671 0.000000 0.003487 0.000000
# 3 -0.002061 -0.002671 0.010868 0.000000 0.001811 0.000000
# 4 0.000000 0.000000 0.000000 0.029007 0.000000 0.000670
# 5 0.001069 0.003487 0.001811 0.000000 0.028861 0.000000
# 6 0.000000 0.000000 0.000000 0.000670 0.000000 0.049518
#
#
# Mechanical properties :
#
#
# Convention : Reuss Voigt Hill
#
# Bulk Modulus (GPa) = 42.05596 45.52579 43.79088
# Shear Modulus (GPa) = 29.77971 31.85872 30.81921
#
# Velocity S-wave (km/s) = 3.65384 3.77923 3.71706
# Velocity P-wave (km/s) = 6.05432 6.28117 6.16879
#
# Compressibility (1/GPa) = 0.02377784
#
# Stress axis : x y z
#
# Youngs Moduli (GPa) = 82.68621 65.69887 92.01588
#
# Poissons Ratio (x) = 0.16236 0.18961
# Poissons Ratio (y) = 0.20434 0.24573
# Poissons Ratio (z) = 0.17038 0.17545
#
# Static dielectric constant tensor:
#      x y z
#    x 4.370190 0.000000 0.044920 
#    y 0.000000 3.677440 0.000000 
#    z 0.044920 0.000000 4.321280 
# 
# 
# High freq. dielectric constant tensor:
#      x y z
#    x 1.898410 0.000000 0.007410 
#    y 0.000000 1.848980 0.000000 
#    z 0.007410 0.000000 1.897480 
# 
# From -- ./inp_files/16702.got.cif
#   From: 2010.06.25/outbox.cif.g09.slc.cpg/sg13_9_cif.got.tgz:16702.got - 2010.06.28 04:50:58.
