data_PCOD8121281
_publ_section_title
;
Structure prediction by ZEFSAII (Michael W. Deem and Ramdas Pophale) SiO2 
 PCOD8121281
Probable space group: P 2/C
;
_chemical_formula_sum "Si O2"
_cell_formula_units_Z 26
_cell_length_a 11.854725
_cell_length_b 12.090263
_cell_length_c 12.201884
_cell_angle_alpha 90.000000
_cell_angle_beta 133.923452
_cell_angle_gamma 90.000000
_cell_volume 1259.643881
_symmetry_space_group_name_H-M "P 2/C"
_symmetry_group_IT_number 13
_symmetry_cell_setting 'monoclinic'
loop_
_space_group_symop_operation_xyz
x,y,z
-x,y,1/2-z
-x,-y,-z
x,-y,1/2+z
loop_
_atom_site_type_symbol
_atom_site_label
_atom_site_fract_x
_atom_site_fract_y
_atom_site_fract_z
Si Si1 0.407390 0.097392 0.385069
Si Si2 0.850335 0.296116 0.789210
Si Si3 0.500000 0.232796 0.250000
Si Si4 0.194718 0.356620 0.991215
Si Si5 0.164771 0.057368 0.617074
Si Si6 0.343202 0.815587 0.070869
Si Si7 0.315853 0.586397 0.133939
O O1 0.514654 0.160455 0.369556
O O2 0.364343 0.177406 0.455611
O O3 0.500000 0.000000 0.500000
O O4 0.260390 0.046016 0.225893
O O5 0.807686 0.317142 0.635132
O O6 0.821019 0.166676 0.797105
O O7 0.736690 0.380166 0.778248
O O8 0.032071 0.321718 0.938792
O O9 0.341733 0.304087 0.154170
O O10 0.212270 0.488296 0.014269
O O11 0.222395 0.091867 0.534046
O O12 0.000000 0.000000 0.500000
O O13 0.500000 0.827505 0.250000
O O14 0.273036 0.693385 0.033559
O O15 0.500000 0.556572 0.250000
#
# Coordination Sequence:
#
# PCOD8121281 Si02
#       7
#     4   4   2   4   4   4   4
#     4  12  23  40  63  92 130 169 213 268 320 382
#     4  10  24  43  66  89 136 171 212 268 329 388
#     4  12  26  38  64 102 128 162 228 268 318 386
#     4  11  23  43  63  98 128 171 211 272 330 380
#     4  11  23  42  64  94 128 172 216 263 325 387
#     4  10  22  41  63  93 127 169 215 261 324 390
#     4  10  22  41  67  94 125 169 218 265 326 391
#
# _framework density 20.640754999999999
#
# number of rings (size 3 to 8) (size 9 to 14) (size 15 to 20)
#    0.000    1.231    2.308    3.231    4.308    4.923 
#    0.000    6.154    0.000    0.000    0.000    0.000 
#    0.000    0.000    0.000    0.000    0.000    0.000 
#
# Total GULP energy -322337.001738 kJ/mol
# GULP energy per Si atom -12397.576990 kJ/mol
# Density = 2.059378 g / cm^3
# Si number density = 20.640755 Si / 1000 Ang^3
#
#
#
# Elastic Constant Matrix: (Units=GPa)
#
#
# Indices 1 2 3 4 5 6 
#
# 1 119.5665 29.2088 22.2084 0.0000 -9.5612 0.0000
# 2 29.2088 94.8370 20.3524 0.0000 -8.9752 0.0000
# 3 22.2084 20.3524 48.7171 0.0000 -1.9000 0.0000
# 4 0.0000 0.0000 0.0000 29.7623 0.0000 5.2039
# 5 -9.5612 -8.9752 -1.9000 0.0000 47.4074 0.0000
# 6 0.0000 0.0000 0.0000 5.2039 0.0000 33.0104
#
#
#
# Elastic Compliance Matrix: (Units=1/GPa)
#
#
# Indices 1 2 3 4 5 6 
#
# 1 0.009630 -0.002090 -0.003462 0.000000 0.001408 0.000000
# 2 -0.002090 0.012229 -0.004089 0.000000 0.001730 0.000000
# 3 -0.003462 -0.004089 0.023793 0.000000 -0.000519 0.000000
# 4 0.000000 0.000000 0.000000 0.034552 0.000000 -0.005447
# 5 0.001408 0.001730 -0.000519 0.000000 0.021684 0.000000
# 6 0.000000 0.000000 0.000000 -0.005447 0.000000 0.031152
#
#
# Mechanical properties :
#
#
# Convention : Reuss Voigt Hill
#
# Bulk Modulus (GPa) = 37.92082 45.18441 41.55261
# Shear Modulus (GPa) = 31.03444 34.79274 32.91359
#
# Velocity S-wave (km/s) = 3.88177 4.11010 3.99757
# Velocity P-wave (km/s) = 6.20504 6.66801 6.44069
#
# Compressibility (1/GPa) = 0.02637074
#
# Stress axis : x y z
#
# Youngs Moduli (GPa) = 103.84634 81.77138 42.02947
#
# Poissons Ratio (x) = 0.17087 0.14550
# Poissons Ratio (y) = 0.21700 0.17185
# Poissons Ratio (z) = 0.35951 0.33436
#
# Static dielectric constant tensor:
#      x y z
#    x 4.089640 0.000000 -0.101490 
#    y 0.000000 3.902520 0.000000 
#    z -0.101490 0.000000 3.502690 
# 
# 
# High freq. dielectric constant tensor:
#      x y z
#    x 1.823710 0.000000 0.003760 
#    y 0.000000 1.820830 0.000000 
#    z 0.003760 0.000000 1.792090 
# 
# From -- ./inp_files/33996.got.cif
#   From: 2010.06.25/outbox.cif.g09.slc.cpg/sg13_17_cif.got.tgz:33996.got - 2010.06.28 04:50:58.
