data_PCOD8121417
_publ_section_title
;
Structure prediction by ZEFSAII (Michael W. Deem and Ramdas Pophale) SiO2 
 PCOD8121417
Probable space group: P 2/C
;
_chemical_formula_sum "Si O2"
_cell_formula_units_Z 28
_cell_length_a 26.361129
_cell_length_b 9.392479
_cell_length_c 9.656325
_cell_angle_alpha 90.000000
_cell_angle_beta 143.500849
_cell_angle_gamma 90.000000
_cell_volume 1422.115971
_symmetry_space_group_name_H-M "P 2/C"
_symmetry_group_IT_number 13
_symmetry_cell_setting 'monoclinic'
loop_
_space_group_symop_operation_xyz
x,y,z
-x,y,1/2-z
-x,-y,-z
x,-y,1/2+z
loop_
_atom_site_type_symbol
_atom_site_label
_atom_site_fract_x
_atom_site_fract_y
_atom_site_fract_z
Si Si1 0.944562 0.030699 0.511193
Si Si2 0.656724 0.140425 0.443478
Si Si3 0.936337 0.500640 0.485718
Si Si4 0.179748 0.743328 0.859222
Si Si5 0.509773 0.642997 0.611152
Si Si6 0.359964 0.141598 0.769662
Si Si7 0.155994 0.767715 0.123528
O O1 0.861243 0.109926 0.277845
O O2 0.913326 0.891447 0.523280
O O3 0.000000 0.000000 0.500000
O O4 0.000000 0.115067 0.750000
O O5 0.600174 0.279350 0.282813
O O6 0.646864 0.099610 0.583551
O O7 0.753363 0.181808 0.617825
O O8 0.629932 0.003447 0.294959
O O9 0.863910 0.379831 0.325384
O O10 0.882087 0.644460 0.365111
O O11 0.000000 0.500000 0.500000
O O12 0.000000 0.479015 0.750000
O O13 0.279510 0.762374 0.046056
O O14 0.164524 0.710364 0.986694
O O15 0.500000 0.598955 0.750000
O O16 0.500000 0.500000 0.500000
O O17 0.440289 0.759499 0.414496
#
# Coordination Sequence:
#
# PCOD8121417 Si02
#       7
#     4   4   4   4   4   4   4
#     4  12  22  37  63  85 121 160 205 255 303 354
#     4  10  22  42  66  94 127 162 199 255 306 364
#     4  12  24  43  61  83 123 168 211 259 313 360
#     4  11  23  41  61  90 123 161 207 255 304 365
#     4  10  23  42  68  97 129 163 198 246 305 368
#     4  10  22  42  65  95 128 159 203 252 306 365
#     4  11  23  42  60  89 127 158 204 260 307 356
#
# _framework density 19.688970999999999
#
# number of rings (size 3 to 8) (size 9 to 14) (size 15 to 20)
#    0.000    1.143    4.286    2.143    2.000    1.143 
#    2.571    0.000    0.000    0.000    0.000    0.000 
#    0.000    0.000    0.000    0.000    0.000    0.000 
#
# Total GULP energy -347185.687991 kJ/mol
# GULP energy per Si atom -12399.488857 kJ/mol
# Density = 1.964416 g / cm^3
# Si number density = 19.688971 Si / 1000 Ang^3
#
#
#
# Elastic Constant Matrix: (Units=GPa)
#
#
# Indices 1 2 3 4 5 6 
#
# 1 83.3605 40.0674 47.7219 0.0000 3.0633 0.0000
# 2 40.0674 121.2556 52.3676 0.0000 -0.9049 0.0000
# 3 47.7219 52.3676 123.7519 0.0000 6.2587 0.0000
# 4 0.0000 0.0000 0.0000 43.2052 0.0000 0.7644
# 5 3.0633 -0.9049 6.2587 0.0000 30.7108 0.0000
# 6 0.0000 0.0000 0.0000 0.7644 0.0000 30.7723
#
#
#
# Elastic Compliance Matrix: (Units=1/GPa)
#
#
# Indices 1 2 3 4 5 6 
#
# 1 0.016417 -0.003319 -0.004889 0.000000 -0.000739 0.000000
# 2 -0.003319 0.010805 -0.003360 0.000000 0.001334 0.000000
# 3 -0.004889 -0.003360 0.011487 0.000000 -0.001952 0.000000
# 4 0.000000 0.000000 0.000000 0.023156 0.000000 -0.000575
# 5 -0.000739 0.001334 -0.001952 0.000000 0.033073 0.000000
# 6 0.000000 0.000000 0.000000 -0.000575 0.000000 0.032511
#
#
# Mechanical properties :
#
#
# Convention : Reuss Voigt Hill
#
# Bulk Modulus (GPa) = 64.21396 67.63130 65.92263
# Shear Modulus (GPa) = 32.09765 33.48507 32.79136
#
# Velocity S-wave (km/s) = 4.04200 4.12843 4.08544
# Velocity P-wave (km/s) = 7.38029 7.55974 7.47055
#
# Compressibility (1/GPa) = 0.01557294
#
# Stress axis : x y z
#
# Youngs Moduli (GPa) = 60.91099 92.55211 87.05842
#
# Poissons Ratio (x) = 0.30717 0.42564
# Poissons Ratio (y) = 0.20216 0.29250
# Poissons Ratio (z) = 0.29780 0.31096
#
# Static dielectric constant tensor:
#      x y z
#    x 3.515450 0.000000 0.122980 
#    y 0.000000 3.468890 0.000000 
#    z 0.122980 0.000000 3.913190 
# 
# 
# High freq. dielectric constant tensor:
#      x y z
#    x 1.767700 0.000000 0.010400 
#    y 0.000000 1.764950 0.000000 
#    z 0.010400 0.000000 1.786600 
# 
# From -- ./inp_files/24584.got.cif
#   From: 2010.06.25/outbox.cif.g09.slc.cpg/sg13_13_cif.got.tgz:24584.got - 2010.06.28 04:50:58.
