data_PCOD8121028
_publ_section_title
;
Structure prediction by ZEFSAII (Michael W. Deem and Ramdas Pophale) SiO2 
 PCOD8121028
Probable space group: P 2/C
;
_chemical_formula_sum "Si O2"
_cell_formula_units_Z 20
_cell_length_a 7.493570
_cell_length_b 6.487727
_cell_length_c 20.648790
_cell_angle_alpha 90.000000
_cell_angle_beta 56.018164
_cell_angle_gamma 90.000000
_cell_volume 832.420930
_symmetry_space_group_name_H-M "P 2/C"
_symmetry_group_IT_number 13
_symmetry_cell_setting 'monoclinic'
loop_
_space_group_symop_operation_xyz
x,y,z
-x,y,1/2-z
-x,-y,-z
x,-y,1/2+z
loop_
_atom_site_type_symbol
_atom_site_label
_atom_site_fract_x
_atom_site_fract_y
_atom_site_fract_z
Si Si1 0.500000 0.264225 0.750000
Si Si2 0.000000 0.817165 0.750000
Si Si3 0.477639 0.749339 0.459449
Si Si4 0.444356 0.411977 0.152735
Si Si5 0.274371 0.020424 0.388031
Si Si6 0.857357 0.026291 0.406965
O O1 0.586912 0.403979 0.790267
O O2 0.681989 0.114438 0.684961
O O3 0.211845 0.684852 0.698908
O O4 0.993577 0.956360 0.687016
O O5 0.482974 0.516538 0.430969
O O6 0.311622 0.778704 0.553346
O O7 0.380518 0.916294 0.428663
O O8 0.718710 0.815739 0.431046
O O9 0.627883 0.251272 0.137323
O O10 0.012735 0.029719 0.438960
#
# Coordination Sequence:
#
# PCOD8121028 Si02
#       6
#     2   2   4   4   4   4
#     4  10  22  38  66  96 136 174 222 284 336 402
#     4  12  24  40  70 100 132 178 226 282 338 402
#     4  10  25  46  65 101 135 179 227 277 344 406
#     4  11  24  42  67 101 136 176 231 281 340 407
#     4  11  22  44  67  97 136 176 230 282 335 406
#     4  11  24  44  70  95 139 179 221 284 341 402
#
# _framework density 24.026302999999999
#
# number of rings (size 3 to 8) (size 9 to 14) (size 15 to 20)
#    0.000    1.200    2.000    3.600    5.600    1.600 
#    0.000    0.000    0.000    0.000    0.000    0.000 
#    0.000    0.000    0.000    0.000    0.000    0.000 
#
# Total GULP energy -247885.819835 kJ/mol
# GULP energy per Si atom -12394.290992 kJ/mol
# Density = 2.397162 g / cm^3
# Si number density = 24.026303 Si / 1000 Ang^3
#
#
#
# Elastic Constant Matrix: (Units=GPa)
#
#
# Indices 1 2 3 4 5 6 
#
# 1 147.9469 46.6217 18.4836 0.0000 -33.2492 0.0000
# 2 46.6217 114.6166 12.0179 0.0000 -12.6618 0.0000
# 3 18.4836 12.0179 78.8877 0.0000 -7.8395 0.0000
# 4 0.0000 0.0000 0.0000 -137.7475 0.0000 -132.9740
# 5 -33.2492 -12.6618 -7.8395 0.0000 28.1508 0.0000
# 6 0.0000 0.0000 0.0000 -132.9740 0.0000 -94.8618
#
#
#
# Elastic Compliance Matrix: (Units=1/GPa)
#
#
# Indices 1 2 3 4 5 6 
#
# 1 0.010114 -0.002870 -0.000899 0.000000 0.010405 0.000000
# 2 -0.002870 0.010076 -0.000770 0.000000 0.000927 0.000000
# 3 -0.000899 -0.000770 0.013230 0.000000 0.002277 0.000000
# 4 0.000000 0.000000 0.000000 0.020555 0.000000 -0.028813
# 5 0.010405 0.000927 0.002277 0.000000 0.048863 0.000000
# 6 0.000000 0.000000 0.000000 -0.028813 0.000000 0.029847
#
#
# Mechanical properties :
#
#
# Convention : Reuss Voigt Hill
#
# Bulk Modulus (GPa) = 41.08180 55.07750 48.07965
# Shear Modulus (GPa) = 33.36060 -23.26982 5.04539
#
# Velocity S-wave (km/s) = 3.73030 -3.11547 1.45069
# Velocity P-wave (km/s) = 5.97406 3.16734 4.78129
#
# Compressibility (1/GPa) = 0.02434168
#
# Stress axis : x y z
#
# Youngs Moduli (GPa) = 98.86938 99.25052 75.58373
#
# Poissons Ratio (x) = 0.28490 0.06792
# Poissons Ratio (y) = 0.28380 0.05822
# Poissons Ratio (z) = 0.08884 0.07645
#
# Static dielectric constant tensor:
#      x y z
#    x 4.271260 0.000000 0.220270 
#    y 0.000000 4.256800 0.000000 
#    z 0.220270 0.000000 5.132410 
# 
# 
# High freq. dielectric constant tensor:
#      x y z
#    x 1.962730 0.000000 0.011460 
#    y 0.000000 1.944130 0.000000 
#    z 0.011460 0.000000 1.975320 
# 
# From -- ./inp_files/62366.got.cif
#   From: 2010.06.25/outbox.cif.g09.slc.cpg/sg13_32_cif.got.tgz:62366.got - 2010.06.28 04:50:58.
