data_PCOD8121020
_publ_section_title
;
Structure prediction by ZEFSAII (Michael W. Deem and Ramdas Pophale) SiO2 
 PCOD8121020
Probable space group: P 2/C
;
_chemical_formula_sum "Si O2"
_cell_formula_units_Z 20
_cell_length_a 4.633166
_cell_length_b 8.730498
_cell_length_c 16.106018
_cell_angle_alpha 90.000000
_cell_angle_beta 104.512399
_cell_angle_gamma 90.000000
_cell_volume 630.699277
_symmetry_space_group_name_H-M "P 2/C"
_symmetry_group_IT_number 13
_symmetry_cell_setting 'monoclinic'
loop_
_space_group_symop_operation_xyz
x,y,z
-x,y,1/2-z
-x,-y,-z
x,-y,1/2+z
loop_
_atom_site_type_symbol
_atom_site_label
_atom_site_fract_x
_atom_site_fract_y
_atom_site_fract_z
Si Si1 0.500000 0.400479 0.250000
Si Si2 0.893304 0.844945 0.857344
Si Si3 0.792040 0.501262 0.111878
Si Si4 0.523404 0.243197 0.485743
Si Si5 0.000000 0.299324 0.750000
Si Si6 0.568594 0.941319 0.146911
O O1 0.203393 0.296407 0.208747
O O2 0.557934 0.500851 0.171579
O O3 0.757093 0.834226 0.940700
O O4 0.703107 0.997719 0.814097
O O5 0.233374 0.909902 0.869657
O O6 0.795939 0.320521 0.078699
O O7 0.079838 0.585534 0.176130
O O8 0.688713 0.602471 0.027135
O O9 0.431411 0.131327 0.552484
O O10 0.722971 0.196797 0.705529
#
# Coordination Sequence:
#
# PCOD8121020 Si02
#       6
#     2   4   4   4   2   4
#     4  10  22  38  64  96 134 174 224 276 330 392
#     4  11  23  41  67  98 133 174 220 275 333 393
#     4   9  20  40  62  95 132 178 222 271 328 390
#     4   9  20  40  66  94 134 174 222 272 328 394
#     4  10  22  38  64  96 134 174 224 276 330 392
#     4  11  23  41  67  98 133 174 220 275 333 393
#
# _framework density 31.710832
#
# number of rings (size 3 to 8) (size 9 to 14) (size 15 to 20)
#    0.000    2.000    0.000    2.400    0.000    6.400 
#    0.000    4.000    0.000   20.400    0.000    0.000 
#    0.000    0.000    0.000    0.000    0.000    0.000 
#
# Total GULP energy -247788.782420 kJ/mol
# GULP energy per Si atom -12389.439121 kJ/mol
# Density = 3.163866 g / cm^3
# Si number density = 31.710832 Si / 1000 Ang^3
#
#
#
# Elastic Constant Matrix: (Units=GPa)
#
#
# Indices 1 2 3 4 5 6 
#
# 1 150.5410 37.7307 39.1584 0.0000 3.8829 0.0000
# 2 37.7307 200.5494 39.0838 0.0000 7.2702 0.0000
# 3 39.1584 39.0838 112.2348 0.0000 25.3907 0.0000
# 4 0.0000 0.0000 0.0000 69.2496 0.0000 -11.5229
# 5 3.8829 7.2702 25.3907 0.0000 49.2465 0.0000
# 6 0.0000 0.0000 0.0000 -11.5229 0.0000 25.2926
#
#
#
# Elastic Compliance Matrix: (Units=1/GPa)
#
#
# Indices 1 2 3 4 5 6 
#
# 1 0.007505 -0.000960 -0.002470 0.000000 0.000824 0.000000
# 2 -0.000960 0.005474 -0.001591 0.000000 0.000088 0.000000
# 3 -0.002470 -0.001591 0.011579 0.000000 -0.005540 0.000000
# 4 0.000000 0.000000 0.000000 0.015625 0.000000 0.007119
# 5 0.000824 0.000088 -0.005540 0.000000 0.023085 0.000000
# 6 0.000000 0.000000 0.000000 0.007119 0.000000 0.042780
#
#
# Mechanical properties :
#
#
# Convention : Reuss Voigt Hill
#
# Bulk Modulus (GPa) = 68.89663 77.25232 73.07448
# Shear Modulus (GPa) = 41.34648 51.91457 46.63052
#
# Velocity S-wave (km/s) = 3.61482 4.05053 3.83886
# Velocity P-wave (km/s) = 6.26069 6.80368 6.53783
#
# Compressibility (1/GPa) = 0.01451450
#
# Stress axis : x y z
#
# Youngs Moduli (GPa) = 133.24936 182.68677 86.36165
#
# Poissons Ratio (x) = 0.17544 0.21334
# Poissons Ratio (y) = 0.12797 0.13740
# Poissons Ratio (z) = 0.32917 0.29065
#
# Static dielectric constant tensor:
#      x y z
#    x 5.814660 0.000000 0.706670 
#    y 0.000000 7.566510 0.000000 
#    z 0.706670 0.000000 6.836670 
# 
# 
# High freq. dielectric constant tensor:
#      x y z
#    x 2.287010 0.000000 0.031590 
#    y 0.000000 2.382170 0.000000 
#    z 0.031590 0.000000 2.340390 
# 
# From -- ./inp_files/72847.got.cif
#   From: 2010.06.25/outbox.cif.g09.slc.cpg/sg13_37_cif.got.tgz:72847.got - 2010.06.28 04:50:58.
