data_PCOD8121894
_publ_section_title
;
Structure prediction by ZEFSAII (Michael W. Deem and Ramdas Pophale) SiO2 
 PCOD8121894
Probable space group: P 2/C
;
_chemical_formula_sum "Si O2"
_cell_formula_units_Z 30
_cell_length_a 14.731882
_cell_length_b 5.687868
_cell_length_c 17.092832
_cell_angle_alpha 90.000000
_cell_angle_beta 71.318324
_cell_angle_gamma 90.000000
_cell_volume 1356.797874
_symmetry_space_group_name_H-M "P 2/C"
_symmetry_group_IT_number 13
_symmetry_cell_setting 'monoclinic'
loop_
_space_group_symop_operation_xyz
x,y,z
-x,y,1/2-z
-x,-y,-z
x,-y,1/2+z
loop_
_atom_site_type_symbol
_atom_site_label
_atom_site_fract_x
_atom_site_fract_y
_atom_site_fract_z
Si Si1 0.633086 0.789130 0.974024
Si Si2 0.139983 0.475769 0.899280
Si Si3 0.838281 0.159435 0.346273
Si Si4 0.024931 0.802052 0.553378
Si Si5 0.110752 0.670773 0.241761
Si Si6 0.642246 0.492222 0.625757
Si Si7 0.500000 0.179415 0.750000
Si Si8 0.513874 0.130215 0.106878
O O1 0.740724 0.842889 0.921129
O O2 0.569235 0.722108 0.915073
O O3 0.632953 0.585011 0.037984
O O4 0.585847 0.021755 0.023300
O O5 0.126918 0.300839 0.830187
O O6 0.249438 0.548559 0.881247
O O7 0.077524 0.700802 0.893328
O O8 0.098348 0.378193 0.992156
O O9 0.926814 0.115742 0.380202
O O10 0.846578 0.415465 0.300016
O O11 0.837638 0.913166 0.299043
O O12 0.000000 0.000000 0.500000
O O13 0.000000 0.674607 0.250000
O O14 0.597049 0.316202 0.700997
O O15 0.578410 0.722747 0.649029
O O16 0.535390 0.049486 0.819139
#
# Coordination Sequence:
#
# PCOD8121894 Si02
#       8
#     4   4   4   4   4   4   2   4
#     4  10  24  43  68 101 129 187 238 291 355 423
#     4  11  26  44  70 105 139 189 238 299 363 431
#     4  12  27  46  75 105 146 191 246 293 357 445
#     4  11  25  44  72 101 141 187 242 296 359 432
#     4  12  27  48  69 106 153 189 235 298 366 427
#     4  11  23  43  70  97 139 177 238 293 356 429
#     4  10  24  40  64 102 132 178 230 286 362 422
#     4  10  23  44  68  94 143 175 232 296 357 424
#
# _framework density 22.110885
#
# number of rings (size 3 to 8) (size 9 to 14) (size 15 to 20)
#    0.000    1.067    2.667    2.000    9.333    2.133 
#    0.000    0.000    0.000    0.000    0.000    0.000 
#    0.000    0.000    0.000    0.000    0.000    0.000 
#
# Total GULP energy -371756.108802 kJ/mol
# GULP energy per Si atom -12391.870293 kJ/mol
# Density = 2.206056 g / cm^3
# Si number density = 22.110885 Si / 1000 Ang^3
#
#
#
# Elastic Constant Matrix: (Units=GPa)
#
#
# Indices 1 2 3 4 5 6 
#
# 1 152.7704 27.8554 41.5808 0.0000 -4.0120 0.0000
# 2 27.8554 101.5728 31.7246 0.0000 -10.6559 0.0000
# 3 41.5808 31.7246 102.4796 0.0000 -8.9455 0.0000
# 4 0.0000 0.0000 0.0000 14.9464 0.0000 9.2353
# 5 -4.0120 -10.6559 -8.9455 0.0000 36.8143 0.0000
# 6 0.0000 0.0000 0.0000 9.2353 0.0000 22.2593
#
#
#
# Elastic Compliance Matrix: (Units=1/GPa)
#
#
# Indices 1 2 3 4 5 6 
#
# 1 0.007495 -0.001240 -0.002674 0.000000 -0.000192 0.000000
# 2 -0.001240 0.011313 -0.002784 0.000000 0.002463 0.000000
# 3 -0.002674 -0.002784 0.011861 0.000000 0.001785 0.000000
# 4 0.000000 0.000000 0.000000 0.089970 0.000000 -0.037328
# 5 -0.000192 0.002463 0.001785 0.000000 0.028289 0.000000
# 6 0.000000 0.000000 0.000000 -0.037328 0.000000 0.060412
#
#
# Mechanical properties :
#
#
# Convention : Reuss Voigt Hill
#
# Bulk Modulus (GPa) = 57.89623 62.12718 60.01171
# Shear Modulus (GPa) = 21.88244 31.84814 26.86529
#
# Velocity S-wave (km/s) = 3.14931 3.79935 3.48950
# Velocity P-wave (km/s) = 6.28216 6.88519 6.59058
#
# Compressibility (1/GPa) = 0.01727228
#
# Stress axis : x y z
#
# Youngs Moduli (GPa) = 133.42915 88.39203 84.31347
#
# Poissons Ratio (x) = 0.10964 0.22543
# Poissons Ratio (y) = 0.16550 0.23473
# Poissons Ratio (z) = 0.35675 0.24608
#
# Static dielectric constant tensor:
#      x y z
#    x 3.966240 0.000000 0.006680 
#    y 0.000000 4.014260 0.000000 
#    z 0.006680 0.000000 4.368910 
# 
# 
# High freq. dielectric constant tensor:
#      x y z
#    x 1.873850 0.000000 0.000250 
#    y 0.000000 1.863930 0.000000 
#    z 0.000250 0.000000 1.888320 
# 
# From -- ./inp_files/67363.got.cif
#   From: 2010.06.25/outbox.cif.g09.slc.cpg/sg13_34_cif.got.tgz:67363.got - 2010.06.28 04:50:58.
