data_PCOD8121415
_publ_section_title
;
Structure prediction by ZEFSAII (Michael W. Deem and Ramdas Pophale) SiO2 
 PCOD8121415
Probable space group: P 2/C
;
_chemical_formula_sum "Si O2"
_cell_formula_units_Z 30
_cell_length_a 12.440626
_cell_length_b 14.656403
_cell_length_c 9.607903
_cell_angle_alpha 90.000000
_cell_angle_beta 126.533830
_cell_angle_gamma 90.000000
_cell_volume 1407.625422
_symmetry_space_group_name_H-M "P 2/C"
_symmetry_group_IT_number 13
_symmetry_cell_setting 'monoclinic'
loop_
_space_group_symop_operation_xyz
x,y,z
-x,y,1/2-z
-x,-y,-z
x,-y,1/2+z
loop_
_atom_site_type_symbol
_atom_site_label
_atom_site_fract_x
_atom_site_fract_y
_atom_site_fract_z
Si Si1 0.494472 0.092273 0.084719
Si Si2 0.313680 0.457828 0.355252
Si Si3 0.088422 0.983753 0.195713
Si Si4 0.771874 0.850351 0.780213
Si Si5 0.927236 0.677170 0.834517
Si Si6 0.500000 0.507010 0.250000
Si Si7 0.221465 0.182645 0.897004
Si Si8 0.113939 0.625613 0.233051
O O1 0.500000 0.061301 0.250000
O O2 0.613225 0.164699 0.140407
O O3 0.368340 0.156705 0.957375
O O4 0.500000 0.000000 0.000000
O O5 0.206212 0.380401 0.246172
O O6 0.409877 0.451213 0.292554
O O7 0.397610 0.439428 0.564810
O O8 0.231255 0.552886 0.296193
O O9 0.216494 0.049163 0.279526
O O10 0.000000 0.021793 0.250000
O O11 0.122013 0.876846 0.226628
O O12 0.000000 0.000000 0.000000
O O13 0.872120 0.780070 0.783462
O O14 0.808178 0.850475 0.970461
O O15 0.000000 0.649751 0.750000
O O16 0.038114 0.657147 0.036286
O O17 0.190105 0.288899 0.859717
O O18 0.000000 0.586661 0.250000
#
# Coordination Sequence:
#
# PCOD8121415 Si02
#       8
#     4   4   4   4   4   2   4   4
#     4  10  22  42  65  90 125 171 226 269 332 406
#     4  11  24  45  73 100 139 183 219 280 341 393
#     4  12  22  36  62  88 129 168 209 270 331 385
#     4  11  23  42  64  95 129 171 222 277 328 401
#     4  12  25  44  66 102 142 170 230 282 339 402
#     4  10  24  44  70 104 138 168 234 268 336 410
#     4  11  23  42  64  96 129 168 228 272 326 409
#     4  12  23  43  71  99 133 180 231 273 337 413
#
# _framework density 21.312487000000001
#
# number of rings (size 3 to 8) (size 9 to 14) (size 15 to 20)
#    0.000    0.800    4.000    4.000    0.000    2.133 
#    4.800    0.000    0.000    0.000    0.000    0.000 
#    0.000    0.000    0.000    0.000    0.000    0.000 
#
# Total GULP energy -371669.723854 kJ/mol
# GULP energy per Si atom -12388.990795 kJ/mol
# Density = 2.126398 g / cm^3
# Si number density = 21.312487 Si / 1000 Ang^3
#
#
#
# Elastic Constant Matrix: (Units=GPa)
#
#
# Indices 1 2 3 4 5 6 
#
# 1 132.1309 26.8865 38.5934 0.0000 1.3580 0.0000
# 2 26.8865 82.5255 7.9007 0.0000 9.2333 0.0000
# 3 38.5934 7.9007 103.2174 0.0000 3.8629 0.0000
# 4 0.0000 0.0000 0.0000 15.3919 0.0000 -1.1739
# 5 1.3580 9.2333 3.8629 0.0000 39.4145 0.0000
# 6 0.0000 0.0000 0.0000 -1.1739 0.0000 27.2504
#
#
#
# Elastic Compliance Matrix: (Units=1/GPa)
#
#
# Indices 1 2 3 4 5 6 
#
# 1 0.009048 -0.002713 -0.003199 0.000000 0.000637 0.000000
# 2 -0.002713 0.013331 0.000108 0.000000 -0.003040 0.000000
# 3 -0.003199 0.000108 0.010913 0.000000 -0.000985 0.000000
# 4 0.000000 0.000000 0.000000 0.065183 0.000000 0.002808
# 5 0.000637 -0.003040 -0.000985 0.000000 0.026158 0.000000
# 6 0.000000 0.000000 0.000000 0.002808 0.000000 0.036818
#
#
# Mechanical properties :
#
#
# Convention : Reuss Voigt Hill
#
# Bulk Modulus (GPa) = 46.11817 51.62610 48.87213
# Shear Modulus (GPa) = 27.73332 32.71090 30.22211
#
# Velocity S-wave (km/s) = 3.61123 3.92193 3.76978
# Velocity P-wave (km/s) = 6.25092 6.69214 6.47529
#
# Compressibility (1/GPa) = 0.02168343
#
# Stress axis : x y z
#
# Youngs Moduli (GPa) = 110.51902 75.01233 91.63257
#
# Poissons Ratio (x) = 0.20350 0.29317
# Poissons Ratio (y) = 0.29983 -0.00987
# Poissons Ratio (z) = 0.35359 -0.00808
#
# Static dielectric constant tensor:
#      x y z
#    x 4.242280 0.000000 0.120420 
#    y 0.000000 3.575310 0.000000 
#    z 0.120420 0.000000 4.010930 
# 
# 
# High freq. dielectric constant tensor:
#      x y z
#    x 1.862060 0.000000 0.011100 
#    y 0.000000 1.818630 0.000000 
#    z 0.011100 0.000000 1.845840 
# 
# From -- ./inp_files/16890.got.cif
#   From: 2010.06.25/outbox.cif.g09.slc.cpg/sg13_9_cif.got.tgz:16890.got - 2010.06.28 04:50:58.
