data_PCOD8121871
_publ_section_title
;
Structure prediction by ZEFSAII (Michael W. Deem and Ramdas Pophale) SiO2 
 PCOD8121871
Probable space group: P 2/C
;
_chemical_formula_sum "Si O2"
_cell_formula_units_Z 18
_cell_length_a 7.903422
_cell_length_b 18.705088
_cell_length_c 5.460696
_cell_angle_alpha 90.000000
_cell_angle_beta 60.075368
_cell_angle_gamma 90.000000
_cell_volume 699.653299
_symmetry_space_group_name_H-M "P 2/C"
_symmetry_group_IT_number 13
_symmetry_cell_setting 'monoclinic'
loop_
_space_group_symop_operation_xyz
x,y,z
-x,y,1/2-z
-x,-y,-z
x,-y,1/2+z
loop_
_atom_site_type_symbol
_atom_site_label
_atom_site_fract_x
_atom_site_fract_y
_atom_site_fract_z
Si Si1 0.232066 0.537339 0.570592
Si Si2 0.206804 0.810311 0.474962
Si Si3 0.673822 0.682281 0.812460
Si Si4 0.000000 0.275917 0.750000
Si Si5 0.281809 0.971696 0.403339
O O1 0.310920 0.501341 0.262533
O O2 0.320239 0.617662 0.498398
O O3 0.000000 0.536806 0.750000
O O4 0.346081 0.758622 0.535550
O O5 0.303813 0.886690 0.367893
O O6 0.170475 0.773427 0.240308
O O7 0.000000 0.822115 0.750000
O O8 0.500000 0.672991 0.750000
O O9 0.887011 0.675352 0.527156
O O10 0.500000 0.005124 0.250000
O O11 0.175096 0.996149 0.735528
#
# Coordination Sequence:
#
# PCOD8121871 Si02
#       5
#     4   4   4   2   4
#     4  10  23  43  71 101 143 188 231 288 353 415
#     4  10  24  43  66  97 133 180 232 285 347 415
#     4  11  26  43  70 103 136 184 235 291 349 416
#     4  10  24  44  66  98 140 176 236 296 340 418
#     4  10  24  42  66  98 137 177 225 286 347 414
#
# _framework density 25.727031
#
# number of rings (size 3 to 8) (size 9 to 14) (size 15 to 20)
#    0.000    1.778    0.000    2.000   17.111    2.667 
#    0.000    0.000    0.000    0.000    0.000    0.000 
#    0.000    0.000    0.000    0.000    0.000    0.000 
#
# Total GULP energy -223227.154433 kJ/mol
# GULP energy per Si atom -12401.508580 kJ/mol
# Density = 2.566847 g / cm^3
# Si number density = 25.727031 Si / 1000 Ang^3
#
#
#
# Elastic Constant Matrix: (Units=GPa)
#
#
# Indices 1 2 3 4 5 6 
#
# 1 89.5866 37.0987 33.9344 0.0000 38.9439 0.0000
# 2 37.0987 166.7987 37.6082 0.0000 28.2753 0.0000
# 3 33.9344 37.6082 120.4653 0.0000 38.1706 0.0000
# 4 0.0000 0.0000 0.0000 -25.4281 0.0000 4.0613
# 5 38.9439 28.2753 38.1706 0.0000 41.2355 0.0000
# 6 0.0000 0.0000 0.0000 4.0613 0.0000 21.5753
#
#
#
# Elastic Compliance Matrix: (Units=1/GPa)
#
#
# Indices 1 2 3 4 5 6 
#
# 1 0.019241 -0.001409 0.000667 0.000000 -0.017823 0.000000
# 2 -0.001409 0.006958 -0.000970 0.000000 -0.002544 0.000000
# 3 0.000667 -0.000970 0.011893 0.000000 -0.010975 0.000000
# 4 0.000000 0.000000 0.000000 -0.038179 0.000000 0.007187
# 5 -0.017823 -0.002544 -0.010975 0.000000 0.052987 0.000000
# 6 0.000000 0.000000 0.000000 0.007187 0.000000 0.044996
#
#
# Mechanical properties :
#
#
# Convention : Reuss Voigt Hill
#
# Bulk Modulus (GPa) = 28.84286 66.01481 47.42883
# Shear Modulus (GPa) = 44.29645 25.35716 34.82680
#
# Velocity S-wave (km/s) = 4.15394 3.14287 3.68326
# Velocity P-wave (km/s) = 5.85170 6.23583 6.04682
#
# Compressibility (1/GPa) = 0.03467063
#
# Stress axis : x y z
#
# Youngs Moduli (GPa) = 51.97267 143.71280 84.08094
#
# Poissons Ratio (x) = 0.20242 -0.05610
# Poissons Ratio (y) = 0.07321 0.08152
# Poissons Ratio (z) = -0.03468 0.13934
#
# Static dielectric constant tensor:
#      x y z
#    x 4.598780 0.000000 0.373320 
#    y 0.000000 4.462700 0.000000 
#    z 0.373320 0.000000 4.747340 
# 
# 
# High freq. dielectric constant tensor:
#      x y z
#    x 2.038240 0.000000 0.007620 
#    y 0.000000 2.019520 0.000000 
#    z 0.007620 0.000000 2.033330 
# 
# From -- ./inp_files/1374.got.cif
#   From: 2010.06.25/outbox.cif.g09.slc.cpg/sg13_1_cif.got.tgz:1374.got - 2010.06.28 04:50:58.
