data_PCOD8121330
_publ_section_title
;
Structure prediction by ZEFSAII (Michael W. Deem and Ramdas Pophale) SiO2 
 PCOD8121330
Probable space group: P 2/C
;
_chemical_formula_sum "Si O2"
_cell_formula_units_Z 20
_cell_length_a 5.762806
_cell_length_b 9.337827
_cell_length_c 18.188513
_cell_angle_alpha 90.000000
_cell_angle_beta 68.129977
_cell_angle_gamma 90.000000
_cell_volume 908.321574
_symmetry_space_group_name_H-M "P 2/C"
_symmetry_group_IT_number 13
_symmetry_cell_setting 'monoclinic'
loop_
_space_group_symop_operation_xyz
x,y,z
-x,y,1/2-z
-x,-y,-z
x,-y,1/2+z
loop_
_atom_site_type_symbol
_atom_site_label
_atom_site_fract_x
_atom_site_fract_y
_atom_site_fract_z
Si Si1 0.766839 0.349251 0.412397
Si Si2 0.707277 0.170749 0.789631
Si Si3 0.104698 0.154431 0.472897
Si Si4 0.707926 0.664542 0.430164
Si Si5 0.585616 0.850978 0.820289
O O1 0.848139 0.515281 0.393661
O O2 0.501738 0.356735 0.483601
O O3 0.757275 0.275859 0.332902
O O4 0.957136 0.256442 0.435982
O O5 0.500000 0.202223 0.750000
O O6 0.595026 0.257840 0.871826
O O7 0.000000 0.224125 0.750000
O O8 0.730580 0.000965 0.798969
O O9 0.097150 0.228964 0.553757
O O10 0.369608 0.125659 0.404907
O O11 0.000000 0.000000 0.500000
O O12 0.500000 0.800010 0.750000
#
# Coordination Sequence:
#
# PCOD8121330 Si02
#       5
#     4   4   4   4   4
#     4  10  22  41  66  92 130 172 219 276 333 396
#     4  11  26  44  67 100 134 179 222 277 336 395
#     4  11  22  38  69  96 125 174 222 273 329 395
#     4  10  23  42  62  96 130 171 222 273 331 403
#     4  10  24  40  62  96 129 170 219 279 329 390
#
# _framework density 22.018633999999999
#
# number of rings (size 3 to 8) (size 9 to 14) (size 15 to 20)
#    0.000    1.600    0.000    3.000   14.000    4.000 
#    3.600    0.000    0.000    0.000    0.000    0.000 
#    0.000    0.000    0.000    0.000    0.000    0.000 
#
# Total GULP energy -247825.574475 kJ/mol
# GULP energy per Si atom -12391.278724 kJ/mol
# Density = 2.196852 g / cm^3
# Si number density = 22.018634 Si / 1000 Ang^3
#
#
#
# Elastic Constant Matrix: (Units=GPa)
#
#
# Indices 1 2 3 4 5 6 
#
# 1 93.6364 41.4380 29.3245 0.0000 30.9417 0.0000
# 2 41.4380 145.7746 60.7529 0.0000 44.1101 0.0000
# 3 29.3245 60.7529 108.7227 0.0000 47.1158 0.0000
# 4 0.0000 0.0000 0.0000 -2.9814 0.0000 8.3395
# 5 30.9417 44.1101 47.1158 0.0000 38.3583 0.0000
# 6 0.0000 0.0000 0.0000 8.3395 0.0000 15.3150
#
#
#
# Elastic Compliance Matrix: (Units=1/GPa)
#
#
# Indices 1 2 3 4 5 6 
#
# 1 0.014997 -0.001111 0.002704 0.000000 -0.014141 0.000000
# 2 -0.001111 0.010698 -0.001572 0.000000 -0.009475 0.000000
# 3 0.002704 -0.001572 0.020331 0.000000 -0.025345 0.000000
# 4 0.000000 0.000000 0.000000 -0.132934 0.000000 0.072387
# 5 -0.014141 -0.009475 -0.025345 0.000000 0.079504 0.000000
# 6 0.000000 0.000000 0.000000 0.072387 0.000000 0.025879
#
#
# Mechanical properties :
#
#
# Convention : Reuss Voigt Hill
#
# Bulk Modulus (GPa) = 21.70742 67.90717 44.80730
# Shear Modulus (GPa) = 147.97596 24.57960 86.27778
#
# Velocity S-wave (km/s) = 8.20675 3.34475 6.26650
# Velocity P-wave (km/s) = 9.98404 6.76935 8.52951
#
# Compressibility (1/GPa) = 0.04606719
#
# Stress axis : x y z
#
# Youngs Moduli (GPa) = 66.67814 93.47609 49.18707
#
# Poissons Ratio (x) = 0.10386 -0.13300
# Poissons Ratio (y) = 0.07408 0.07734
# Poissons Ratio (z) = -0.18030 0.14698
#
# Static dielectric constant tensor:
#      x y z
#    x 3.980750 0.000000 0.178230 
#    y 0.000000 4.317890 0.000000 
#    z 0.178230 0.000000 4.000370 
# 
# 
# High freq. dielectric constant tensor:
#      x y z
#    x 1.857380 0.000000 0.013730 
#    y 0.000000 1.877860 0.000000 
#    z 0.013730 0.000000 1.869390 
# 
# From -- ./inp_files/60578.got.cif
#   From: 2010.06.25/outbox.cif.g09.slc.cpg/sg13_31_cif.got.tgz:60578.got - 2010.06.28 04:50:58.
