data_PCOD8121984
_publ_section_title
;
Structure prediction by ZEFSAII (Michael W. Deem and Ramdas Pophale) SiO2 
 PCOD8121984
Probable space group: P 2/C
;
_chemical_formula_sum "Si O2"
_cell_formula_units_Z 30
_cell_length_a 26.910978
_cell_length_b 11.282722
_cell_length_c 9.202581
_cell_angle_alpha 90.000000
_cell_angle_beta 143.837954
_cell_angle_gamma 90.000000
_cell_volume 1648.759386
_symmetry_space_group_name_H-M "P 2/C"
_symmetry_group_IT_number 13
_symmetry_cell_setting 'monoclinic'
loop_
_space_group_symop_operation_xyz
x,y,z
-x,y,1/2-z
-x,-y,-z
x,-y,1/2+z
loop_
_atom_site_type_symbol
_atom_site_label
_atom_site_fract_x
_atom_site_fract_y
_atom_site_fract_z
Si Si1 0.831959 0.857693 0.890480
Si Si2 0.000000 0.776167 0.750000
Si Si3 0.074787 0.428072 0.248732
Si Si4 0.532594 0.337881 0.474235
Si Si5 0.160765 0.603894 0.664812
Si Si6 0.676993 0.711015 0.526721
Si Si7 0.575590 0.600489 0.527906
Si Si8 0.911273 0.038499 0.857806
O O1 0.877398 0.728679 0.986126
O O2 0.730427 0.834017 0.651149
O O3 0.862962 0.933372 0.826225
O O4 0.851840 0.919906 0.088338
O O5 0.041728 0.698386 0.723012
O O6 0.926365 0.856309 0.507646
O O7 0.113369 0.496345 0.476397
O O8 0.147984 0.406835 0.306291
O O9 0.000000 0.500000 0.000000
O O10 0.580917 0.457906 0.539049
O O11 0.445669 0.360243 0.357824
O O12 0.599338 0.267405 0.731997
O O13 0.500000 0.271242 0.250000
O O14 0.261990 0.603269 0.882900
O O15 0.653673 0.669479 0.636947
O O16 0.500000 0.643692 0.250000
O O17 0.000000 0.000000 0.000000
#
# Coordination Sequence:
#
# PCOD8121984 Si02
#       8
#     4   2   4   4   4   4   4   4
#     4  10  24  40  60  83 116 149 203 262 309 339
#     4  12  24  36  66  80 108 152 222 244 310 352
#     4  12  22  40  56  82 118 163 199 244 299 384
#     4   9  16  31  56  85 117 157 192 219 271 365
#     4  10  24  38  55  84 124 153 192 249 303 357
#     4   9  21  34  52  84 120 152 184 237 302 347
#     4   8  15  31  53  81 119 158 187 217 276 364
#     4  12  22  42  63  84 107 156 214 269 298 351
#
# _framework density 18.195499000000002
#
# number of rings (size 3 to 8) (size 9 to 14) (size 15 to 20)
#    0.800    1.067    2.667    2.400    1.867    1.067 
#    0.000    1.333    0.000    0.000    0.000   12.133 
#    0.000    0.000    0.000    0.000    0.000    0.000 
#
# Total GULP energy -371666.274012 kJ/mol
# GULP energy per Si atom -12388.875800 kJ/mol
# Density = 1.815409 g / cm^3
# Si number density = 18.195499 Si / 1000 Ang^3
#
#
#
# Elastic Constant Matrix: (Units=GPa)
#
#
# Indices 1 2 3 4 5 6 
#
# 1 133.3189 38.3888 37.2201 0.0000 -3.8468 0.0000
# 2 38.3888 72.6058 22.9936 0.0000 1.6423 0.0000
# 3 37.2201 22.9936 90.4950 0.0000 -6.8951 0.0000
# 4 0.0000 0.0000 0.0000 27.5634 0.0000 -1.8202
# 5 -3.8468 1.6423 -6.8951 0.0000 29.7606 0.0000
# 6 0.0000 0.0000 0.0000 -1.8202 0.0000 38.5186
#
#
#
# Elastic Compliance Matrix: (Units=1/GPa)
#
#
# Indices 1 2 3 4 5 6 
#
# 1 0.009500 -0.004158 -0.002789 0.000000 0.000811 0.000000
# 2 -0.004158 0.016887 -0.002741 0.000000 -0.002104 0.000000
# 3 -0.002789 -0.002741 0.013109 0.000000 0.002828 0.000000
# 4 0.000000 0.000000 0.000000 0.036394 0.000000 0.001720
# 5 0.000811 -0.002104 0.002828 0.000000 0.034478 0.000000
# 6 0.000000 0.000000 0.000000 0.001720 0.000000 0.026043
#
#
# Mechanical properties :
#
#
# Convention : Reuss Voigt Hill
#
# Bulk Modulus (GPa) = 49.70052 54.84720 52.27386
# Shear Modulus (GPa) = 30.77044 32.35634 31.56339
#
# Velocity S-wave (km/s) = 4.11676 4.22152 4.16947
# Velocity P-wave (km/s) = 7.06902 7.34645 7.20907
#
# Compressibility (1/GPa) = 0.02012051
#
# Stress axis : x y z
#
# Youngs Moduli (GPa) = 105.26119 59.21666 76.28139
#
# Poissons Ratio (x) = 0.24623 0.21275
# Poissons Ratio (y) = 0.43769 0.20908
# Poissons Ratio (z) = 0.29358 0.16231
#
# Static dielectric constant tensor:
#      x y z
#    x 5.437350 0.000000 -0.599020 
#    y 0.000000 3.126550 0.000000 
#    z -0.599020 0.000000 3.397030 
# 
# 
# High freq. dielectric constant tensor:
#      x y z
#    x 1.721850 0.000000 -0.015140 
#    y 0.000000 1.671720 0.000000 
#    z -0.015140 0.000000 1.692900 
# 
# From -- ./inp_files/24696.got.cif
#   From: 2010.06.25/outbox.cif.g09.slc.cpg/sg13_13_cif.got.tgz:24696.got - 2010.06.28 04:50:58.
