data_PCOD8121278
_publ_section_title
;
Structure prediction by ZEFSAII (Michael W. Deem and Ramdas Pophale) SiO2 
 PCOD8121278
Probable space group: P 2/C
;
_chemical_formula_sum "Si O2"
_cell_formula_units_Z 18
_cell_length_a 10.259071
_cell_length_b 6.460959
_cell_length_c 12.465245
_cell_angle_alpha 90.000000
_cell_angle_beta 84.585932
_cell_angle_gamma 90.000000
_cell_volume 822.553287
_symmetry_space_group_name_H-M "P 2/C"
_symmetry_group_IT_number 13
_symmetry_cell_setting 'monoclinic'
loop_
_space_group_symop_operation_xyz
x,y,z
-x,y,1/2-z
-x,-y,-z
x,-y,1/2+z
loop_
_atom_site_type_symbol
_atom_site_label
_atom_site_fract_x
_atom_site_fract_y
_atom_site_fract_z
Si Si1 0.500000 0.575705 0.750000
Si Si2 0.594881 0.911836 0.582566
Si Si3 0.293581 0.243167 0.775768
Si Si4 0.829401 0.946160 0.420880
Si Si5 0.076969 0.299878 0.958092
O O1 0.533820 0.710726 0.643015
O O2 0.377371 0.434045 0.722909
O O3 0.734868 0.850026 0.520074
O O4 0.500000 0.000000 0.500000
O O5 0.610139 0.095125 0.666297
O O6 0.233528 0.094668 0.689402
O O7 0.182084 0.347589 0.857796
O O8 0.972671 0.851360 0.412497
O O9 0.849708 0.191408 0.445729
O O10 0.000000 0.500000 0.000000
#
# Coordination Sequence:
#
# PCOD8121278 Si02
#       5
#     2   4   4   4   4
#     4  12  24  40  66  92 124 174 218 262 326 384
#     4  11  24  42  62  91 129 167 213 269 322 379
#     4  11  24  41  64  96 128 165 217 265 317 385
#     4  10  22  41  63  90 127 163 207 265 319 376
#     4  10  22  42  66  92 125 167 212 260 317 380
#
# _framework density 21.883081000000001
#
# number of rings (size 3 to 8) (size 9 to 14) (size 15 to 20)
#    0.000    1.333    0.000    5.333    0.000    8.889 
#    0.000    8.889    0.000    0.000    0.000    0.000 
#    0.000    0.000    0.000    0.000    0.000    0.000 
#
# Total GULP energy -223201.184569 kJ/mol
# GULP energy per Si atom -12400.065809 kJ/mol
# Density = 2.183327 g / cm^3
# Si number density = 21.883081 Si / 1000 Ang^3
#
#
#
# Elastic Constant Matrix: (Units=GPa)
#
#
# Indices 1 2 3 4 5 6 
#
# 1 125.4328 64.4396 61.6197 0.0000 -6.1011 0.0000
# 2 64.4396 124.3777 78.2387 0.0000 -6.5450 0.0000
# 3 61.6197 78.2387 125.4139 0.0000 8.9368 0.0000
# 4 0.0000 0.0000 0.0000 39.2750 0.0000 -10.6589
# 5 -6.1011 -6.5450 8.9368 0.0000 54.3197 0.0000
# 6 0.0000 0.0000 0.0000 -10.6589 0.0000 47.4931
#
#
#
# Elastic Compliance Matrix: (Units=1/GPa)
#
#
# Indices 1 2 3 4 5 6 
#
# 1 0.011704 -0.003797 -0.003484 0.000000 0.001430 0.000000
# 2 -0.003797 0.014962 -0.007656 0.000000 0.002636 0.000000
# 3 -0.003484 -0.007656 0.014728 0.000000 -0.003737 0.000000
# 4 0.000000 0.000000 0.000000 0.027113 0.000000 0.006085
# 5 0.001430 0.002636 -0.003737 0.000000 0.019503 0.000000
# 6 0.000000 0.000000 0.000000 0.006085 0.000000 0.022421
#
#
# Mechanical properties :
#
#
# Convention : Reuss Voigt Hill
#
# Bulk Modulus (GPa) = 86.80614 87.09115 86.94864
# Shear Modulus (GPa) = 34.68739 39.61267 37.15003
#
# Velocity S-wave (km/s) = 3.98568 4.25926 4.12474
# Velocity P-wave (km/s) = 7.80610 8.00457 7.90596
#
# Compressibility (1/GPa) = 0.01151992
#
# Stress axis : x y z
#
# Youngs Moduli (GPa) = 85.44020 66.83549 67.89924
#
# Poissons Ratio (x) = 0.25379 0.23653
# Poissons Ratio (y) = 0.32444 0.51985
# Poissons Ratio (z) = 0.29764 0.51170
#
# Static dielectric constant tensor:
#      x y z
#    x 4.366260 0.000000 -0.267020 
#    y 0.000000 3.975820 0.000000 
#    z -0.267020 0.000000 4.002860 
# 
# 
# High freq. dielectric constant tensor:
#      x y z
#    x 1.885880 0.000000 -0.016210 
#    y 0.000000 1.852060 0.000000 
#    z -0.016210 0.000000 1.858740 
# 
# From -- ./inp_files/31279.got.cif
#   From: 2010.06.25/outbox.cif.g09.slc.cpg/sg13_16_cif.got.tgz:31279.got - 2010.06.28 04:50:58.
