data_PCOD8121268
_publ_section_title
;
Structure prediction by ZEFSAII (Michael W. Deem and Ramdas Pophale) SiO2 
 PCOD8121268
Probable space group: P 2/C
;
_chemical_formula_sum "Si O2"
_cell_formula_units_Z 30
_cell_length_a 24.523181
_cell_length_b 8.101951
_cell_length_c 16.322999
_cell_angle_alpha 90.000000
_cell_angle_beta 28.638832
_cell_angle_gamma 90.000000
_cell_volume 1554.396594
_symmetry_space_group_name_H-M "P 2/C"
_symmetry_group_IT_number 13
_symmetry_cell_setting 'monoclinic'
loop_
_space_group_symop_operation_xyz
x,y,z
-x,y,1/2-z
-x,-y,-z
x,-y,1/2+z
loop_
_atom_site_type_symbol
_atom_site_label
_atom_site_fract_x
_atom_site_fract_y
_atom_site_fract_z
Si Si1 0.101845 0.786541 0.679379
Si Si2 0.470851 0.678755 0.005842
Si Si3 0.358165 0.179210 0.810646
Si Si4 0.911522 0.839854 0.294648
Si Si5 0.500000 0.370142 0.750000
Si Si6 0.908412 0.528612 0.189063
Si Si7 0.339539 0.617956 0.027576
Si Si8 0.342778 0.190434 0.355790
O O1 0.224637 0.778249 0.472066
O O2 0.093740 0.633773 0.751801
O O3 0.000000 0.763374 0.750000
O O4 0.090227 0.969654 0.737610
O O5 0.588866 0.728744 0.808166
O O6 0.500000 0.500000 0.000000
O O7 0.432995 0.792729 0.131183
O O8 0.366341 0.703474 0.079188
O O9 0.402248 0.277453 0.830383
O O10 0.379953 0.996368 0.812147
O O11 0.942994 0.701732 0.186261
O O12 0.789465 0.791152 0.492848
O O13 0.000000 0.826097 0.250000
O O14 0.568278 0.472655 0.592443
O O15 0.787377 0.549409 0.305128
O O16 0.000000 0.500000 0.000000
O O17 0.366209 0.731609 0.913916
#
# Coordination Sequence:
#
# PCOD8121268 Si02
#       8
#     4   4   4   4   2   4   4   4
#     4  10  22  42  65  88 122 164 205 256 310 358
#     4  12  23  37  60  92 124 157 202 255 297 365
#     4  11  24  39  63  92 121 162 210 250 305 368
#     4   9  21  42  64  87 121 161 203 255 304 359
#     4  12  20  40  62  86 122 166 198 244 306 380
#     4  11  24  39  63  94 120 160 210 249 309 371
#     4  11  22  41  60  87 127 164 196 252 313 360
#     4  10  22  41  62  87 123 164 202 246 310 366
#
# _framework density 19.300093
#
# number of rings (size 3 to 8) (size 9 to 14) (size 15 to 20)
#    0.000    1.333    4.000    0.800    5.600    1.600 
#    0.000    0.000    0.000    0.000    0.000    0.000 
#    0.000    0.000    0.000    0.000    0.000    0.000 
#
# Total GULP energy -371796.965336 kJ/mol
# GULP energy per Si atom -12393.232178 kJ/mol
# Density = 1.925617 g / cm^3
# Si number density = 19.300093 Si / 1000 Ang^3
#
#
#
# Elastic Constant Matrix: (Units=GPa)
#
#
# Indices 1 2 3 4 5 6 
#
# 1 101.9200 39.2343 49.4615 0.0000 -13.4469 0.0000
# 2 39.2343 118.3193 57.2654 0.0000 3.1779 0.0000
# 3 49.4615 57.2654 124.8630 0.0000 5.0720 0.0000
# 4 0.0000 0.0000 0.0000 26.4002 0.0000 -5.1995
# 5 -13.4469 3.1779 5.0720 0.0000 32.3249 0.0000
# 6 0.0000 0.0000 0.0000 -5.1995 0.0000 155.2065
#
#
#
# Elastic Compliance Matrix: (Units=1/GPa)
#
#
# Indices 1 2 3 4 5 6 
#
# 1 0.013935 -0.002568 -0.004617 0.000000 0.006774 0.000000
# 2 -0.002568 0.011339 -0.004121 0.000000 -0.001536 0.000000
# 3 -0.004617 -0.004121 0.011865 0.000000 -0.003377 0.000000
# 4 0.000000 0.000000 0.000000 0.038130 0.000000 0.001277
# 5 0.006774 -0.001536 -0.003377 0.000000 0.034435 0.000000
# 6 0.000000 0.000000 0.000000 0.001277 0.000000 0.006486
#
#
# Mechanical properties :
#
#
# Convention : Reuss Voigt Hill
#
# Bulk Modulus (GPa) = 68.83938 70.78052 69.80995
# Shear Modulus (GPa) = 34.80861 56.06241 45.43551
#
# Velocity S-wave (km/s) = 4.25143 5.39544 4.85723
# Velocity P-wave (km/s) = 7.73594 8.69297 8.22838
#
# Compressibility (1/GPa) = 0.01452657
#
# Stress axis : x y z
#
# Youngs Moduli (GPa) = 71.76401 88.19254 84.28261
#
# Poissons Ratio (x) = 0.22647 0.38916
# Poissons Ratio (y) = 0.18428 0.34730
# Poissons Ratio (z) = 0.33136 0.36341
#
# Static dielectric constant tensor:
#      x y z
#    x 3.413100 0.000000 -0.227690 
#    y 0.000000 3.953320 0.000000 
#    z -0.227690 0.000000 3.557770 
# 
# 
# High freq. dielectric constant tensor:
#      x y z
#    x 1.752960 0.000000 -0.017450 
#    y 0.000000 1.766080 0.000000 
#    z -0.017450 0.000000 1.753570 
# 
# From -- ./inp_files/58684.got.cif
#   From: 2010.06.25/outbox.cif.g09.slc.cpg/sg13_30_cif.got.tgz:58684.got - 2010.06.28 04:50:58.
