data_PCOD8121913
_publ_section_title
;
Structure prediction by ZEFSAII (Michael W. Deem and Ramdas Pophale) SiO2 
 PCOD8121913
Probable space group: P 2/C
;
_chemical_formula_sum "Si O2"
_cell_formula_units_Z 16
_cell_length_a 21.616543
_cell_length_b 4.794454
_cell_length_c 10.272412
_cell_angle_alpha 90.000000
_cell_angle_beta 33.617923
_cell_angle_gamma 90.000000
_cell_volume 589.433421
_symmetry_space_group_name_H-M "P 2/C"
_symmetry_group_IT_number 13
_symmetry_cell_setting 'monoclinic'
loop_
_space_group_symop_operation_xyz
x,y,z
-x,y,1/2-z
-x,-y,-z
x,-y,1/2+z
loop_
_atom_site_type_symbol
_atom_site_label
_atom_site_fract_x
_atom_site_fract_y
_atom_site_fract_z
Si Si1 0.927877 0.923666 0.002629
Si Si2 0.624384 0.210223 0.176741
Si Si3 0.627286 0.202283 0.885093
Si Si4 0.226359 0.577495 0.728083
O O1 0.000000 0.987074 0.750000
O O2 0.888054 0.604614 0.077491
O O3 0.812509 0.102871 0.201190
O O4 0.000000 0.000000 0.000000
O O5 0.497827 0.288768 0.438605
O O6 0.679784 0.009385 0.187756
O O7 0.625088 0.055295 0.033084
O O8 0.696325 0.499048 0.034588
O O9 0.702286 0.486530 0.767045
#
# Coordination Sequence:
#
# PCOD8121913 Si02
#       4
#     4   4   4   4
#     4  12  28  50  73 103 137 186 252 315 364 430
#     4   8  16  35  66 108 145 188 235 286 359 444
#     4   8  16  35  66 107 147 187 234 288 355 449
#     4  10  23  44  74 101 144 187 240 294 376 427
#
# _framework density 27.144711000000001
#
# number of rings (size 3 to 8) (size 9 to 14) (size 15 to 20)
#    1.500    1.000    0.000    1.500    3.500    0.000 
#    0.000    5.000    0.000    6.000    0.000    0.000 
#    0.000    0.000    0.000    0.000    0.000    0.000 
#
# Total GULP energy -198283.063665 kJ/mol
# GULP energy per Si atom -12392.691479 kJ/mol
# Density = 2.708293 g / cm^3
# Si number density = 27.144711 Si / 1000 Ang^3
#
#
#
# Elastic Constant Matrix: (Units=GPa)
#
#
# Indices 1 2 3 4 5 6 
#
# 1 94.4689 11.1660 10.5442 0.0000 7.4471 0.0000
# 2 11.1660 60.6977 -0.8917 0.0000 9.3203 0.0000
# 3 10.5442 -0.8917 100.4373 0.0000 -15.5644 0.0000
# 4 0.0000 0.0000 0.0000 -16.9976 0.0000 -3.6283
# 5 7.4471 9.3203 -15.5644 0.0000 51.5912 0.0000
# 6 0.0000 0.0000 0.0000 -3.6283 0.0000 27.3539
#
#
#
# Elastic Compliance Matrix: (Units=1/GPa)
#
#
# Indices 1 2 3 4 5 6 
#
# 1 0.011095 -0.001799 -0.001446 0.000000 -0.001713 0.000000
# 2 -0.001799 0.017248 -0.000106 0.000000 -0.002888 0.000000
# 3 -0.001446 -0.000106 0.010640 0.000000 0.003438 0.000000
# 4 0.000000 0.000000 0.000000 -0.057212 0.000000 -0.007589
# 5 -0.001713 -0.002888 0.003438 0.000000 0.021189 0.000000
# 6 0.000000 0.000000 0.000000 -0.007589 0.000000 0.035551
#
#
# Mechanical properties :
#
#
# Convention : Reuss Voigt Hill
#
# Bulk Modulus (GPa) = 30.97809 33.02677 32.00243
# Shear Modulus (GPa) = 89.32822 28.04185 58.68503
#
# Velocity S-wave (km/s) = 5.74279 3.21760 4.65470
# Velocity P-wave (km/s) = 7.44377 5.09875 6.37993
#
# Compressibility (1/GPa) = 0.03228088
#
# Stress axis : x y z
#
# Youngs Moduli (GPa) = 90.13403 57.97777 93.98421
#
# Poissons Ratio (x) = 0.10431 0.13591
# Poissons Ratio (y) = 0.16217 0.00992
# Poissons Ratio (z) = 0.13035 0.00612
#
# Static dielectric constant tensor:
#      x y z
#    x 5.321580 0.000000 0.161000 
#    y 0.000000 4.401670 0.000000 
#    z 0.161000 0.000000 4.970050 
# 
# 
# High freq. dielectric constant tensor:
#      x y z
#    x 2.106830 0.000000 0.003590 
#    y 0.000000 2.075970 0.000000 
#    z 0.003590 0.000000 2.098240 
# 
# From -- ./inp_files/38024.got.cif
#   From: 2010.06.25/outbox.cif.g09.slc.cpg/sg13_20_cif.got.tgz:38024.got - 2010.06.28 04:50:58.
