data_PCOD8121888
_publ_section_title
;
Structure prediction by ZEFSAII (Michael W. Deem and Ramdas Pophale) SiO2 
 PCOD8121888
Probable space group: P 2/C
;
_chemical_formula_sum "Si O2"
_cell_formula_units_Z 28
_cell_length_a 14.624210
_cell_length_b 8.925762
_cell_length_c 11.026196
_cell_angle_alpha 90.000000
_cell_angle_beta 67.215488
_cell_angle_gamma 90.000000
_cell_volume 1326.964217
_symmetry_space_group_name_H-M "P 2/C"
_symmetry_group_IT_number 13
_symmetry_cell_setting 'monoclinic'
loop_
_space_group_symop_operation_xyz
x,y,z
-x,y,1/2-z
-x,-y,-z
x,-y,1/2+z
loop_
_atom_site_type_symbol
_atom_site_label
_atom_site_fract_x
_atom_site_fract_y
_atom_site_fract_z
Si Si1 0.953154 0.199263 0.406878
Si Si2 0.063600 0.851633 0.097006
Si Si3 0.269371 0.288800 0.474688
Si Si4 0.749559 0.358710 0.508276
Si Si5 0.590081 0.623348 0.277661
Si Si6 0.346478 0.683801 0.679862
Si Si7 0.534889 0.166378 0.007655
O O1 0.862585 0.313386 0.476713
O O2 0.000000 0.239162 0.250000
O O3 0.023143 0.218881 0.490390
O O4 0.918165 0.028237 0.425492
O O5 0.000000 0.814710 0.250000
O O6 0.168325 0.779891 0.074015
O O7 0.267277 0.464790 0.505098
O O8 0.278647 0.267089 0.326250
O O9 0.356925 0.193465 0.491771
O O10 0.678957 0.304999 0.653519
O O11 0.714058 0.268026 0.407927
O O12 0.500000 0.546145 0.250000
O O13 0.636762 0.494924 0.337158
O O14 0.535585 0.753905 0.377722
O O15 0.452701 0.762436 0.637199
O O16 0.500000 0.000000 0.000000
#
# Coordination Sequence:
#
# PCOD8121888 Si02
#       7
#     4   4   4   4   4   4   4
#     4  10  23  44  66  96 128 175 222 270 334 393
#     4  10  24  43  66  94 136 173 218 276 332 395
#     4  11  25  42  65  99 130 167 220 273 328 389
#     4  11  23  39  71  95 126 174 218 271 328 387
#     4  11  22  40  65  91 130 173 217 264 326 392
#     4  11  22  43  64  93 131 171 214 269 322 393
#     4  12  26  41  63  96 134 172 216 267 327 396
#
# _framework density 21.100794
#
# number of rings (size 3 to 8) (size 9 to 14) (size 15 to 20)
#    0.000    1.143    2.857    3.429    4.000    3.429 
#    0.000    0.000    0.000    0.000    0.000    0.000 
#    0.000    0.000    0.000    0.000    0.000    0.000 
#
# Total GULP energy -347075.853553 kJ/mol
# GULP energy per Si atom -12395.566198 kJ/mol
# Density = 2.105277 g / cm^3
# Si number density = 21.100794 Si / 1000 Ang^3
#
#
#
# Elastic Constant Matrix: (Units=GPa)
#
#
# Indices 1 2 3 4 5 6 
#
# 1 116.0675 28.9871 38.2746 0.0000 -8.6604 0.0000
# 2 28.9871 70.9453 41.6347 0.0000 -6.9303 0.0000
# 3 38.2746 41.6347 115.0496 0.0000 -13.5057 0.0000
# 4 0.0000 0.0000 0.0000 16.4445 0.0000 -6.4640
# 5 -8.6604 -6.9303 -13.5057 0.0000 41.5775 0.0000
# 6 0.0000 0.0000 0.0000 -6.4640 0.0000 33.3788
#
#
#
# Elastic Compliance Matrix: (Units=1/GPa)
#
#
# Indices 1 2 3 4 5 6 
#
# 1 0.010110 -0.002705 -0.002277 0.000000 0.000915 0.000000
# 2 -0.002705 0.018653 -0.005772 0.000000 0.000671 0.000000
# 3 -0.002277 -0.005772 0.011820 0.000000 0.002403 0.000000
# 4 0.000000 0.000000 0.000000 0.065821 0.000000 0.012747
# 5 0.000915 0.000671 0.002403 0.000000 0.025135 0.000000
# 6 0.000000 0.000000 0.000000 0.012747 0.000000 0.032428
#
#
# Mechanical properties :
#
#
# Convention : Reuss Voigt Hill
#
# Bulk Modulus (GPa) = 52.42157 57.76169 55.09163
# Shear Modulus (GPa) = 26.06421 31.15791 28.61106
#
# Velocity S-wave (km/s) = 3.51839 3.84685 3.68628
# Velocity P-wave (km/s) = 6.43450 6.86765 6.65460
#
# Compressibility (1/GPa) = 0.01907612
#
# Stress axis : x y z
#
# Youngs Moduli (GPa) = 98.90720 53.60973 84.60074
#
# Poissons Ratio (x) = 0.14503 0.19265
# Poissons Ratio (y) = 0.26757 0.48828
# Poissons Ratio (z) = 0.22522 0.30942
#
# Static dielectric constant tensor:
#      x y z
#    x 2.638130 0.000000 -0.790460 
#    y 0.000000 3.606130 0.000000 
#    z -0.790460 0.000000 3.418300 
# 
# 
# High freq. dielectric constant tensor:
#      x y z
#    x 1.833400 0.000000 0.002460 
#    y 0.000000 1.808480 0.000000 
#    z 0.002460 0.000000 1.844990 
# 
# From -- ./inp_files/36094.got.cif
#   From: 2010.06.25/outbox.cif.g09.slc.cpg/sg13_19_cif.got.tgz:36094.got - 2010.06.28 04:50:58.
