data_PCOD8121995
_publ_section_title
;
Structure prediction by ZEFSAII (Michael W. Deem and Ramdas Pophale) SiO2 
 PCOD8121995
Probable space group: P 2/C
;
_chemical_formula_sum "Si O2"
_cell_formula_units_Z 30
_cell_length_a 23.379535
_cell_length_b 13.462782
_cell_length_c 8.482016
_cell_angle_alpha 90.000000
_cell_angle_beta 30.912113
_cell_angle_gamma 90.000000
_cell_volume 1371.508427
_symmetry_space_group_name_H-M "P 2/C"
_symmetry_group_IT_number 13
_symmetry_cell_setting 'monoclinic'
loop_
_space_group_symop_operation_xyz
x,y,z
-x,y,1/2-z
-x,-y,-z
x,-y,1/2+z
loop_
_atom_site_type_symbol
_atom_site_label
_atom_site_fract_x
_atom_site_fract_y
_atom_site_fract_z
Si Si1 0.771995 0.409348 0.599366
Si Si2 0.579766 0.298787 0.200456
Si Si3 0.217158 0.616761 0.783274
Si Si4 0.415599 0.251640 0.825925
Si Si5 0.384537 0.948364 0.227107
Si Si6 0.000000 0.257436 0.750000
Si Si7 0.710610 0.107881 0.863899
Si Si8 0.923128 0.779921 0.774907
O O1 0.811989 0.519176 0.548283
O O2 0.739517 0.408044 0.493438
O O3 0.868899 0.329955 0.405882
O O4 0.659621 0.389302 0.964066
O O5 0.500000 0.262766 0.250000
O O6 0.496387 0.327598 0.538531
O O7 0.655776 0.205258 0.071307
O O8 0.313428 0.683788 0.638133
O O9 0.104264 0.676117 0.044735
O O10 0.500000 0.202367 0.750000
O O11 0.366591 0.161641 0.840076
O O12 0.372702 0.936602 0.069522
O O13 0.282976 0.020383 0.522134
O O14 0.500000 0.000000 0.000000
O O15 0.021006 0.199258 0.531780
O O16 0.831004 0.134158 0.509087
O O17 0.000000 0.787188 0.750000
#
# Coordination Sequence:
#
# PCOD8121995 Si02
#       8
#     4   4   4   4   4   2   4   4
#     4  10  24  39  64  97 126 171 214 273 333 398
#     4  11  19  41  60  85 133 170 204 260 327 394
#     4  11  25  42  63  96 129 171 226 271 333 394
#     4  12  25  38  62  96 132 174 216 267 331 403
#     4  12  21  40  67  98 130 170 217 267 328 399
#     4  10  24  46  72  92 132 176 228 290 322 392
#     4  11  23  41  66 100 131 168 219 275 330 401
#     4  10  24  47  72  96 130 177 225 279 342 391
#
# _framework density 21.873726000000001
#
# number of rings (size 3 to 8) (size 9 to 14) (size 15 to 20)
#    0.000    1.067    4.000    2.800    4.667    3.200 
#    2.400    0.667    1.467    0.000    0.000    0.000 
#    0.000    0.000    0.000    0.000    0.000    0.000 
#
# Total GULP energy -371767.588034 kJ/mol
# GULP energy per Si atom -12392.252934 kJ/mol
# Density = 2.182394 g / cm^3
# Si number density = 21.873726 Si / 1000 Ang^3
#
#
#
# Elastic Constant Matrix: (Units=GPa)
#
#
# Indices 1 2 3 4 5 6 
#
# 1 72.8614 18.9194 17.8060 0.0000 -12.5217 0.0000
# 2 18.9194 55.7436 30.5198 0.0000 -0.6016 0.0000
# 3 17.8060 30.5198 116.9832 0.0000 -4.9938 0.0000
# 4 0.0000 0.0000 0.0000 28.3689 0.0000 5.5387
# 5 -12.5217 -0.6016 -4.9938 0.0000 27.9065 0.0000
# 6 0.0000 0.0000 0.0000 5.5387 0.0000 17.3114
#
#
#
# Elastic Compliance Matrix: (Units=1/GPa)
#
#
# Indices 1 2 3 4 5 6 
#
# 1 0.016472 -0.005025 -0.000892 0.000000 0.007123 0.000000
# 2 -0.005025 0.022470 -0.005213 0.000000 -0.002703 0.000000
# 3 -0.000892 -0.005213 0.010099 0.000000 0.001295 0.000000
# 4 0.000000 0.000000 0.000000 0.037599 0.000000 -0.012030
# 5 0.007123 -0.002703 0.001295 0.000000 0.039203 0.000000
# 6 0.000000 0.000000 0.000000 -0.012030 0.000000 0.061614
#
#
# Mechanical properties :
#
#
# Convention : Reuss Voigt Hill
#
# Bulk Modulus (GPa) = 37.34033 42.23096 39.78565
# Shear Modulus (GPa) = 22.86829 26.60689 24.73759
#
# Velocity S-wave (km/s) = 3.23688 3.49146 3.36657
# Velocity P-wave (km/s) = 5.57474 5.96677 5.77408
#
# Compressibility (1/GPa) = 0.02678069
#
# Stress axis : x y z
#
# Youngs Moduli (GPa) = 60.71023 44.50458 99.01775
#
# Poissons Ratio (x) = 0.22365 0.08833
# Poissons Ratio (y) = 0.30508 0.51614
# Poissons Ratio (z) = 0.05416 0.23198
#
# Static dielectric constant tensor:
#      x y z
#    x 4.194820 0.000000 0.306560 
#    y 0.000000 3.788110 0.000000 
#    z 0.306560 0.000000 4.238820 
# 
# 
# High freq. dielectric constant tensor:
#      x y z
#    x 1.859070 0.000000 0.007240 
#    y 0.000000 1.841390 0.000000 
#    z 0.007240 0.000000 1.866500 
# 
# From -- ./inp_files/24226.got.cif
#   From: 2010.06.25/outbox.cif.g09.slc.cpg/sg13_13_cif.got.tgz:24226.got - 2010.06.28 04:50:58.
