data_PCOD8121095
_publ_section_title
;
Structure prediction by ZEFSAII (Michael W. Deem and Ramdas Pophale) SiO2 
 PCOD8121095
Probable space group: P 2/C
;
_chemical_formula_sum "Si O2"
_cell_formula_units_Z 32
_cell_length_a 14.409051
_cell_length_b 12.219543
_cell_length_c 8.981302
_cell_angle_alpha 90.000000
_cell_angle_beta 88.327165
_cell_angle_gamma 90.000000
_cell_volume 1580.682017
_symmetry_space_group_name_H-M "P 2/C"
_symmetry_group_IT_number 13
_symmetry_cell_setting 'monoclinic'
loop_
_space_group_symop_operation_xyz
x,y,z
-x,y,1/2-z
-x,-y,-z
x,-y,1/2+z
loop_
_atom_site_type_symbol
_atom_site_label
_atom_site_fract_x
_atom_site_fract_y
_atom_site_fract_z
Si Si1 0.792200 0.696368 0.116731
Si Si2 0.503958 0.800356 0.583406
Si Si3 0.301766 0.885910 0.894751
Si Si4 0.683052 0.114994 0.460113
Si Si5 0.309778 0.468620 0.406862
Si Si6 0.181817 0.713649 0.044331
Si Si7 0.569727 0.437632 0.359421
Si Si8 0.009035 0.384381 0.922890
O O1 0.799277 0.740751 0.284108
O O2 0.893332 0.672201 0.043029
O O3 0.745117 0.785573 0.014501
O O4 0.731058 0.587535 0.121017
O O5 0.500000 0.846740 0.750000
O O6 0.609207 0.827365 0.527411
O O7 0.425515 0.863803 0.491732
O O8 0.479763 0.672119 0.580283
O O9 0.307010 0.892617 0.717458
O O10 0.212202 0.815658 0.943247
O O11 0.285222 0.005527 0.961126
O O12 0.235136 0.396146 0.494577
O O13 0.339199 0.411240 0.248821
O O14 0.402245 0.483642 0.506080
O O15 0.072805 0.695964 0.019176
O O16 0.500000 0.501700 0.250000
O O17 0.000000 0.408504 0.750000
O O18 0.000000 0.500000 0.000000
#
# Coordination Sequence:
#
# PCOD8121095 Si02
#       8
#     4   4   4   4   4   4   4   4
#     4  11  23  40  61  92 124 163 204 256 307 372
#     4   9  19  37  60  87 122 162 204 250 300 357
#     4  11  24  41  67  90 121 165 207 263 308 364
#     4  11  22  42  65  89 124 160 213 258 309 362
#     4  12  21  36  60  88 125 167 204 251 302 362
#     4  11  23  40  61  92 126 160 206 254 312 371
#     4  11  22  36  54  86 129 169 206 244 300 360
#     4  10  22  39  63  92 127 160 202 253 310 374
#
# _framework density 20.244427999999999
#
# number of rings (size 3 to 8) (size 9 to 14) (size 15 to 20)
#    0.000    1.250    3.750    3.750    0.000    1.000 
#    0.000    2.500    0.000    0.000    0.000    0.000 
#    0.000    0.000    0.000    0.000    0.000    0.000 
#
# Total GULP energy -396769.389364 kJ/mol
# GULP energy per Si atom -12399.043418 kJ/mol
# Density = 2.019835 g / cm^3
# Si number density = 20.244428 Si / 1000 Ang^3
#
#
#
# Elastic Constant Matrix: (Units=GPa)
#
#
# Indices 1 2 3 4 5 6 
#
# 1 96.9513 48.3175 25.3939 0.0000 -0.7849 0.0000
# 2 48.3175 101.0093 34.9079 0.0000 -5.1471 0.0000
# 3 25.3939 34.9079 72.9794 0.0000 -5.1946 0.0000
# 4 0.0000 0.0000 0.0000 32.4128 0.0000 -3.9559
# 5 -0.7849 -5.1471 -5.1946 0.0000 29.2168 0.0000
# 6 0.0000 0.0000 0.0000 -3.9559 0.0000 18.0110
#
#
#
# Elastic Compliance Matrix: (Units=1/GPa)
#
#
# Indices 1 2 3 4 5 6 
#
# 1 0.013806 -0.005956 -0.002029 0.000000 -0.001039 0.000000
# 2 -0.005956 0.014465 -0.004736 0.000000 0.001546 0.000000
# 3 -0.002029 -0.004736 0.016824 0.000000 0.002102 0.000000
# 4 0.000000 0.000000 0.000000 0.031702 0.000000 0.006963
# 5 -0.001039 0.001546 0.002102 0.000000 0.034845 0.000000
# 6 0.000000 0.000000 0.000000 0.006963 0.000000 0.057051
#
#
# Mechanical properties :
#
#
# Convention : Reuss Voigt Hill
#
# Bulk Modulus (GPa) = 50.88600 54.24207 52.56404
# Shear Modulus (GPa) = 24.91473 26.74950 25.83211
#
# Velocity S-wave (km/s) = 3.51193 3.63895 3.57601
# Velocity P-wave (km/s) = 6.45254 6.67141 6.56289
#
# Compressibility (1/GPa) = 0.01965177
#
# Stress axis : x y z
#
# Youngs Moduli (GPa) = 72.43452 69.13442 59.43993
#
# Poissons Ratio (x) = 0.41174 0.12061
# Poissons Ratio (y) = 0.43139 0.28153
# Poissons Ratio (z) = 0.14697 0.32745
#
# Static dielectric constant tensor:
#      x y z
#    x 4.049810 0.000000 0.021270 
#    y 0.000000 3.463890 0.000000 
#    z 0.021270 0.000000 3.734060 
# 
# 
# High freq. dielectric constant tensor:
#      x y z
#    x 1.797050 0.000000 -0.002640 
#    y 0.000000 1.777340 0.000000 
#    z -0.002640 0.000000 1.790300 
# 
# From -- ./inp_files/19032.got.cif
#   From: 2010.06.25/outbox.cif.g09.slc.cpg/sg13_10_cif.got.tgz:19032.got - 2010.06.28 04:50:58.
