data_PCOD8121959
_publ_section_title
;
Structure prediction by ZEFSAII (Michael W. Deem and Ramdas Pophale) SiO2 
 PCOD8121959
Probable space group: P 2/C
;
_chemical_formula_sum "Si O2"
_cell_formula_units_Z 14
_cell_length_a 9.665019
_cell_length_b 4.923233
_cell_length_c 13.089796
_cell_angle_alpha 90.000000
_cell_angle_beta 122.631890
_cell_angle_gamma 90.000000
_cell_volume 524.537652
_symmetry_space_group_name_H-M "P 2/C"
_symmetry_group_IT_number 13
_symmetry_cell_setting 'monoclinic'
loop_
_space_group_symop_operation_xyz
x,y,z
-x,y,1/2-z
-x,-y,-z
x,-y,1/2+z
loop_
_atom_site_type_symbol
_atom_site_label
_atom_site_fract_x
_atom_site_fract_y
_atom_site_fract_z
Si Si1 0.500000 0.878182 0.250000
Si Si2 0.219338 0.760283 0.275906
Si Si3 0.232122 0.115972 0.006962
Si Si4 0.046175 0.278279 0.120262
O O1 0.376938 0.689860 0.267568
O O2 0.403731 0.070202 0.132137
O O3 0.268706 0.739015 0.414217
O O4 0.069239 0.557569 0.190993
O O5 0.158010 0.060659 0.225053
O O6 0.111754 0.306744 0.028841
O O7 0.142024 0.823731 0.955294
#
# Coordination Sequence:
#
# PCOD8121959 Si02
#       4
#     2   4   4   4
#     4  10  24  44  70 110 146 186 228 282 360 432
#     4  11  24  45  72 103 141 185 233 290 349 412
#     4  10  23  46  72 103 145 184 233 294 349 415
#     4  10  25  44  71 104 135 185 244 286 341 417
#
# _framework density 26.690175
#
# number of rings (size 3 to 8) (size 9 to 14) (size 15 to 20)
#    0.000    1.714    0.000    1.714    0.000   24.000 
#    0.000    8.571    0.000    0.000    0.000    0.000 
#    0.000    0.000    0.000    0.000    0.000    0.000 
#
# Total GULP energy -173667.944708 kJ/mol
# GULP energy per Si atom -12404.853193 kJ/mol
# Density = 2.662943 g / cm^3
# Si number density = 26.690175 Si / 1000 Ang^3
#
#
#
# Elastic Constant Matrix: (Units=GPa)
#
#
# Indices 1 2 3 4 5 6 
#
# 1 120.1978 16.0799 72.1634 0.0000 -11.4648 0.0000
# 2 16.0799 68.0897 48.7422 0.0000 -22.8644 0.0000
# 3 72.1634 48.7422 226.2081 0.0000 -20.9649 0.0000
# 4 0.0000 0.0000 0.0000 28.8491 0.0000 8.5238
# 5 -11.4648 -22.8644 -20.9649 0.0000 59.2350 0.0000
# 6 0.0000 0.0000 0.0000 8.5238 0.0000 17.8558
#
#
#
# Elastic Compliance Matrix: (Units=1/GPa)
#
#
# Indices 1 2 3 4 5 6 
#
# 1 0.010335 0.000200 -0.003254 0.000000 0.000926 0.000000
# 2 0.000200 0.019342 -0.003656 0.000000 0.006211 0.000000
# 3 -0.003254 -0.003656 0.006263 0.000000 0.000176 0.000000
# 4 0.000000 0.000000 0.000000 0.040355 0.000000 -0.019264
# 5 0.000926 0.006211 0.000176 0.000000 0.019520 0.000000
# 6 0.000000 0.000000 0.000000 -0.019264 0.000000 0.065200
#
#
# Mechanical properties :
#
#
# Convention : Reuss Voigt Hill
#
# Bulk Modulus (GPa) = 44.40692 76.49629 60.45160
# Shear Modulus (GPa) = 27.48122 39.68866 33.58494
#
# Velocity S-wave (km/s) = 3.21228 3.86037 3.55114
# Velocity P-wave (km/s) = 5.51655 6.97086 6.28591
#
# Compressibility (1/GPa) = 0.02251901
#
# Stress axis : x y z
#
# Youngs Moduli (GPa) = 96.75920 51.70128 159.67151
#
# Poissons Ratio (x) = -0.01032 0.51961
# Poissons Ratio (y) = -0.01932 0.58373
# Poissons Ratio (z) = 0.31488 0.18901
#
# Static dielectric constant tensor:
#      x y z
#    x 5.166750 0.000000 -0.245830 
#    y 0.000000 4.349410 0.000000 
#    z -0.245830 0.000000 5.194340 
# 
# 
# High freq. dielectric constant tensor:
#      x y z
#    x 2.068800 0.000000 -0.016620 
#    y 0.000000 2.048290 0.000000 
#    z -0.016620 0.000000 2.101600 
# 
# From -- ./inp_files/48527.got.cif
#   From: 2010.06.25/outbox.cif.g09.slc.cpg/sg13_25_cif.got.tgz:48527.got - 2010.06.28 04:50:58.
