data_PCOD8121247
_publ_section_title
;
Structure prediction by ZEFSAII (Michael W. Deem and Ramdas Pophale) SiO2 
 PCOD8121247
Probable space group: P 2/C
;
_chemical_formula_sum "Si O2"
_cell_formula_units_Z 24
_cell_length_a 11.739401
_cell_length_b 8.413720
_cell_length_c 23.372192
_cell_angle_alpha 90.000000
_cell_angle_beta 151.808268
_cell_angle_gamma 90.000000
_cell_volume 1090.598783
_symmetry_space_group_name_H-M "P 2/C"
_symmetry_group_IT_number 13
_symmetry_cell_setting 'monoclinic'
loop_
_space_group_symop_operation_xyz
x,y,z
-x,y,1/2-z
-x,-y,-z
x,-y,1/2+z
loop_
_atom_site_type_symbol
_atom_site_label
_atom_site_fract_x
_atom_site_fract_y
_atom_site_fract_z
Si Si1 0.500000 0.294446 0.750000
Si Si2 0.413261 0.697479 0.647783
Si Si3 0.000000 0.641019 0.750000
Si Si4 0.176648 0.736745 0.946354
Si Si5 0.767439 0.033717 0.936960
Si Si6 0.346560 0.542844 0.334566
Si Si7 0.943830 0.441192 0.893121
O O1 0.609835 0.184619 0.847523
O O2 0.693764 0.422735 0.815495
O O3 0.500000 0.660692 0.750000
O O4 0.564221 0.602951 0.666882
O O5 0.132540 0.657902 0.513354
O O6 0.418798 0.887919 0.641197
O O7 0.942964 0.748257 0.669294
O O8 0.763746 0.531274 0.656492
O O9 0.027565 0.623560 0.923750
O O10 0.156877 0.912687 0.965243
O O11 0.448339 0.669204 0.060055
O O12 0.000000 0.000000 0.000000
O O13 0.119381 0.623348 0.199369
#
# Coordination Sequence:
#
# PCOD8121247 Si02
#       7
#     2   4   2   4   4   4   4
#     4  12  22  36  62  92 136 178 216 264 334 404
#     4  11  25  40  63  97 139 178 219 271 343 411
#     4  10  22  40  70  94 128 172 234 290 332 386
#     4  10  23  42  66  94 129 172 231 283 333 397
#     4  12  25  39  62  97 141 179 215 270 339 408
#     4  10  22  41  67  96 129 172 228 284 335 396
#     4  10  23  39  61  95 128 175 221 275 332 399
#
# _framework density 22.006262
#
# number of rings (size 3 to 8) (size 9 to 14) (size 15 to 20)
#    0.000    1.333    4.167    0.500    5.833    1.333 
#    0.000    0.833    0.000   10.000    0.000    0.000 
#    0.000    0.000    0.000    0.000    0.000    0.000 
#
# Total GULP energy -297320.518508 kJ/mol
# GULP energy per Si atom -12388.354938 kJ/mol
# Density = 2.195617 g / cm^3
# Si number density = 22.006262 Si / 1000 Ang^3
#
#
#
# Elastic Constant Matrix: (Units=GPa)
#
#
# Indices 1 2 3 4 5 6 
#
# 1 118.9656 39.1806 39.9506 0.0000 -0.8983 0.0000
# 2 39.1806 87.1578 30.3968 0.0000 -10.1816 0.0000
# 3 39.9506 30.3968 122.2815 0.0000 -6.9918 0.0000
# 4 0.0000 0.0000 0.0000 25.6740 0.0000 -11.9197
# 5 -0.8983 -10.1816 -6.9918 0.0000 40.5542 0.0000
# 6 0.0000 0.0000 0.0000 -11.9197 0.0000 23.4674
#
#
#
# Elastic Compliance Matrix: (Units=1/GPa)
#
#
# Indices 1 2 3 4 5 6 
#
# 1 0.010565 -0.004010 -0.002524 0.000000 -0.001208 0.000000
# 2 -0.004010 0.014371 -0.002082 0.000000 0.003160 0.000000
# 3 -0.002524 -0.002082 0.009581 0.000000 0.001073 0.000000
# 4 0.000000 0.000000 0.000000 0.050969 0.000000 0.025889
# 5 -0.001208 0.003160 0.001073 0.000000 0.025610 0.000000
# 6 0.000000 0.000000 0.000000 0.025889 0.000000 0.055762
#
#
# Mechanical properties :
#
#
# Convention : Reuss Voigt Hill
#
# Bulk Modulus (GPa) = 57.84953 60.82898 59.33926
# Shear Modulus (GPa) = 26.33629 32.53090 29.43359
#
# Velocity S-wave (km/s) = 3.46318 3.84898 3.66117
# Velocity P-wave (km/s) = 6.50664 6.88873 6.70041
#
# Compressibility (1/GPa) = 0.01728622
#
# Stress axis : x y z
#
# Youngs Moduli (GPa) = 94.65240 69.58298 104.37071
#
# Poissons Ratio (x) = 0.27904 0.26342
# Poissons Ratio (y) = 0.37958 0.21725
# Poissons Ratio (z) = 0.23889 0.14484
#
# Static dielectric constant tensor:
#      x y z
#    x 3.903770 0.000000 -0.077000 
#    y 0.000000 3.921630 0.000000 
#    z -0.077000 0.000000 4.668030 
# 
# 
# High freq. dielectric constant tensor:
#      x y z
#    x 1.850950 0.000000 0.000440 
#    y 0.000000 1.839990 0.000000 
#    z 0.000440 0.000000 1.896590 
# 
# From -- ./inp_files/86455.got.cif
#   From: 2010.06.25/outbox.cif.g09.slc.cpg/sg13_44_cif.got.tgz:86455.got - 2010.06.28 04:50:58.
