data_PCOD8121437
_publ_section_title
;
Structure prediction by ZEFSAII (Michael W. Deem and Ramdas Pophale) SiO2 
 PCOD8121437
Probable space group: P 2/C
;
_chemical_formula_sum "Si O2"
_cell_formula_units_Z 30
_cell_length_a 11.557677
_cell_length_b 8.502242
_cell_length_c 15.061580
_cell_angle_alpha 90.000000
_cell_angle_beta 69.565716
_cell_angle_gamma 90.000000
_cell_volume 1386.909386
_symmetry_space_group_name_H-M "P 2/C"
_symmetry_group_IT_number 13
_symmetry_cell_setting 'monoclinic'
loop_
_space_group_symop_operation_xyz
x,y,z
-x,y,1/2-z
-x,-y,-z
x,-y,1/2+z
loop_
_atom_site_type_symbol
_atom_site_label
_atom_site_fract_x
_atom_site_fract_y
_atom_site_fract_z
Si Si1 0.190378 0.086731 0.150044
Si Si2 0.907513 0.659838 0.439776
Si Si3 0.734287 0.345046 0.249952
Si Si4 0.000000 0.139822 0.750000
Si Si5 0.998711 0.685871 0.604637
Si Si6 0.356321 0.637892 0.920690
Si Si7 0.452061 0.384728 0.665725
Si Si8 0.399837 0.873844 0.038287
O O1 0.286054 0.200294 0.176780
O O2 0.093418 0.184007 0.115613
O O3 0.114894 0.976948 0.240010
O O4 0.267274 0.962917 0.069883
O O5 0.935768 0.478237 0.423647
O O6 0.759657 0.648847 0.480772
O O7 0.968749 0.754740 0.343271
O O8 0.954762 0.739187 0.518488
O O9 0.672081 0.314001 0.172035
O O10 0.671501 0.505417 0.302112
O O11 0.883209 0.350223 0.201081
O O12 0.431240 0.475108 0.909840
O O13 0.436758 0.774673 0.941118
O O14 0.500000 0.336083 0.750000
O O15 0.416568 0.227688 0.623576
O O16 0.500000 0.000000 0.000000
#
# Coordination Sequence:
#
# PCOD8121437 Si02
#       8
#     4   4   4   2   4   4   4   4
#     4  12  25  40  64 101 138 175 213 267 341 400
#     4  10  24  41  67  95 128 174 222 270 325 391
#     4  10  22  42  67  94 129 174 220 270 325 391
#     4  12  24  40  62  98 140 166 216 270 334 398
#     4  10  23  42  65  96 130 174 219 268 330 394
#     4  10  22  44  66  93 128 172 223 271 325 390
#     4  10  24  45  71  96 125 174 235 279 320 393
#     4  12  27  42  63  97 133 174 217 275 341 393
#
# _framework density 21.630828000000001
#
# number of rings (size 3 to 8) (size 9 to 14) (size 15 to 20)
#    0.000    1.333    2.667    1.200    7.467    2.667 
#    0.000    0.000    0.000    0.000    0.000    0.000 
#    0.000    0.000    0.000    0.000    0.000    0.000 
#
# Total GULP energy -371660.667601 kJ/mol
# GULP energy per Si atom -12388.688920 kJ/mol
# Density = 2.158160 g / cm^3
# Si number density = 21.630828 Si / 1000 Ang^3
#
#
#
# Elastic Constant Matrix: (Units=GPa)
#
#
# Indices 1 2 3 4 5 6 
#
# 1 103.9223 56.2432 42.1061 0.0000 -6.4354 0.0000
# 2 56.2432 113.1681 56.0895 0.0000 1.6155 0.0000
# 3 42.1061 56.0895 97.7631 0.0000 -5.9297 0.0000
# 4 0.0000 0.0000 0.0000 26.8421 0.0000 -7.9561
# 5 -6.4354 1.6155 -5.9297 0.0000 27.2609 0.0000
# 6 0.0000 0.0000 0.0000 -7.9561 0.0000 31.0155
#
#
#
# Elastic Compliance Matrix: (Units=1/GPa)
#
#
# Indices 1 2 3 4 5 6 
#
# 1 0.013931 -0.005710 -0.002538 0.000000 0.003075 0.000000
# 2 -0.005710 0.014832 -0.006268 0.000000 -0.003590 0.000000
# 3 -0.002538 -0.006268 0.015104 0.000000 0.003058 0.000000
# 4 0.000000 0.000000 0.000000 0.040321 0.000000 0.010343
# 5 0.003075 -0.003590 0.003058 0.000000 0.038286 0.000000
# 6 0.000000 0.000000 0.000000 0.010343 0.000000 0.034895
#
#
# Mechanical properties :
#
#
# Convention : Reuss Voigt Hill
#
# Bulk Modulus (GPa) = 67.40617 69.30346 68.35481
# Shear Modulus (GPa) = 26.13069 27.71802 26.92435
#
# Velocity S-wave (km/s) = 3.47944 3.58357 3.53189
# Velocity P-wave (km/s) = 6.88272 7.01651 6.94993
#
# Compressibility (1/GPa) = 0.01483544
#
# Stress axis : x y z
#
# Youngs Moduli (GPa) = 71.78017 67.42140 66.20981
#
# Poissons Ratio (x) = 0.38497 0.16803
# Poissons Ratio (y) = 0.40985 0.41501
# Poissons Ratio (z) = 0.18216 0.42261
#
# Static dielectric constant tensor:
#      x y z
#    x 3.994340 0.000000 0.041280 
#    y 0.000000 4.052000 0.000000 
#    z 0.041280 0.000000 3.567640 
# 
# 
# High freq. dielectric constant tensor:
#      x y z
#    x 1.859950 0.000000 -0.009100 
#    y 0.000000 1.854550 0.000000 
#    z -0.009100 0.000000 1.854190 
# 
# From -- ./inp_files/50331.got.cif
#   From: 2010.06.25/outbox.cif.g09.slc.cpg/sg13_26_cif.got.tgz:50331.got - 2010.06.28 04:50:58.
