data_PCOD8121466
_publ_section_title
;
Structure prediction by ZEFSAII (Michael W. Deem and Ramdas Pophale) SiO2 
 PCOD8121466
Probable space group: P 2/C
;
_chemical_formula_sum "Si O2"
_cell_formula_units_Z 24
_cell_length_a 10.415367
_cell_length_b 14.406360
_cell_length_c 18.263406
_cell_angle_alpha 90.000000
_cell_angle_beta 155.210869
_cell_angle_gamma 90.000000
_cell_volume 1148.985706
_symmetry_space_group_name_H-M "P 2/C"
_symmetry_group_IT_number 13
_symmetry_cell_setting 'monoclinic'
loop_
_space_group_symop_operation_xyz
x,y,z
-x,y,1/2-z
-x,-y,-z
x,-y,1/2+z
loop_
_atom_site_type_symbol
_atom_site_label
_atom_site_fract_x
_atom_site_fract_y
_atom_site_fract_z
Si Si1 0.656849 0.777052 0.756432
Si Si2 0.915905 0.027794 0.375169
Si Si3 0.346602 0.409682 0.455146
Si Si4 0.350609 0.768517 0.447695
Si Si5 0.478836 0.120946 0.591840
Si Si6 0.673037 0.308096 0.912823
O O1 0.500000 0.745166 0.750000
O O2 0.685961 0.887495 0.766575
O O3 0.422851 0.756416 0.570015
O O4 0.972255 0.720395 0.913287
O O5 0.194171 0.059321 0.468379
O O6 0.779457 0.938801 0.263773
O O7 0.000000 0.000000 0.500000
O O8 0.500000 0.500000 0.500000
O O9 0.562506 0.328406 0.541425
O O10 0.345498 0.398222 0.543157
O O11 0.000000 0.398370 0.250000
O O12 0.540395 0.851513 0.504639
O O13 0.000000 0.789692 0.250000
O O14 0.503887 0.216996 0.649688
O O15 0.500000 0.339818 0.750000
#
# Coordination Sequence:
#
# PCOD8121466 Si02
#       6
#     4   4   4   4   4   4
#     4  11  24  41  66  94 137 179 227 279 330 390
#     4  11  22  38  61  94 131 180 229 283 336 387
#     4  11  23  47  75 101 133 171 213 273 340 411
#     4  11  26  44  66  99 134 178 228 273 338 406
#     4  10  23  39  63  90 136 179 232 276 334 382
#     4  10  22  42  70 100 136 173 221 275 334 397
#
# _framework density 20.887989000000001
#
# number of rings (size 3 to 8) (size 9 to 14) (size 15 to 20)
#    0.000    1.333    1.667    4.000    9.333    0.667 
#    0.000    1.667    0.000    0.000    0.000    0.000 
#    0.000    0.000    0.000    0.000    0.000    0.000 
#
# Total GULP energy -297474.312592 kJ/mol
# GULP energy per Si atom -12394.763025 kJ/mol
# Density = 2.084045 g / cm^3
# Si number density = 20.887989 Si / 1000 Ang^3
#
#
#
# Elastic Constant Matrix: (Units=GPa)
#
#
# Indices 1 2 3 4 5 6 
#
# 1 169.7307 59.3031 73.3119 0.0000 -16.0958 0.0000
# 2 59.3031 96.3534 35.7739 0.0000 4.9870 0.0000
# 3 73.3119 35.7739 116.2544 0.0000 -16.4457 0.0000
# 4 0.0000 0.0000 0.0000 -16.8718 0.0000 -20.0430
# 5 -16.0958 4.9870 -16.4457 0.0000 39.3975 0.0000
# 6 0.0000 0.0000 0.0000 -20.0430 0.0000 22.3869
#
#
#
# Elastic Compliance Matrix: (Units=1/GPa)
#
#
# Indices 1 2 3 4 5 6 
#
# 1 0.009536 -0.004420 -0.004276 0.000000 0.002671 0.000000
# 2 -0.004420 0.014152 -0.002207 0.000000 -0.004518 0.000000
# 3 -0.004276 -0.002207 0.012508 0.000000 0.003754 0.000000
# 4 0.000000 0.000000 0.000000 -0.028722 0.000000 -0.025715
# 5 0.002671 -0.004518 0.003754 0.000000 0.028612 0.000000
# 6 0.000000 0.000000 0.000000 -0.025715 0.000000 0.021646
#
#
# Mechanical properties :
#
#
# Convention : Reuss Voigt Hill
#
# Bulk Modulus (GPa) = 69.48537 79.90180 74.69358
# Shear Modulus (GPa) = 59.28761 23.24584 41.26672
#
# Velocity S-wave (km/s) = 5.33340 3.33961 4.44962
# Velocity P-wave (km/s) = 8.44185 7.29426 7.88895
#
# Compressibility (1/GPa) = 0.01439152
#
# Stress axis : x y z
#
# Youngs Moduli (GPa) = 104.86517 70.66134 79.94734
#
# Poissons Ratio (x) = 0.31232 0.34183
# Poissons Ratio (y) = 0.46350 0.17642
# Poissons Ratio (z) = 0.44837 0.15593
#
# Static dielectric constant tensor:
#      x y z
#    x 4.274590 0.000000 -0.032170 
#    y 0.000000 3.788120 0.000000 
#    z -0.032170 0.000000 3.447600 
# 
# 
# High freq. dielectric constant tensor:
#      x y z
#    x 1.834510 0.000000 0.002160 
#    y 0.000000 1.802620 0.000000 
#    z 0.002160 0.000000 1.821490 
# 
# From -- ./inp_files/78744.got.cif
#   From: 2010.06.25/outbox.cif.g09.slc.cpg/sg13_40_cif.got.tgz:78744.got - 2010.06.28 04:50:58.
