data_PCOD8121496
_publ_section_title
;
Structure prediction by ZEFSAII (Michael W. Deem and Ramdas Pophale) SiO2 
 PCOD8121496
Probable space group: P 2/C
;
_chemical_formula_sum "Si O2"
_cell_formula_units_Z 24
_cell_length_a 14.345826
_cell_length_b 9.752854
_cell_length_c 17.242427
_cell_angle_alpha 90.000000
_cell_angle_beta 30.280163
_cell_angle_gamma 90.000000
_cell_volume 1216.419047
_symmetry_space_group_name_H-M "P 2/C"
_symmetry_group_IT_number 13
_symmetry_cell_setting 'monoclinic'
loop_
_space_group_symop_operation_xyz
x,y,z
-x,y,1/2-z
-x,-y,-z
x,-y,1/2+z
loop_
_atom_site_type_symbol
_atom_site_label
_atom_site_fract_x
_atom_site_fract_y
_atom_site_fract_z
Si Si1 0.993286 0.212423 0.662246
Si Si2 0.993072 0.513219 0.913201
Si Si3 0.369730 0.626482 0.581792
Si Si4 0.399904 0.126585 0.535183
Si Si5 0.814352 0.282379 0.434111
Si Si6 0.689018 0.982391 0.567334
O O1 0.143753 0.108362 0.516094
O O2 0.000000 0.212968 0.750000
O O3 0.032874 0.364521 0.604629
O O4 0.787930 0.165090 0.783069
O O5 0.176243 0.590067 0.757238
O O6 0.831742 0.610031 0.993152
O O7 0.000000 0.500000 0.000000
O O8 0.500000 0.500000 0.500000
O O9 0.456125 0.749989 0.568036
O O10 0.348006 0.664868 0.506444
O O11 0.349489 0.089926 0.485168
O O12 0.500000 0.000000 0.500000
O O13 0.000000 0.265554 0.250000
O O14 0.758385 0.137353 0.510258
O O15 0.500000 0.976491 0.750000
#
# Coordination Sequence:
#
# PCOD8121496 Si02
#       6
#     4   4   4   4   4   4
#     4  10  22  43  65  88 127 170 211 254 314 385
#     4  11  25  41  62  96 128 165 207 267 322 364
#     4  11  22  40  67  94 123 169 217 254 307 388
#     4  11  22  40  67  94 124 166 220 255 311 392
#     4  10  22  43  67  88 125 172 217 253 314 388
#     4  11  25  41  62  96 129 167 208 269 327 368
#
# _framework density 19.730043999999999
#
# number of rings (size 3 to 8) (size 9 to 14) (size 15 to 20)
#    0.000    1.333    3.333    3.000    7.000    2.667 
#    0.000    2.500    0.000    0.000    0.000    0.000 
#    0.000    0.000    0.000    0.000    0.000    0.000 
#
# Total GULP energy -297536.054207 kJ/mol
# GULP energy per Si atom -12397.335592 kJ/mol
# Density = 1.968514 g / cm^3
# Si number density = 19.730044 Si / 1000 Ang^3
#
#
#
# Elastic Constant Matrix: (Units=GPa)
#
#
# Indices 1 2 3 4 5 6 
#
# 1 82.5945 60.5614 31.5365 0.0000 -12.5971 0.0000
# 2 60.5614 196.5305 62.2055 0.0000 -17.0296 0.0000
# 3 31.5365 62.2055 86.4929 0.0000 -5.6295 0.0000
# 4 0.0000 0.0000 0.0000 33.0450 0.0000 -16.6722
# 5 -12.5971 -17.0296 -5.6295 0.0000 29.3480 0.0000
# 6 0.0000 0.0000 0.0000 -16.6722 0.0000 46.0600
#
#
#
# Elastic Compliance Matrix: (Units=1/GPa)
#
#
# Indices 1 2 3 4 5 6 
#
# 1 0.016743 -0.003803 -0.003084 0.000000 0.004388 0.000000
# 2 -0.003803 0.007714 -0.004027 0.000000 0.002072 0.000000
# 3 -0.003084 -0.004027 0.015538 0.000000 -0.000680 0.000000
# 4 0.000000 0.000000 0.000000 0.037023 0.000000 0.013401
# 5 0.004388 0.002072 -0.000680 0.000000 0.037029 0.000000
# 6 0.000000 0.000000 0.000000 0.013401 0.000000 0.026562
#
#
# Mechanical properties :
#
#
# Convention : Reuss Voigt Hill
#
# Bulk Modulus (GPa) = 55.04290 74.91386 64.97838
# Shear Modulus (GPa) = 29.67522 35.77823 32.72672
#
# Velocity S-wave (km/s) = 3.88243 4.26301 4.07716
# Velocity P-wave (km/s) = 6.93226 7.89195 7.42762
#
# Compressibility (1/GPa) = 0.01816765
#
# Stress axis : x y z
#
# Youngs Moduli (GPa) = 59.72801 129.63232 64.35947
#
# Poissons Ratio (x) = 0.49298 0.19848
# Poissons Ratio (y) = 0.22714 0.25915
# Poissons Ratio (z) = 0.18420 0.52197
#
# Static dielectric constant tensor:
#      x y z
#    x 4.222770 0.000000 -0.537500 
#    y 0.000000 4.044350 0.000000 
#    z -0.537500 0.000000 3.960290 
# 
# 
# High freq. dielectric constant tensor:
#      x y z
#    x 1.773770 0.000000 -0.023470 
#    y 0.000000 1.793390 0.000000 
#    z -0.023470 0.000000 1.756760 
# 
# From -- ./inp_files/68068.got.cif
#   From: 2010.06.25/outbox.cif.g09.slc.cpg/sg13_35_cif.got.tgz:68068.got - 2010.06.28 04:50:58.
