data_PCOD8121282
_publ_section_title
;
Structure prediction by ZEFSAII (Michael W. Deem and Ramdas Pophale) SiO2 
 PCOD8121282
Probable space group: P 2/C
;
_chemical_formula_sum "Si O2"
_cell_formula_units_Z 32
_cell_length_a 12.210754
_cell_length_b 8.055342
_cell_length_c 27.707664
_cell_angle_alpha 90.000000
_cell_angle_beta 33.580504
_cell_angle_gamma 90.000000
_cell_volume 1507.427370
_symmetry_space_group_name_H-M "P 2/C"
_symmetry_group_IT_number 13
_symmetry_cell_setting 'monoclinic'
loop_
_space_group_symop_operation_xyz
x,y,z
-x,y,1/2-z
-x,-y,-z
x,-y,1/2+z
loop_
_atom_site_type_symbol
_atom_site_label
_atom_site_fract_x
_atom_site_fract_y
_atom_site_fract_z
Si Si1 0.529390 0.194643 0.596505
Si Si2 0.061652 0.203833 0.618048
Si Si3 0.287523 0.443396 0.740108
Si Si4 0.689317 0.767514 0.710693
Si Si5 0.046617 0.949857 0.537384
Si Si6 0.790565 0.956960 0.765106
Si Si7 0.488158 0.200170 0.503906
Si Si8 0.792985 0.644108 0.819107
O O1 0.446921 0.296231 0.673667
O O2 0.517157 0.276306 0.547340
O O3 0.745428 0.140308 0.532650
O O4 0.386579 0.037885 0.639691
O O5 0.282445 0.252210 0.553700
O O6 0.929249 0.370406 0.667895
O O7 0.047685 0.114954 0.570680
O O8 0.975371 0.078069 0.689311
O O9 0.330101 0.573749 0.767088
O O10 0.325697 0.533130 0.674941
O O11 0.500000 0.816989 0.750000
O O12 0.890109 0.806272 0.608158
O O13 0.684058 0.895397 0.756089
O O14 0.000000 0.000000 0.500000
O O15 0.881577 0.805105 0.759952
O O16 0.661318 0.298992 0.412384
O O17 0.500000 0.000000 0.500000
O O18 0.000000 0.543097 0.750000
#
# Coordination Sequence:
#
# PCOD8121282 Si02
#       8
#     4   4   4   4   4   4   4   4
#     4  11  23  40  62  97 124 162 210 259 311 362
#     4  10  22  41  63  94 124 164 209 251 314 366
#     4  10  26  42  60  90 132 169 203 245 311 390
#     4  10  22  42  65  86 123 170 206 256 319 374
#     4  11  23  41  69  96 120 154 215 276 309 358
#     4   9  19  37  62  87 122 161 211 258 299 373
#     4  12  22  37  66  95 126 163 211 262 299 366
#     4  11  23  37  57  87 127 170 205 245 308 363
#
# _framework density 21.228221000000001
#
# number of rings (size 3 to 8) (size 9 to 14) (size 15 to 20)
#    0.000    1.500    2.500    1.500    5.250    4.500 
#    0.000    2.500    0.000    0.000    0.000    0.000 
#    0.000    0.000    0.000    0.000    0.000    0.000 
#
# Total GULP energy -396447.240965 kJ/mol
# GULP energy per Si atom -12388.976280 kJ/mol
# Density = 2.117990 g / cm^3
# Si number density = 21.228221 Si / 1000 Ang^3
#
#
#
# Elastic Constant Matrix: (Units=GPa)
#
#
# Indices 1 2 3 4 5 6 
#
# 1 119.7513 12.6150 57.4804 0.0000 -0.2751 0.0000
# 2 12.6150 58.0138 27.4480 0.0000 5.3030 0.0000
# 3 57.4804 27.4480 140.7523 0.0000 -5.1784 0.0000
# 4 0.0000 0.0000 0.0000 35.6754 0.0000 22.9395
# 5 -0.2751 5.3030 -5.1784 0.0000 33.9112 0.0000
# 6 0.0000 0.0000 0.0000 22.9395 0.0000 17.0792
#
#
#
# Elastic Compliance Matrix: (Units=1/GPa)
#
#
# Indices 1 2 3 4 5 6 
#
# 1 0.010400 -0.000214 -0.004225 0.000000 -0.000527 0.000000
# 2 -0.000214 0.019430 -0.003835 0.000000 -0.003626 0.000000
# 3 -0.004225 -0.003835 0.009653 0.000000 0.002039 0.000000
# 4 0.000000 0.000000 0.000000 0.205560 0.000000 -0.276093
# 5 -0.000527 -0.003626 0.002039 0.000000 0.030363 0.000000
# 6 0.000000 0.000000 0.000000 -0.276093 0.000000 0.429379
#
#
# Mechanical properties :
#
#
# Convention : Reuss Voigt Hill
#
# Bulk Modulus (GPa) = 43.60231 57.06713 50.33472
# Shear Modulus (GPa) = 6.85893 32.06474 19.46183
#
# Velocity S-wave (km/s) = 1.79946 3.89070 3.03114
# Velocity P-wave (km/s) = 4.99017 6.86473 6.00109
#
# Compressibility (1/GPa) = 0.02293457
#
# Stress axis : x y z
#
# Youngs Moduli (GPa) = 96.15517 51.46762 103.59689
#
# Poissons Ratio (x) = 0.01104 0.43766
# Poissons Ratio (y) = 0.02062 0.39727
# Poissons Ratio (z) = 0.40622 0.19737
#
# Static dielectric constant tensor:
#      x y z
#    x 3.782350 0.000000 0.159450 
#    y 0.000000 3.926340 0.000000 
#    z 0.159450 0.000000 3.868160 
# 
# 
# High freq. dielectric constant tensor:
#      x y z
#    x 1.826470 0.000000 0.003110 
#    y 0.000000 1.828250 0.000000 
#    z 0.003110 0.000000 1.846830 
# 
# From -- ./inp_files/96658.got.cif
#   From: 2010.06.25/outbox.cif.g09.slc.cpg/sg13_49_cif.got.tgz:96658.got - 2010.06.28 04:50:58.
