data_PCOD8121188
_publ_section_title
;
Structure prediction by ZEFSAII (Michael W. Deem and Ramdas Pophale) SiO2 
 PCOD8121188
Probable space group: P 2/C
;
_chemical_formula_sum "Si O2"
_cell_formula_units_Z 22
_cell_length_a 16.987337
_cell_length_b 6.615199
_cell_length_c 27.326355
_cell_angle_alpha 90.000000
_cell_angle_beta 20.145791
_cell_angle_gamma 90.000000
_cell_volume 1057.610652
_symmetry_space_group_name_H-M "P 2/C"
_symmetry_group_IT_number 13
_symmetry_cell_setting 'monoclinic'
loop_
_space_group_symop_operation_xyz
x,y,z
-x,y,1/2-z
-x,-y,-z
x,-y,1/2+z
loop_
_atom_site_type_symbol
_atom_site_label
_atom_site_fract_x
_atom_site_fract_y
_atom_site_fract_z
Si Si1 0.372622 0.161109 0.541107
Si Si2 0.083944 0.556764 0.041673
Si Si3 0.976327 0.163285 0.836250
Si Si4 0.500000 0.347625 0.750000
Si Si5 0.209894 0.822474 0.761125
Si Si6 0.187470 0.114511 0.859301
O O1 0.211435 0.076563 0.591808
O O2 0.577501 0.278103 0.393342
O O3 0.195040 0.274616 0.681269
O O4 0.500000 0.000000 0.500000
O O5 0.130993 0.667700 0.065764
O O6 0.944198 0.352998 0.128631
O O7 0.936883 0.697263 0.092672
O O8 0.323980 0.500442 0.877852
O O9 0.054892 0.962554 0.817573
O O10 0.390817 0.198523 0.773859
O O11 0.297433 0.962356 0.755122
O O12 0.000000 0.000000 0.000000
#
# Coordination Sequence:
#
# PCOD8121188 Si02
#       6
#     4   4   4   2   4   4
#     4   9  19  39  66  91 127 166 207 264 320 384
#     4  11  25  42  62  98 126 168 222 263 321 398
#     4   9  21  41  62  93 127 166 211 258 324 382
#     4  12  26  42  68  94 128 178 214 278 332 380
#     4  10  22  40  64  90 127 167 210 269 315 387
#     4  11  25  44  62  94 133 167 220 267 331 392
#
# _framework density 20.801606
#
# number of rings (size 3 to 8) (size 9 to 14) (size 15 to 20)
#    0.000    1.818    1.818    0.545    5.091    1.455 
#    0.000    7.273    0.000    0.000    0.000    0.000 
#    0.000    0.000    0.000    0.000    0.000    0.000 
#
# Total GULP energy -272552.991050 kJ/mol
# GULP energy per Si atom -12388.772320 kJ/mol
# Density = 2.075426 g / cm^3
# Si number density = 20.801606 Si / 1000 Ang^3
#
#
#
# Elastic Constant Matrix: (Units=GPa)
#
#
# Indices 1 2 3 4 5 6 
#
# 1 150.8167 51.2836 50.1680 0.0000 -7.8981 0.0000
# 2 51.2836 98.2141 52.9849 0.0000 6.4689 0.0000
# 3 50.1680 52.9849 146.0302 0.0000 19.9624 0.0000
# 4 0.0000 0.0000 0.0000 10.9147 0.0000 0.8334
# 5 -7.8981 6.4689 19.9624 0.0000 36.0189 0.0000
# 6 0.0000 0.0000 0.0000 0.8334 0.0000 19.3822
#
#
#
# Elastic Compliance Matrix: (Units=1/GPa)
#
#
# Indices 1 2 3 4 5 6 
#
# 1 0.008813 -0.003653 -0.002224 0.000000 0.003821 0.000000
# 2 -0.003653 0.014177 -0.003713 0.000000 -0.001290 0.000000
# 3 -0.002224 -0.003713 0.009667 0.000000 -0.005179 0.000000
# 4 0.000000 0.000000 0.000000 0.091922 0.000000 -0.003953
# 5 0.003821 -0.001290 -0.005179 0.000000 0.031703 0.000000
# 6 0.000000 0.000000 0.000000 -0.003953 0.000000 0.051764
#
#
# Mechanical properties :
#
#
# Convention : Reuss Voigt Hill
#
# Bulk Modulus (GPa) = 74.20376 78.21490 76.20933
# Shear Modulus (GPa) = 21.57786 29.30478 25.44132
#
# Velocity S-wave (km/s) = 3.22423 3.75744 3.50100
# Velocity P-wave (km/s) = 7.04347 7.51708 7.28413
#
# Compressibility (1/GPa) = 0.01347641
#
# Stress axis : x y z
#
# Youngs Moduli (GPa) = 113.46943 70.53498 103.44361
#
# Poissons Ratio (x) = 0.25769 0.23011
# Poissons Ratio (y) = 0.41455 0.38405
# Poissons Ratio (z) = 0.25241 0.26187
#
# Static dielectric constant tensor:
#      x y z
#    x 4.204120 0.000000 0.333500 
#    y 0.000000 3.482450 0.000000 
#    z 0.333500 0.000000 4.269440 
# 
# 
# High freq. dielectric constant tensor:
#      x y z
#    x 1.838840 0.000000 0.012410 
#    y 0.000000 1.781970 0.000000 
#    z 0.012410 0.000000 1.835260 
# 
# From -- ./inp_files/42577.got.cif
#   From: 2010.06.25/outbox.cif.g09.slc.cpg/sg13_22_cif.got.tgz:42577.got - 2010.06.28 04:50:58.
