data_PCOD8121569
_publ_section_title
;
Structure prediction by ZEFSAII (Michael W. Deem and Ramdas Pophale) SiO2 
 PCOD8121569
Probable space group: P 2/C
;
_chemical_formula_sum "Si O2"
_cell_formula_units_Z 24
_cell_length_a 18.601563
_cell_length_b 8.705147
_cell_length_c 14.377961
_cell_angle_alpha 90.000000
_cell_angle_beta 150.567659
_cell_angle_gamma 90.000000
_cell_volume 1144.073611
_symmetry_space_group_name_H-M "P 2/C"
_symmetry_group_IT_number 13
_symmetry_cell_setting 'monoclinic'
loop_
_space_group_symop_operation_xyz
x,y,z
-x,y,1/2-z
-x,-y,-z
x,-y,1/2+z
loop_
_atom_site_type_symbol
_atom_site_label
_atom_site_fract_x
_atom_site_fract_y
_atom_site_fract_z
Si Si1 0.614533 0.286535 0.103441
Si Si2 0.647707 0.892396 0.458527
Si Si3 0.295953 0.629241 0.301266
Si Si4 0.850766 0.215781 0.035875
Si Si5 0.832993 0.811569 0.179979
Si Si6 0.846933 0.862885 0.986741
O O1 0.701121 0.446071 0.198341
O O2 0.706452 0.164251 0.265779
O O3 0.595629 0.219888 0.980388
O O4 0.456598 0.300574 0.971504
O O5 0.500000 0.969042 0.250000
O O6 0.722587 0.780314 0.467555
O O7 0.758073 0.024091 0.618802
O O8 0.239475 0.680488 0.338892
O O9 0.188882 0.682234 0.098129
O O10 0.000000 0.280245 0.250000
O O11 0.873791 0.041976 0.030379
O O12 0.005653 0.806582 0.398025
O O13 0.816444 0.778687 0.051120
#
# Coordination Sequence:
#
# PCOD8121569 Si02
#       6
#     4   4   4   4   4   4
#     4  11  26  43  62  93 133 169 210 255 311 381
#     4  11  22  41  67  94 125 164 211 265 314 367
#     4  11  26  43  62  94 130 172 209 253 315 378
#     4  11  22  43  67  95 126 162 209 266 316 368
#     4  10  23  42  66  95 124 161 212 264 313 367
#     4  10  22  44  65  94 125 160 211 266 313 367
#
# _framework density 20.977671000000001
#
# number of rings (size 3 to 8) (size 9 to 14) (size 15 to 20)
#    0.000    1.333    5.000    1.000    7.000    4.667 
#    3.000    0.000    0.000    0.000    0.000    0.000 
#    0.000    0.000    0.000    0.000    0.000    0.000 
#
# Total GULP energy -297640.994546 kJ/mol
# GULP energy per Si atom -12401.708106 kJ/mol
# Density = 2.092992 g / cm^3
# Si number density = 20.977671 Si / 1000 Ang^3
#
#
#
# Elastic Constant Matrix: (Units=GPa)
#
#
# Indices 1 2 3 4 5 6 
#
# 1 102.3065 39.4725 32.2913 0.0000 6.6013 0.0000
# 2 39.4725 51.7297 34.7516 0.0000 -1.3515 0.0000
# 3 32.2913 34.7516 136.4237 0.0000 -0.9307 0.0000
# 4 0.0000 0.0000 0.0000 15.3748 0.0000 5.2091
# 5 6.6013 -1.3515 -0.9307 0.0000 27.7500 0.0000
# 6 0.0000 0.0000 0.0000 5.2091 0.0000 6.3641
#
#
#
# Elastic Compliance Matrix: (Units=1/GPa)
#
#
# Indices 1 2 3 4 5 6 
#
# 1 0.014329 -0.010545 -0.000732 0.000000 -0.003947 0.000000
# 2 -0.010545 0.031107 -0.005402 0.000000 0.003842 0.000000
# 3 -0.000732 -0.005402 0.008881 0.000000 0.000209 0.000000
# 4 0.000000 0.000000 0.000000 0.089999 0.000000 -0.073665
# 5 -0.003947 0.003842 0.000209 0.000000 0.037169 0.000000
# 6 0.000000 0.000000 0.000000 -0.073665 0.000000 0.217425
#
#
# Mechanical properties :
#
#
# Convention : Reuss Voigt Hill
#
# Bulk Modulus (GPa) = 47.71321 55.94341 51.82831
# Shear Modulus (GPa) = 11.38294 22.16077 16.77185
#
# Velocity S-wave (km/s) = 2.33195 3.25375 2.83063
# Velocity P-wave (km/s) = 5.48131 6.39076 5.95343
#
# Compressibility (1/GPa) = 0.02095856
#
# Stress axis : x y z
#
# Youngs Moduli (GPa) = 69.78945 32.14743 112.60110
#
# Poissons Ratio (x) = 0.33899 0.08247
# Poissons Ratio (y) = 0.73591 0.60825
# Poissons Ratio (z) = 0.05112 0.17365
#
# Static dielectric constant tensor:
#      x y z
#    x 3.948040 0.000000 0.072560 
#    y 0.000000 3.488170 0.000000 
#    z 0.072560 0.000000 3.931490 
# 
# 
# High freq. dielectric constant tensor:
#      x y z
#    x 1.835390 0.000000 0.007630 
#    y 0.000000 1.796010 0.000000 
#    z 0.007630 0.000000 1.835250 
# 
# From -- ./inp_files/55376.got.cif
#   From: 2010.06.25/outbox.cif.g09.slc.cpg/sg13_28_cif.got.tgz:55376.got - 2010.06.28 04:50:58.
