data_PCOD8121924
_publ_section_title
;
Structure prediction by ZEFSAII (Michael W. Deem and Ramdas Pophale) SiO2 
 PCOD8121924
Probable space group: P 2/C
;
_chemical_formula_sum "Si O2"
_cell_formula_units_Z 26
_cell_length_a 15.727153
_cell_length_b 6.675744
_cell_length_c 23.008591
_cell_angle_alpha 90.000000
_cell_angle_beta 148.274653
_cell_angle_gamma 90.000000
_cell_volume 1270.281658
_symmetry_space_group_name_H-M "P 2/C"
_symmetry_group_IT_number 13
_symmetry_cell_setting 'monoclinic'
loop_
_space_group_symop_operation_xyz
x,y,z
-x,y,1/2-z
-x,-y,-z
x,-y,1/2+z
loop_
_atom_site_type_symbol
_atom_site_label
_atom_site_fract_x
_atom_site_fract_y
_atom_site_fract_z
Si Si1 0.499872 0.899160 0.661785
Si Si2 0.068743 0.662943 0.729057
Si Si3 0.352240 0.947904 0.872857
Si Si4 0.120247 0.268589 0.688274
Si Si5 0.500000 0.447879 0.250000
Si Si6 0.261952 0.781668 0.146961
Si Si7 0.148889 0.955082 0.967640
O O1 0.583629 0.850014 0.649392
O O2 0.472112 0.688290 0.677240
O O3 0.608558 0.045221 0.764136
O O4 0.330992 0.010028 0.552403
O O5 0.232166 0.791003 0.833855
O O6 0.108319 0.485668 0.708518
O O7 0.000000 0.579821 0.750000
O O8 0.928515 0.796786 0.620545
O O9 0.258444 0.151752 0.803755
O O10 0.500000 0.000000 0.000000
O O11 0.163871 0.287201 0.646074
O O12 0.947702 0.161998 0.592564
O O13 0.343304 0.584900 0.167181
O O14 0.139703 0.871518 0.028119
#
# Coordination Sequence:
#
# PCOD8121924 Si02
#       7
#     4   4   4   4   2   4   4
#     4  11  22  39  64  95 128 165 210 253 313 365
#     4  11  25  43  62  94 125 163 216 258 310 374
#     4  10  23  45  66  90 123 167 209 263 309 368
#     4  10  25  41  64  91 127 166 205 262 312 372
#     4  12  20  36  64  92 132 160 208 258 306 364
#     4  11  22  41  60  95 129 162 214 251 308 376
#     4  11  22  41  63  91 129 169 200 259 313 373
#
# _framework density 20.467901000000001
#
# number of rings (size 3 to 8) (size 9 to 14) (size 15 to 20)
#    0.000    1.231    3.077    2.308    2.154    4.923 
#    0.000    0.000    0.000    0.000    0.000    0.000 
#    0.000    0.000    0.000    0.000    0.000    0.000 
#
# Total GULP energy -322540.229846 kJ/mol
# GULP energy per Si atom -12405.393456 kJ/mol
# Density = 2.042132 g / cm^3
# Si number density = 20.467901 Si / 1000 Ang^3
#
#
#
# Elastic Constant Matrix: (Units=GPa)
#
#
# Indices 1 2 3 4 5 6 
#
# 1 91.0232 18.2016 20.2749 0.0000 -4.3202 0.0000
# 2 18.2016 81.7902 22.0660 0.0000 -8.2151 0.0000
# 3 20.2749 22.0660 109.7428 0.0000 -1.6726 0.0000
# 4 0.0000 0.0000 0.0000 13.6413 0.0000 -6.1245
# 5 -4.3202 -8.2151 -1.6726 0.0000 19.6417 0.0000
# 6 0.0000 0.0000 0.0000 -6.1245 0.0000 28.8770
#
#
#
# Elastic Compliance Matrix: (Units=1/GPa)
#
#
# Indices 1 2 3 4 5 6 
#
# 1 0.011856 -0.002000 -0.001764 0.000000 0.001621 0.000000
# 2 -0.002000 0.013816 -0.002330 0.000000 0.005140 0.000000
# 3 -0.001764 -0.002330 0.009899 0.000000 -0.000520 0.000000
# 4 0.000000 0.000000 0.000000 0.081022 0.000000 0.017184
# 5 0.001621 0.005140 -0.000520 0.000000 0.053374 0.000000
# 6 0.000000 0.000000 0.000000 0.017184 0.000000 0.038274
#
#
# Mechanical properties :
#
#
# Convention : Reuss Voigt Hill
#
# Bulk Modulus (GPa) = 42.76481 44.84902 43.80692
# Shear Modulus (GPa) = 21.90843 27.23293 24.57068
#
# Velocity S-wave (km/s) = 3.27522 3.65159 3.46851
# Velocity P-wave (km/s) = 5.93647 6.30383 6.12290
#
# Compressibility (1/GPa) = 0.02338371
#
# Stress axis : x y z
#
# Youngs Moduli (GPa) = 84.34636 72.37772 101.02383
#
# Poissons Ratio (x) = 0.14474 0.17816
# Poissons Ratio (y) = 0.16868 0.23541
# Poissons Ratio (z) = 0.14875 0.16866
#
# Static dielectric constant tensor:
#      x y z
#    x 3.892470 0.000000 0.009770 
#    y 0.000000 3.639580 0.000000 
#    z 0.009770 0.000000 3.713420 
# 
# 
# High freq. dielectric constant tensor:
#      x y z
#    x 1.813860 0.000000 0.002370 
#    y 0.000000 1.800790 0.000000 
#    z 0.002370 0.000000 1.803830 
# 
# From -- ./inp_files/87708.got.cif
#   From: 2010.06.25/outbox.cif.g09.slc.cpg/sg13_44_cif.got.tgz:87708.got - 2010.06.28 04:50:58.
