data_PCOD8121792
_publ_section_title
;
Structure prediction by ZEFSAII (Michael W. Deem and Ramdas Pophale) SiO2 
 PCOD8121792
Probable space group: P 2/C
;
_chemical_formula_sum "Si O2"
_cell_formula_units_Z 20
_cell_length_a 19.200619
_cell_length_b 10.202716
_cell_length_c 15.342332
_cell_angle_alpha 90.000000
_cell_angle_beta 21.298789
_cell_angle_gamma 90.000000
_cell_volume 1091.706646
_symmetry_space_group_name_H-M "P 2/C"
_symmetry_group_IT_number 13
_symmetry_cell_setting 'monoclinic'
loop_
_space_group_symop_operation_xyz
x,y,z
-x,y,1/2-z
-x,-y,-z
x,-y,1/2+z
loop_
_atom_site_type_symbol
_atom_site_label
_atom_site_fract_x
_atom_site_fract_y
_atom_site_fract_z
Si Si1 0.500000 0.889300 0.250000
Si Si2 0.070661 0.148262 0.912586
Si Si3 0.502941 0.077543 0.086482
Si Si4 0.131499 0.754413 0.021285
Si Si5 0.000000 0.495917 0.750000
Si Si6 0.105119 0.253378 0.211202
O O1 0.316944 0.799176 0.480800
O O2 0.458957 0.976312 0.214021
O O3 0.297032 0.150760 0.631687
O O4 0.966667 0.224222 0.956833
O O5 0.027369 0.223931 0.051832
O O6 0.000000 0.000000 0.000000
O O7 0.343738 0.189399 0.273345
O O8 0.500000 0.000000 0.000000
O O9 0.143990 0.597969 0.026871
O O10 0.000000 0.822803 0.250000
O O11 0.882222 0.589343 0.820301
O O12 0.000000 0.186208 0.250000
#
# Coordination Sequence:
#
# PCOD8121792 Si02
#       6
#     2   4   4   4   2   4
#     4  12  22  36  66  92 122 166 200 260 328 362
#     4  12  22  38  65  96 124 162 199 263 327 359
#     4  12  23  36  63  99 123 155 202 259 329 365
#     4  10  23  43  60  88 130 159 211 255 300 375
#     4   8  24  46  62  82 126 182 204 252 300 354
#     4  10  23  42  61  89 127 165 211 257 298 373
#
# _framework density 18.319939999999999
#
# number of rings (size 3 to 8) (size 9 to 14) (size 15 to 20)
#    1.200    0.000    4.000    2.400    0.000    0.800 
#    3.600    1.000    0.000    0.000    0.000    0.000 
#    0.000    0.000    0.000    0.000    0.000    0.000 
#
# Total GULP energy -247943.067575 kJ/mol
# GULP energy per Si atom -12397.153379 kJ/mol
# Density = 1.827824 g / cm^3
# Si number density = 18.319940 Si / 1000 Ang^3
#
#
#
# Elastic Constant Matrix: (Units=GPa)
#
#
# Indices 1 2 3 4 5 6 
#
# 1 114.6113 49.6666 27.7842 0.0000 9.6935 0.0000
# 2 49.6666 124.8250 46.2231 0.0000 -0.0897 0.0000
# 3 27.7842 46.2231 122.7671 0.0000 -12.3892 0.0000
# 4 0.0000 0.0000 0.0000 34.7978 0.0000 9.1792
# 5 9.6935 -0.0897 -12.3892 0.0000 37.9389 0.0000
# 6 0.0000 0.0000 0.0000 9.1792 0.0000 22.7658
#
#
#
# Elastic Compliance Matrix: (Units=1/GPa)
#
#
# Indices 1 2 3 4 5 6 
#
# 1 0.011013 -0.003880 -0.001361 0.000000 -0.003268 0.000000
# 2 -0.003880 0.010726 -0.003162 0.000000 -0.000016 0.000000
# 3 -0.001361 -0.003162 0.010008 0.000000 0.003609 0.000000
# 4 0.000000 0.000000 0.000000 0.032158 0.000000 -0.012966
# 5 -0.003268 -0.000016 0.003609 0.000000 0.028371 0.000000
# 6 0.000000 0.000000 0.000000 -0.012966 0.000000 0.049153
#
#
# Mechanical properties :
#
#
# Convention : Reuss Voigt Hill
#
# Bulk Modulus (GPa) = 66.93210 67.72790 67.33000
# Shear Modulus (GPa) = 30.63416 35.00247 32.81831
#
# Velocity S-wave (km/s) = 4.09366 4.37581 4.23708
# Velocity P-wave (km/s) = 7.67844 7.91075 7.79546
#
# Compressibility (1/GPa) = 0.01494052
#
# Stress axis : x y z
#
# Youngs Moduli (GPa) = 90.80194 93.23177 99.91798
#
# Poissons Ratio (x) = 0.36176 0.13601
# Poissons Ratio (y) = 0.35233 0.31593
# Poissons Ratio (z) = 0.12360 0.29479
#
# Static dielectric constant tensor:
#      x y z
#    x 3.517960 0.000000 -0.406310 
#    y 0.000000 3.156980 0.000000 
#    z -0.406310 0.000000 6.734260 
# 
# 
# High freq. dielectric constant tensor:
#      x y z
#    x 1.726050 0.000000 0.004650 
#    y 0.000000 1.695660 0.000000 
#    z 0.004650 0.000000 1.714320 
# 
# From -- ./inp_files/55498.got.cif
#   From: 2010.06.25/outbox.cif.g09.slc.cpg/sg13_28_cif.got.tgz:55498.got - 2010.06.28 04:50:58.
