data_PCOD8121489
_publ_section_title
;
Structure prediction by ZEFSAII (Michael W. Deem and Ramdas Pophale) SiO2 
 PCOD8121489
Probable space group: P 2/C
;
_chemical_formula_sum "Si O2"
_cell_formula_units_Z 28
_cell_length_a 22.331011
_cell_length_b 6.565840
_cell_length_c 18.596648
_cell_angle_alpha 90.000000
_cell_angle_beta 153.222455
_cell_angle_gamma 90.000000
_cell_volume 1228.442518
_symmetry_space_group_name_H-M "P 2/C"
_symmetry_group_IT_number 13
_symmetry_cell_setting 'monoclinic'
loop_
_space_group_symop_operation_xyz
x,y,z
-x,y,1/2-z
-x,-y,-z
x,-y,1/2+z
loop_
_atom_site_type_symbol
_atom_site_label
_atom_site_fract_x
_atom_site_fract_y
_atom_site_fract_z
Si Si1 0.500000 0.483673 0.250000
Si Si2 0.773485 0.670518 0.510434
Si Si3 0.829653 0.241424 0.915167
Si Si4 0.000000 0.666605 0.250000
Si Si5 0.922315 0.988847 0.767768
Si Si6 0.724309 0.002415 0.674058
Si Si7 0.509854 0.709315 0.913608
Si Si8 0.702691 0.585995 0.705676
O O1 0.632633 0.621747 0.396793
O O2 0.510900 0.340953 0.192026
O O3 0.746117 0.737791 0.399196
O O4 0.869048 0.472877 0.612204
O O5 0.839686 0.865164 0.619514
O O6 0.755400 0.076192 0.787551
O O7 0.827313 0.459343 0.871064
O O8 0.979552 0.174881 0.091019
O O9 0.999229 0.817867 0.180547
O O10 0.827287 0.088460 0.725801
O O11 0.574314 0.065033 0.490202
O O12 0.746433 0.759785 0.697153
O O13 0.371567 0.694753 0.807125
O O14 0.612500 0.560783 0.062237
#
# Coordination Sequence:
#
# PCOD8121489 Si02
#       8
#     2   4   4   2   4   4   4   4
#     4  12  24  44  76 102 138 184 236 288 350 404
#     4  12  25  47  70 103 143 183 233 288 353 414
#     4  11  23  44  67 102 133 182 233 278 344 420
#     4  12  24  46  78  92 148 186 222 296 354 402
#     4  12  25  46  69 106 139 179 240 283 344 419
#     4  11  25  42  67 100 137 179 234 288 337 412
#     4  10  22  43  63 101 137 180 236 278 342 420
#     4  10  22  43  69  92 144 188 218 284 354 405
#
# _framework density 22.793089999999999
#
# number of rings (size 3 to 8) (size 9 to 14) (size 15 to 20)
#    0.000    0.857    4.286    2.571    2.000    1.714 
#    5.143    1.429    0.000    0.000    0.000    0.000 
#    0.000    0.000    0.000    0.000    0.000    0.000 
#
# Total GULP energy -347198.133542 kJ/mol
# GULP energy per Si atom -12399.933341 kJ/mol
# Density = 2.274121 g / cm^3
# Si number density = 22.793090 Si / 1000 Ang^3
#
#
#
# Elastic Constant Matrix: (Units=GPa)
#
#
# Indices 1 2 3 4 5 6 
#
# 1 87.5800 23.5696 26.7438 0.0000 -6.5975 0.0000
# 2 23.5696 98.3141 29.4878 0.0000 3.0137 0.0000
# 3 26.7438 29.4878 78.0727 0.0000 5.7328 0.0000
# 4 0.0000 0.0000 0.0000 31.3259 0.0000 -1.8800
# 5 -6.5975 3.0137 5.7328 0.0000 41.6259 0.0000
# 6 0.0000 0.0000 0.0000 -1.8800 0.0000 30.6263
#
#
#
# Elastic Compliance Matrix: (Units=1/GPa)
#
#
# Indices 1 2 3 4 5 6 
#
# 1 0.013422 -0.002101 -0.004012 0.000000 0.002832 0.000000
# 2 -0.002101 0.011802 -0.003688 0.000000 -0.000680 0.000000
# 3 -0.004012 -0.003688 0.015762 0.000000 -0.002540 0.000000
# 4 0.000000 0.000000 0.000000 0.032040 0.000000 0.001967
# 5 0.002832 -0.000680 -0.002540 0.000000 0.024871 0.000000
# 6 0.000000 0.000000 0.000000 0.001967 0.000000 0.032772
#
#
# Mechanical properties :
#
#
# Convention : Reuss Voigt Hill
#
# Bulk Modulus (GPa) = 46.76374 47.06325 46.91349
# Shear Modulus (GPa) = 31.76590 32.99333 32.37962
#
# Velocity S-wave (km/s) = 3.73723 3.80875 3.77316
# Velocity P-wave (km/s) = 6.25969 6.32732 6.29359
#
# Compressibility (1/GPa) = 0.02138409
#
# Stress axis : x y z
#
# Youngs Moduli (GPa) = 74.50401 84.72987 63.44240
#
# Poissons Ratio (x) = 0.17804 0.25453
# Poissons Ratio (y) = 0.15655 0.23397
# Poissons Ratio (z) = 0.29891 0.31248
#
# Static dielectric constant tensor:
#      x y z
#    x 4.265140 0.000000 -0.100610 
#    y 0.000000 4.177820 0.000000 
#    z -0.100610 0.000000 4.100670 
# 
# 
# High freq. dielectric constant tensor:
#      x y z
#    x 1.909960 0.000000 -0.010320 
#    y 0.000000 1.901560 0.000000 
#    z -0.010320 0.000000 1.892260 
# 
# From -- ./inp_files/81980.got.cif
#   From: 2010.06.25/outbox.cif.g09.slc.cpg/sg13_41_cif.got.tgz:81980.got - 2010.06.28 04:50:58.
