data_PCOD8121831
_publ_section_title
;
Structure prediction by ZEFSAII (Michael W. Deem and Ramdas Pophale) SiO2 
 PCOD8121831
Probable space group: P 2/C
;
_chemical_formula_sum "Si O2"
_cell_formula_units_Z 26
_cell_length_a 17.964430
_cell_length_b 5.616347
_cell_length_c 13.081208
_cell_angle_alpha 90.000000
_cell_angle_beta 113.251145
_cell_angle_gamma 90.000000
_cell_volume 1212.630056
_symmetry_space_group_name_H-M "P 2/C"
_symmetry_group_IT_number 13
_symmetry_cell_setting 'monoclinic'
loop_
_space_group_symop_operation_xyz
x,y,z
-x,y,1/2-z
-x,-y,-z
x,-y,1/2+z
loop_
_atom_site_type_symbol
_atom_site_label
_atom_site_fract_x
_atom_site_fract_y
_atom_site_fract_z
Si Si1 0.133254 0.464961 0.683761
Si Si2 0.409337 0.306679 0.666452
Si Si3 0.781265 0.858806 0.884445
Si Si4 0.699010 0.784487 0.211466
Si Si5 0.646099 0.209784 0.454356
Si Si6 0.000000 0.367975 0.250000
Si Si7 0.068985 0.149341 0.484600
O O1 0.163630 0.719569 0.665215
O O2 0.210483 0.311549 0.757261
O O3 0.072763 0.470112 0.746909
O O4 0.080872 0.383001 0.558603
O O5 0.500000 0.260335 0.750000
O O6 0.354047 0.367076 0.736174
O O7 0.407576 0.551934 0.597858
O O8 0.384098 0.055978 0.596619
O O9 0.733143 0.726964 0.949619
O O10 0.710738 0.963929 0.773670
O O11 0.841543 0.037610 0.974521
O O12 0.652554 0.807115 0.079992
O O13 0.039070 0.200295 0.355477
O O14 0.000000 0.000000 0.500000
#
# Coordination Sequence:
#
# PCOD8121831 Si02
#       7
#     4   4   4   4   4   2   4
#     4  11  24  43  61  92 128 172 222 286 333 402
#     4  11  25  46  69 106 144 175 221 280 335 407
#     4  10  23  43  62  91 133 167 226 281 335 395
#     4  10  25  42  69  98 132 176 225 280 336 409
#     4  11  25  42  74  99 136 184 224 273 341 405
#     4  12  26  38  68  88 128 178 224 278 348 394
#     4  11  25  42  59  91 129 169 225 286 339 402
#
# _framework density 21.440998
#
# number of rings (size 3 to 8) (size 9 to 14) (size 15 to 20)
#    0.000    1.231    3.077    0.923    6.462    1.846 
#    0.000    0.000    0.000    0.000    0.000    0.000 
#    0.000    0.000    0.000    0.000    0.000    0.000 
#
# Total GULP energy -322090.953913 kJ/mol
# GULP energy per Si atom -12388.113612 kJ/mol
# Density = 2.139220 g / cm^3
# Si number density = 21.440998 Si / 1000 Ang^3
#
#
#
# Elastic Constant Matrix: (Units=GPa)
#
#
# Indices 1 2 3 4 5 6 
#
# 1 62.1231 10.3157 35.8095 0.0000 7.6015 0.0000
# 2 10.3157 94.0373 46.2393 0.0000 2.5313 0.0000
# 3 35.8095 46.2393 166.1849 0.0000 0.3174 0.0000
# 4 0.0000 0.0000 0.0000 -18.6660 0.0000 4.7039
# 5 7.6015 2.5313 0.3174 0.0000 29.3461 0.0000
# 6 0.0000 0.0000 0.0000 4.7039 0.0000 29.8365
#
#
#
# Elastic Compliance Matrix: (Units=1/GPa)
#
#
# Indices 1 2 3 4 5 6 
#
# 1 0.019058 0.000065 -0.004115 0.000000 -0.004898 0.000000
# 2 0.000065 0.012351 -0.003448 0.000000 -0.001045 0.000000
# 3 -0.004115 -0.003448 0.007861 0.000000 0.001278 0.000000
# 4 0.000000 0.000000 0.000000 -0.051526 0.000000 0.008123
# 5 -0.004898 -0.001045 0.001278 0.000000 0.035421 0.000000
# 6 0.000000 0.000000 0.000000 0.008123 0.000000 0.032235
#
#
# Mechanical properties :
#
#
# Convention : Reuss Voigt Hill
#
# Bulk Modulus (GPa) = 41.20000 56.34160 48.77080
# Shear Modulus (GPa) = 63.70389 23.43538 43.56964
#
# Velocity S-wave (km/s) = 5.45672 3.30967 4.51274
# Velocity P-wave (km/s) = 7.67843 6.39842 7.06746
#
# Compressibility (1/GPa) = 0.02427184
#
# Stress axis : x y z
#
# Youngs Moduli (GPa) = 52.47220 80.96686 127.20724
#
# Poissons Ratio (x) = -0.00524 0.52348
# Poissons Ratio (y) = -0.00340 0.43866
# Poissons Ratio (z) = 0.21593 0.27921
#
# Static dielectric constant tensor:
#      x y z
#    x 5.392570 0.000000 -1.465180 
#    y 0.000000 3.952260 0.000000 
#    z -1.465180 0.000000 5.272460 
# 
# 
# High freq. dielectric constant tensor:
#      x y z
#    x 1.852140 0.000000 0.003370 
#    y 0.000000 1.838950 0.000000 
#    z 0.003370 0.000000 1.842690 
# 
# From -- ./inp_files/39910.got.cif
#   From: 2010.06.25/outbox.cif.g09.slc.cpg/sg13_20_cif.got.tgz:39910.got - 2010.06.28 04:50:58.
