data_PCOD8121533
_publ_section_title
;
Structure prediction by ZEFSAII (Michael W. Deem and Ramdas Pophale) SiO2 
 PCOD8121533
Probable space group: P 2/C
;
_chemical_formula_sum "Si O2"
_cell_formula_units_Z 26
_cell_length_a 11.133830
_cell_length_b 11.531190
_cell_length_c 17.475492
_cell_angle_alpha 90.000000
_cell_angle_beta 146.248578
_cell_angle_gamma 90.000000
_cell_volume 1246.531406
_symmetry_space_group_name_H-M "P 2/C"
_symmetry_group_IT_number 13
_symmetry_cell_setting 'monoclinic'
loop_
_space_group_symop_operation_xyz
x,y,z
-x,y,1/2-z
-x,-y,-z
x,-y,1/2+z
loop_
_atom_site_type_symbol
_atom_site_label
_atom_site_fract_x
_atom_site_fract_y
_atom_site_fract_z
Si Si1 0.933564 0.184879 0.629672
Si Si2 0.516657 0.948417 0.898058
Si Si3 0.215834 0.419758 0.891729
Si Si4 0.809642 0.078012 0.866148
Si Si5 0.536360 0.638020 0.432545
Si Si6 0.500000 0.743755 0.250000
Si Si7 0.252807 0.852487 0.887343
O O1 0.726101 0.121979 0.483944
O O2 0.871924 0.320479 0.597527
O O3 0.000000 0.141277 0.750000
O O4 0.129209 0.150249 0.677845
O O5 0.352554 0.862839 0.855677
O O6 0.387537 0.991941 0.756103
O O7 0.601589 0.060566 0.987206
O O8 0.327760 0.356893 0.877612
O O9 0.000000 0.487993 0.750000
O O10 0.373777 0.506706 0.019016
O O11 0.715261 0.175224 0.874440
O O12 0.000000 0.000000 0.000000
O O13 0.476828 0.665315 0.313341
O O14 0.717013 0.724353 0.561987
O O15 0.000000 0.884998 0.750000
#
# Coordination Sequence:
#
# PCOD8121533 Si02
#       7
#     4   4   4   4   4   2   4
#     4  11  21  41  67  94 124 171 214 267 326 377
#     4  11  21  37  60  95 123 169 213 265 312 387
#     4  10  22  43  70  94 123 164 225 281 315 379
#     4  12  26  41  61  93 137 179 210 258 329 396
#     4  11  23  43  65  96 127 171 217 271 328 379
#     4  12  24  44  62  92 138 174 212 264 328 392
#     4  11  21  35  62  94 125 161 214 271 319 375
#
# _framework density 20.857877999999999
#
# number of rings (size 3 to 8) (size 9 to 14) (size 15 to 20)
#    0.000    0.923    3.077    6.462    2.154    0.000 
#    0.000    4.615    0.000    0.000    0.000    0.000 
#    0.000    0.000    0.000    0.000    0.000    0.000 
#
# Total GULP energy -322295.365063 kJ/mol
# GULP energy per Si atom -12395.975579 kJ/mol
# Density = 2.081040 g / cm^3
# Si number density = 20.857878 Si / 1000 Ang^3
#
#
#
# Elastic Constant Matrix: (Units=GPa)
#
#
# Indices 1 2 3 4 5 6 
#
# 1 93.0922 34.4818 26.2427 0.0000 0.1877 0.0000
# 2 34.4818 94.7407 36.7483 0.0000 -6.9416 0.0000
# 3 26.2427 36.7483 110.3534 0.0000 7.5324 0.0000
# 4 0.0000 0.0000 0.0000 22.8917 0.0000 4.7867
# 5 0.1877 -6.9416 7.5324 0.0000 33.1285 0.0000
# 6 0.0000 0.0000 0.0000 4.7867 0.0000 31.4907
#
#
#
# Elastic Compliance Matrix: (Units=1/GPa)
#
#
# Indices 1 2 3 4 5 6 
#
# 1 0.012697 -0.004024 -0.001642 0.000000 -0.000542 0.000000
# 2 -0.004024 0.013812 -0.003902 0.000000 0.003804 0.000000
# 3 -0.001642 -0.003902 0.010977 0.000000 -0.003304 0.000000
# 4 0.000000 0.000000 0.000000 0.045118 0.000000 -0.006858
# 5 -0.000542 0.003804 -0.003304 0.000000 0.031737 0.000000
# 6 0.000000 0.000000 0.000000 -0.006858 0.000000 0.032798
#
#
# Mechanical properties :
#
#
# Convention : Reuss Voigt Hill
#
# Bulk Modulus (GPa) = 54.49843 54.79242 54.64543
# Shear Modulus (GPa) = 29.00372 30.88308 29.94340
#
# Velocity S-wave (km/s) = 3.73304 3.85209 3.79303
# Velocity P-wave (km/s) = 6.69074 6.79052 6.74082
#
# Compressibility (1/GPa) = 0.01834915
#
# Stress axis : x y z
#
# Youngs Moduli (GPa) = 78.76185 72.40130 91.09633
#
# Poissons Ratio (x) = 0.29132 0.14962
# Poissons Ratio (y) = 0.31691 0.35548
# Poissons Ratio (z) = 0.12936 0.28253
#
# Static dielectric constant tensor:
#      x y z
#    x 3.899360 0.000000 0.249220 
#    y 0.000000 3.702430 0.000000 
#    z 0.249220 0.000000 3.737880 
# 
# 
# High freq. dielectric constant tensor:
#      x y z
#    x 1.821880 0.000000 0.025030 
#    y 0.000000 1.811590 0.000000 
#    z 0.025030 0.000000 1.811240 
# 
# From -- ./inp_files/66747.got.cif
#   From: 2010.06.25/outbox.cif.g09.slc.cpg/sg13_34_cif.got.tgz:66747.got - 2010.06.28 04:50:58.
