data_PCOD8121479
_publ_section_title
;
Structure prediction by ZEFSAII (Michael W. Deem and Ramdas Pophale) SiO2 
 PCOD8121479
Probable space group: P 2/C
;
_chemical_formula_sum "Si O2"
_cell_formula_units_Z 16
_cell_length_a 7.888608
_cell_length_b 18.001997
_cell_length_c 5.440694
_cell_angle_alpha 90.000000
_cell_angle_beta 118.944538
_cell_angle_gamma 90.000000
_cell_volume 676.125604
_symmetry_space_group_name_H-M "P 2/C"
_symmetry_group_IT_number 13
_symmetry_cell_setting 'monoclinic'
loop_
_space_group_symop_operation_xyz
x,y,z
-x,y,1/2-z
-x,-y,-z
x,-y,1/2+z
loop_
_atom_site_type_symbol
_atom_site_label
_atom_site_fract_x
_atom_site_fract_y
_atom_site_fract_z
Si Si1 0.677654 0.310363 0.694101
Si Si2 0.500000 0.046906 0.250000
Si Si3 0.230066 0.538805 0.426771
Si Si4 0.000000 0.265246 0.250000
Si Si5 0.794997 0.825218 0.983103
O O1 0.500000 0.320502 0.750000
O O2 0.686007 0.377229 0.504834
O O3 0.661791 0.230596 0.549722
O O4 0.886699 0.316908 0.978311
O O5 0.308911 0.096830 0.123789
O O6 0.500000 0.000000 0.500000
O O7 0.309641 0.501292 0.733612
O O8 0.000000 0.537170 0.250000
O O9 0.833324 0.213329 0.249105
O O10 0.000000 0.841635 0.250000
#
# Coordination Sequence:
#
# PCOD8121479 Si02
#       5
#     4   2   4   2   4
#     4  11  24  41  70 101 135 185 238 292 343 414
#     4  12  30  48  74 110 148 178 226 284 356 420
#     4  10  23  41  65  96 141 186 233 291 354 408
#     4  10  22  42  72  98 136 178 252 274 346 402
#     4  10  24  45  73 101 138 187 236 281 344 415
#
# _framework density 23.664239999999999
#
# number of rings (size 3 to 8) (size 9 to 14) (size 15 to 20)
#    0.000    1.500    0.000    3.750   17.500    2.000 
#    0.000    0.000    0.000    0.000    0.000    0.000 
#    0.000    0.000    0.000    0.000    0.000    0.000 
#
# Total GULP energy -198456.245647 kJ/mol
# GULP energy per Si atom -12403.515353 kJ/mol
# Density = 2.361038 g / cm^3
# Si number density = 23.664240 Si / 1000 Ang^3
#
#
#
# Elastic Constant Matrix: (Units=GPa)
#
#
# Indices 1 2 3 4 5 6 
#
# 1 94.9124 48.0712 33.3984 0.0000 -21.0127 0.0000
# 2 48.0712 151.2928 59.1141 0.0000 -4.8138 0.0000
# 3 33.3984 59.1141 119.1017 0.0000 -23.6481 0.0000
# 4 0.0000 0.0000 0.0000 -8.6915 0.0000 1.5592
# 5 -21.0127 -4.8138 -23.6481 0.0000 34.8019 0.0000
# 6 0.0000 0.0000 0.0000 1.5592 0.0000 20.2707
#
#
#
# Elastic Compliance Matrix: (Units=1/GPa)
#
#
# Indices 1 2 3 4 5 6 
#
# 1 0.014574 -0.004214 -0.000421 0.000000 0.007931 0.000000
# 2 -0.004214 0.009527 -0.004381 0.000000 -0.004204 0.000000
# 3 -0.000421 -0.004381 0.012158 0.000000 0.007402 0.000000
# 4 0.000000 0.000000 0.000000 -0.113489 0.000000 0.008729
# 5 0.007931 -0.004204 0.007402 0.000000 0.037971 0.000000
# 6 0.000000 0.000000 0.000000 0.008729 0.000000 0.048661
#
#
# Mechanical properties :
#
#
# Convention : Reuss Voigt Hill
#
# Bulk Modulus (GPa) = 54.86298 71.83046 63.34672
# Shear Modulus (GPa) = 149.20946 24.25778 86.73362
#
# Velocity S-wave (km/s) = 7.94919 3.20516 6.06064
# Velocity P-wave (km/s) = 10.36760 6.64209 8.70645
#
# Compressibility (1/GPa) = 0.01822723
#
# Stress axis : x y z
#
# Youngs Moduli (GPa) = 68.61440 104.96631 82.24742
#
# Poissons Ratio (x) = 0.44234 0.03459
# Poissons Ratio (y) = 0.28915 0.36037
# Poissons Ratio (z) = 0.02886 0.45991
#
# Static dielectric constant tensor:
#      x y z
#    x 4.318110 0.000000 -0.211120 
#    y 0.000000 4.137540 0.000000 
#    z -0.211120 0.000000 4.446700 
# 
# 
# High freq. dielectric constant tensor:
#      x y z
#    x 1.955780 0.000000 -0.002420 
#    y 0.000000 1.926440 0.000000 
#    z -0.002420 0.000000 1.946250 
# 
# From -- ./inp_files/1113.got.cif
#   From: 2010.06.25/outbox.cif.g09.slc.cpg/sg13_1_cif.got.tgz:1113.got - 2010.06.28 04:50:58.
