data_PCOD8121483
_publ_section_title
;
Structure prediction by ZEFSAII (Michael W. Deem and Ramdas Pophale) SiO2 
 PCOD8121483
Probable space group: P 2/C
;
_chemical_formula_sum "Si O2"
_cell_formula_units_Z 18
_cell_length_a 4.834262
_cell_length_b 8.040677
_cell_length_c 17.332592
_cell_angle_alpha 90.000000
_cell_angle_beta 72.694241
_cell_angle_gamma 90.000000
_cell_volume 643.231487
_symmetry_space_group_name_H-M "P 2/C"
_symmetry_group_IT_number 13
_symmetry_cell_setting 'monoclinic'
loop_
_space_group_symop_operation_xyz
x,y,z
-x,y,1/2-z
-x,-y,-z
x,-y,1/2+z
loop_
_atom_site_type_symbol
_atom_site_label
_atom_site_fract_x
_atom_site_fract_y
_atom_site_fract_z
Si Si1 0.000000 0.327177 0.750000
Si Si2 0.663602 0.356455 0.063518
Si Si3 0.449002 0.058238 0.672098
Si Si4 0.098849 0.685444 0.406481
Si Si5 0.921873 0.763560 0.844375
O O1 0.279328 0.223155 0.706266
O O2 0.070798 0.416507 0.825790
O O3 0.730563 0.553062 0.055985
O O4 0.317162 0.357745 0.098364
O O5 0.795123 0.244259 0.123884
O O6 0.788531 0.278858 0.973368
O O7 0.500000 0.961929 0.750000
O O8 0.746025 0.132494 0.610852
O O9 0.240900 0.943646 0.637171
O O10 0.000000 0.711514 0.750000
#
# Coordination Sequence:
#
# PCOD8121483 Si02
#       5
#     2   4   4   4   4
#     4  10  22  42  74  96 138 190 234 286 354 448
#     4  11  28  46  72 107 150 183 242 313 357 432
#     4  10  22  43  70 101 143 191 243 292 353 442
#     4  10  26  46  70 106 143 193 244 295 366 437
#     4  12  26  46  72 105 146 190 239 302 371 423
#
# _framework density 27.983701
#
# number of rings (size 3 to 8) (size 9 to 14) (size 15 to 20)
#    0.000    1.333    1.111    2.000   10.889    7.111 
#    0.000    0.000    0.000    0.000    0.000    0.000 
#    0.000    0.000    0.000    0.000    0.000    0.000 
#
# Total GULP energy -222996.970374 kJ/mol
# GULP energy per Si atom -12388.720576 kJ/mol
# Density = 2.792001 g / cm^3
# Si number density = 27.983701 Si / 1000 Ang^3
#
#
#
# Elastic Constant Matrix: (Units=GPa)
#
#
# Indices 1 2 3 4 5 6 
#
# 1 66.7205 -9.1778 12.3466 0.0000 -12.0376 0.0000
# 2 -9.1778 37.5698 23.9472 0.0000 3.5137 0.0000
# 3 12.3466 23.9472 172.1750 0.0000 -24.7450 0.0000
# 4 0.0000 0.0000 0.0000 0.9987 0.0000 40.5448
# 5 -12.0376 3.5137 -24.7450 0.0000 46.8478 0.0000
# 6 0.0000 0.0000 0.0000 40.5448 0.0000 -30.9329
#
#
#
# Elastic Compliance Matrix: (Units=1/GPa)
#
#
# Indices 1 2 3 4 5 6 
#
# 1 0.016442 0.004590 -0.001363 0.000000 0.003160 0.000000
# 2 0.004590 0.031473 -0.005277 0.000000 -0.003969 0.000000
# 3 -0.001363 -0.005277 0.007192 0.000000 0.003844 0.000000
# 4 0.000000 0.000000 0.000000 0.018470 0.000000 0.024209
# 5 0.003160 -0.003969 0.003844 0.000000 0.024486 0.000000
# 6 0.000000 0.000000 0.000000 0.024209 0.000000 -0.000596
#
#
# Mechanical properties :
#
#
# Convention : Reuss Voigt Hill
#
# Bulk Modulus (GPa) = 19.60541 36.74416 28.17478
# Shear Modulus (GPa) = 42.16933 20.00599 31.08766
#
# Velocity S-wave (km/s) = 3.88612 2.67669 3.33666
# Velocity P-wave (km/s) = 5.21125 4.76571 4.99345
#
# Compressibility (1/GPa) = 0.05100634
#
# Stress axis : x y z
#
# Youngs Moduli (GPa) = 60.82098 31.77320 139.03799
#
# Poissons Ratio (x) = -0.14583 0.18954
# Poissons Ratio (y) = -0.27916 0.73370
# Poissons Ratio (z) = 0.08291 0.16767
#
# Static dielectric constant tensor:
#      x y z
#    x 6.268830 0.000000 1.945470 
#    y 0.000000 4.666880 0.000000 
#    z 1.945470 0.000000 8.996590 
# 
# 
# High freq. dielectric constant tensor:
#      x y z
#    x 2.136870 0.000000 -0.012070 
#    y 0.000000 2.117930 0.000000 
#    z -0.012070 0.000000 2.140720 
# 
# From -- ./inp_files/60356.got.cif
#   From: 2010.06.25/outbox.cif.g09.slc.cpg/sg13_31_cif.got.tgz:60356.got - 2010.06.28 04:50:58.
