data_PCOD8121998
_publ_section_title
;
Structure prediction by ZEFSAII (Michael W. Deem and Ramdas Pophale) SiO2 
 PCOD8121998
Probable space group: P 2/C
;
_chemical_formula_sum "Si O2"
_cell_formula_units_Z 14
_cell_length_a 12.693005
_cell_length_b 4.675258
_cell_length_c 8.484976
_cell_angle_alpha 90.000000
_cell_angle_beta 104.519991
_cell_angle_gamma 90.000000
_cell_volume 487.442089
_symmetry_space_group_name_H-M "P 2/C"
_symmetry_group_IT_number 13
_symmetry_cell_setting 'monoclinic'
loop_
_space_group_symop_operation_xyz
x,y,z
-x,y,1/2-z
-x,-y,-z
x,-y,1/2+z
loop_
_atom_site_type_symbol
_atom_site_label
_atom_site_fract_x
_atom_site_fract_y
_atom_site_fract_z
Si Si1 0.420335 0.122506 0.342652
Si Si2 0.859413 0.220635 0.468315
Si Si3 0.712517 0.285214 0.928831
Si Si4 0.000000 0.440942 0.250000
O O1 0.500000 0.299178 0.250000
O O2 0.363920 0.857430 0.230650
O O3 0.500000 0.000000 0.500000
O O4 0.335917 0.310978 0.412188
O O5 0.826621 0.892187 0.484831
O O6 0.906697 0.353928 0.645855
O O7 0.947699 0.235327 0.362441
O O8 0.745700 0.393176 0.387421
#
# Coordination Sequence:
#
# PCOD8121998 Si02
#       4
#     4   4   4   2
#     4   9  20  40  62  90 120 154 196 244 292 349
#     4  11  24  40  62  87 120 157 196 244 292 349
#     4  11  22  41  62  87 120 157 196 239 296 349
#     4  10  24  40  60  90 120 154 200 244 292 344
#
# _framework density 28.721363
#
# number of rings (size 3 to 8) (size 9 to 14) (size 15 to 20)
#    0.000    1.714    0.000    3.429    0.000    6.857 
#    0.000   28.571    0.000    0.000    0.000    0.000 
#    0.000    0.000    0.000    0.000    0.000    0.000 
#
# Total GULP energy -173620.103700 kJ/mol
# GULP energy per Si atom -12401.435979 kJ/mol
# Density = 2.865599 g / cm^3
# Si number density = 28.721363 Si / 1000 Ang^3
#
#
#
# Elastic Constant Matrix: (Units=GPa)
#
#
# Indices 1 2 3 4 5 6 
#
# 1 135.9503 8.5826 29.3574 0.0000 -38.0018 0.0000
# 2 8.5826 75.3931 4.3206 0.0000 -16.6607 0.0000
# 3 29.3574 4.3206 119.8206 0.0000 -17.9742 0.0000
# 4 0.0000 0.0000 0.0000 20.9807 0.0000 -7.9083
# 5 -38.0018 -16.6607 -17.9742 0.0000 55.9201 0.0000
# 6 0.0000 0.0000 0.0000 -7.9083 0.0000 0.4132
#
#
#
# Elastic Compliance Matrix: (Units=1/GPa)
#
#
# Indices 1 2 3 4 5 6 
#
# 1 0.009306 0.000342 -0.001396 0.000000 0.005977 0.000000
# 2 0.000342 0.014213 0.000078 0.000000 0.004492 0.000000
# 3 -0.001396 0.000078 0.008979 0.000000 0.001961 0.000000
# 4 0.000000 0.000000 0.000000 -0.007670 0.000000 -0.146797
# 5 0.005977 0.004492 0.001961 0.000000 0.023913 0.000000
# 6 0.000000 0.000000 0.000000 -0.146797 0.000000 -0.389455
#
#
# Mechanical properties :
#
#
# Convention : Reuss Voigt Hill
#
# Bulk Modulus (GPa) = 32.73841 46.18723 39.46282
# Shear Modulus (GPa) = -15.21709 34.72302 9.75297
#
# Velocity S-wave (km/s) = -2.30427 3.48078 1.84475
# Velocity P-wave (km/s) = 2.08418 5.68072 4.27869
#
# Compressibility (1/GPa) = 0.03054516
#
# Stress axis : x y z
#
# Youngs Moduli (GPa) = 107.45361 70.35773 111.36950
#
# Poissons Ratio (x) = -0.02403 0.15545
# Poissons Ratio (y) = -0.03670 -0.00864
# Poissons Ratio (z) = 0.14998 -0.00546
#
# Static dielectric constant tensor:
#      x y z
#    x 7.729200 0.000000 -0.657520 
#    y 0.000000 4.622290 0.000000 
#    z -0.657520 0.000000 5.961450 
# 
# 
# High freq. dielectric constant tensor:
#      x y z
#    x 2.192090 0.000000 0.008160 
#    y 0.000000 2.132470 0.000000 
#    z 0.008160 0.000000 2.193280 
# 
# From -- ./inp_files/14141.got.cif
#   From: 2010.06.25/outbox.cif.g09.slc.cpg/sg13_8_cif.got.tgz:14141.got - 2010.06.28 04:50:58.
