data_PCOD8121307
_publ_section_title
;
Structure prediction by ZEFSAII (Michael W. Deem and Ramdas Pophale) SiO2 
 PCOD8121307
Probable space group: P 2/C
;
_chemical_formula_sum "Si O2"
_cell_formula_units_Z 28
_cell_length_a 29.423424
_cell_length_b 8.888275
_cell_length_c 9.769448
_cell_angle_alpha 90.000000
_cell_angle_beta 33.630435
_cell_angle_gamma 90.000000
_cell_volume 1415.012456
_symmetry_space_group_name_H-M "P 2/C"
_symmetry_group_IT_number 13
_symmetry_cell_setting 'monoclinic'
loop_
_space_group_symop_operation_xyz
x,y,z
-x,y,1/2-z
-x,-y,-z
x,-y,1/2+z
loop_
_atom_site_type_symbol
_atom_site_label
_atom_site_fract_x
_atom_site_fract_y
_atom_site_fract_z
Si Si1 0.497148 0.141226 0.411812
Si Si2 0.896178 0.830751 0.234818
Si Si3 0.914636 0.821076 0.685825
Si Si4 0.830827 0.322692 0.156396
Si Si5 0.645912 0.636272 0.542637
Si Si6 0.653137 0.352830 0.705787
Si Si7 0.172321 0.673563 0.353713
O O1 0.500000 0.083210 0.250000
O O2 0.573944 0.247296 0.251139
O O3 0.411959 0.222683 0.653954
O O4 0.500000 0.000000 0.500000
O O5 0.838382 0.736827 0.482432
O O6 0.870810 0.782619 0.146518
O O7 0.884368 0.008590 0.283846
O O8 0.990917 0.792632 0.018488
O O9 0.898625 0.770065 0.570731
O O10 0.861665 0.711772 0.912502
O O11 0.740603 0.286892 0.440045
O O12 0.848280 0.499941 0.124159
O O13 0.624387 0.487639 0.680884
O O14 0.655080 0.594373 0.359276
O O15 0.730437 0.704023 0.389578
#
# Coordination Sequence:
#
# PCOD8121307 Si02
#       7
#     4   4   4   4   4   4   4
#     4  10  23  42  62  96 130 162 205 250 300 362
#     4  11  25  39  63  88 121 172 203 255 320 373
#     4  11  23  43  59  88 127 160 211 257 312 381
#     4  11  23  40  63  92 123 159 212 259 309 365
#     4  10  22  41  65  91 124 161 203 252 306 365
#     4  10  22  41  65  91 124 161 203 252 306 365
#     4  11  23  40  63  92 123 159 212 259 309 365
#
# _framework density 19.787811999999999
#
# number of rings (size 3 to 8) (size 9 to 14) (size 15 to 20)
#    0.000    1.429    1.429    3.000    6.000    9.143 
#    0.000    0.000    0.000    0.000    0.000    0.000 
#    0.000    0.000    0.000    0.000    0.000    0.000 
#
# Total GULP energy -347345.818173 kJ/mol
# GULP energy per Si atom -12405.207792 kJ/mol
# Density = 1.974277 g / cm^3
# Si number density = 19.787812 Si / 1000 Ang^3
#
#
#
# Elastic Constant Matrix: (Units=GPa)
#
#
# Indices 1 2 3 4 5 6 
#
# 1 95.7603 56.8411 19.1031 0.0000 -1.4464 0.0000
# 2 56.8411 98.8425 60.7232 0.0000 -8.5585 0.0000
# 3 19.1031 60.7232 82.9610 0.0000 2.7703 0.0000
# 4 0.0000 0.0000 0.0000 -55.1471 0.0000 -14.1875
# 5 -1.4464 -8.5585 2.7703 0.0000 28.1922 0.0000
# 6 0.0000 0.0000 0.0000 -14.1875 0.0000 25.6653
#
#
#
# Elastic Compliance Matrix: (Units=1/GPa)
#
#
# Indices 1 2 3 4 5 6 
#
# 1 0.017828 -0.014881 0.006930 0.000000 -0.004284 0.000000
# 2 -0.014881 0.032258 -0.020554 0.000000 0.011049 0.000000
# 3 0.006930 -0.020554 0.025784 0.000000 -0.008418 0.000000
# 4 0.000000 0.000000 0.000000 -0.015876 0.000000 -0.008776
# 5 -0.004284 0.011049 -0.008418 0.000000 0.039432 0.000000
# 6 0.000000 0.000000 0.000000 -0.008776 0.000000 0.034112
#
#
# Mechanical properties :
#
#
# Convention : Reuss Voigt Hill
#
# Bulk Modulus (GPa) = 53.02044 61.21095 57.11569
# Shear Modulus (GPa) = 25.40186 9.13518 17.26852
#
# Velocity S-wave (km/s) = 3.58678 2.15095 2.95733
# Velocity P-wave (km/s) = 6.63370 6.09669 6.37086
#
# Compressibility (1/GPa) = 0.01886065
#
# Stress axis : x y z
#
# Youngs Moduli (GPa) = 56.09011 30.99974 38.78416
#
# Poissons Ratio (x) = 0.46130 -0.26876
# Poissons Ratio (y) = 0.83466 0.79717
# Poissons Ratio (z) = -0.38868 0.63717
#
# Static dielectric constant tensor:
#      x y z
#    x 3.883650 0.000000 -0.129060 
#    y 0.000000 3.515830 0.000000 
#    z -0.129060 0.000000 3.820040 
# 
# 
# High freq. dielectric constant tensor:
#      x y z
#    x 1.786200 0.000000 0.001100 
#    y 0.000000 1.769630 0.000000 
#    z 0.001100 0.000000 1.784390 
# 
# From -- ./inp_files/24559.got.cif
#   From: 2010.06.25/outbox.cif.g09.slc.cpg/sg13_13_cif.got.tgz:24559.got - 2010.06.28 04:50:58.
