data_PCOD8121121
_publ_section_title
;
Structure prediction by ZEFSAII (Michael W. Deem and Ramdas Pophale) SiO2 
 PCOD8121121
Probable space group: P 2/C
;
_chemical_formula_sum "Si O2"
_cell_formula_units_Z 22
_cell_length_a 14.214624
_cell_length_b 5.533289
_cell_length_c 23.836338
_cell_angle_alpha 90.000000
_cell_angle_beta 33.400600
_cell_angle_gamma 90.000000
_cell_volume 1032.065572
_symmetry_space_group_name_H-M "P 2/C"
_symmetry_group_IT_number 13
_symmetry_cell_setting 'monoclinic'
loop_
_space_group_symop_operation_xyz
x,y,z
-x,y,1/2-z
-x,-y,-z
x,-y,1/2+z
loop_
_atom_site_type_symbol
_atom_site_label
_atom_site_fract_x
_atom_site_fract_y
_atom_site_fract_z
Si Si1 0.000000 0.968963 0.750000
Si Si2 0.854683 0.654881 0.728069
Si Si3 0.491896 0.386347 0.373266
Si Si4 0.941540 0.017078 0.593134
Si Si5 0.137417 0.730184 0.088926
Si Si6 0.561725 0.126809 0.780541
O O1 0.874775 0.837808 0.769132
O O2 0.859497 0.104700 0.857703
O O3 0.659318 0.563769 0.827308
O O4 0.981646 0.443658 0.679260
O O5 0.900631 0.760447 0.643166
O O6 0.319436 0.401234 0.495447
O O7 0.475102 0.617092 0.340064
O O8 0.504430 0.112816 0.343017
O O9 0.766132 0.170603 0.682839
O O10 0.096856 0.137425 0.550100
O O11 0.000000 0.000000 0.500000
O O12 0.500000 0.062253 0.750000
#
# Coordination Sequence:
#
# PCOD8121121 Si02
#       6
#     2   4   4   4   4   4
#     4  10  24  44  70  94 130 174 230 288 340 402
#     4  10  23  45  64  98 135 170 230 281 336 407
#     4  11  25  42  68  97 139 179 223 281 339 401
#     4  10  22  39  66  96 137 181 220 278 336 401
#     4  11  23  43  68  96 131 179 228 276 345 402
#     4  11  23  42  62 101 141 180 229 274 326 409
#
# _framework density 21.316473999999999
#
# number of rings (size 3 to 8) (size 9 to 14) (size 15 to 20)
#    0.000    1.455    1.818    2.182    7.636    2.909 
#    0.000    3.636    0.000    0.000    0.000    0.000 
#    0.000    0.000    0.000    0.000    0.000    0.000 
#
# Total GULP energy -272619.908376 kJ/mol
# GULP energy per Si atom -12391.814017 kJ/mol
# Density = 2.126796 g / cm^3
# Si number density = 21.316474 Si / 1000 Ang^3
#
#
#
# Elastic Constant Matrix: (Units=GPa)
#
#
# Indices 1 2 3 4 5 6 
#
# 1 98.8847 22.8494 58.9344 0.0000 8.3682 0.0000
# 2 22.8494 95.0818 23.7947 0.0000 2.3645 0.0000
# 3 58.9344 23.7947 93.8711 0.0000 -12.1754 0.0000
# 4 0.0000 0.0000 0.0000 -5.9108 0.0000 -23.3685
# 5 8.3682 2.3645 -12.1754 0.0000 48.7327 0.0000
# 6 0.0000 0.0000 0.0000 -23.3685 0.0000 0.9667
#
#
#
# Elastic Compliance Matrix: (Units=1/GPa)
#
#
# Indices 1 2 3 4 5 6 
#
# 1 0.017847 -0.001223 -0.011662 0.000000 -0.005919 0.000000
# 2 -0.001223 0.011393 -0.002237 0.000000 -0.000902 0.000000
# 3 -0.011662 -0.002237 0.019446 0.000000 0.006970 0.000000
# 4 0.000000 0.000000 0.000000 -0.001752 0.000000 -0.042349
# 5 -0.005919 -0.000902 0.006970 0.000000 0.023322 0.000000
# 6 0.000000 0.000000 0.000000 -0.042349 0.000000 0.010712
#
#
# Mechanical properties :
#
#
# Convention : Reuss Voigt Hill
#
# Bulk Modulus (GPa) = 54.22678 55.44384 54.83531
# Shear Modulus (GPa) = 42.60384 20.90832 31.75608
#
# Velocity S-wave (km/s) = 4.47546 3.13525 3.86391
# Velocity P-wave (km/s) = 7.22499 6.25881 6.75919
#
# Compressibility (1/GPa) = 0.01844107
#
# Stress axis : x y z
#
# Youngs Moduli (GPa) = 56.03163 87.76974 51.42460
#
# Poissons Ratio (x) = 0.10735 0.59974
# Poissons Ratio (y) = 0.06853 0.11504
# Poissons Ratio (z) = 0.65347 0.19635
#
# Static dielectric constant tensor:
#      x y z
#    x 3.786980 0.000000 0.023250 
#    y 0.000000 4.012820 0.000000 
#    z 0.023250 0.000000 3.632110 
# 
# 
# High freq. dielectric constant tensor:
#      x y z
#    x 1.843390 0.000000 -0.010300 
#    y 0.000000 1.839180 0.000000 
#    z -0.010300 0.000000 1.831080 
# 
# From -- ./inp_files/52074.got.cif
#   From: 2010.06.25/outbox.cif.g09.slc.cpg/sg13_27_cif.got.tgz:52074.got - 2010.06.28 04:50:58.
