data_PCOD8121740
_publ_section_title
;
Structure prediction by ZEFSAII (Michael W. Deem and Ramdas Pophale) SiO2 
 PCOD8121740
Probable space group: P 2/C
;
_chemical_formula_sum "Si O2"
_cell_formula_units_Z 20
_cell_length_a 8.692277
_cell_length_b 18.074129
_cell_length_c 5.144335
_cell_angle_alpha 90.000000
_cell_angle_beta 101.585826
_cell_angle_gamma 90.000000
_cell_volume 791.735322
_symmetry_space_group_name_H-M "P 2/C"
_symmetry_group_IT_number 13
_symmetry_cell_setting 'monoclinic'
loop_
_space_group_symop_operation_xyz
x,y,z
-x,y,1/2-z
-x,-y,-z
x,-y,1/2+z
loop_
_atom_site_type_symbol
_atom_site_label
_atom_site_fract_x
_atom_site_fract_y
_atom_site_fract_z
Si Si1 0.000000 0.782955 0.750000
Si Si2 0.184459 0.543260 0.839815
Si Si3 0.316949 0.045764 0.669498
Si Si4 0.798190 0.817888 0.112085
Si Si5 0.283230 0.299221 0.523842
Si Si6 0.500000 0.219162 0.250000
O O1 0.846091 0.732764 0.718025
O O2 0.032076 0.827264 0.487480
O O3 0.232674 0.520961 0.562920
O O4 0.276570 0.612800 0.993381
O O5 0.000000 0.559496 0.750000
O O6 0.500000 0.065782 0.750000
O O7 0.216651 0.121310 0.664322
O O8 0.268681 0.011975 0.377396
O O9 0.770292 0.734435 0.215679
O O10 0.647773 0.833565 0.870626
O O11 0.453781 0.271250 0.482240
#
# Coordination Sequence:
#
# PCOD8121740 Si02
#       6
#     2   4   4   4   4   2
#     4  10  24  38  68  94 128 168 234 266 342 388
#     4  10  23  40  66  98 134 175 221 275 335 399
#     4  10  23  40  66  98 133 177 223 276 335 399
#     4  11  24  42  67  96 133 175 224 283 330 402
#     4  11  22  42  67  96 132 175 222 279 329 403
#     4  10  24  38  66  98 128 172 230 272 338 390
#
# _framework density 25.260967000000001
#
# number of rings (size 3 to 8) (size 9 to 14) (size 15 to 20)
#    0.000    1.600    1.000    2.400   15.400    1.600 
#    0.000    2.000    0.000    0.000    0.000    0.000 
#    0.000    0.000    0.000    0.000    0.000    0.000 
#
# Total GULP energy -247836.772277 kJ/mol
# GULP energy per Si atom -12391.838614 kJ/mol
# Density = 2.520347 g / cm^3
# Si number density = 25.260967 Si / 1000 Ang^3
#
#
#
# Elastic Constant Matrix: (Units=GPa)
#
#
# Indices 1 2 3 4 5 6 
#
# 1 97.9245 40.5036 27.8668 0.0000 -33.1470 0.0000
# 2 40.5036 104.8320 20.9854 0.0000 -17.5748 0.0000
# 3 27.8668 20.9854 120.4241 0.0000 -42.4346 0.0000
# 4 0.0000 0.0000 0.0000 29.2589 0.0000 -3.6413
# 5 -33.1470 -17.5748 -42.4346 0.0000 39.9952 0.0000
# 6 0.0000 0.0000 0.0000 -3.6413 0.0000 22.7502
#
#
#
# Elastic Compliance Matrix: (Units=1/GPa)
#
#
# Indices 1 2 3 4 5 6 
#
# 1 0.015951 -0.004301 0.001678 0.000000 0.013110 0.000000
# 2 -0.004301 0.011465 -0.000772 0.000000 0.000654 0.000000
# 3 0.001678 -0.000772 0.013449 0.000000 0.015321 0.000000
# 4 0.000000 0.000000 0.000000 0.034872 0.000000 0.005581
# 5 0.013110 0.000654 0.015321 0.000000 0.052411 0.000000
# 6 0.000000 0.000000 0.000000 0.005581 0.000000 0.044849
#
#
# Mechanical properties :
#
#
# Convention : Reuss Voigt Hill
#
# Bulk Modulus (GPa) = 29.34699 55.76582 42.55641
# Shear Modulus (GPa) = 26.15804 33.98917 30.07360
#
# Velocity S-wave (km/s) = 3.22143 3.67211 3.45413
# Velocity P-wave (km/s) = 5.04773 6.33270 5.72637
#
# Compressibility (1/GPa) = 0.03407504
#
# Stress axis : x y z
#
# Youngs Moduli (GPa) = 62.69111 87.22127 74.35604
#
# Poissons Ratio (x) = 0.37514 -0.12478
# Poissons Ratio (y) = 0.26964 0.05741
# Poissons Ratio (z) = -0.10520 0.06735
#
# Static dielectric constant tensor:
#      x y z
#    x 4.573980 0.000000 -0.107840 
#    y 0.000000 4.148580 0.000000 
#    z -0.107840 0.000000 4.884920 
# 
# 
# High freq. dielectric constant tensor:
#      x y z
#    x 2.007900 0.000000 -0.001200 
#    y 0.000000 1.975400 0.000000 
#    z -0.001200 0.000000 2.032820 
# 
# From -- ./inp_files/1612.got.cif
#   From: 2010.06.25/outbox.cif.g09.slc.cpg/sg13_1_cif.got.tgz:1612.got - 2010.06.28 04:50:58.
