data_PCOD8121656
_publ_section_title
;
Structure prediction by ZEFSAII (Michael W. Deem and Ramdas Pophale) SiO2 
 PCOD8121656
Probable space group: P 2/C
;
_chemical_formula_sum "Si O2"
_cell_formula_units_Z 30
_cell_length_a 11.528614
_cell_length_b 8.752624
_cell_length_c 14.018705
_cell_angle_alpha 90.000000
_cell_angle_beta 110.612725
_cell_angle_gamma 90.000000
_cell_volume 1324.007583
_symmetry_space_group_name_H-M "P 2/C"
_symmetry_group_IT_number 13
_symmetry_cell_setting 'monoclinic'
loop_
_space_group_symop_operation_xyz
x,y,z
-x,y,1/2-z
-x,-y,-z
x,-y,1/2+z
loop_
_atom_site_type_symbol
_atom_site_label
_atom_site_fract_x
_atom_site_fract_y
_atom_site_fract_z
Si Si1 0.501701 0.020405 0.890006
Si Si2 0.248886 0.443296 0.166537
Si Si3 0.870199 0.684688 0.678839
Si Si4 0.762445 0.091346 0.007383
Si Si5 0.130706 0.236689 0.634812
Si Si6 0.131424 0.609386 0.434196
Si Si7 0.500000 0.259731 0.250000
Si Si8 0.745590 0.164706 0.649719
O O1 0.483478 0.856588 0.834195
O O2 0.387778 0.135752 0.838613
O O3 0.500000 0.000000 0.000000
O O4 0.634351 0.099644 0.908137
O O5 0.191265 0.386667 0.247149
O O6 0.234837 0.627819 0.158103
O O7 0.387484 0.376755 0.201728
O O8 0.177543 0.376580 0.055035
O O9 0.771655 0.798681 0.602213
O O10 0.902026 0.562348 0.605451
O O11 0.000000 0.762420 0.750000
O O12 0.777044 0.927725 0.061495
O O13 0.866889 0.131253 0.959632
O O14 0.158953 0.133864 0.736296
O O15 0.993679 0.296027 0.610193
O O16 0.235058 0.664700 0.386700
#
# Coordination Sequence:
#
# PCOD8121656 Si02
#       8
#     4   4   4   4   4   4   2   4
#     4  10  22  46  67  93 142 183 218 294 346 401
#     4  12  24  42  72 101 136 186 229 289 353 413
#     4  12  23  43  69 102 142 187 235 291 347 420
#     4  11  25  42  70 103 138 187 238 285 353 420
#     4  12  24  44  70 101 143 182 235 295 355 411
#     4  12  24  46  70 101 146 184 229 294 354 412
#     4  12  26  46  72 108 140 182 246 286 350 420
#     4  11  24  43  72  99 138 188 228 283 356 418
#
# _framework density 22.658480000000001
#
# number of rings (size 3 to 8) (size 9 to 14) (size 15 to 20)
#    0.000    0.533    4.000    5.600    0.000    3.733 
#    0.000    2.667    0.000    0.000    0.000    0.000 
#    0.000    0.000    0.000    0.000    0.000    0.000 
#
# Total GULP energy -371690.858735 kJ/mol
# GULP energy per Si atom -12389.695291 kJ/mol
# Density = 2.260691 g / cm^3
# Si number density = 22.658480 Si / 1000 Ang^3
#
#
#
# Elastic Constant Matrix: (Units=GPa)
#
#
# Indices 1 2 3 4 5 6 
#
# 1 90.0004 34.1890 30.1982 0.0000 22.8299 0.0000
# 2 34.1890 55.1045 23.2700 0.0000 15.4152 0.0000
# 3 30.1982 23.2700 144.7419 0.0000 6.2743 0.0000
# 4 0.0000 0.0000 0.0000 40.4008 0.0000 -6.1914
# 5 22.8299 15.4152 6.2743 0.0000 42.2599 0.0000
# 6 0.0000 0.0000 0.0000 -6.1914 0.0000 35.9416
#
#
#
# Elastic Compliance Matrix: (Units=1/GPa)
#
#
# Indices 1 2 3 4 5 6 
#
# 1 0.016054 -0.007591 -0.001885 0.000000 -0.005624 0.000000
# 2 -0.007591 0.025132 -0.002251 0.000000 -0.004732 0.000000
# 3 -0.001885 -0.002251 0.007634 0.000000 0.000706 0.000000
# 4 0.000000 0.000000 0.000000 0.025423 0.000000 0.004379
# 5 -0.005624 -0.004732 0.000706 0.000000 0.028322 0.000000
# 6 0.000000 0.000000 0.000000 0.004379 0.000000 0.028577
#
#
# Mechanical properties :
#
#
# Convention : Reuss Voigt Hill
#
# Bulk Modulus (GPa) = 39.42677 51.68455 45.55566
# Shear Modulus (GPa) = 30.66504 37.19976 33.93240
#
# Velocity S-wave (km/s) = 3.68279 4.05626 3.87403
# Velocity P-wave (km/s) = 5.96005 6.69309 6.33718
#
# Compressibility (1/GPa) = 0.02536348
#
# Stress axis : x y z
#
# Youngs Moduli (GPa) = 62.29039 39.79041 131.00119
#
# Poissons Ratio (x) = 0.30205 0.24696
# Poissons Ratio (y) = 0.47285 0.29495
# Poissons Ratio (z) = 0.11743 0.08959
#
# Static dielectric constant tensor:
#      x y z
#    x -0.855820 0.000000 -1.943600 
#    y 0.000000 4.175400 0.000000 
#    z -1.943600 0.000000 3.535040 
# 
# 
# High freq. dielectric constant tensor:
#      x y z
#    x 1.890410 0.000000 -0.003340 
#    y 0.000000 1.877480 0.000000 
#    z -0.003340 0.000000 1.924790 
# 
# From -- ./inp_files/50127.got.cif
#   From: 2010.06.25/outbox.cif.g09.slc.cpg/sg13_26_cif.got.tgz:50127.got - 2010.06.28 04:50:58.
