data_PCOD8121829
_publ_section_title
;
Structure prediction by ZEFSAII (Michael W. Deem and Ramdas Pophale) SiO2 
 PCOD8121829
Probable space group: P 2/C
;
_chemical_formula_sum "Si O2"
_cell_formula_units_Z 18
_cell_length_a 14.625772
_cell_length_b 4.812460
_cell_length_c 16.153629
_cell_angle_alpha 90.000000
_cell_angle_beta 33.744211
_cell_angle_gamma 90.000000
_cell_volume 631.581393
_symmetry_space_group_name_H-M "P 2/C"
_symmetry_group_IT_number 13
_symmetry_cell_setting 'monoclinic'
loop_
_space_group_symop_operation_xyz
x,y,z
-x,y,1/2-z
-x,-y,-z
x,-y,1/2+z
loop_
_atom_site_type_symbol
_atom_site_label
_atom_site_fract_x
_atom_site_fract_y
_atom_site_fract_z
Si Si1 0.500000 0.255480 0.250000
Si Si2 0.840460 0.473472 0.539944
Si Si3 0.754362 0.567493 0.781254
Si Si4 0.983987 0.020259 0.665808
Si Si5 0.437387 0.805262 0.975326
O O1 0.339868 0.443504 0.354884
O O2 0.549927 0.076255 0.129220
O O3 0.868761 0.484761 0.617605
O O4 0.871232 0.156970 0.488032
O O5 0.986691 0.660850 0.386178
O O6 0.807886 0.873431 0.774708
O O7 0.573450 0.560053 0.875746
O O8 0.742150 0.335468 0.866305
O O9 0.000000 0.992192 0.750000
O O10 0.500000 0.000000 0.000000
#
# Coordination Sequence:
#
# PCOD8121829 Si02
#       5
#     2   4   4   4   4
#     4  10  24  46  68 104 142 180 250 288 358 426
#     4  11  26  44  70 102 137 193 230 301 353 421
#     4  10  24  43  66 103 137 184 238 288 357 427
#     4  12  26  43  70 102 144 185 238 289 358 421
#     4  10  23  42  72 100 141 190 232 298 353 421
#
# _framework density 28.499889
#
# number of rings (size 3 to 8) (size 9 to 14) (size 15 to 20)
#    0.000    1.333    0.000    3.333   12.444    0.889 
#    0.000    0.000    0.000    0.000    0.000    0.000 
#    0.000    0.000    0.000    0.000    0.000    0.000 
#
# Total GULP energy -223024.068174 kJ/mol
# GULP energy per Si atom -12390.226010 kJ/mol
# Density = 2.843502 g / cm^3
# Si number density = 28.499889 Si / 1000 Ang^3
#
#
#
# Elastic Constant Matrix: (Units=GPa)
#
#
# Indices 1 2 3 4 5 6 
#
# 1 142.8106 13.4287 66.6797 0.0000 22.6953 0.0000
# 2 13.4287 69.5658 10.0666 0.0000 13.7802 0.0000
# 3 66.6797 10.0666 188.7201 0.0000 24.8894 0.0000
# 4 0.0000 0.0000 0.0000 -853.9089 0.0000 503.6994
# 5 22.6953 13.7802 24.8894 0.0000 78.3207 0.0000
# 6 0.0000 0.0000 0.0000 503.6994 0.0000 -235.5411
#
#
#
# Elastic Compliance Matrix: (Units=1/GPa)
#
#
# Indices 1 2 3 4 5 6 
#
# 1 0.008634 -0.000975 -0.002809 0.000000 -0.001438 0.000000
# 2 -0.000975 0.015044 -0.000152 0.000000 -0.002316 0.000000
# 3 -0.002809 -0.000152 0.006459 0.000000 -0.001212 0.000000
# 4 0.000000 0.000000 0.000000 0.004479 0.000000 0.009579
# 5 -0.001438 -0.002316 -0.001212 0.000000 0.013977 0.000000
# 6 0.000000 0.000000 0.000000 0.009579 0.000000 0.016239
#
#
# Mechanical properties :
#
#
# Convention : Reuss Voigt Hill
#
# Bulk Modulus (GPa) = 44.91624 64.60516 54.76070
# Shear Modulus (GPa) = 62.40001 -181.49775 -59.54887
#
# Velocity S-wave (km/s) = 4.68427 -7.98886 -4.57600
# Velocity P-wave (km/s) = 6.71199 7.89798 2.94341
#
# Compressibility (1/GPa) = 0.02226366
#
# Stress axis : x y z
#
# Youngs Moduli (GPa) = 115.82102 66.47188 154.81553
#
# Poissons Ratio (x) = 0.06484 0.43487
# Poissons Ratio (y) = 0.11297 0.02359
# Poissons Ratio (z) = 0.32534 0.01013
#
# Static dielectric constant tensor:
#      x y z
#    x 5.813650 0.000000 -0.769100 
#    y 0.000000 4.921220 0.000000 
#    z -0.769100 0.000000 7.165220 
# 
# 
# High freq. dielectric constant tensor:
#      x y z
#    x 2.178800 0.000000 -0.022250 
#    y 0.000000 2.129460 0.000000 
#    z -0.022250 0.000000 2.215490 
# 
# From -- ./inp_files/52027.got.cif
#   From: 2010.06.25/outbox.cif.g09.slc.cpg/sg13_27_cif.got.tgz:52027.got - 2010.06.28 04:50:58.
