data_PCOD8121574
_publ_section_title
;
Structure prediction by ZEFSAII (Michael W. Deem and Ramdas Pophale) SiO2 
 PCOD8121574
Probable space group: P 2/C
;
_chemical_formula_sum "Si O2"
_cell_formula_units_Z 24
_cell_length_a 7.969703
_cell_length_b 5.598012
_cell_length_c 24.810314
_cell_angle_alpha 90.000000
_cell_angle_beta 71.262954
_cell_angle_gamma 90.000000
_cell_volume 1048.236980
_symmetry_space_group_name_H-M "P 2/C"
_symmetry_group_IT_number 13
_symmetry_cell_setting 'monoclinic'
loop_
_space_group_symop_operation_xyz
x,y,z
-x,y,1/2-z
-x,-y,-z
x,-y,1/2+z
loop_
_atom_site_type_symbol
_atom_site_label
_atom_site_fract_x
_atom_site_fract_y
_atom_site_fract_z
Si Si1 0.465515 0.379871 0.858440
Si Si2 0.500000 0.898961 0.250000
Si Si3 0.293678 0.750000 0.706322
Si Si4 0.210830 0.465679 0.978708
Si Si5 0.817605 0.879872 0.358440
Si Si6 0.000000 0.601039 0.250000
Si Si7 0.168246 0.965679 0.021292
O O1 0.523023 0.644268 0.834808
O O2 0.289172 0.407405 0.911931
O O3 0.625262 0.249999 0.874738
O O4 0.418697 0.247343 0.807895
O O5 0.667489 0.049795 0.253369
O O6 0.174228 0.549795 0.746631
O O7 0.192639 0.855732 0.665192
O O8 0.266039 0.227820 0.008569
O O9 0.000000 0.500000 0.000000
O O10 0.283177 0.727820 0.991431
O O11 0.965512 0.747343 0.307896
O O12 0.886966 0.907405 0.411930
O O13 0.000000 0.000000 0.000000
#
# Coordination Sequence:
#
# PCOD8121574 Si02
#       7
#     4   2   4   4   4   2   4
#     4  10  23  43  69 101 141 185 238 294 360 434
#     4  10  22  44  68 108 136 186 232 296 372 426
#     4  10  22  44  66 106 140 184 232 294 366 428
#     4  10  24  47  66 102 139 185 240 294 355 420
#     4  10  23  43  69 101 141 185 238 294 360 434
#     4  10  22  44  68 108 136 186 232 296 372 426
#     4  10  24  47  66 102 139 185 240 294 355 420
#
# _framework density 22.895586999999999
#
# number of rings (size 3 to 8) (size 9 to 14) (size 15 to 20)
#    0.000    2.000    0.000    1.000    9.333    1.333 
#   30.000    0.000    0.000    0.000    0.000    0.000 
#    0.000    0.000    0.000    0.000    0.000    0.000 
#
# Total GULP energy -297337.410350 kJ/mol
# GULP energy per Si atom -12389.058765 kJ/mol
# Density = 2.284348 g / cm^3
# Si number density = 22.895587 Si / 1000 Ang^3
#
#
#
# Elastic Constant Matrix: (Units=GPa)
#
#
# Indices 1 2 3 4 5 6 
#
# 1 62.7468 20.9458 70.0961 0.0000 -1.7385 0.0000
# 2 20.9458 189.9021 86.3530 0.0000 -1.0549 0.0000
# 3 70.0961 86.3530 225.7996 0.0000 -0.8915 0.0000
# 4 0.0000 0.0000 0.0000 4.5721 0.0000 0.2362
# 5 -1.7385 -1.0549 -0.8915 0.0000 50.2011 0.0000
# 6 0.0000 0.0000 0.0000 0.2362 0.0000 19.2855
#
#
#
# Elastic Compliance Matrix: (Units=1/GPa)
#
#
# Indices 1 2 3 4 5 6 
#
# 1 0.024556 0.000921 -0.007972 0.000000 0.000728 0.000000
# 2 0.000921 0.006409 -0.002737 0.000000 0.000118 0.000000
# 3 -0.007972 -0.002737 0.007949 0.000000 -0.000192 0.000000
# 4 0.000000 0.000000 0.000000 0.218854 0.000000 -0.002680
# 5 0.000728 0.000118 -0.000192 0.000000 0.019944 0.000000
# 6 0.000000 0.000000 0.000000 -0.002680 0.000000 0.051885
#
#
# Mechanical properties :
#
#
# Convention : Reuss Voigt Hill
#
# Bulk Modulus (GPa) = 51.71016 92.58203 72.14609
# Shear Modulus (GPa) = 14.05994 34.88200 24.47097
#
# Velocity S-wave (km/s) = 2.48077 3.90747 3.27281
# Velocity P-wave (km/s) = 5.55337 7.80270 6.77208
#
# Compressibility (1/GPa) = 0.01933856
#
# Stress axis : x y z
#
# Youngs Moduli (GPa) = 40.72341 156.02281 125.79658
#
# Poissons Ratio (x) = -0.14366 1.00288
# Poissons Ratio (y) = -0.03750 0.34424
# Poissons Ratio (z) = 0.32466 0.42696
#
# Static dielectric constant tensor:
#      x y z
#    x 3.528920 0.000000 -0.007680 
#    y 0.000000 6.036010 0.000000 
#    z -0.007680 0.000000 4.003730 
# 
# 
# High freq. dielectric constant tensor:
#      x y z
#    x 1.870300 0.000000 -0.000480 
#    y 0.000000 1.935550 0.000000 
#    z -0.000480 0.000000 1.900040 
# 
# From -- ./inp_files/84329.got.cif
#   From: 2010.06.25/outbox.cif.g09.slc.cpg/sg13_43_cif.got.tgz:84329.got - 2010.06.28 04:50:58.
