data_PCOD8121132
_publ_section_title
;
Structure prediction by ZEFSAII (Michael W. Deem and Ramdas Pophale) SiO2 
 PCOD8121132
Probable space group: P 2/C
;
_chemical_formula_sum "Si O2"
_cell_formula_units_Z 32
_cell_length_a 10.481262
_cell_length_b 8.806050
_cell_length_c 21.089363
_cell_angle_alpha 90.000000
_cell_angle_beta 47.715881
_cell_angle_gamma 90.000000
_cell_volume 1440.067505
_symmetry_space_group_name_H-M "P 2/C"
_symmetry_group_IT_number 13
_symmetry_cell_setting 'monoclinic'
loop_
_space_group_symop_operation_xyz
x,y,z
-x,y,1/2-z
-x,-y,-z
x,-y,1/2+z
loop_
_atom_site_type_symbol
_atom_site_label
_atom_site_fract_x
_atom_site_fract_y
_atom_site_fract_z
Si Si1 0.191721 0.122038 0.622544
Si Si2 0.120228 0.855961 0.354028
Si Si3 0.280952 0.338289 0.707467
Si Si4 0.786591 0.721630 0.506910
Si Si5 0.166387 0.339329 0.264757
Si Si6 0.597987 0.565006 0.027958
Si Si7 0.783337 0.780869 0.879817
Si Si8 0.690654 0.849153 0.671333
O O1 0.213308 0.244277 0.670200
O O2 0.291409 0.183181 0.526418
O O3 0.988711 0.102317 0.673361
O O4 0.262873 0.956711 0.615102
O O5 0.282775 0.762188 0.271453
O O6 0.994874 0.753930 0.441442
O O7 0.180770 0.007136 0.369439
O O8 0.151243 0.477929 0.767085
O O9 0.472717 0.396996 0.628601
O O10 0.745959 0.545388 0.506354
O O11 0.694524 0.776533 0.600883
O O12 0.279963 0.297343 0.164308
O O13 0.262116 0.283878 0.295577
O O14 0.984127 0.255965 0.322377
O O15 0.500000 0.500000 0.000000
O O16 0.686838 0.720090 0.974494
O O17 0.500000 0.908923 0.750000
#
# Coordination Sequence:
#
# PCOD8121132 Si02
#       8
#     4   4   4   4   4   4   4   4
#     4  10  22  39  69  97 132 176 228 281 353 398
#     4  10  23  43  65  99 130 184 233 277 340 424
#     4  12  23  39  70  99 143 169 228 299 355 400
#     4  10  23  44  70  91 138 193 224 277 349 418
#     4  11  23  41  65 102 129 184 232 278 344 424
#     4  12  22  42  63 107 139 172 229 293 359 403
#     4  11  23  38  70 100 137 170 234 288 344 419
#     4  12  25  44  70  98 143 185 233 287 347 413
#
# _framework density 22.22118
#
# number of rings (size 3 to 8) (size 9 to 14) (size 15 to 20)
#    0.750    0.250    3.750    3.000    5.250    1.500 
#    0.000    5.625    0.000    0.000    0.000    0.000 
#    0.000    0.000    0.000    0.000    0.000    0.000 
#
# Total GULP energy -396627.337543 kJ/mol
# GULP energy per Si atom -12394.604298 kJ/mol
# Density = 2.217060 g / cm^3
# Si number density = 22.221180 Si / 1000 Ang^3
#
#
#
# Elastic Constant Matrix: (Units=GPa)
#
#
# Indices 1 2 3 4 5 6 
#
# 1 55.5706 35.0132 21.4351 0.0000 2.0235 0.0000
# 2 35.0132 148.0569 37.2886 0.0000 4.4607 0.0000
# 3 21.4351 37.2886 123.0339 0.0000 -0.8501 0.0000
# 4 0.0000 0.0000 0.0000 33.2602 0.0000 0.7024
# 5 2.0235 4.4607 -0.8501 0.0000 27.0258 0.0000
# 6 0.0000 0.0000 0.0000 0.7024 0.0000 31.8039
#
#
#
# Elastic Compliance Matrix: (Units=1/GPa)
#
#
# Indices 1 2 3 4 5 6 
#
# 1 0.021816 -0.004516 -0.002439 0.000000 -0.000965 0.000000
# 2 -0.004516 0.008291 -0.001734 0.000000 -0.001085 0.000000
# 3 -0.002439 -0.001734 0.009083 0.000000 0.000754 0.000000
# 4 0.000000 0.000000 0.000000 0.030080 0.000000 -0.000664
# 5 -0.000965 -0.001085 0.000754 0.000000 0.037277 0.000000
# 6 0.000000 0.000000 0.000000 -0.000664 0.000000 0.031457
#
#
# Mechanical properties :
#
#
# Convention : Reuss Voigt Hill
#
# Bulk Modulus (GPa) = 45.84162 57.12613 51.48388
# Shear Modulus (GPa) = 30.74019 33.94627 32.34323
#
# Velocity S-wave (km/s) = 3.72341 3.91276 3.81926
# Velocity P-wave (km/s) = 6.25776 6.79535 6.53208
#
# Compressibility (1/GPa) = 0.02181424
#
# Stress axis : x y z
#
# Youngs Moduli (GPa) = 45.83724 120.60661 110.09115
#
# Poissons Ratio (x) = 0.54465 0.26850
# Poissons Ratio (y) = 0.20700 0.19086
# Poissons Ratio (z) = 0.11179 0.20909
#
# Static dielectric constant tensor:
#      x y z
#    x 3.642290 0.000000 -0.020730 
#    y 0.000000 4.014420 0.000000 
#    z -0.020730 0.000000 4.211600 
# 
# 
# High freq. dielectric constant tensor:
#      x y z
#    x 1.837300 0.000000 -0.001640 
#    y 0.000000 1.881620 0.000000 
#    z -0.001640 0.000000 1.885810 
# 
# From -- ./inp_files/78279.got.cif
#   From: 2010.06.25/outbox.cif.g09.slc.cpg/sg13_40_cif.got.tgz:78279.got - 2010.06.28 04:50:58.
