data_PCOD8121566
_publ_section_title
;
Structure prediction by ZEFSAII (Michael W. Deem and Ramdas Pophale) SiO2 
 PCOD8121566
Probable space group: P 2/C
;
_chemical_formula_sum "Si O2"
_cell_formula_units_Z 22
_cell_length_a 10.778168
_cell_length_b 9.566118
_cell_length_c 17.041580
_cell_angle_alpha 90.000000
_cell_angle_beta 143.503987
_cell_angle_gamma 90.000000
_cell_volume 1045.050538
_symmetry_space_group_name_H-M "P 2/C"
_symmetry_group_IT_number 13
_symmetry_cell_setting 'monoclinic'
loop_
_space_group_symop_operation_xyz
x,y,z
-x,y,1/2-z
-x,-y,-z
x,-y,1/2+z
loop_
_atom_site_type_symbol
_atom_site_label
_atom_site_fract_x
_atom_site_fract_y
_atom_site_fract_z
Si Si1 0.191346 0.382959 0.955630
Si Si2 0.397451 0.657447 0.117797
Si Si3 0.241861 0.274048 0.816953
Si Si4 0.000000 0.014303 0.750000
Si Si5 0.919223 0.109286 0.052907
Si Si6 0.735527 0.154887 0.381903
O O1 0.308676 0.333259 0.936148
O O2 0.943977 0.366444 0.815582
O O3 0.253136 0.542099 0.003321
O O4 0.266944 0.297279 0.069889
O O5 0.500000 0.599154 0.250000
O O6 0.565794 0.717216 0.143030
O O7 0.253056 0.786422 0.068379
O O8 0.170687 0.112778 0.793282
O O9 0.096194 0.906370 0.861321
O O10 0.146442 0.168981 0.141860
O O11 0.875467 0.954633 0.999714
O O12 0.500000 0.102942 0.250000
#
# Coordination Sequence:
#
# PCOD8121566 Si02
#       6
#     4   4   4   2   4   4
#     4  10  22  44  65  92 128 172 215 263 320 388
#     4  12  26  39  65 100 131 167 217 266 323 383
#     4  10  22  44  68  89 131 175 210 273 322 374
#     4  10  22  44  66  92 132 172 218 268 324 372
#     4  11  25  41  62  98 127 166 219 265 311 390
#     4  11  23  40  65  91 129 169 211 261 323 378
#
# _framework density 21.051613
#
# number of rings (size 3 to 8) (size 9 to 14) (size 15 to 20)
#    0.000    1.455    3.636    2.727    5.091    8.000 
#    0.000    0.000    0.000    0.000    0.000    0.000 
#    0.000    0.000    0.000    0.000    0.000    0.000 
#
# Total GULP energy -272789.589555 kJ/mol
# GULP energy per Si atom -12399.526798 kJ/mol
# Density = 2.100370 g / cm^3
# Si number density = 21.051613 Si / 1000 Ang^3
#
#
#
# Elastic Constant Matrix: (Units=GPa)
#
#
# Indices 1 2 3 4 5 6 
#
# 1 140.7375 27.4598 44.7114 0.0000 16.8893 0.0000
# 2 27.4598 64.3534 24.5093 0.0000 -3.0501 0.0000
# 3 44.7114 24.5093 89.3689 0.0000 -4.6367 0.0000
# 4 0.0000 0.0000 0.0000 32.5294 0.0000 -8.1526
# 5 16.8893 -3.0501 -4.6367 0.0000 37.1793 0.0000
# 6 0.0000 0.0000 0.0000 -8.1526 0.0000 15.6379
#
#
#
# Elastic Compliance Matrix: (Units=1/GPa)
#
#
# Indices 1 2 3 4 5 6 
#
# 1 0.009628 -0.002698 -0.004344 0.000000 -0.005137 0.000000
# 2 -0.002698 0.018133 -0.003505 0.000000 0.002276 0.000000
# 3 -0.004344 -0.003505 0.014505 0.000000 0.003495 0.000000
# 4 0.000000 0.000000 0.000000 0.035362 0.000000 0.018436
# 5 -0.005137 0.002276 0.003495 0.000000 0.029853 0.000000
# 6 0.000000 0.000000 0.000000 0.018436 0.000000 0.073558
#
#
# Mechanical properties :
#
#
# Convention : Reuss Voigt Hill
#
# Bulk Modulus (GPa) = 47.22873 54.20232 50.71552
# Shear Modulus (GPa) = 23.90166 30.25460 27.07813
#
# Velocity S-wave (km/s) = 3.37320 3.79511 3.59036
# Velocity P-wave (km/s) = 6.13635 6.70873 6.42891
#
# Compressibility (1/GPa) = 0.02117355
#
# Stress axis : x y z
#
# Youngs Moduli (GPa) = 103.86213 55.14773 68.93998
#
# Poissons Ratio (x) = 0.14876 0.29945
# Poissons Ratio (y) = 0.28017 0.24166
# Poissons Ratio (z) = 0.45115 0.19331
#
# Static dielectric constant tensor:
#      x y z
#    x 3.981370 0.000000 -0.164380 
#    y 0.000000 3.567800 0.000000 
#    z -0.164380 0.000000 3.684500 
# 
# 
# High freq. dielectric constant tensor:
#      x y z
#    x 1.832670 0.000000 -0.011280 
#    y 0.000000 1.815490 0.000000 
#    z -0.011280 0.000000 1.822220 
# 
# From -- ./inp_files/66172.got.cif
#   From: 2010.06.25/outbox.cif.g09.slc.cpg/sg13_34_cif.got.tgz:66172.got - 2010.06.28 04:50:58.
