data_PCOD8121062
_publ_section_title
;
Structure prediction by ZEFSAII (Michael W. Deem and Ramdas Pophale) SiO2 
 PCOD8121062
Probable space group: P 2/C
;
_chemical_formula_sum "Si O2"
_cell_formula_units_Z 20
_cell_length_a 16.553572
_cell_length_b 7.321177
_cell_length_c 14.688877
_cell_angle_alpha 90.000000
_cell_angle_beta 147.181599
_cell_angle_gamma 90.000000
_cell_volume 964.812654
_symmetry_space_group_name_H-M "P 2/C"
_symmetry_group_IT_number 13
_symmetry_cell_setting 'monoclinic'
loop_
_space_group_symop_operation_xyz
x,y,z
-x,y,1/2-z
-x,-y,-z
x,-y,1/2+z
loop_
_atom_site_type_symbol
_atom_site_label
_atom_site_fract_x
_atom_site_fract_y
_atom_site_fract_z
Si Si1 0.208810 0.775838 0.333327
Si Si2 0.881816 0.362190 0.930156
Si Si3 0.331022 0.079274 0.560559
Si Si4 0.056082 0.976225 0.900628
Si Si5 0.824394 0.448318 0.070139
O O1 0.239859 0.690297 0.263156
O O2 0.234911 0.629781 0.437728
O O3 0.312360 0.950477 0.453265
O O4 0.033468 0.838460 0.162359
O O5 0.967721 0.178376 0.045241
O O6 0.794730 0.453512 0.932686
O O7 0.000000 0.500000 0.000000
O O8 0.500000 0.089305 0.750000
O O9 0.233440 0.990886 0.551638
O O10 0.269592 0.280024 0.477106
O O11 0.000000 0.897044 0.750000
O O12 0.000000 0.427351 0.250000
#
# Coordination Sequence:
#
# PCOD8121062 Si02
#       5
#     4   4   4   4   4
#     4  11  22  38  65  90 118 156 198 249 301 346
#     4  11  21  31  61  97 121 148 191 253 304 347
#     4  10  22  39  60  82 119 165 197 241 293 354
#     4   9  20  38  59  88 121 149 199 246 289 354
#     4  11  21  40  59  91 121 150 201 248 293 352
#
# _framework density 20.729412
#
# number of rings (size 3 to 8) (size 9 to 14) (size 15 to 20)
#    0.000    1.600    2.000    7.200    0.000    0.800 
#    0.000    4.000    0.000    6.000    0.000    0.000 
#    0.000    0.000    0.000    0.000    0.000    0.000 
#
# Total GULP energy -247765.275143 kJ/mol
# GULP energy per Si atom -12388.263757 kJ/mol
# Density = 2.068223 g / cm^3
# Si number density = 20.729412 Si / 1000 Ang^3
#
#
#
# Elastic Constant Matrix: (Units=GPa)
#
#
# Indices 1 2 3 4 5 6 
#
# 1 73.3505 45.8677 50.7079 0.0000 -30.0793 0.0000
# 2 45.8677 124.2441 46.4982 0.0000 -23.2492 0.0000
# 3 50.7079 46.4982 103.7098 0.0000 1.6240 0.0000
# 4 0.0000 0.0000 0.0000 28.0716 0.0000 -18.2886
# 5 -30.0793 -23.2492 1.6240 0.0000 49.9764 0.0000
# 6 0.0000 0.0000 0.0000 -18.2886 0.0000 29.5797
#
#
#
# Elastic Compliance Matrix: (Units=1/GPa)
#
#
# Indices 1 2 3 4 5 6 
#
# 1 0.034815 -0.003150 -0.015924 0.000000 0.020006 0.000000
# 2 -0.003150 0.011168 -0.003521 0.000000 0.003414 0.000000
# 3 -0.015924 -0.003521 0.019192 0.000000 -0.011845 0.000000
# 4 0.000000 0.000000 0.000000 0.059651 0.000000 0.036881
# 5 0.020006 0.003414 -0.011845 0.000000 0.034024 0.000000
# 6 0.000000 0.000000 0.000000 0.036881 0.000000 0.056610
#
#
# Mechanical properties :
#
#
# Convention : Reuss Voigt Hill
#
# Bulk Modulus (GPa) = 50.03227 65.27244 57.65235
# Shear Modulus (GPa) = 18.70490 32.07426 25.38958
#
# Velocity S-wave (km/s) = 3.00715 3.93782 3.50352
# Velocity P-wave (km/s) = 6.02043 7.22713 6.65120
#
# Compressibility (1/GPa) = 0.01998710
#
# Stress axis : x y z
#
# Youngs Moduli (GPa) = 28.72321 89.54262 52.10538
#
# Poissons Ratio (x) = 0.28204 0.82970
# Poissons Ratio (y) = 0.09047 0.18344
# Poissons Ratio (z) = 0.45738 0.31524
#
# Static dielectric constant tensor:
#      x y z
#    x 3.981520 0.000000 -0.353120 
#    y 0.000000 3.928280 0.000000 
#    z -0.353120 0.000000 3.706870 
# 
# 
# High freq. dielectric constant tensor:
#      x y z
#    x 1.782090 0.000000 -0.032260 
#    y 0.000000 1.830710 0.000000 
#    z -0.032260 0.000000 1.776670 
# 
# From -- ./inp_files/55089.got.cif
#   From: 2010.06.25/outbox.cif.g09.slc.cpg/sg13_28_cif.got.tgz:55089.got - 2010.06.28 04:50:58.
