data_PCOD8121050
_publ_section_title
;
Structure prediction by ZEFSAII (Michael W. Deem and Ramdas Pophale) SiO2 
 PCOD8121050
Probable space group: P 2/C
;
_chemical_formula_sum "Si O2"
_cell_formula_units_Z 32
_cell_length_a 9.336912
_cell_length_b 11.423440
_cell_length_c 20.368074
_cell_angle_alpha 90.000000
_cell_angle_beta 44.526432
_cell_angle_gamma 90.000000
_cell_volume 1523.406204
_symmetry_space_group_name_H-M "P 2/C"
_symmetry_group_IT_number 13
_symmetry_cell_setting 'monoclinic'
loop_
_space_group_symop_operation_xyz
x,y,z
-x,y,1/2-z
-x,-y,-z
x,-y,1/2+z
loop_
_atom_site_type_symbol
_atom_site_label
_atom_site_fract_x
_atom_site_fract_y
_atom_site_fract_z
Si Si1 0.708842 0.486394 0.217020
Si Si2 0.184516 0.674428 0.416763
Si Si3 0.383350 0.298224 0.673303
Si Si4 0.714740 0.088531 0.157016
Si Si5 0.996957 0.286695 0.389657
Si Si6 0.314204 0.058535 0.487172
Si Si7 0.891379 0.136500 0.654921
Si Si8 0.412654 0.189008 0.009917
O O1 0.500000 0.442960 0.250000
O O2 0.830915 0.558733 0.122066
O O3 0.679967 0.566377 0.291817
O O4 0.843186 0.375127 0.196588
O O5 0.417311 0.721016 0.346688
O O6 0.062749 0.777609 0.420888
O O7 0.089091 0.647030 0.518255
O O8 0.204004 0.208536 0.753049
O O9 0.436765 0.277241 0.579259
O O10 0.500000 0.143691 0.250000
O O11 0.897306 0.167447 0.123447
O O12 0.733209 0.963663 0.186181
O O13 0.732425 0.077683 0.073359
O O14 0.805308 0.252504 0.405405
O O15 0.488908 0.150749 0.453141
O O16 0.113433 0.080904 0.598005
O O17 0.387126 0.925661 0.472731
#
# Coordination Sequence:
#
# PCOD8121050 Si02
#       8
#     4   4   4   4   4   4   4   4
#     4   9  18  32  54  90 115 147 206 261 299 338
#     4   9  17  31  54  85 117 151 195 249 301 343
#     4   9  19  35  58  88 122 157 199 253 297 361
#     4  12  22  34  56  90 120 156 193 251 303 358
#     4  11  19  34  56  86 116 156 197 246 302 351
#     4  11  22  37  57  88 127 158 203 241 302 374
#     4  11  18  33  57  88 122 153 200 244 299 353
#     4  10  22  39  57  86 127 168 197 240 304 368
#
# _framework density 21.005558000000001
#
# number of rings (size 3 to 8) (size 9 to 14) (size 15 to 20)
#    0.000    1.750    2.500    5.250    0.000    0.500 
#    0.000    0.625    0.000    3.000   19.500    0.000 
#    0.000    0.000    0.000    0.000    0.000    0.000 
#
# Total GULP energy -396680.684953 kJ/mol
# GULP energy per Si atom -12396.271405 kJ/mol
# Density = 2.095775 g / cm^3
# Si number density = 21.005558 Si / 1000 Ang^3
#
#
#
# Elastic Constant Matrix: (Units=GPa)
#
#
# Indices 1 2 3 4 5 6 
#
# 1 53.8057 30.3512 13.5383 0.0000 -17.0735 0.0000
# 2 30.3512 92.0595 24.2873 0.0000 -8.2346 0.0000
# 3 13.5383 24.2873 60.8205 0.0000 -22.9725 0.0000
# 4 0.0000 0.0000 0.0000 29.9550 0.0000 -11.1090
# 5 -17.0735 -8.2346 -22.9725 0.0000 23.1942 0.0000
# 6 0.0000 0.0000 0.0000 -11.1090 0.0000 29.1768
#
#
#
# Elastic Compliance Matrix: (Units=1/GPa)
#
#
# Indices 1 2 3 4 5 6 
#
# 1 0.030393 -0.009498 0.006717 0.000000 0.025654 0.000000
# 2 -0.009498 0.015119 -0.007248 0.000000 -0.008803 0.000000
# 3 0.006717 -0.007248 0.029935 0.000000 0.032021 0.000000
# 4 0.000000 0.000000 0.000000 0.038872 0.000000 0.014801
# 5 0.025654 -0.008803 0.032021 0.000000 0.090588 0.000000
# 6 0.000000 0.000000 0.000000 0.014801 0.000000 0.039909
#
#
# Mechanical properties :
#
#
# Convention : Reuss Voigt Hill
#
# Bulk Modulus (GPa) = 18.05385 38.11548 28.08467
# Shear Modulus (GPa) = 17.64682 25.69913 21.67298
#
# Velocity S-wave (km/s) = 2.90160 3.50157 3.21561
# Velocity P-wave (km/s) = 4.45411 5.87646 5.21402
#
# Compressibility (1/GPa) = 0.05538984
#
# Stress axis : x y z
#
# Youngs Moduli (GPa) = 32.90206 66.14338 33.40518
#
# Poissons Ratio (x) = 0.62822 -0.22438
# Poissons Ratio (y) = 0.31250 0.24212
# Poissons Ratio (z) = -0.22100 0.47940
#
# Static dielectric constant tensor:
#      x y z
#    x 3.551120 0.000000 -0.295860 
#    y 0.000000 3.675880 0.000000 
#    z -0.295860 0.000000 3.720240 
# 
# 
# High freq. dielectric constant tensor:
#      x y z
#    x 1.797150 0.000000 -0.026100 
#    y 0.000000 1.817970 0.000000 
#    z -0.026100 0.000000 1.814220 
# 
# From -- ./inp_files/76441.got.cif
#   From: 2010.06.25/outbox.cif.g09.slc.cpg/sg13_39_cif.got.tgz:76441.got - 2010.06.28 04:50:58.
