data_PCOD8121219
_publ_section_title
;
Structure prediction by ZEFSAII (Michael W. Deem and Ramdas Pophale) SiO2 
 PCOD8121219
Probable space group: P 2/C
;
_chemical_formula_sum "Si O2"
_cell_formula_units_Z 22
_cell_length_a 12.669582
_cell_length_b 5.207357
_cell_length_c 21.912292
_cell_angle_alpha 90.000000
_cell_angle_beta 135.467386
_cell_angle_gamma 90.000000
_cell_volume 1013.866248
_symmetry_space_group_name_H-M "P 2/C"
_symmetry_group_IT_number 13
_symmetry_cell_setting 'monoclinic'
loop_
_space_group_symop_operation_xyz
x,y,z
-x,y,1/2-z
-x,-y,-z
x,-y,1/2+z
loop_
_atom_site_type_symbol
_atom_site_label
_atom_site_fract_x
_atom_site_fract_y
_atom_site_fract_z
Si Si1 0.500000 0.634619 0.250000
Si Si2 0.921934 0.803443 0.094102
Si Si3 0.654079 0.744456 0.654413
Si Si4 0.348508 0.608250 0.576489
Si Si5 0.215444 0.686748 0.921659
Si Si6 0.742544 0.231781 0.759732
O O1 0.603889 0.453869 0.335128
O O2 0.386996 0.811334 0.242627
O O3 0.888520 0.569051 0.127569
O O4 0.093142 0.783688 0.141214
O O5 0.893905 0.070064 0.117223
O O6 0.806702 0.774865 0.988756
O O7 0.476612 0.770194 0.594218
O O8 0.677770 0.709840 0.592545
O O9 0.721276 0.507420 0.720063
O O10 0.734306 0.007028 0.706936
O O11 0.321500 0.346509 0.525629
#
# Coordination Sequence:
#
# PCOD8121219 Si02
#       6
#     2   4   4   4   4   4
#     4  10  24  48  66  88 128 170 226 266 306 378
#     4  10  23  40  63  99 130 161 214 254 332 368
#     4  11  23  40  68  94 134 167 213 250 321 385
#     4   9  24  42  66  95 126 172 215 259 316 370
#     4  10  22  40  66  96 132 163 207 262 316 384
#     4  11  25  42  64  98 124 174 210 265 316 375
#
# _framework density 21.699113000000001
#
# number of rings (size 3 to 8) (size 9 to 14) (size 15 to 20)
#    1.091    0.727    0.000    2.727    5.091    8.727 
#    0.000    0.909    0.000    0.000    0.000    0.000 
#    0.000    0.000    0.000    0.000    0.000    0.000 
#
# Total GULP energy -272682.923217 kJ/mol
# GULP energy per Si atom -12394.678328 kJ/mol
# Density = 2.164973 g / cm^3
# Si number density = 21.699113 Si / 1000 Ang^3
#
#
#
# Elastic Constant Matrix: (Units=GPa)
#
#
# Indices 1 2 3 4 5 6 
#
# 1 80.9800 15.5301 51.9757 0.0000 1.2583 0.0000
# 2 15.5301 111.0321 19.7000 0.0000 7.8018 0.0000
# 3 51.9757 19.7000 113.9125 0.0000 22.0745 0.0000
# 4 0.0000 0.0000 0.0000 18.8026 0.0000 2.6945
# 5 1.2583 7.8018 22.0745 0.0000 42.4747 0.0000
# 6 0.0000 0.0000 0.0000 2.6945 0.0000 22.9817
#
#
#
# Elastic Compliance Matrix: (Units=1/GPa)
#
#
# Indices 1 2 3 4 5 6 
#
# 1 0.018278 -0.001272 -0.008963 0.000000 0.004350 0.000000
# 2 -0.001272 0.009416 -0.000801 0.000000 -0.001276 0.000000
# 3 -0.008963 -0.000801 0.014374 0.000000 -0.007058 0.000000
# 4 0.000000 0.000000 0.000000 0.054093 0.000000 -0.006342
# 5 0.004350 -0.001276 -0.007058 0.000000 0.027317 0.000000
# 6 0.000000 0.000000 0.000000 -0.006342 0.000000 0.044256
#
#
# Mechanical properties :
#
#
# Convention : Reuss Voigt Hill
#
# Bulk Modulus (GPa) = 50.00741 53.37070 51.68906
# Shear Modulus (GPa) = 25.44906 31.43307 28.44106
#
# Velocity S-wave (km/s) = 3.42835 3.81016 3.62429
# Velocity P-wave (km/s) = 6.22634 6.63367 6.43323
#
# Compressibility (1/GPa) = 0.01999704
#
# Stress axis : x y z
#
# Youngs Moduli (GPa) = 54.71177 106.20181 69.56850
#
# Poissons Ratio (x) = 0.13508 0.62352
# Poissons Ratio (y) = 0.06959 0.05571
# Poissons Ratio (z) = 0.49036 0.08505
#
# Static dielectric constant tensor:
#      x y z
#    x 3.797030 0.000000 0.199340 
#    y 0.000000 3.816320 0.000000 
#    z 0.199340 0.000000 3.860480 
# 
# 
# High freq. dielectric constant tensor:
#      x y z
#    x 1.838250 0.000000 0.017990 
#    y 0.000000 1.854120 0.000000 
#    z 0.017990 0.000000 1.848790 
# 
# From -- ./inp_files/69086.got.cif
#   From: 2010.06.25/outbox.cif.g09.slc.cpg/sg13_35_cif.got.tgz:69086.got - 2010.06.28 04:50:58.
