data_PCOD8121834
_publ_section_title
;
Structure prediction by ZEFSAII (Michael W. Deem and Ramdas Pophale) SiO2 
 PCOD8121834
Probable space group: P 2/C
;
_chemical_formula_sum "Si O2"
_cell_formula_units_Z 26
_cell_length_a 14.127588
_cell_length_b 9.167221
_cell_length_c 14.158200
_cell_angle_alpha 90.000000
_cell_angle_beta 135.425158
_cell_angle_gamma 90.000000
_cell_volume 1286.921609
_symmetry_space_group_name_H-M "P 2/C"
_symmetry_group_IT_number 13
_symmetry_cell_setting 'monoclinic'
loop_
_space_group_symop_operation_xyz
x,y,z
-x,y,1/2-z
-x,-y,-z
x,-y,1/2+z
loop_
_atom_site_type_symbol
_atom_site_label
_atom_site_fract_x
_atom_site_fract_y
_atom_site_fract_z
Si Si1 0.560332 0.909211 0.626060
Si Si2 0.626953 0.397078 0.089660
Si Si3 0.958337 0.916651 0.620256
Si Si4 0.500000 0.916779 0.250000
Si Si5 0.839877 0.862032 0.891671
Si Si6 0.724826 0.699063 0.453655
Si Si7 0.839697 0.462793 0.393007
O O1 0.568564 0.739584 0.607604
O O2 0.709413 0.953997 0.767300
O O3 0.500000 0.000000 0.500000
O O4 0.465564 0.967877 0.642501
O O5 0.758466 0.468937 0.234473
O O6 0.500000 0.500000 0.000000
O O7 0.661286 0.357908 0.006195
O O8 0.855557 0.789958 0.573178
O O9 0.000000 0.985061 0.750000
O O10 0.076219 0.839989 0.644869
O O11 0.909542 0.051477 0.524312
O O12 0.625886 0.807516 0.326696
O O13 0.817707 0.700271 0.917359
O O14 0.764124 0.567416 0.412649
O O15 0.000000 0.500000 0.500000
#
# Coordination Sequence:
#
# PCOD8121834 Si02
#       7
#     4   4   4   2   4   4   4
#     4  11  23  42  69  97 134 170 229 282 338 407
#     4  11  26  46  67 101 138 182 227 282 341 416
#     4  11  22  41  67  94 130 173 226 276 337 402
#     4  12  24  42  72 104 128 186 228 282 346 406
#     4  10  23  43  63  98 132 170 221 285 337 401
#     4  12  24  44  72  95 136 184 227 276 352 407
#     4  11  24  44  67  99 140 178 224 286 344 411
#
# _framework density 20.203251999999999
#
# number of rings (size 3 to 8) (size 9 to 14) (size 15 to 20)
#    0.000    0.923    4.615    2.769    0.000    2.462 
#    2.769    0.000    0.000    0.000    0.000    0.000 
#    0.000    0.000    0.000    0.000    0.000    0.000 
#
# Total GULP energy -322104.283992 kJ/mol
# GULP energy per Si atom -12388.626307 kJ/mol
# Density = 2.015727 g / cm^3
# Si number density = 20.203252 Si / 1000 Ang^3
#
#
#
# Elastic Constant Matrix: (Units=GPa)
#
#
# Indices 1 2 3 4 5 6 
#
# 1 105.6935 66.7146 32.0767 0.0000 -20.1228 0.0000
# 2 66.7146 109.1253 47.7641 0.0000 -11.6918 0.0000
# 3 32.0767 47.7641 110.6993 0.0000 -13.3496 0.0000
# 4 0.0000 0.0000 0.0000 22.2326 0.0000 1.3978
# 5 -20.1228 -11.6918 -13.3496 0.0000 40.9048 0.0000
# 6 0.0000 0.0000 0.0000 1.3978 0.0000 44.6991
#
#
#
# Elastic Compliance Matrix: (Units=1/GPa)
#
#
# Indices 1 2 3 4 5 6 
#
# 1 0.016485 -0.009486 -0.000034 0.000000 0.005387 0.000000
# 2 -0.009486 0.016872 -0.004697 0.000000 -0.001377 0.000000
# 3 -0.000034 -0.004697 0.011353 0.000000 0.002346 0.000000
# 4 0.000000 0.000000 0.000000 0.045068 0.000000 -0.001409
# 5 0.005387 -0.001377 0.002346 0.000000 0.027469 0.000000
# 6 0.000000 0.000000 0.000000 -0.001409 0.000000 0.022416
#
#
# Mechanical properties :
#
#
# Convention : Reuss Voigt Hill
#
# Bulk Modulus (GPa) = 61.44389 68.73656 65.09023
# Shear Modulus (GPa) = 28.81488 33.49815 31.15651
#
# Velocity S-wave (km/s) = 3.78067 4.07634 3.93129
# Velocity P-wave (km/s) = 7.03824 7.50012 7.27285
#
# Compressibility (1/GPa) = 0.01627501
#
# Stress axis : x y z
#
# Youngs Moduli (GPa) = 60.66103 59.27140 88.08330
#
# Poissons Ratio (x) = 0.56226 0.00300
# Poissons Ratio (y) = 0.57544 0.41373
# Poissons Ratio (z) = 0.00207 0.27840
#
# Static dielectric constant tensor:
#      x y z
#    x 3.713230 0.000000 0.045020 
#    y 0.000000 3.689110 0.000000 
#    z 0.045020 0.000000 4.007420 
# 
# 
# High freq. dielectric constant tensor:
#      x y z
#    x 1.788730 0.000000 0.001470 
#    y 0.000000 1.795130 0.000000 
#    z 0.001470 0.000000 1.808600 
# 
# From -- ./inp_files/53367.got.cif
#   From: 2010.06.25/outbox.cif.g09.slc.cpg/sg13_27_cif.got.tgz:53367.got - 2010.06.28 04:50:58.
