data_PCOD8121730
_publ_section_title
;
Structure prediction by ZEFSAII (Michael W. Deem and Ramdas Pophale) SiO2 
 PCOD8121730
Probable space group: P 2/C
;
_chemical_formula_sum "Si O2"
_cell_formula_units_Z 16
_cell_length_a 7.535813
_cell_length_b 16.002576
_cell_length_c 7.596276
_cell_angle_alpha 90.000000
_cell_angle_beta 52.258974
_cell_angle_gamma 90.000000
_cell_volume 724.401630
_symmetry_space_group_name_H-M "P 2/C"
_symmetry_group_IT_number 13
_symmetry_cell_setting 'monoclinic'
loop_
_space_group_symop_operation_xyz
x,y,z
-x,y,1/2-z
-x,-y,-z
x,-y,1/2+z
loop_
_atom_site_type_symbol
_atom_site_label
_atom_site_fract_x
_atom_site_fract_y
_atom_site_fract_z
Si Si1 0.500000 0.530187 0.250000
Si Si2 0.774809 0.593383 0.784736
Si Si3 0.311455 0.777067 0.721622
Si Si4 0.958510 0.094966 0.572431
Si Si5 0.500000 0.167391 0.750000
O O1 0.433421 0.589368 0.452404
O O2 0.282670 0.473046 0.333530
O O3 0.792231 0.684988 0.686373
O O4 0.000000 0.569657 0.750000
O O5 0.500000 0.797730 0.750000
O O6 0.416917 0.776405 0.462776
O O7 0.113865 0.845077 0.858693
O O8 0.698512 0.108090 0.692555
O O9 0.000000 0.115267 0.750000
O O10 0.000000 0.000000 0.500000
#
# Coordination Sequence:
#
# PCOD8121730 Si02
#       5
#     2   4   4   4   2
#     4  10  23  40  65 100 130 180 226 274 353 398
#     4  11  22  42  66  96 137 177 225 284 337 410
#     4  12  25  46  71 104 140 186 237 286 350 416
#     4  12  27  46  72 104 137 183 232 290 355 416
#     4  12  25  46  71  96 142 178 228 292 341 414
#
# _framework density 22.087195000000001
#
# number of rings (size 3 to 8) (size 9 to 14) (size 15 to 20)
#    0.000    0.500    3.750    5.250    1.750    2.000 
#    0.000    1.250    0.000    0.000    0.000    0.000 
#    0.000    0.000    0.000    0.000    0.000    0.000 
#
# Total GULP energy -198468.300936 kJ/mol
# GULP energy per Si atom -12404.268808 kJ/mol
# Density = 2.203692 g / cm^3
# Si number density = 22.087195 Si / 1000 Ang^3
#
#
#
# Elastic Constant Matrix: (Units=GPa)
#
#
# Indices 1 2 3 4 5 6 
#
# 1 168.9893 31.6635 21.9046 0.0000 -16.0711 0.0000
# 2 31.6635 130.1815 27.7980 0.0000 -14.1655 0.0000
# 3 21.9046 27.7980 102.0381 0.0000 9.4705 0.0000
# 4 0.0000 0.0000 0.0000 26.8801 0.0000 4.0521
# 5 -16.0711 -14.1655 9.4705 0.0000 41.1449 0.0000
# 6 0.0000 0.0000 0.0000 4.0521 0.0000 12.7905
#
#
#
# Elastic Compliance Matrix: (Units=1/GPa)
#
#
# Indices 1 2 3 4 5 6 
#
# 1 0.006523 -0.001025 -0.001354 0.000000 0.002507 0.000000
# 2 -0.001025 0.008808 -0.002477 0.000000 0.003202 0.000000
# 3 -0.001354 -0.002477 0.011132 0.000000 -0.003944 0.000000
# 4 0.000000 0.000000 0.000000 0.039068 0.000000 -0.012377
# 5 0.002507 0.003202 -0.003944 0.000000 0.027294 0.000000
# 6 0.000000 0.000000 0.000000 -0.012377 0.000000 0.082104
#
#
# Mechanical properties :
#
#
# Convention : Reuss Voigt Hill
#
# Bulk Modulus (GPa) = 59.69319 62.66013 61.17666
# Shear Modulus (GPa) = 26.28472 37.48593 31.88533
#
# Velocity S-wave (km/s) = 3.45344 4.12415 3.80361
# Velocity P-wave (km/s) = 6.55641 7.14907 6.85914
#
# Compressibility (1/GPa) = 0.01675233
#
# Stress axis : x y z
#
# Youngs Moduli (GPa) = 153.29321 113.53083 89.83366
#
# Poissons Ratio (x) = 0.11635 0.12162
# Poissons Ratio (y) = 0.15709 0.22250
# Poissons Ratio (z) = 0.20754 0.28120
#
# Static dielectric constant tensor:
#      x y z
#    x 4.209390 0.000000 0.035230 
#    y 0.000000 3.847930 0.000000 
#    z 0.035230 0.000000 4.295600 
# 
# 
# High freq. dielectric constant tensor:
#      x y z
#    x 1.891630 0.000000 0.007040 
#    y 0.000000 1.867270 0.000000 
#    z 0.007040 0.000000 1.867180 
# 
# From -- ./inp_files/11548.got.cif
#   From: 2010.06.25/outbox.cif.g09.slc.cpg/sg13_6_cif.got.tgz:11548.got - 2010.06.28 04:50:58.
