data_PCOD8121494
_publ_section_title
;
Structure prediction by ZEFSAII (Michael W. Deem and Ramdas Pophale) SiO2 
 PCOD8121494
Probable space group: P 2/C
;
_chemical_formula_sum "Si O2"
_cell_formula_units_Z 24
_cell_length_a 23.461030
_cell_length_b 6.502323
_cell_length_c 12.833013
_cell_angle_alpha 90.000000
_cell_angle_beta 145.378128
_cell_angle_gamma 90.000000
_cell_volume 1112.277925
_symmetry_space_group_name_H-M "P 2/C"
_symmetry_group_IT_number 13
_symmetry_cell_setting 'monoclinic'
loop_
_space_group_symop_operation_xyz
x,y,z
-x,y,1/2-z
-x,-y,-z
x,-y,1/2+z
loop_
_atom_site_type_symbol
_atom_site_label
_atom_site_fract_x
_atom_site_fract_y
_atom_site_fract_z
Si Si1 0.000000 0.113590 0.750000
Si Si2 0.862757 0.987651 0.873919
Si Si3 0.234779 0.598274 0.834774
Si Si4 0.169932 0.778202 0.368652
Si Si5 0.500000 0.105275 0.250000
Si Si6 0.674924 0.251679 0.652470
Si Si7 0.344568 0.895966 0.149174
O O1 0.949977 0.965443 0.588381
O O2 0.908207 0.252710 0.654634
O O3 0.854933 0.741110 0.843723
O O4 0.893883 0.101811 0.815228
O O5 0.754890 0.073917 0.748282
O O6 0.199762 0.444302 0.872561
O O7 0.278588 0.477111 0.800272
O O8 0.313641 0.746814 0.008975
O O9 0.266095 0.915660 0.546422
O O10 0.452403 0.975927 0.273612
O O11 0.584147 0.240884 0.433461
O O12 0.641262 0.229872 0.721791
#
# Coordination Sequence:
#
# PCOD8121494 Si02
#       7
#     2   4   4   4   2   4   4
#     4  12  22  38  74  94 124 182 220 252 338 394
#     4  10  22  43  64  94 134 169 216 273 321 388
#     4  10  22  44  64  94 140 164 214 288 318 374
#     4  10  22  43  64  94 134 169 216 273 321 388
#     4  12  22  46  68 100 126 176 226 258 328 404
#     4  11  23  43  69  95 134 175 217 271 328 388
#     4  11  23  43  69  95 134 175 217 271 328 388
#
# _framework density 21.577341000000001
#
# number of rings (size 3 to 8) (size 9 to 14) (size 15 to 20)
#    0.000    1.333    6.667    1.000    2.333    1.333 
#    0.000   10.000    0.000    0.000    0.000    0.000 
#    0.000    0.000    0.000    0.000    0.000    0.000 
#
# Total GULP energy -297491.635609 kJ/mol
# GULP energy per Si atom -12395.484817 kJ/mol
# Density = 2.152823 g / cm^3
# Si number density = 21.577341 Si / 1000 Ang^3
#
#
#
# Elastic Constant Matrix: (Units=GPa)
#
#
# Indices 1 2 3 4 5 6 
#
# 1 113.8514 10.2131 2.9162 0.0000 10.2000 0.0000
# 2 10.2131 93.1055 7.1274 0.0000 7.3015 0.0000
# 3 2.9162 7.1274 90.2718 0.0000 -4.5069 0.0000
# 4 0.0000 0.0000 0.0000 10.4940 0.0000 -3.0425
# 5 10.2000 7.3015 -4.5069 0.0000 38.1506 0.0000
# 6 0.0000 0.0000 0.0000 -3.0425 0.0000 17.1603
#
#
#
# Elastic Compliance Matrix: (Units=1/GPa)
#
#
# Indices 1 2 3 4 5 6 
#
# 1 0.009070 -0.000787 -0.000346 0.000000 -0.002315 0.000000
# 2 -0.000787 0.011058 -0.000948 0.000000 -0.002018 0.000000
# 3 -0.000346 -0.000948 0.011244 0.000000 0.001602 0.000000
# 4 0.000000 0.000000 0.000000 0.100456 0.000000 0.017811
# 5 -0.002315 -0.002018 0.001602 0.000000 0.027406 0.000000
# 6 0.000000 0.000000 0.000000 0.017811 0.000000 0.061432
#
#
# Mechanical properties :
#
#
# Convention : Reuss Voigt Hill
#
# Bulk Modulus (GPa) = 36.75358 37.52690 37.14024
# Shear Modulus (GPa) = 21.37675 31.62578 26.50127
#
# Velocity S-wave (km/s) = 3.15096 3.83259 3.50837
# Velocity P-wave (km/s) = 5.50531 6.08396 5.80185
#
# Compressibility (1/GPa) = 0.02720823
#
# Stress axis : x y z
#
# Youngs Moduli (GPa) = 110.25021 90.43502 88.93848
#
# Poissons Ratio (x) = 0.07116 0.03082
# Poissons Ratio (y) = 0.08675 0.08435
# Poissons Ratio (z) = 0.03820 0.08577
#
# Static dielectric constant tensor:
#      x y z
#    x 4.104650 0.000000 -0.186060 
#    y 0.000000 3.719780 0.000000 
#    z -0.186060 0.000000 3.889520 
# 
# 
# High freq. dielectric constant tensor:
#      x y z
#    x 1.859070 0.000000 -0.010380 
#    y 0.000000 1.826180 0.000000 
#    z -0.010380 0.000000 1.847590 
# 
# From -- ./inp_files/52391.got.cif
#   From: 2010.06.25/outbox.cif.g09.slc.cpg/sg13_27_cif.got.tgz:52391.got - 2010.06.28 04:50:58.
