data_PCOD8121347
_publ_section_title
;
Structure prediction by ZEFSAII (Michael W. Deem and Ramdas Pophale) SiO2 
 PCOD8121347
Probable space group: P 2/C
;
_chemical_formula_sum "Si O2"
_cell_formula_units_Z 26
_cell_length_a 14.000676
_cell_length_b 11.711330
_cell_length_c 14.997617
_cell_angle_alpha 90.000000
_cell_angle_beta 30.626552
_cell_angle_gamma 90.000000
_cell_volume 1252.768238
_symmetry_space_group_name_H-M "P 2/C"
_symmetry_group_IT_number 13
_symmetry_cell_setting 'monoclinic'
loop_
_space_group_symop_operation_xyz
x,y,z
-x,y,1/2-z
-x,-y,-z
x,-y,1/2+z
loop_
_atom_site_type_symbol
_atom_site_label
_atom_site_fract_x
_atom_site_fract_y
_atom_site_fract_z
Si Si1 0.317800 0.306318 0.228337
Si Si2 0.016570 0.291923 0.131578
Si Si3 0.157745 0.086750 0.905837
Si Si4 0.797498 0.459413 0.635477
Si Si5 0.280578 0.732791 0.166024
Si Si6 0.000000 0.198888 0.750000
Si Si7 0.297143 0.120007 0.380821
O O1 0.186126 0.322578 0.247619
O O2 0.334659 0.428592 0.266856
O O3 0.220562 0.214015 0.371585
O O4 0.519292 0.256490 0.041667
O O5 0.000000 0.288181 0.250000
O O6 0.079955 0.169654 0.044373
O O7 0.175292 0.386440 0.977395
O O8 0.246616 0.153727 0.751510
O O9 0.316138 0.006077 0.823090
O O10 0.000000 0.000000 0.000000
O O11 0.712465 0.379566 0.780034
O O12 0.000000 0.500000 0.500000
O O13 0.116430 0.720736 0.224274
O O14 0.147039 0.116981 0.581414
O O15 0.500000 0.160945 0.250000
#
# Coordination Sequence:
#
# PCOD8121347 Si02
#       7
#     4   4   4   4   4   2   4
#     4  11  22  44  65  96 137 167 223 277 330 397
#     4  10  22  41  68  94 130 175 223 271 337 399
#     4  11  22  41  63  89 133 175 212 275 334 386
#     4   9  20  43  65  90 131 171 213 272 339 388
#     4  11  23  40  68  95 129 176 220 276 331 395
#     4  12  22  40  66  96 132 170 226 268 330 394
#     4  12  25  43  64 100 130 173 227 272 327 403
#
# _framework density 20.754038000000001
#
# number of rings (size 3 to 8) (size 9 to 14) (size 15 to 20)
#    0.000    1.231    4.615    2.308    1.077    1.846 
#   12.462    2.308    0.000    0.000    0.000    0.000 
#    0.000    0.000    0.000    0.000    0.000    0.000 
#
# Total GULP energy -322392.697814 kJ/mol
# GULP energy per Si atom -12399.719147 kJ/mol
# Density = 2.070680 g / cm^3
# Si number density = 20.754038 Si / 1000 Ang^3
#
#
#
# Elastic Constant Matrix: (Units=GPa)
#
#
# Indices 1 2 3 4 5 6 
#
# 1 100.5515 37.3826 49.7673 0.0000 17.3077 0.0000
# 2 37.3826 155.1385 59.6774 0.0000 20.5654 0.0000
# 3 49.7673 59.6774 136.5815 0.0000 14.5552 0.0000
# 4 0.0000 0.0000 0.0000 28.4947 0.0000 -4.6294
# 5 17.3077 20.5654 14.5552 0.0000 35.8797 0.0000
# 6 0.0000 0.0000 0.0000 -4.6294 0.0000 17.7872
#
#
#
# Elastic Compliance Matrix: (Units=1/GPa)
#
#
# Indices 1 2 3 4 5 6 
#
# 1 0.012937 -0.001121 -0.003792 0.000000 -0.004060 0.000000
# 2 -0.001121 0.008215 -0.002861 0.000000 -0.003008 0.000000
# 3 -0.003792 -0.002861 0.010017 0.000000 -0.000595 0.000000
# 4 0.000000 0.000000 0.000000 0.036644 0.000000 0.009537
# 5 -0.004060 -0.003008 -0.000595 0.000000 0.031795 0.000000
# 6 0.000000 0.000000 0.000000 0.009537 0.000000 0.058702
#
#
# Mechanical properties :
#
#
# Convention : Reuss Voigt Hill
#
# Bulk Modulus (GPa) = 64.00833 76.21401 70.11117
# Shear Modulus (GPa) = 27.92315 32.79528 30.35921
#
# Velocity S-wave (km/s) = 3.67199 3.97947 3.82882
# Velocity P-wave (km/s) = 6.99188 7.61033 7.30765
#
# Compressibility (1/GPa) = 0.01562297
#
# Stress axis : x y z
#
# Youngs Moduli (GPa) = 77.29552 121.72928 99.83492
#
# Poissons Ratio (x) = 0.13641 0.37855
# Poissons Ratio (y) = 0.08662 0.28558
# Poissons Ratio (z) = 0.29309 0.34822
#
# Static dielectric constant tensor:
#      x y z
#    x 3.733770 0.000000 0.125830 
#    y 0.000000 2.489290 0.000000 
#    z 0.125830 0.000000 3.758990 
# 
# 
# High freq. dielectric constant tensor:
#      x y z
#    x 1.796080 0.000000 0.007640 
#    y 0.000000 1.821590 0.000000 
#    z 0.007640 0.000000 1.818530 
# 
# From -- ./inp_files/53663.got.cif
#   From: 2010.06.25/outbox.cif.g09.slc.cpg/sg13_27_cif.got.tgz:53663.got - 2010.06.28 04:50:58.
