data_PCOD8121451
_publ_section_title
;
Structure prediction by ZEFSAII (Michael W. Deem and Ramdas Pophale) SiO2 
 PCOD8121451
Probable space group: P 2/C
;
_chemical_formula_sum "Si O2"
_cell_formula_units_Z 16
_cell_length_a 7.928853
_cell_length_b 7.396564
_cell_length_c 16.056218
_cell_angle_alpha 90.000000
_cell_angle_beta 130.741406
_cell_angle_gamma 90.000000
_cell_volume 713.443615
_symmetry_space_group_name_H-M "P 2/C"
_symmetry_group_IT_number 13
_symmetry_cell_setting 'monoclinic'
loop_
_space_group_symop_operation_xyz
x,y,z
-x,y,1/2-z
-x,-y,-z
x,-y,1/2+z
loop_
_atom_site_type_symbol
_atom_site_label
_atom_site_fract_x
_atom_site_fract_y
_atom_site_fract_z
Si Si1 0.436282 0.352161 0.549361
Si Si2 0.793316 0.483124 0.874757
Si Si3 0.028277 0.781747 0.666404
Si Si4 0.701121 0.140683 0.752195
O O1 0.500000 0.500000 0.500000
O O2 0.422024 0.458246 0.634716
O O3 0.209196 0.245790 0.455508
O O4 0.615630 0.195008 0.630274
O O5 0.836558 0.309578 0.831695
O O6 0.778532 0.663560 0.814779
O O7 0.000000 0.500000 0.000000
O O8 0.000000 0.708040 0.750000
O O9 0.114035 0.986046 0.694825
O O10 0.500000 0.084574 0.750000
#
# Coordination Sequence:
#
# PCOD8121451 Si02
#       4
#     4   4   4   4
#     4  10  22  42  68  95 129 174 217 266 330 389
#     4   9  21  41  63  87 124 167 208 263 320 376
#     4  11  24  40  64  94 126 167 214 267 322 382
#     4  10  23  41  62  93 128 166 216 266 322 385
#
# _framework density 22.426439999999999
#
# number of rings (size 3 to 8) (size 9 to 14) (size 15 to 20)
#    0.000    2.000    0.000    1.500    0.000   20.000 
#    0.000    2.500    0.000    0.000    0.000    0.000 
#    0.000    0.000    0.000    0.000    0.000    0.000 
#
# Total GULP energy -198238.918601 kJ/mol
# GULP energy per Si atom -12389.932413 kJ/mol
# Density = 2.237540 g / cm^3
# Si number density = 22.426440 Si / 1000 Ang^3
#
#
#
# Elastic Constant Matrix: (Units=GPa)
#
#
# Indices 1 2 3 4 5 6 
#
# 1 79.5462 67.2621 50.6746 0.0000 -14.2135 0.0000
# 2 67.2621 164.1761 82.9864 0.0000 -0.5418 0.0000
# 3 50.6746 82.9864 117.2499 0.0000 -2.5218 0.0000
# 4 0.0000 0.0000 0.0000 44.0420 0.0000 1.6489
# 5 -14.2135 -0.5418 -2.5218 0.0000 44.2861 0.0000
# 6 0.0000 0.0000 0.0000 1.6489 0.0000 35.5445
#
#
#
# Elastic Compliance Matrix: (Units=1/GPa)
#
#
# Indices 1 2 3 4 5 6 
#
# 1 0.022635 -0.006821 -0.004806 0.000000 0.006908 0.000000
# 2 -0.006821 0.011543 -0.005272 0.000000 -0.002348 0.000000
# 3 -0.004806 -0.005272 0.014320 0.000000 -0.000792 0.000000
# 4 0.000000 0.000000 0.000000 0.022745 0.000000 -0.001055
# 5 0.006908 -0.002348 -0.000792 0.000000 0.024724 0.000000
# 6 0.000000 0.000000 0.000000 -0.001055 0.000000 0.028183
#
#
# Mechanical properties :
#
#
# Convention : Reuss Voigt Hill
#
# Bulk Modulus (GPa) = 68.03099 84.75759 76.39429
# Shear Modulus (GPa) = 30.70323 35.44444 33.07384
#
# Velocity S-wave (km/s) = 3.70410 3.97983 3.84444
# Velocity P-wave (km/s) = 6.97817 7.68078 7.33789
#
# Compressibility (1/GPa) = 0.01469918
#
# Stress axis : x y z
#
# Youngs Moduli (GPa) = 44.17871 86.63390 69.83012
#
# Poissons Ratio (x) = 0.59096 0.33563
# Poissons Ratio (y) = 0.30136 0.36815
# Poissons Ratio (z) = 0.21234 0.45674
#
# Static dielectric constant tensor:
#      x y z
#    x 4.917740 0.000000 -0.086740 
#    y 0.000000 3.320580 0.000000 
#    z -0.086740 0.000000 4.443420 
# 
# 
# High freq. dielectric constant tensor:
#      x y z
#    x 1.872640 0.000000 -0.005430 
#    y 0.000000 1.876620 0.000000 
#    z -0.005430 0.000000 1.910560 
# 
# From -- ./inp_files/45199.got.cif
#   From: 2010.06.25/outbox.cif.g09.slc.cpg/sg13_23_cif.got.tgz:45199.got - 2010.06.28 04:50:58.
