data_PCOD8121957
_publ_section_title
;
Structure prediction by ZEFSAII (Michael W. Deem and Ramdas Pophale) SiO2 
 PCOD8121957
Probable space group: P 2/C
;
_chemical_formula_sum "Si O2"
_cell_formula_units_Z 28
_cell_length_a 14.175366
_cell_length_b 9.036473
_cell_length_c 14.436065
_cell_angle_alpha 90.000000
_cell_angle_beta 39.991912
_cell_angle_gamma 90.000000
_cell_volume 1188.437890
_symmetry_space_group_name_H-M "P 2/C"
_symmetry_group_IT_number 13
_symmetry_cell_setting 'monoclinic'
loop_
_space_group_symop_operation_xyz
x,y,z
-x,y,1/2-z
-x,-y,-z
x,-y,1/2+z
loop_
_atom_site_type_symbol
_atom_site_label
_atom_site_fract_x
_atom_site_fract_y
_atom_site_fract_z
Si Si1 0.894220 0.063010 0.446202
Si Si2 0.125122 0.603878 0.591654
Si Si3 0.395236 0.288631 0.552605
Si Si4 0.656941 0.153175 0.099146
Si Si5 0.302958 0.387111 0.133273
Si Si6 0.863191 0.651426 0.561637
Si Si7 0.874721 0.135809 0.664616
O O1 0.922554 0.230479 0.397662
O O2 0.856656 0.047000 0.583062
O O3 0.758651 0.986732 0.493439
O O4 0.046965 0.971202 0.317321
O O5 0.266701 0.617775 0.551381
O O6 0.150499 0.507133 0.480342
O O7 0.000000 0.528449 0.750000
O O8 0.364474 0.269841 0.467209
O O9 0.568118 0.265839 0.445282
O O10 0.357623 0.450307 0.617972
O O11 0.291244 0.171973 0.682494
O O12 0.500000 0.091910 0.250000
O O13 0.736598 0.241788 0.120604
O O14 0.163638 0.361546 0.307138
O O15 0.025238 0.716649 0.422304
#
# Coordination Sequence:
#
# PCOD8121957 Si02
#       7
#     4   4   4   4   4   4   4
#     4  10  25  43  67  98 143 180 232 277 341 414
#     4  12  25  41  69 108 136 177 230 292 341 407
#     4  11  23  42  70 100 135 177 227 284 342 413
#     4  11  23  45  68  97 136 191 226 274 350 416
#     4  11  24  42  68 107 134 171 232 288 346 401
#     4  11  23  44  73  97 142 176 228 290 347 404
#     4  10  23  46  71  99 133 188 226 280 342 411
#
# _framework density 23.56034
#
# number of rings (size 3 to 8) (size 9 to 14) (size 15 to 20)
#    0.000    1.143    2.857    2.571    2.000    4.000 
#    0.000    3.571    0.000    0.000    0.000    0.000 
#    0.000    0.000    0.000    0.000    0.000    0.000 
#
# Total GULP energy -347132.949371 kJ/mol
# GULP energy per Si atom -12397.605335 kJ/mol
# Density = 2.350672 g / cm^3
# Si number density = 23.560340 Si / 1000 Ang^3
#
#
#
# Elastic Constant Matrix: (Units=GPa)
#
#
# Indices 1 2 3 4 5 6 
#
# 1 81.0104 31.0289 22.0845 0.0000 -12.5136 0.0000
# 2 31.0289 104.2741 34.0940 0.0000 -9.3096 0.0000
# 3 22.0845 34.0940 107.5836 0.0000 -14.1375 0.0000
# 4 0.0000 0.0000 0.0000 27.3619 0.0000 3.0393
# 5 -12.5136 -9.3096 -14.1375 0.0000 31.2737 0.0000
# 6 0.0000 0.0000 0.0000 3.0393 0.0000 30.0638
#
#
#
# Elastic Compliance Matrix: (Units=1/GPa)
#
#
# Indices 1 2 3 4 5 6 
#
# 1 0.014728 -0.003568 -0.001337 0.000000 0.004227 0.000000
# 2 -0.003568 0.011655 -0.002863 0.000000 0.000748 0.000000
# 3 -0.001337 -0.002863 0.010945 0.000000 0.003560 0.000000
# 4 0.000000 0.000000 0.000000 0.036962 0.000000 -0.003737
# 5 0.004227 0.000748 0.003560 0.000000 0.035499 0.000000
# 6 0.000000 0.000000 0.000000 -0.003737 0.000000 0.033640
#
#
# Mechanical properties :
#
#
# Convention : Reuss Voigt Hill
#
# Bulk Modulus (GPa) = 45.88966 51.92031 48.90498
# Shear Modulus (GPa) = 30.07901 31.45060 30.76481
#
# Velocity S-wave (km/s) = 3.57694 3.65759 3.61749
# Velocity P-wave (km/s) = 6.04807 6.31841 6.18471
#
# Compressibility (1/GPa) = 0.02179140
#
# Stress axis : x y z
#
# Youngs Moduli (GPa) = 67.89708 85.80278 91.36855
#
# Poissons Ratio (x) = 0.30615 0.12218
# Poissons Ratio (y) = 0.24226 0.26157
# Poissons Ratio (z) = 0.09079 0.24563
#
# Static dielectric constant tensor:
#      x y z
#    x 4.489310 0.000000 -0.109610 
#    y 0.000000 4.075960 0.000000 
#    z -0.109610 0.000000 4.144940 
# 
# 
# High freq. dielectric constant tensor:
#      x y z
#    x 1.944810 0.000000 -0.002770 
#    y 0.000000 1.925720 0.000000 
#    z -0.002770 0.000000 1.923020 
# 
# From -- ./inp_files/53292.got.cif
#   From: 2010.06.25/outbox.cif.g09.slc.cpg/sg13_27_cif.got.tgz:53292.got - 2010.06.28 04:50:58.
