data_PCOD8121083
_publ_section_title
;
Structure prediction by ZEFSAII (Michael W. Deem and Ramdas Pophale) SiO2 
 PCOD8121083
Probable space group: P 2/C
;
_chemical_formula_sum "Si O2"
_cell_formula_units_Z 24
_cell_length_a 11.053703
_cell_length_b 12.052445
_cell_length_c 8.984364
_cell_angle_alpha 90.000000
_cell_angle_beta 92.371946
_cell_angle_gamma 90.000000
_cell_volume 1195.908718
_symmetry_space_group_name_H-M "P 2/C"
_symmetry_group_IT_number 13
_symmetry_cell_setting 'monoclinic'
loop_
_space_group_symop_operation_xyz
x,y,z
-x,y,1/2-z
-x,-y,-z
x,-y,1/2+z
loop_
_atom_site_type_symbol
_atom_site_label
_atom_site_fract_x
_atom_site_fract_y
_atom_site_fract_z
Si Si1 0.772844 0.176190 0.628356
Si Si2 0.489603 0.115551 0.921514
Si Si3 0.911382 0.952492 0.615810
Si Si4 0.153384 0.416980 0.381716
Si Si5 0.113733 0.633337 0.545950
Si Si6 0.736925 0.226694 0.960503
O O1 0.639104 0.171986 0.549464
O O2 0.851856 0.244908 0.513047
O O3 0.771135 0.234073 0.788838
O O4 0.824353 0.053230 0.661221
O O5 0.500000 0.089684 0.750000
O O6 0.598607 0.192751 0.981227
O O7 0.500000 0.000000 0.000000
O O8 0.828530 0.852845 0.554389
O O9 0.000000 0.907649 0.750000
O O10 0.000000 0.000000 0.500000
O O11 0.158787 0.546831 0.422338
O O12 0.172840 0.399416 0.206828
O O13 0.257667 0.350069 0.472178
O O14 0.029385 0.366420 0.440146
#
# Coordination Sequence:
#
# PCOD8121083 Si02
#       6
#     4   4   4   4   4   4
#     4  11  23  40  60  86 122 162 201 247 298 354
#     4  10  22  40  60  85 118 164 206 247 293 349
#     4  12  24  35  56  89 122 157 193 246 303 355
#     4  10  22  39  62  91 120 157 196 247 302 360
#     4  10  22  39  63  90 123 155 198 245 303 361
#     4  11  23  39  61  86 123 159 202 248 297 355
#
# _framework density 20.068422000000002
#
# number of rings (size 3 to 8) (size 9 to 14) (size 15 to 20)
#    0.000    1.333    3.333    2.000    4.667    2.667 
#    0.000    0.833    0.000    0.000    0.000    0.000 
#    0.000    0.000    0.000    0.000    0.000    0.000 
#
# Total GULP energy -297619.815299 kJ/mol
# GULP energy per Si atom -12400.825637 kJ/mol
# Density = 2.002274 g / cm^3
# Si number density = 20.068422 Si / 1000 Ang^3
#
#
#
# Elastic Constant Matrix: (Units=GPa)
#
#
# Indices 1 2 3 4 5 6 
#
# 1 101.3080 22.8894 29.1527 0.0000 19.4063 0.0000
# 2 22.8894 75.4769 24.1774 0.0000 8.9992 0.0000
# 3 29.1527 24.1774 82.1240 0.0000 17.7331 0.0000
# 4 0.0000 0.0000 0.0000 37.2882 0.0000 2.6484
# 5 19.4063 8.9992 17.7331 0.0000 31.0016 0.0000
# 6 0.0000 0.0000 0.0000 2.6484 0.0000 18.7458
#
#
#
# Elastic Compliance Matrix: (Units=1/GPa)
#
#
# Indices 1 2 3 4 5 6 
#
# 1 0.012145 -0.002235 -0.002455 0.000000 -0.005550 0.000000
# 2 -0.002235 0.015153 -0.003446 0.000000 -0.001029 0.000000
# 3 -0.002455 -0.003446 0.015419 0.000000 -0.006283 0.000000
# 4 0.000000 0.000000 0.000000 0.027090 0.000000 -0.003827
# 5 -0.005550 -0.001029 -0.006283 0.000000 0.039623 0.000000
# 6 0.000000 0.000000 0.000000 -0.003827 0.000000 0.053886
#
#
# Mechanical properties :
#
#
# Convention : Reuss Voigt Hill
#
# Bulk Modulus (GPa) = 37.81234 45.70531 41.75883
# Shear Modulus (GPa) = 26.53873 29.58641 28.06257
#
# Velocity S-wave (km/s) = 3.64044 3.84380 3.74350
# Velocity P-wave (km/s) = 6.04591 6.52103 6.28796
#
# Compressibility (1/GPa) = 0.02644639
#
# Stress axis : x y z
#
# Youngs Moduli (GPa) = 82.33539 65.99228 64.85387
#
# Poissons Ratio (x) = 0.14750 0.15922
# Poissons Ratio (y) = 0.18403 0.22346
# Poissons Ratio (z) = 0.20214 0.22738
#
# Static dielectric constant tensor:
#      x y z
#    x 3.847880 0.000000 0.130860 
#    y 0.000000 3.746970 0.000000 
#    z 0.130860 0.000000 3.710080 
# 
# 
# High freq. dielectric constant tensor:
#      x y z
#    x 1.774490 0.000000 0.006940 
#    y 0.000000 1.780330 0.000000 
#    z 0.006940 0.000000 1.794390 
# 
# From -- ./inp_files/15846.got.cif
#   From: 2010.06.25/outbox.cif.g09.slc.cpg/sg13_8_cif.got.tgz:15846.got - 2010.06.28 04:50:58.
