data_PCOD8121991
_publ_section_title
;
Structure prediction by ZEFSAII (Michael W. Deem and Ramdas Pophale) SiO2 
 PCOD8121991
Probable space group: P 2/C
;
_chemical_formula_sum "Si O2"
_cell_formula_units_Z 18
_cell_length_a 20.030652
_cell_length_b 9.121196
_cell_length_c 9.146351
_cell_angle_alpha 90.000000
_cell_angle_beta 29.891353
_cell_angle_gamma 90.000000
_cell_volume 832.789453
_symmetry_space_group_name_H-M "P 2/C"
_symmetry_group_IT_number 13
_symmetry_cell_setting 'monoclinic'
loop_
_space_group_symop_operation_xyz
x,y,z
-x,y,1/2-z
-x,-y,-z
x,-y,1/2+z
loop_
_atom_site_type_symbol
_atom_site_label
_atom_site_fract_x
_atom_site_fract_y
_atom_site_fract_z
Si Si1 0.764123 0.832644 0.909074
Si Si2 0.941092 0.702915 0.117926
Si Si3 0.712797 0.119114 0.169464
Si Si4 0.000000 0.511791 0.750000
Si Si5 0.481445 0.648419 0.119938
O O1 0.753251 0.884744 0.762251
O O2 0.914142 0.780610 0.660518
O O3 0.671644 0.693216 0.115013
O O4 0.699784 0.953216 0.139362
O O5 0.832180 0.827308 0.338432
O O6 0.914693 0.593166 0.305069
O O7 0.911421 0.614921 0.023995
O O8 0.581585 0.217549 0.387961
O O9 0.500000 0.603769 0.250000
O O10 0.500000 0.500000 0.000000
#
# Coordination Sequence:
#
# PCOD8121991 Si02
#       5
#     4   4   4   2   4
#     4  11  24  42  63  92 127 163 206 253 305 369
#     4  11  23  40  65  92 127 159 210 249 313 360
#     4  11  24  42  63  92 127 163 206 253 305 369
#     4  10  24  38  62  94 132 158 196 264 312 356
#     4  10  25  42  64  92 124 160 207 254 306 365
#
# _framework density 21.614106
#
# number of rings (size 3 to 8) (size 9 to 14) (size 15 to 20)
#    0.000    1.333    2.222    1.333    9.333    1.778 
#    0.000    0.000    0.000    0.000    0.000    0.000 
#    0.000    0.000    0.000    0.000    0.000    0.000 
#
# Total GULP energy -223119.405658 kJ/mol
# GULP energy per Si atom -12395.522537 kJ/mol
# Density = 2.156491 g / cm^3
# Si number density = 21.614106 Si / 1000 Ang^3
#
#
#
# Elastic Constant Matrix: (Units=GPa)
#
#
# Indices 1 2 3 4 5 6 
#
# 1 61.1798 36.9306 40.4369 0.0000 14.4828 0.0000
# 2 36.9306 108.2204 40.7271 0.0000 22.1028 0.0000
# 3 40.4369 40.7271 107.7273 0.0000 1.7382 0.0000
# 4 0.0000 0.0000 0.0000 48.2513 0.0000 25.2317
# 5 14.4828 22.1028 1.7382 0.0000 38.7511 0.0000
# 6 0.0000 0.0000 0.0000 25.2317 0.0000 1.0976
#
#
#
# Elastic Compliance Matrix: (Units=1/GPa)
#
#
# Indices 1 2 3 4 5 6 
#
# 1 0.025876 -0.004470 -0.007914 0.000000 -0.006766 0.000000
# 2 -0.004470 0.013126 -0.003193 0.000000 -0.005673 0.000000
# 3 -0.007914 -0.003193 0.013393 0.000000 0.004178 0.000000
# 4 0.000000 0.000000 0.000000 -0.001881 0.000000 0.043229
# 5 -0.006766 -0.005673 0.004178 0.000000 0.031383 0.000000
# 6 0.000000 0.000000 0.000000 0.043229 0.000000 -0.082668
#
#
# Mechanical properties :
#
#
# Convention : Reuss Voigt Hill
#
# Bulk Modulus (GPa) = 47.07806 57.03521 52.05664
# Shear Modulus (GPa) = 133.46304 28.22219 80.84262
#
# Velocity S-wave (km/s) = 7.86652 3.61741 6.12241
# Velocity P-wave (km/s) = 10.21460 6.62516 8.60903
#
# Compressibility (1/GPa) = 0.02124132
#
# Stress axis : x y z
#
# Youngs Moduli (GPa) = 38.64594 76.18396 74.66615
#
# Poissons Ratio (x) = 0.34055 0.59089
# Poissons Ratio (y) = 0.17275 0.23841
# Poissons Ratio (z) = 0.30583 0.24325
#
# Static dielectric constant tensor:
#      x y z
#    x 3.832160 0.000000 0.157680 
#    y 0.000000 4.016700 0.000000 
#    z 0.157680 0.000000 3.973680 
# 
# 
# High freq. dielectric constant tensor:
#      x y z
#    x 1.841140 0.000000 0.011890 
#    y 0.000000 1.862930 0.000000 
#    z 0.011890 0.000000 1.855370 
# 
# From -- ./inp_files/14746.got.cif
#   From: 2010.06.25/outbox.cif.g09.slc.cpg/sg13_8_cif.got.tgz:14746.got - 2010.06.28 04:50:58.
