data_PCOD8121828
_publ_section_title
;
Structure prediction by ZEFSAII (Michael W. Deem and Ramdas Pophale) SiO2 
 PCOD8121828
Probable space group: P 2/C
;
_chemical_formula_sum "Si O2"
_cell_formula_units_Z 28
_cell_length_a 8.893764
_cell_length_b 19.008098
_cell_length_c 14.609246
_cell_angle_alpha 90.000000
_cell_angle_beta 148.939798
_cell_angle_gamma 90.000000
_cell_volume 1274.236228
_symmetry_space_group_name_H-M "P 2/C"
_symmetry_group_IT_number 13
_symmetry_cell_setting 'monoclinic'
loop_
_space_group_symop_operation_xyz
x,y,z
-x,y,1/2-z
-x,-y,-z
x,-y,1/2+z
loop_
_atom_site_type_symbol
_atom_site_label
_atom_site_fract_x
_atom_site_fract_y
_atom_site_fract_z
Si Si1 0.338053 0.563661 0.022756
Si Si2 0.851423 0.848590 0.260536
Si Si3 0.226113 0.031553 0.048950
Si Si4 0.065335 0.776674 0.015081
Si Si5 0.500000 0.693620 0.750000
Si Si6 0.330636 0.419810 0.309622
Si Si7 0.500000 0.338290 0.750000
Si Si8 0.772675 0.891291 0.551242
O O1 0.457045 0.485260 0.096550
O O2 0.565383 0.611474 0.197988
O O3 0.343955 0.595723 0.924396
O O4 0.008182 0.565120 0.892544
O O5 0.783657 0.800591 0.312275
O O6 0.000000 0.810971 0.250000
O O7 0.072438 0.910537 0.405573
O O8 0.526990 0.867244 0.058774
O O9 0.500000 0.062835 0.250000
O O10 0.326243 0.966001 0.040607
O O11 0.000000 0.000000 0.000000
O O12 0.084163 0.838295 0.949138
O O13 0.750602 0.751457 0.880537
O O14 0.234392 0.707325 0.072501
O O15 0.533709 0.644972 0.677294
O O16 0.000000 0.902106 0.750000
#
# Coordination Sequence:
#
# PCOD8121828 Si02
#       8
#     4   4   4   4   2   4   2   4
#     4  10  23  42  70  96 134 175 218 280 336 392
#     4  12  28  46  71 104 136 176 236 282 342 410
#     4  12  24  45  77 100 138 179 225 289 342 397
#     4  12  27  47  66  96 140 181 226 280 337 404
#     4  12  27  42  70 101 132 178 234 272 334 407
#     4  10  23  44  66 101 133 171 226 276 333 399
#     4  12  23  44  70  91 132 188 218 272 342 397
#     4  12  27  48  71  99 137 185 227 281 347 407
#
# _framework density 21.973949000000001
#
# number of rings (size 3 to 8) (size 9 to 14) (size 15 to 20)
#    0.000    0.571    5.714    0.857    7.000    4.571 
#    0.000    0.000    0.000    0.000    0.000    0.000 
#    0.000    0.000    0.000    0.000    0.000    0.000 
#
# Total GULP energy -346947.169469 kJ/mol
# GULP energy per Si atom -12390.970338 kJ/mol
# Density = 2.192394 g / cm^3
# Si number density = 21.973949 Si / 1000 Ang^3
#
#
#
# Elastic Constant Matrix: (Units=GPa)
#
#
# Indices 1 2 3 4 5 6 
#
# 1 89.5095 17.4248 20.6158 0.0000 2.8440 0.0000
# 2 17.4248 72.6889 25.8667 0.0000 -4.9730 0.0000
# 3 20.6158 25.8667 110.8678 0.0000 6.8380 0.0000
# 4 0.0000 0.0000 0.0000 21.2873 0.0000 4.1948
# 5 2.8440 -4.9730 6.8380 0.0000 40.5463 0.0000
# 6 0.0000 0.0000 0.0000 4.1948 0.0000 13.8487
#
#
#
# Elastic Compliance Matrix: (Units=1/GPa)
#
#
# Indices 1 2 3 4 5 6 
#
# 1 0.012035 -0.002362 -0.001634 0.000000 -0.000858 0.000000
# 2 -0.002362 0.015713 -0.003391 0.000000 0.002665 0.000000
# 3 -0.001634 -0.003391 0.010240 0.000000 -0.002028 0.000000
# 4 0.000000 0.000000 0.000000 0.049958 0.000000 -0.015133
# 5 -0.000858 0.002665 -0.002028 0.000000 0.025392 0.000000
# 6 0.000000 0.000000 0.000000 -0.015133 0.000000 0.076793
#
#
# Mechanical properties :
#
#
# Convention : Reuss Voigt Hill
#
# Bulk Modulus (GPa) = 43.07869 44.54231 43.81050
# Shear Modulus (GPa) = 23.51353 29.08038 26.29695
#
# Velocity S-wave (km/s) = 3.27473 3.64181 3.46314
# Velocity P-wave (km/s) = 5.82628 6.16427 5.99765
#
# Compressibility (1/GPa) = 0.02321333
#
# Stress axis : x y z
#
# Youngs Moduli (GPa) = 83.08770 63.64331 97.65805
#
# Poissons Ratio (x) = 0.15035 0.15956
# Poissons Ratio (y) = 0.19629 0.33116
# Poissons Ratio (z) = 0.13575 0.21581
#
# Static dielectric constant tensor:
#      x y z
#    x 4.060530 0.000000 0.206670 
#    y 0.000000 3.690860 0.000000 
#    z 0.206670 0.000000 3.836970 
# 
# 
# High freq. dielectric constant tensor:
#      x y z
#    x 1.873680 0.000000 0.005330 
#    y 0.000000 1.862360 0.000000 
#    z 0.005330 0.000000 1.875840 
# 
# From -- ./inp_files/48273.got.cif
#   From: 2010.06.25/outbox.cif.g09.slc.cpg/sg13_25_cif.got.tgz:48273.got - 2010.06.28 04:50:58.
