data_PCOD8121154
_publ_section_title
;
Structure prediction by ZEFSAII (Michael W. Deem and Ramdas Pophale) SiO2 
 PCOD8121154
Probable space group: P 2/C
;
_chemical_formula_sum "Si O2"
_cell_formula_units_Z 20
_cell_length_a 16.280018
_cell_length_b 5.133613
_cell_length_c 25.003063
_cell_angle_alpha 90.000000
_cell_angle_beta 152.347582
_cell_angle_gamma 90.000000
_cell_volume 969.815154
_symmetry_space_group_name_H-M "P 2/C"
_symmetry_group_IT_number 13
_symmetry_cell_setting 'monoclinic'
loop_
_space_group_symop_operation_xyz
x,y,z
-x,y,1/2-z
-x,-y,-z
x,-y,1/2+z
loop_
_atom_site_type_symbol
_atom_site_label
_atom_site_fract_x
_atom_site_fract_y
_atom_site_fract_z
Si Si1 0.485514 0.488126 0.428720
Si Si2 0.906869 0.970308 0.032196
Si Si3 0.147091 0.467982 0.168503
Si Si4 0.349206 0.176225 0.202482
Si Si5 0.404444 0.012167 0.567409
O O1 0.500000 0.500000 0.500000
O O2 0.279355 0.512227 0.294247
O O3 0.568837 0.215454 0.459674
O O4 0.597458 0.715206 0.464608
O O5 0.013559 0.704257 0.087623
O O6 0.791164 0.998076 0.911304
O O7 0.782761 0.963961 0.012399
O O8 0.039739 0.204805 0.116194
O O9 0.258846 0.427708 0.178115
O O10 0.500000 0.290450 0.250000
O O11 0.435114 0.989296 0.297020
#
# Coordination Sequence:
#
# PCOD8121154 Si02
#       5
#     4   4   4   4   4
#     4  11  23  43  63  82 113 158 202 246 293 349
#     4  11  22  38  60  91 125 152 188 246 296 348
#     4  11  22  38  59  89 118 154 201 245 290 346
#     4   9  20  37  60  88 125 164 194 232 293 361
#     4  10  22  40  61  88 118 156 198 235 292 362
#
# _framework density 20.622485999999999
#
# number of rings (size 3 to 8) (size 9 to 14) (size 15 to 20)
#    0.000    1.600    0.000    5.400    0.000    3.200 
#    0.000   22.000    0.000    0.000    0.000    0.000 
#    0.000    0.000    0.000    0.000    0.000    0.000 
#
# Total GULP energy -248059.742774 kJ/mol
# GULP energy per Si atom -12402.987139 kJ/mol
# Density = 2.057555 g / cm^3
# Si number density = 20.622486 Si / 1000 Ang^3
#
#
#
# Elastic Constant Matrix: (Units=GPa)
#
#
# Indices 1 2 3 4 5 6 
#
# 1 120.2962 20.8451 70.0241 0.0000 -10.8291 0.0000
# 2 20.8451 88.7336 29.1012 0.0000 3.5011 0.0000
# 3 70.0241 29.1012 90.6866 0.0000 -0.6458 0.0000
# 4 0.0000 0.0000 0.0000 29.6875 0.0000 10.1796
# 5 -10.8291 3.5011 -0.6458 0.0000 39.0343 0.0000
# 6 0.0000 0.0000 0.0000 10.1796 0.0000 32.6820
#
#
#
# Elastic Compliance Matrix: (Units=1/GPa)
#
#
# Indices 1 2 3 4 5 6 
#
# 1 0.015751 0.000128 -0.012174 0.000000 0.004157 0.000000
# 2 0.000128 0.012652 -0.004168 0.000000 -0.001168 0.000000
# 3 -0.012174 -0.004168 0.021746 0.000000 -0.002644 0.000000
# 4 0.000000 0.000000 0.000000 0.037712 0.000000 -0.011746
# 5 0.004157 -0.001168 -0.002644 0.000000 0.026833 0.000000
# 6 0.000000 0.000000 0.000000 -0.011746 0.000000 0.034257
#
#
# Mechanical properties :
#
#
# Convention : Reuss Voigt Hill
#
# Bulk Modulus (GPa) = 56.42389 59.96189 58.19289
# Shear Modulus (GPa) = 26.69733 32.26383 29.48058
#
# Velocity S-wave (km/s) = 3.60192 3.95966 3.78502
# Velocity P-wave (km/s) = 6.68717 7.07420 6.88341
#
# Compressibility (1/GPa) = 0.01772299
#
# Stress axis : x y z
#
# Youngs Moduli (GPa) = 63.48720 79.03623 45.98609
#
# Poissons Ratio (x) = -0.01014 0.55983
# Poissons Ratio (y) = -0.00815 0.19165
# Poissons Ratio (z) = 0.77289 0.32939
#
# Static dielectric constant tensor:
#      x y z
#    x 3.852200 0.000000 0.195130 
#    y 0.000000 3.476160 0.000000 
#    z 0.195130 0.000000 3.950150 
# 
# 
# High freq. dielectric constant tensor:
#      x y z
#    x 1.811740 0.000000 0.014020 
#    y 0.000000 1.809780 0.000000 
#    z 0.014020 0.000000 1.806670 
# 
# From -- ./inp_files/58087.got.cif
#   From: 2010.06.25/outbox.cif.g09.slc.cpg/sg13_30_cif.got.tgz:58087.got - 2010.06.28 04:50:58.
