data_PCOD8121602
_publ_section_title
;
Structure prediction by ZEFSAII (Michael W. Deem and Ramdas Pophale) SiO2 
 PCOD8121602
Probable space group: P 2/C
;
_chemical_formula_sum "Si O2"
_cell_formula_units_Z 18
_cell_length_a 7.431011
_cell_length_b 7.566858
_cell_length_c 19.127005
_cell_angle_alpha 90.000000
_cell_angle_beta 50.495731
_cell_angle_gamma 90.000000
_cell_volume 829.831352
_symmetry_space_group_name_H-M "P 2/C"
_symmetry_group_IT_number 13
_symmetry_cell_setting 'monoclinic'
loop_
_space_group_symop_operation_xyz
x,y,z
-x,y,1/2-z
-x,-y,-z
x,-y,1/2+z
loop_
_atom_site_type_symbol
_atom_site_label
_atom_site_fract_x
_atom_site_fract_y
_atom_site_fract_z
Si Si1 0.000000 0.784415 0.750000
Si Si2 0.233740 0.048794 0.062593
Si Si3 0.298292 0.390917 0.958621
Si Si4 0.314370 0.512398 0.233760
Si Si5 0.029049 0.681054 0.086771
O O1 0.132627 0.911075 0.663514
O O2 0.196655 0.672186 0.741628
O O3 0.216264 0.216137 0.017491
O O4 0.089842 0.886512 0.064523
O O5 0.500000 0.000000 0.000000
O O6 0.564556 0.398865 0.864676
O O7 0.141140 0.396099 0.929201
O O8 0.261126 0.559730 0.019614
O O9 0.500000 0.475244 0.250000
O O10 0.105780 0.645187 0.307144
#
# Coordination Sequence:
#
# PCOD8121602 Si02
#       5
#     2   4   4   4   4
#     4  12  26  44  68 100 140 174 220 278 326 396
#     4  12  27  41  64 104 132 175 219 270 335 395
#     4  10  22  45  70  96 128 178 218 273 331 388
#     4  10  23  44  71  98 130 180 222 272 335 390
#     4  10  22  44  70  94 134 169 224 273 326 393
#
# _framework density 21.691153
#
# number of rings (size 3 to 8) (size 9 to 14) (size 15 to 20)
#    0.000    1.333    2.222    2.000    6.222    1.778 
#    4.000    0.000    0.000    0.000    0.000    0.000 
#    0.000    0.000    0.000    0.000    0.000    0.000 
#
# Total GULP energy -223146.839157 kJ/mol
# GULP energy per Si atom -12397.046620 kJ/mol
# Density = 2.164178 g / cm^3
# Si number density = 21.691153 Si / 1000 Ang^3
#
#
#
# Elastic Constant Matrix: (Units=GPa)
#
#
# Indices 1 2 3 4 5 6 
#
# 1 32.7064 14.1258 27.4572 0.0000 -10.9271 0.0000
# 2 14.1258 149.9701 78.5493 0.0000 -2.8495 0.0000
# 3 27.4572 78.5493 216.2996 0.0000 -20.3172 0.0000
# 4 0.0000 0.0000 0.0000 46.5385 0.0000 -4.4565
# 5 -10.9271 -2.8495 -20.3172 0.0000 25.1070 0.0000
# 6 0.0000 0.0000 0.0000 -4.4565 0.0000 25.5845
#
#
#
# Elastic Compliance Matrix: (Units=1/GPa)
#
#
# Indices 1 2 3 4 5 6 
#
# 1 0.038551 -0.001850 -0.002885 0.000000 0.014234 0.000000
# 2 -0.001850 0.008383 -0.003026 0.000000 -0.002302 0.000000
# 3 -0.002885 -0.003026 0.006427 0.000000 0.003602 0.000000
# 4 0.000000 0.000000 0.000000 0.021852 0.000000 0.003806
# 5 0.014234 -0.002302 0.003602 0.000000 0.048677 0.000000
# 6 0.000000 0.000000 0.000000 0.003806 0.000000 0.039749
#
#
# Mechanical properties :
#
#
# Convention : Reuss Voigt Hill
#
# Bulk Modulus (GPa) = 26.42699 71.02674 48.72687
# Shear Modulus (GPa) = 26.07231 38.03559 32.05395
#
# Velocity S-wave (km/s) = 3.47072 4.19203 3.84831
# Velocity P-wave (km/s) = 5.31704 7.49977 6.50067
#
# Compressibility (1/GPa) = 0.03784010
#
# Stress axis : x y z
#
# Youngs Moduli (GPa) = 25.93947 119.28454 155.60373
#
# Poissons Ratio (x) = 0.22063 0.44892
# Poissons Ratio (y) = 0.04798 0.47083
# Poissons Ratio (z) = 0.07484 0.36094
#
# Static dielectric constant tensor:
#      x y z
#    x 3.588730 0.000000 -0.297340 
#    y 0.000000 3.857700 0.000000 
#    z -0.297340 0.000000 4.608620 
# 
# 
# High freq. dielectric constant tensor:
#      x y z
#    x 1.845580 0.000000 -0.006480 
#    y 0.000000 1.844760 0.000000 
#    z -0.006480 0.000000 1.884090 
# 
# From -- ./inp_files/51995.got.cif
#   From: 2010.06.25/outbox.cif.g09.slc.cpg/sg13_26_cif.got.tgz:51995.got - 2010.06.28 04:50:58.
