data_PCOD8121514
_publ_section_title
;
Structure prediction by ZEFSAII (Michael W. Deem and Ramdas Pophale) SiO2 
 PCOD8121514
Probable space group: P 2/C
;
_chemical_formula_sum "Si O2"
_cell_formula_units_Z 16
_cell_length_a 7.679899
_cell_length_b 9.144992
_cell_length_c 9.931041
_cell_angle_alpha 90.000000
_cell_angle_beta 79.763871
_cell_angle_gamma 90.000000
_cell_volume 686.381663
_symmetry_space_group_name_H-M "P 2/C"
_symmetry_group_IT_number 13
_symmetry_cell_setting 'monoclinic'
loop_
_space_group_symop_operation_xyz
x,y,z
-x,y,1/2-z
-x,-y,-z
x,-y,1/2+z
loop_
_atom_site_type_symbol
_atom_site_label
_atom_site_fract_x
_atom_site_fract_y
_atom_site_fract_z
Si Si1 0.614390 0.559917 0.603265
Si Si2 0.197316 0.846681 0.973092
Si Si3 0.299705 0.063456 0.745480
Si Si4 0.108329 0.666016 0.365161
O O1 0.500000 0.532250 0.750000
O O2 0.500000 0.500000 0.500000
O O3 0.646845 0.731279 0.577194
O O4 0.803676 0.475381 0.578016
O O5 0.174478 0.953039 0.847634
O O6 0.250607 0.947007 0.094380
O O7 0.014767 0.758483 0.016984
O O8 0.500000 0.019184 0.750000
O O9 0.267359 0.229664 0.795158
O O10 0.000000 0.611767 0.250000
#
# Coordination Sequence:
#
# PCOD8121514 Si02
#       4
#     4   4   4   4
#     4  12  25  45  70 100 133 176 226 280 339 402
#     4  11  24  41  65  97 133 176 221 274 335 397
#     4  11  22  41  64  94 133 176 223 275 329 395
#     4  10  22  43  67  97 134 174 222 283 340 396
#
# _framework density 23.310645999999998
#
# number of rings (size 3 to 8) (size 9 to 14) (size 15 to 20)
#    0.000    1.000    0.000    8.250    0.000    2.000 
#    0.000    6.250    0.000    0.000    0.000    0.000 
#    0.000    0.000    0.000    0.000    0.000    0.000 
#
# Total GULP energy -198473.748621 kJ/mol
# GULP energy per Si atom -12404.609289 kJ/mol
# Density = 2.325759 g / cm^3
# Si number density = 23.310646 Si / 1000 Ang^3
#
#
#
# Elastic Constant Matrix: (Units=GPa)
#
#
# Indices 1 2 3 4 5 6 
#
# 1 109.1433 30.6542 57.7194 0.0000 7.5056 0.0000
# 2 30.6542 109.7637 71.5266 0.0000 22.2925 0.0000
# 3 57.7194 71.5266 159.6248 0.0000 6.6552 0.0000
# 4 0.0000 0.0000 0.0000 37.9539 0.0000 1.1097
# 5 7.5056 22.2925 6.6552 0.0000 27.4858 0.0000
# 6 0.0000 0.0000 0.0000 1.1097 0.0000 28.1923
#
#
#
# Elastic Compliance Matrix: (Units=1/GPa)
#
#
# Indices 1 2 3 4 5 6 
#
# 1 0.011455 -0.000210 -0.003965 0.000000 -0.001998 0.000000
# 2 -0.000210 0.015627 -0.006466 0.000000 -0.011051 0.000000
# 3 -0.003965 -0.006466 0.010437 0.000000 0.003800 0.000000
# 4 0.000000 0.000000 0.000000 0.026378 0.000000 -0.001038
# 5 -0.001998 -0.011051 0.003800 0.000000 0.044971 0.000000
# 6 0.000000 0.000000 0.000000 -0.001038 0.000000 0.035511
#
#
# Mechanical properties :
#
#
# Convention : Reuss Voigt Hill
#
# Bulk Modulus (GPa) = 61.58090 77.59248 69.58669
# Shear Modulus (GPa) = 29.22716 33.30186 31.26451
#
# Velocity S-wave (km/s) = 3.54476 3.78380 3.66623
# Velocity P-wave (km/s) = 6.57485 7.24210 6.91653
#
# Compressibility (1/GPa) = 0.01623880
#
# Stress axis : x y z
#
# Youngs Moduli (GPa) = 87.29528 63.99256 95.81129
#
# Poissons Ratio (x) = 0.01342 0.37988
# Poissons Ratio (y) = 0.01831 0.61948
# Poissons Ratio (z) = 0.34612 0.41375
#
# Static dielectric constant tensor:
#      x y z
#    x 4.152320 0.000000 -0.161080 
#    y 0.000000 4.314810 0.000000 
#    z -0.161080 0.000000 4.167770 
# 
# 
# High freq. dielectric constant tensor:
#      x y z
#    x 1.926140 0.000000 -0.013790 
#    y 0.000000 1.926090 0.000000 
#    z -0.013790 0.000000 1.923740 
# 
# From -- ./inp_files/10858.got.cif
#   From: 2010.06.25/outbox.cif.g09.slc.cpg/sg13_6_cif.got.tgz:10858.got - 2010.06.28 04:50:58.
