data_PCOD8121089
_publ_section_title
;
Structure prediction by ZEFSAII (Michael W. Deem and Ramdas Pophale) SiO2 
 PCOD8121089
Probable space group: P 2/C
;
_chemical_formula_sum "Si O2"
_cell_formula_units_Z 30
_cell_length_a 19.353369
_cell_length_b 6.784843
_cell_length_c 21.833499
_cell_angle_alpha 90.000000
_cell_angle_beta 30.356608
_cell_angle_gamma 90.000000
_cell_volume 1448.899033
_symmetry_space_group_name_H-M "P 2/C"
_symmetry_group_IT_number 13
_symmetry_cell_setting 'monoclinic'
loop_
_space_group_symop_operation_xyz
x,y,z
-x,y,1/2-z
-x,-y,-z
x,-y,1/2+z
loop_
_atom_site_type_symbol
_atom_site_label
_atom_site_fract_x
_atom_site_fract_y
_atom_site_fract_z
Si Si1 0.910711 0.060195 0.229438
Si Si2 0.384809 0.279653 0.725689
Si Si3 0.181906 0.806198 0.486836
Si Si4 0.187551 0.394709 0.104165
Si Si5 0.415261 0.963710 0.870078
Si Si6 0.000000 0.747601 0.250000
Si Si7 0.366447 0.870711 0.107320
Si Si8 0.434226 0.609362 0.947684
O O1 0.886050 0.227515 0.299667
O O2 0.023202 0.134215 0.093155
O O3 0.995986 0.882261 0.193272
O O4 0.766410 0.991432 0.312939
O O5 0.337009 0.177305 0.700011
O O6 0.419812 0.510169 0.682085
O O7 0.507939 0.158376 0.663465
O O8 0.254317 0.274217 0.870526
O O9 0.172342 0.632513 0.543427
O O10 0.266927 0.977809 0.457354
O O11 0.131693 0.612593 0.157870
O O12 0.343963 0.414611 0.004399
O O13 0.500000 0.866305 0.750000
O O14 0.399326 0.801986 0.934747
O O15 0.405351 0.672896 0.039766
O O16 0.500000 0.000000 0.000000
#
# Coordination Sequence:
#
# PCOD8121089 Si02
#       8
#     4   4   4   4   4   2   4   4
#     4  12  24  42  67  97 132 171 214 275 330 387
#     4  11  25  42  63  96 134 176 216 263 324 389
#     4  11  22  43  64  97 143 160 209 283 326 394
#     4  12  22  37  69 101 125 163 217 269 327 385
#     4  10  22  39  63 101 128 163 211 265 330 379
#     4  12  20  40  64 102 126 160 214 262 344 380
#     4  12  25  45  67  91 130 177 230 267 317 392
#     4  12  23  40  70  93 128 175 218 271 320 386
#
# _framework density 20.705376999999999
#
# number of rings (size 3 to 8) (size 9 to 14) (size 15 to 20)
#    0.000    0.533    6.667    2.800    1.867    0.533 
#    0.000    0.000    0.000    4.000    0.000    0.000 
#    0.000    0.000    0.000    0.000    0.000    0.000 
#
# Total GULP energy -371681.099356 kJ/mol
# GULP energy per Si atom -12389.369979 kJ/mol
# Density = 2.065825 g / cm^3
# Si number density = 20.705377 Si / 1000 Ang^3
#
#
#
# Elastic Constant Matrix: (Units=GPa)
#
#
# Indices 1 2 3 4 5 6 
#
# 1 89.6098 22.7131 59.9613 0.0000 5.5975 0.0000
# 2 22.7131 85.2104 53.2436 0.0000 1.7199 0.0000
# 3 59.9613 53.2436 160.1938 0.0000 8.3385 0.0000
# 4 0.0000 0.0000 0.0000 33.9249 0.0000 -4.2341
# 5 5.5975 1.7199 8.3385 0.0000 40.8318 0.0000
# 6 0.0000 0.0000 0.0000 -4.2341 0.0000 23.3561
#
#
#
# Elastic Compliance Matrix: (Units=1/GPa)
#
#
# Indices 1 2 3 4 5 6 
#
# 1 0.014949 -0.000631 -0.005337 0.000000 -0.000933 0.000000
# 2 -0.000631 0.014844 -0.004720 0.000000 0.000425 0.000000
# 3 -0.005337 -0.004720 0.009865 0.000000 -0.001084 0.000000
# 4 0.000000 0.000000 0.000000 0.030159 0.000000 0.005467
# 5 -0.000933 0.000425 -0.001084 0.000000 0.024822 0.000000
# 6 0.000000 0.000000 0.000000 0.005467 0.000000 0.043807
#
#
# Mechanical properties :
#
#
# Convention : Reuss Voigt Hill
#
# Bulk Modulus (GPa) = 54.69604 67.42777 61.06191
# Shear Modulus (GPa) = 30.13557 32.89563 31.51560
#
# Velocity S-wave (km/s) = 3.81917 3.99023 3.90564
# Velocity P-wave (km/s) = 6.77656 7.33930 7.06354
#
# Compressibility (1/GPa) = 0.01828286
#
# Stress axis : x y z
#
# Youngs Moduli (GPa) = 66.89399 67.36544 101.36496
#
# Poissons Ratio (x) = 0.04250 0.54101
# Poissons Ratio (y) = 0.04221 0.47842
# Poissons Ratio (z) = 0.35703 0.31795
#
# Static dielectric constant tensor:
#      x y z
#    x 3.608720 0.000000 -0.036470 
#    y 0.000000 2.385460 0.000000 
#    z -0.036470 0.000000 4.093330 
# 
# 
# High freq. dielectric constant tensor:
#      x y z
#    x 1.791770 0.000000 -0.004230 
#    y 0.000000 1.812460 0.000000 
#    z -0.004230 0.000000 1.824710 
# 
# From -- ./inp_files/85867.got.cif
#   From: 2010.06.25/outbox.cif.g09.slc.cpg/sg13_43_cif.got.tgz:85867.got - 2010.06.28 04:50:58.
