data_PCOD8121950
_publ_section_title
;
Structure prediction by ZEFSAII (Michael W. Deem and Ramdas Pophale) SiO2 
 PCOD8121950
Probable space group: P 2/C
;
_chemical_formula_sum "Si O2"
_cell_formula_units_Z 24
_cell_length_a 9.937358
_cell_length_b 13.438839
_cell_length_c 20.239530
_cell_angle_alpha 90.000000
_cell_angle_beta 154.749502
_cell_angle_gamma 90.000000
_cell_volume 1153.002210
_symmetry_space_group_name_H-M "P 2/C"
_symmetry_group_IT_number 13
_symmetry_cell_setting 'monoclinic'
loop_
_space_group_symop_operation_xyz
x,y,z
-x,y,1/2-z
-x,-y,-z
x,-y,1/2+z
loop_
_atom_site_type_symbol
_atom_site_label
_atom_site_fract_x
_atom_site_fract_y
_atom_site_fract_z
Si Si1 0.487416 0.131739 0.943977
Si Si2 0.292225 0.410012 0.288042
Si Si3 0.747231 0.276335 0.547557
Si Si4 0.402879 0.248699 0.776296
Si Si5 0.000000 0.554512 0.250000
Si Si6 0.000000 0.028664 0.250000
Si Si7 0.782089 0.551418 0.456645
O O1 0.303528 0.193611 0.919080
O O2 0.548942 0.193701 0.904817
O O3 0.266253 0.036627 0.830845
O O4 0.831508 0.097631 0.120756
O O5 0.410630 0.299049 0.362454
O O6 0.265377 0.482031 0.339220
O O7 0.575732 0.454202 0.373211
O O8 0.970454 0.406205 0.103661
O O9 0.857026 0.379193 0.628662
O O10 0.022092 0.246958 0.617322
O O11 0.500000 0.194170 0.750000
O O12 0.551601 0.358623 0.834051
O O13 0.000000 0.500000 0.500000
#
# Coordination Sequence:
#
# PCOD8121950 Si02
#       7
#     4   4   4   4   2   2   4
#     4  11  23  45  74 101 127 166 207 282 344 407
#     4  12  24  35  57  87 121 171 225 276 311 359
#     4  12  22  40  63  92 128 169 222 271 328 385
#     4  12  24  42  63  93 135 178 217 264 327 388
#     4  12  21  37  56  84 126 164 220 279 311 362
#     4  10  23  45  80 102 126 152 220 271 363 414
#     4  12  24  40  58  85 130 182 227 261 312 375
#
# _framework density 20.815225999999999
#
# number of rings (size 3 to 8) (size 9 to 14) (size 15 to 20)
#    0.000    0.333    6.667    3.000    4.667    0.000 
#    0.000    0.833    0.000    0.000    0.000    0.000 
#    0.000    0.000    0.000    0.000    0.000    0.000 
#
# Total GULP energy -297391.140772 kJ/mol
# GULP energy per Si atom -12391.297532 kJ/mol
# Density = 2.076785 g / cm^3
# Si number density = 20.815226 Si / 1000 Ang^3
#
#
#
# Elastic Constant Matrix: (Units=GPa)
#
#
# Indices 1 2 3 4 5 6 
#
# 1 135.7471 37.5876 18.3038 0.0000 2.7564 0.0000
# 2 37.5876 73.4870 30.5587 0.0000 -0.0644 0.0000
# 3 18.3038 30.5587 102.5817 0.0000 -2.5120 0.0000
# 4 0.0000 0.0000 0.0000 48.0832 0.0000 1.5573
# 5 2.7564 -0.0644 -2.5120 0.0000 27.2764 0.0000
# 6 0.0000 0.0000 0.0000 1.5573 0.0000 19.8527
#
#
#
# Elastic Compliance Matrix: (Units=1/GPa)
#
#
# Indices 1 2 3 4 5 6 
#
# 1 0.008610 -0.004288 -0.000281 0.000000 -0.000906 0.000000
# 2 -0.004288 0.017671 -0.004498 0.000000 0.000061 0.000000
# 3 -0.000281 -0.004498 0.011164 0.000000 0.001046 0.000000
# 4 0.000000 0.000000 0.000000 0.020850 0.000000 -0.001636
# 5 -0.000906 0.000061 0.001046 0.000000 0.036850 0.000000
# 6 0.000000 0.000000 0.000000 -0.001636 0.000000 0.050499
#
#
# Mechanical properties :
#
#
# Convention : Reuss Voigt Hill
#
# Bulk Modulus (GPa) = 51.78093 53.85733 52.81913
# Shear Modulus (GPa) = 29.37451 34.06687 31.72069
#
# Velocity S-wave (km/s) = 3.76067 4.04992 3.90797
# Velocity P-wave (km/s) = 6.61720 6.91370 6.76708
#
# Compressibility (1/GPa) = 0.01931213
#
# Stress axis : x y z
#
# Youngs Moduli (GPa) = 116.14078 56.58867 89.57408
#
# Poissons Ratio (x) = 0.24265 0.02519
# Poissons Ratio (y) = 0.49800 0.40287
# Poissons Ratio (z) = 0.03266 0.25452
#
# Static dielectric constant tensor:
#      x y z
#    x 5.504460 0.000000 -0.888570 
#    y 0.000000 3.689930 0.000000 
#    z -0.888570 0.000000 4.497110 
# 
# 
# High freq. dielectric constant tensor:
#      x y z
#    x 1.812370 0.000000 0.008690 
#    y 0.000000 1.791900 0.000000 
#    z 0.008690 0.000000 1.828440 
# 
# From -- ./inp_files/19784.got.cif
#   From: 2010.06.25/outbox.cif.g09.slc.cpg/sg13_10_cif.got.tgz:19784.got - 2010.06.28 04:50:58.
