data_PCOD8121944
_publ_section_title
;
Structure prediction by ZEFSAII (Michael W. Deem and Ramdas Pophale) SiO2 
 PCOD8121944
Probable space group: P 2/C
;
_chemical_formula_sum "Si O2"
_cell_formula_units_Z 28
_cell_length_a 17.360496
_cell_length_b 5.388369
_cell_length_c 14.242519
_cell_angle_alpha 90.000000
_cell_angle_beta 60.795161
_cell_angle_gamma 90.000000
_cell_volume 1162.950532
_symmetry_space_group_name_H-M "P 2/C"
_symmetry_group_IT_number 13
_symmetry_cell_setting 'monoclinic'
loop_
_space_group_symop_operation_xyz
x,y,z
-x,y,1/2-z
-x,-y,-z
x,-y,1/2+z
loop_
_atom_site_type_symbol
_atom_site_label
_atom_site_fract_x
_atom_site_fract_y
_atom_site_fract_z
Si Si1 0.215049 0.861844 0.430669
Si Si2 0.469944 0.251797 0.570393
Si Si3 0.157561 0.723019 0.656541
Si Si4 0.885126 0.899656 0.189549
Si Si5 0.000000 0.603445 0.250000
Si Si6 0.682791 0.658091 0.615032
Si Si7 0.715536 0.679546 0.383370
Si Si8 0.500000 0.565134 0.250000
O O1 0.179360 0.909869 0.557301
O O2 0.130610 0.858504 0.410899
O O3 0.261567 0.592300 0.397210
O O4 0.276044 0.094442 0.361113
O O5 0.500000 0.500000 0.500000
O O6 0.363881 0.269874 0.641619
O O7 0.509702 0.258515 0.652390
O O8 0.500000 0.000000 0.500000
O O9 0.086320 0.531102 0.657267
O O10 0.249251 0.603487 0.638216
O O11 0.103991 0.819396 0.780507
O O12 0.970534 0.755755 0.174992
O O13 0.796125 0.848717 0.303333
O O14 0.678633 0.733036 0.508613
O O15 0.584208 0.615203 0.711361
#
# Coordination Sequence:
#
# PCOD8121944 Si02
#       8
#     4   4   4   4   2   4   4   2
#     4  11  26  44  74 104 142 193 241 293 361 448
#     4  12  29  46  71 108 149 198 252 315 374 441
#     4  10  23  45  73 101 147 186 237 303 359 444
#     4  11  23  43  74 101 142 189 238 297 364 439
#     4  10  24  44  68 110 140 188 238 296 372 436
#     4  11  25  46  69 105 142 188 253 296 368 432
#     4  10  23  46  70  96 144 190 242 297 369 426
#     4  12  28  46  76 106 156 198 256 328 368 438
#
# _framework density 24.076692999999999
#
# number of rings (size 3 to 8) (size 9 to 14) (size 15 to 20)
#    0.000    1.143    2.857    1.286   10.000    2.857 
#    0.000    2.857    0.000    0.000    0.000    0.000 
#    0.000    0.000    0.000    0.000    0.000    0.000 
#
# Total GULP energy -346943.712974 kJ/mol
# GULP energy per Si atom -12390.846892 kJ/mol
# Density = 2.402189 g / cm^3
# Si number density = 24.076693 Si / 1000 Ang^3
#
#
#
# Elastic Constant Matrix: (Units=GPa)
#
#
# Indices 1 2 3 4 5 6 
#
# 1 140.4423 47.2429 15.2558 0.0000 11.8746 0.0000
# 2 47.2429 129.1371 27.2175 0.0000 9.7419 0.0000
# 3 15.2558 27.2175 63.6459 0.0000 18.6548 0.0000
# 4 0.0000 0.0000 0.0000 26.3279 0.0000 0.1928
# 5 11.8746 9.7419 18.6548 0.0000 44.3803 0.0000
# 6 0.0000 0.0000 0.0000 0.1928 0.0000 28.5686
#
#
#
# Elastic Compliance Matrix: (Units=1/GPa)
#
#
# Indices 1 2 3 4 5 6 
#
# 1 0.008231 -0.002831 -0.000341 0.000000 -0.001438 0.000000
# 2 -0.002831 0.009490 -0.003412 0.000000 0.000108 0.000000
# 3 -0.000341 -0.003412 0.019396 0.000000 -0.007313 0.000000
# 4 0.000000 0.000000 0.000000 0.037984 0.000000 -0.000256
# 5 -0.001438 0.000108 -0.007313 0.000000 0.025967 0.000000
# 6 0.000000 0.000000 0.000000 -0.000256 0.000000 0.035005
#
#
# Mechanical properties :
#
#
# Convention : Reuss Voigt Hill
#
# Bulk Modulus (GPa) = 41.75295 56.96197 49.35746
# Shear Modulus (GPa) = 31.80159 36.08931 33.94545
#
# Velocity S-wave (km/s) = 3.63829 3.87580 3.75892
# Velocity P-wave (km/s) = 5.91851 6.61355 6.27566
#
# Compressibility (1/GPa) = 0.02395040
#
# Stress axis : x y z
#
# Youngs Moduli (GPa) = 121.48822 105.37138 51.55708
#
# Poissons Ratio (x) = 0.29830 0.01758
# Poissons Ratio (y) = 0.34393 0.17589
# Poissons Ratio (z) = 0.04143 0.35948
#
# Static dielectric constant tensor:
#      x y z
#    x 4.536960 0.000000 0.106280 
#    y 0.000000 4.446400 0.000000 
#    z 0.106280 0.000000 4.108280 
# 
# 
# High freq. dielectric constant tensor:
#      x y z
#    x 1.965690 0.000000 0.003390 
#    y 0.000000 1.958160 0.000000 
#    z 0.003390 0.000000 1.939940 
# 
# From -- ./inp_files/54410.got.cif
#   From: 2010.06.25/outbox.cif.g09.slc.cpg/sg13_28_cif.got.tgz:54410.got - 2010.06.28 04:50:58.
