data_PCOD8121096
_publ_section_title
;
Structure prediction by ZEFSAII (Michael W. Deem and Ramdas Pophale) SiO2 
 PCOD8121096
Probable space group: P 2/C
;
_chemical_formula_sum "Si O2"
_cell_formula_units_Z 26
_cell_length_a 14.995216
_cell_length_b 8.662059
_cell_length_c 15.262276
_cell_angle_alpha 90.000000
_cell_angle_beta 38.792915
_cell_angle_gamma 90.000000
_cell_volume 1241.993711
_symmetry_space_group_name_H-M "P 2/C"
_symmetry_group_IT_number 13
_symmetry_cell_setting 'monoclinic'
loop_
_space_group_symop_operation_xyz
x,y,z
-x,y,1/2-z
-x,-y,-z
x,-y,1/2+z
loop_
_atom_site_type_symbol
_atom_site_label
_atom_site_fract_x
_atom_site_fract_y
_atom_site_fract_z
Si Si1 0.742928 0.141412 0.803152
Si Si2 0.961545 0.154231 0.979803
Si Si3 0.517666 0.302733 0.564449
Si Si4 0.256122 0.117810 0.503042
Si Si5 0.701098 0.190603 0.279977
Si Si6 0.465143 0.623811 0.869388
Si Si7 0.500000 0.102182 0.750000
O O1 0.611828 0.263315 0.904507
O O2 0.774636 0.064400 0.873843
O O3 0.884296 0.231049 0.658939
O O4 0.698184 0.995796 0.776868
O O5 0.887171 0.122450 0.943498
O O6 0.855882 0.250747 0.125576
O O7 0.000000 0.000000 0.000000
O O8 0.665230 0.249095 0.405549
O O9 0.531675 0.486331 0.562908
O O10 0.481552 0.214302 0.681002
O O11 0.314431 0.291785 0.472808
O O12 0.362788 0.003879 0.370610
O O13 0.582937 0.246822 0.301800
O O14 0.500000 0.545168 0.750000
#
# Coordination Sequence:
#
# PCOD8121096 Si02
#       7
#     4   4   4   4   4   4   2
#     4  11  23  39  64  96 125 164 212 263 314 377
#     4  10  22  39  63  93 125 163 206 259 318 373
#     4  12  24  39  62  97 128 160 216 267 316 377
#     4  12  21  39  65  91 129 163 210 258 319 376
#     4  11  21  41  65  91 128 164 209 263 321 374
#     4  12  23  39  64  94 127 167 205 266 322 378
#     4  12  22  36  64  96 120 158 212 276 308 366
#
# _framework density 20.934083000000001
#
# number of rings (size 3 to 8) (size 9 to 14) (size 15 to 20)
#    0.000    0.615    6.154    4.154    0.000    0.000 
#    0.000    0.769    0.000    0.000    0.000    0.000 
#    0.000    0.000    0.000    0.000    0.000    0.000 
#
# Total GULP energy -322205.072475 kJ/mol
# GULP energy per Si atom -12392.502787 kJ/mol
# Density = 2.088644 g / cm^3
# Si number density = 20.934083 Si / 1000 Ang^3
#
#
#
# Elastic Constant Matrix: (Units=GPa)
#
#
# Indices 1 2 3 4 5 6 
#
# 1 111.7911 45.1537 41.6819 0.0000 5.7701 0.0000
# 2 45.1537 86.8888 31.0056 0.0000 -12.8657 0.0000
# 3 41.6819 31.0056 152.3540 0.0000 -5.8264 0.0000
# 4 0.0000 0.0000 0.0000 18.6709 0.0000 9.6578
# 5 5.7701 -12.8657 -5.8264 0.0000 39.5255 0.0000
# 6 0.0000 0.0000 0.0000 9.6578 0.0000 25.2592
#
#
#
# Elastic Compliance Matrix: (Units=1/GPa)
#
#
# Indices 1 2 3 4 5 6 
#
# 1 0.012591 -0.006345 -0.002316 0.000000 -0.004245 0.000000
# 2 -0.006345 0.016167 -0.001325 0.000000 0.005993 0.000000
# 3 -0.002316 -0.001325 0.007506 0.000000 0.001013 0.000000
# 4 0.000000 0.000000 0.000000 0.066764 0.000000 -0.025527
# 5 -0.004245 0.005993 0.001013 0.000000 0.028020 0.000000
# 6 0.000000 0.000000 0.000000 -0.025527 0.000000 0.049350
#
#
# Mechanical properties :
#
#
# Convention : Reuss Voigt Hill
#
# Bulk Modulus (GPa) = 61.38249 65.19071 63.28660
# Shear Modulus (GPa) = 24.29563 32.23728 28.26646
#
# Velocity S-wave (km/s) = 3.41042 3.92847 3.67857
# Velocity P-wave (km/s) = 6.70025 7.19623 6.95266
#
# Compressibility (1/GPa) = 0.01629129
#
# Stress axis : x y z
#
# Youngs Moduli (GPa) = 79.42390 61.85581 133.23445
#
# Poissons Ratio (x) = 0.39249 0.30852
# Poissons Ratio (y) = 0.50396 0.17652
# Poissons Ratio (z) = 0.18392 0.08195
#
# Static dielectric constant tensor:
#      x y z
#    x 3.915530 0.000000 0.089550 
#    y 0.000000 3.406710 0.000000 
#    z 0.089550 0.000000 4.468680 
# 
# 
# High freq. dielectric constant tensor:
#      x y z
#    x 1.822770 0.000000 0.026540 
#    y 0.000000 1.783970 0.000000 
#    z 0.026540 0.000000 1.840900 
# 
# From -- ./inp_files/53279.got.cif
#   From: 2010.06.25/outbox.cif.g09.slc.cpg/sg13_27_cif.got.tgz:53279.got - 2010.06.28 04:50:58.
