data_PCOD8121954
_publ_section_title
;
Structure prediction by ZEFSAII (Michael W. Deem and Ramdas Pophale) SiO2 
 PCOD8121954
Probable space group: P 2/C
;
_chemical_formula_sum "Si O2"
_cell_formula_units_Z 26
_cell_length_a 9.134252
_cell_length_b 11.041687
_cell_length_c 11.116261
_cell_angle_alpha 90.000000
_cell_angle_beta 95.405585
_cell_angle_gamma 90.000000
_cell_volume 1116.172834
_symmetry_space_group_name_H-M "P 2/C"
_symmetry_group_IT_number 13
_symmetry_cell_setting 'monoclinic'
loop_
_space_group_symop_operation_xyz
x,y,z
-x,y,1/2-z
-x,-y,-z
x,-y,1/2+z
loop_
_atom_site_type_symbol
_atom_site_label
_atom_site_fract_x
_atom_site_fract_y
_atom_site_fract_z
Si Si1 0.500000 0.657854 0.750000
Si Si2 0.889996 0.165093 0.439797
Si Si3 0.061458 0.603899 0.920531
Si Si4 0.711223 0.530668 0.181765
Si Si5 0.615871 0.726045 0.000741
Si Si6 0.106648 0.917059 0.152396
Si Si7 0.309417 0.283831 0.603910
O O1 0.401710 0.578554 0.830644
O O2 0.593165 0.733564 0.853960
O O3 0.750680 0.177868 0.520875
O O4 0.936448 0.294428 0.381665
O O5 0.030209 0.116835 0.521699
O O6 0.854550 0.060731 0.338042
O O7 0.125567 0.531670 0.807983
O O8 0.201252 0.670535 0.992077
O O9 0.000000 0.500000 0.000000
O O10 0.680597 0.611183 0.295915
O O11 0.683254 0.600058 0.053939
O O12 0.469006 0.755112 0.064423
O O13 0.253750 0.836228 0.168908
O O14 0.000000 0.876320 0.250000
#
# Coordination Sequence:
#
# PCOD8121954 Si02
#       7
#     2   4   4   4   4   4   4
#     4  12  24  38  62  90 142 182 200 278 334 400
#     4  10  24  44  68  93 133 175 220 279 326 400
#     4  11  23  40  62 100 135 171 218 270 335 404
#     4  12  22  38  65  97 136 174 219 269 331 406
#     4  12  23  43  63  97 133 174 225 267 344 396
#     4  10  23  46  69  95 129 173 224 279 328 390
#     4  11  24  41  68  97 131 177 218 277 331 401
#
# _framework density 23.293883999999998
#
# number of rings (size 3 to 8) (size 9 to 14) (size 15 to 20)
#    0.000    0.923    4.615    2.308    2.154    1.846 
#    2.769    0.000    3.385    0.000    0.000    0.000 
#    0.000    0.000    0.000    0.000    0.000    0.000 
#
# Total GULP energy -322172.657646 kJ/mol
# GULP energy per Si atom -12391.256063 kJ/mol
# Density = 2.324087 g / cm^3
# Si number density = 23.293884 Si / 1000 Ang^3
#
#
#
# Elastic Constant Matrix: (Units=GPa)
#
#
# Indices 1 2 3 4 5 6 
#
# 1 140.4997 51.6078 6.5573 0.0000 -36.4787 0.0000
# 2 51.6078 107.5075 6.7487 0.0000 -20.9629 0.0000
# 3 6.5573 6.7487 60.2914 0.0000 -12.5884 0.0000
# 4 0.0000 0.0000 0.0000 28.3824 0.0000 -16.9835
# 5 -36.4787 -20.9629 -12.5884 0.0000 37.3656 0.0000
# 6 0.0000 0.0000 0.0000 -16.9835 0.0000 26.3929
#
#
#
# Elastic Compliance Matrix: (Units=1/GPa)
#
#
# Indices 1 2 3 4 5 6 
#
# 1 0.010617 -0.003450 0.001066 0.000000 0.008789 0.000000
# 2 -0.003450 0.011565 -0.000288 0.000000 0.003024 0.000000
# 3 0.001066 -0.000288 0.017949 0.000000 0.006926 0.000000
# 4 0.000000 0.000000 0.000000 0.057294 0.000000 0.036868
# 5 0.008789 0.003024 0.006926 0.000000 0.039372 0.000000
# 6 0.000000 0.000000 0.000000 0.036868 0.000000 0.061613
#
#
# Mechanical properties :
#
#
# Convention : Reuss Voigt Hill
#
# Bulk Modulus (GPa) = 28.74560 48.68070 38.71315
# Shear Modulus (GPa) = 23.21816 34.65383 28.93600
#
# Velocity S-wave (km/s) = 3.16056 3.86123 3.52833
# Velocity P-wave (km/s) = 5.06814 6.38926 5.76666
#
# Compressibility (1/GPa) = 0.03478794
#
# Stress axis : x y z
#
# Youngs Moduli (GPa) = 94.19199 86.46564 55.71480
#
# Poissons Ratio (x) = 0.29828 -0.05942
# Poissons Ratio (y) = 0.32493 0.01605
# Poissons Ratio (z) = -0.10045 0.02491
#
# Static dielectric constant tensor:
#      x y z
#    x 4.531200 0.000000 -0.110070 
#    y 0.000000 4.458720 0.000000 
#    z -0.110070 0.000000 3.893720 
# 
# 
# High freq. dielectric constant tensor:
#      x y z
#    x 1.937740 0.000000 -0.013450 
#    y 0.000000 1.907810 0.000000 
#    z -0.013450 0.000000 1.907160 
# 
# From -- ./inp_files/29507.got.cif
#   From: 2010.06.25/outbox.cif.g09.slc.cpg/sg13_15_cif.got.tgz:29507.got - 2010.06.28 04:50:58.
