data_PCOD8121407
_publ_section_title
;
Structure prediction by ZEFSAII (Michael W. Deem and Ramdas Pophale) SiO2 
 PCOD8121407
Probable space group: P 2/C
;
_chemical_formula_sum "Si O2"
_cell_formula_units_Z 20
_cell_length_a 8.896270
_cell_length_b 12.646097
_cell_length_c 17.215128
_cell_angle_alpha 90.000000
_cell_angle_beta 148.717921
_cell_angle_gamma 90.000000
_cell_volume 1005.663654
_symmetry_space_group_name_H-M "P 2/C"
_symmetry_group_IT_number 13
_symmetry_cell_setting 'monoclinic'
loop_
_space_group_symop_operation_xyz
x,y,z
-x,y,1/2-z
-x,-y,-z
x,-y,1/2+z
loop_
_atom_site_type_symbol
_atom_site_label
_atom_site_fract_x
_atom_site_fract_y
_atom_site_fract_z
Si Si1 0.412517 0.184285 0.127301
Si Si2 0.550184 0.574989 0.862609
Si Si3 0.702932 0.007575 0.160048
Si Si4 0.745479 0.811655 0.292498
Si Si5 0.107749 0.591112 0.210295
O O1 0.500000 0.146605 0.250000
O O2 0.521439 0.302312 0.157790
O O3 0.607036 0.112409 0.160225
O O4 0.067416 0.170278 0.967780
O O5 0.500000 0.542382 0.750000
O O6 0.332915 0.504540 0.816759
O O7 0.869212 0.557245 0.040166
O O8 0.000000 0.027006 0.250000
O O9 0.683397 0.903349 0.203782
O O10 0.500000 0.000000 0.000000
O O11 0.500000 0.816979 0.250000
O O12 0.728481 0.697611 0.244007
O O13 0.000000 0.612229 0.250000
#
# Coordination Sequence:
#
# PCOD8121407 Si02
#       5
#     4   4   4   4   4
#     4  10  24  43  64  94 130 167 216 260 313 385
#     4  10  22  42  64  93 130 169 212 259 317 391
#     4  12  25  43  66  95 129 166 211 267 323 378
#     4  11  25  43  66  91 129 174 213 260 321 384
#     4  11  23  41  66  96 130 166 213 270 321 376
#
# _framework density 19.887367000000001
#
# number of rings (size 3 to 8) (size 9 to 14) (size 15 to 20)
#    0.000    1.200    2.000    3.000    5.600    5.600 
#    0.000    0.000    0.000    0.000    0.000    0.000 
#    0.000    0.000    0.000    0.000    0.000    0.000 
#
# Total GULP energy -247885.349224 kJ/mol
# GULP energy per Si atom -12394.267461 kJ/mol
# Density = 1.984210 g / cm^3
# Si number density = 19.887367 Si / 1000 Ang^3
#
#
#
# Elastic Constant Matrix: (Units=GPa)
#
#
# Indices 1 2 3 4 5 6 
#
# 1 167.3968 92.1015 72.4855 0.0000 18.4754 0.0000
# 2 92.1015 95.6935 48.3597 0.0000 14.5474 0.0000
# 3 72.4855 48.3597 111.4547 0.0000 0.7289 0.0000
# 4 0.0000 0.0000 0.0000 8.9557 0.0000 21.0591
# 5 18.4754 14.5474 0.7289 0.0000 36.7858 0.0000
# 6 0.0000 0.0000 0.0000 21.0591 0.0000 34.5233
#
#
#
# Elastic Compliance Matrix: (Units=1/GPa)
#
#
# Indices 1 2 3 4 5 6 
#
# 1 0.014327 -0.011114 -0.004478 0.000000 -0.002712 0.000000
# 2 -0.011114 0.023072 -0.002760 0.000000 -0.003487 0.000000
# 3 -0.004478 -0.002760 0.013062 0.000000 0.003081 0.000000
# 4 0.000000 0.000000 0.000000 -0.257057 0.000000 0.156803
# 5 -0.002712 -0.003487 0.003081 0.000000 0.029864 0.000000
# 6 0.000000 0.000000 0.000000 0.156803 0.000000 -0.066683
#
#
# Mechanical properties :
#
#
# Convention : Reuss Voigt Hill
#
# Bulk Modulus (GPa) = 72.68812 88.93761 80.81286
# Shear Modulus (GPa) = -24.73694 26.82621 1.04463
#
# Velocity S-wave (km/s) = -3.53065 3.67673 0.72554
# Velocity P-wave (km/s) = 4.47309 7.92731 6.43626
#
# Compressibility (1/GPa) = 0.01375741
#
# Stress axis : x y z
#
# Youngs Moduli (GPa) = 69.79845 43.34292 76.56054
#
# Poissons Ratio (x) = 0.48172 0.34280
# Poissons Ratio (y) = 0.77575 0.21129
# Poissons Ratio (z) = 0.31253 0.11962
#
# Static dielectric constant tensor:
#      x y z
#    x 3.668950 0.000000 -0.127150 
#    y 0.000000 3.823150 0.000000 
#    z -0.127150 0.000000 3.890870 
# 
# 
# High freq. dielectric constant tensor:
#      x y z
#    x 1.783080 0.000000 -0.007750 
#    y 0.000000 1.791980 0.000000 
#    z -0.007750 0.000000 1.791490 
# 
# From -- ./inp_files/11845.got.cif
#   From: 2010.06.25/outbox.cif.g09.slc.cpg/sg13_6_cif.got.tgz:11845.got - 2010.06.28 04:50:58.
