data_PCOD8121390
_publ_section_title
;
Structure prediction by ZEFSAII (Michael W. Deem and Ramdas Pophale) SiO2 
 PCOD8121390
Probable space group: P 2/C
;
_chemical_formula_sum "Si O2"
_cell_formula_units_Z 28
_cell_length_a 12.253942
_cell_length_b 20.672803
_cell_length_c 5.319340
_cell_angle_alpha 90.000000
_cell_angle_beta 115.408909
_cell_angle_gamma 90.000000
_cell_volume 1217.166087
_symmetry_space_group_name_H-M "P 2/C"
_symmetry_group_IT_number 13
_symmetry_cell_setting 'monoclinic'
loop_
_space_group_symop_operation_xyz
x,y,z
-x,y,1/2-z
-x,-y,-z
x,-y,1/2+z
loop_
_atom_site_type_symbol
_atom_site_label
_atom_site_fract_x
_atom_site_fract_y
_atom_site_fract_z
Si Si1 0.864850 0.757195 0.063434
Si Si2 0.079493 0.372714 0.083183
Si Si3 0.500000 0.833266 0.750000
Si Si4 0.138213 0.959443 0.899132
Si Si5 0.500000 0.631076 0.250000
Si Si6 0.315251 0.458575 0.323275
Si Si7 0.334599 0.741060 0.270322
Si Si8 0.708168 0.849461 0.644691
O O1 0.797807 0.728152 0.243611
O O2 0.000000 0.776834 0.250000
O O3 0.862889 0.699745 0.852919
O O4 0.810718 0.827519 0.941184
O O5 0.186583 0.423820 0.203417
O O6 0.000000 0.384620 0.250000
O O7 0.000000 0.381023 0.750000
O O8 0.405037 0.787226 0.526642
O O9 0.583730 0.877444 0.647368
O O10 0.233439 0.900388 0.989986
O O11 0.000000 0.934506 0.750000
O O12 0.164962 0.003919 0.684218
O O13 0.571777 0.589748 0.528994
O O14 0.402054 0.673555 0.302472
O O15 0.325948 0.509562 0.560804
O O16 0.327830 0.780137 0.005714
#
# Coordination Sequence:
#
# PCOD8121390 Si02
#       8
#     4   4   2   4   2   4   4   4
#     4  10  26  39  70 108 142 175 230 290 367 428
#     4  11  26  47  74 104 145 182 231 301 367 432
#     4  10  22  42  63 107 136 178 236 282 354 430
#     4  10  25  45  70 102 144 193 243 292 347 409
#     4  12  26  46  75 101 146 184 236 296 360 422
#     4  12  29  49  73 104 136 188 245 291 346 424
#     4  11  24  43  70 103 140 186 222 293 365 423
#     4  11  23  42  71 100 145 187 236 291 351 427
#
# _framework density 23.004258
#
# number of rings (size 3 to 8) (size 9 to 14) (size 15 to 20)
#    0.000    1.143    1.429    2.143   18.000    2.286 
#    0.000    0.714    0.000    0.000    0.000    0.000 
#    0.000    0.000    0.000    0.000    0.000    0.000 
#
# Total GULP energy -347084.403427 kJ/mol
# GULP energy per Si atom -12395.871551 kJ/mol
# Density = 2.295190 g / cm^3
# Si number density = 23.004258 Si / 1000 Ang^3
#
#
#
# Elastic Constant Matrix: (Units=GPa)
#
#
# Indices 1 2 3 4 5 6 
#
# 1 173.4587 49.3283 38.2843 0.0000 0.9920 0.0000
# 2 49.3283 79.9012 14.0827 0.0000 2.8638 0.0000
# 3 38.2843 14.0827 67.9365 0.0000 -4.4377 0.0000
# 4 0.0000 0.0000 0.0000 16.1813 0.0000 4.4830
# 5 0.9920 2.8638 -4.4377 0.0000 29.8168 0.0000
# 6 0.0000 0.0000 0.0000 4.4830 0.0000 35.6274
#
#
#
# Elastic Compliance Matrix: (Units=1/GPa)
#
#
# Indices 1 2 3 4 5 6 
#
# 1 0.007719 -0.004131 -0.003518 0.000000 -0.000384 0.000000
# 2 -0.004131 0.015284 -0.000936 0.000000 -0.001470 0.000000
# 3 -0.003518 -0.000936 0.017076 0.000000 0.002748 0.000000
# 4 0.000000 0.000000 0.000000 0.064032 0.000000 -0.008057
# 5 -0.000384 -0.001470 0.002748 0.000000 0.034101 0.000000
# 6 0.000000 0.000000 0.000000 -0.008057 0.000000 0.029082
#
#
# Mechanical properties :
#
#
# Convention : Reuss Voigt Hill
#
# Bulk Modulus (GPa) = 43.65537 58.29855 50.97696
# Shear Modulus (GPa) = 26.02801 30.96516 28.49659
#
# Velocity S-wave (km/s) = 3.36734 3.67285 3.52341
# Velocity P-wave (km/s) = 5.84268 6.58665 6.22579
#
# Compressibility (1/GPa) = 0.02290669
#
# Stress axis : x y z
#
# Youngs Moduli (GPa) = 129.55573 65.42918 58.56207
#
# Poissons Ratio (x) = 0.27031 0.20604
# Poissons Ratio (y) = 0.53525 0.05482
# Poissons Ratio (z) = 0.45582 0.06124
#
# Static dielectric constant tensor:
#      x y z
#    x 4.439500 0.000000 -0.083270 
#    y 0.000000 3.964700 0.000000 
#    z -0.083270 0.000000 4.087120 
# 
# 
# High freq. dielectric constant tensor:
#      x y z
#    x 1.936900 0.000000 0.002250 
#    y 0.000000 1.886710 0.000000 
#    z 0.002250 0.000000 1.914160 
# 
# From -- ./inp_files/4166.got.cif
#   From: 2010.06.25/outbox.cif.g09.slc.cpg/sg13_3_cif.got.tgz:4166.got - 2010.06.28 04:50:58.
