data_PCOD8121311
_publ_section_title
;
Structure prediction by ZEFSAII (Michael W. Deem and Ramdas Pophale) SiO2 
 PCOD8121311
Probable space group: P 2/C
;
_chemical_formula_sum "Si O2"
_cell_formula_units_Z 28
_cell_length_a 25.585554
_cell_length_b 8.848511
_cell_length_c 9.834071
_cell_angle_alpha 90.000000
_cell_angle_beta 140.050646
_cell_angle_gamma 90.000000
_cell_volume 1429.578287
_symmetry_space_group_name_H-M "P 2/C"
_symmetry_group_IT_number 13
_symmetry_cell_setting 'monoclinic'
loop_
_space_group_symop_operation_xyz
x,y,z
-x,y,1/2-z
-x,-y,-z
x,-y,1/2+z
loop_
_atom_site_type_symbol
_atom_site_label
_atom_site_fract_x
_atom_site_fract_y
_atom_site_fract_z
Si Si1 0.171806 0.173095 0.354244
Si Si2 0.501908 0.361075 0.601689
Si Si3 0.350261 0.142135 0.610121
Si Si4 0.825509 0.824724 0.128656
Si Si5 0.094014 0.667096 0.455938
Si Si6 0.096463 0.679173 0.959531
Si Si7 0.354047 0.137619 0.298979
O O1 0.265193 0.201609 0.500026
O O2 0.144427 0.285749 0.417520
O O3 0.155974 0.000230 0.367479
O O4 0.118630 0.213662 0.118352
O O5 0.500000 0.424603 0.750000
O O6 0.500000 0.500000 0.500000
O O7 0.585144 0.273409 0.742559
O O8 0.423838 0.259087 0.418411
O O9 0.341606 0.094351 0.433706
O O10 0.381882 0.005296 0.765891
O O11 0.863243 0.709070 0.098401
O O12 0.864590 0.788656 0.351550
O O13 0.728651 0.797728 0.932180
O O14 0.114346 0.494259 0.535870
O O15 0.000000 0.688019 0.250000
O O16 0.000000 0.709826 0.750000
#
# Coordination Sequence:
#
# PCOD8121311 Si02
#       7
#     4   4   4   4   4   4   4
#     4  11  23  40  63  92 123 159 213 260 311 368
#     4  10  23  42  62  96 132 164 207 250 300 366
#     4  10  22  41  65  92 124 162 205 253 310 368
#     4  11  23  40  63  92 123 159 213 260 311 368
#     4  11  23  41  61  86 125 164 203 259 316 379
#     4  11  25  41  61  90 123 168 211 255 320 381
#     4  10  22  41  65  92 124 162 205 253 310 368
#
# _framework density 19.586196999999999
#
# number of rings (size 3 to 8) (size 9 to 14) (size 15 to 20)
#    0.000    1.429    1.429    3.000    6.000    9.143 
#    0.000    0.000    0.000    0.000    0.000    0.000 
#    0.000    0.000    0.000    0.000    0.000    0.000 
#
# Total GULP energy -347253.305061 kJ/mol
# GULP energy per Si atom -12401.903752 kJ/mol
# Density = 1.954162 g / cm^3
# Si number density = 19.586197 Si / 1000 Ang^3
#
#
#
# Elastic Constant Matrix: (Units=GPa)
#
#
# Indices 1 2 3 4 5 6 
#
# 1 134.1488 60.5210 58.0318 0.0000 0.4778 0.0000
# 2 60.5210 95.7107 64.7448 0.0000 12.6628 0.0000
# 3 58.0318 64.7448 121.2007 0.0000 -2.3280 0.0000
# 4 0.0000 0.0000 0.0000 39.1410 0.0000 -47.1181
# 5 0.4778 12.6628 -2.3280 0.0000 30.0382 0.0000
# 6 0.0000 0.0000 0.0000 -47.1181 0.0000 154.6022
#
#
#
# Elastic Compliance Matrix: (Units=1/GPa)
#
#
# Indices 1 2 3 4 5 6 
#
# 1 0.010974 -0.005777 -0.002128 0.000000 0.002096 0.000000
# 2 -0.005777 0.021330 -0.008813 0.000000 -0.009583 0.000000
# 3 -0.002128 -0.008813 0.014070 0.000000 0.004839 0.000000
# 4 0.000000 0.000000 0.000000 0.040354 0.000000 0.012299
# 5 0.002096 -0.009583 0.004839 0.000000 0.037672 0.000000
# 6 0.000000 0.000000 0.000000 0.012299 0.000000 0.010216
#
#
# Mechanical properties :
#
#
# Convention : Reuss Voigt Hill
#
# Bulk Modulus (GPa) = 77.28375 79.73950 78.51163
# Shear Modulus (GPa) = 29.00817 55.94045 42.47431
#
# Velocity S-wave (km/s) = 3.85262 5.35006 4.66186
# Velocity P-wave (km/s) = 7.70287 8.88621 8.31561
#
# Compressibility (1/GPa) = 0.01293933
#
# Stress axis : x y z
#
# Youngs Moduli (GPa) = 91.12679 46.88182 71.07122
#
# Poissons Ratio (x) = 0.27082 0.15125
# Poissons Ratio (y) = 0.52641 0.62633
# Poissons Ratio (z) = 0.19393 0.41315
#
# Static dielectric constant tensor:
#      x y z
#    x 3.897060 0.000000 0.128940 
#    y 0.000000 3.586060 0.000000 
#    z 0.128940 0.000000 4.179410 
# 
# 
# High freq. dielectric constant tensor:
#      x y z
#    x 1.776740 0.000000 0.001190 
#    y 0.000000 1.761790 0.000000 
#    z 0.001190 0.000000 1.779030 
# 
# From -- ./inp_files/24472.got.cif
#   From: 2010.06.25/outbox.cif.g09.slc.cpg/sg13_13_cif.got.tgz:24472.got - 2010.06.28 04:50:58.
