data_PCOD8121225
_publ_section_title
;
Structure prediction by ZEFSAII (Michael W. Deem and Ramdas Pophale) SiO2 
 PCOD8121225
Probable space group: P 2/C
;
_chemical_formula_sum "Si O2"
_cell_formula_units_Z 18
_cell_length_a 7.728748
_cell_length_b 9.119111
_cell_length_c 13.197082
_cell_angle_alpha 90.000000
_cell_angle_beta 70.733875
_cell_angle_gamma 90.000000
_cell_volume 878.030918
_symmetry_space_group_name_H-M "P 2/C"
_symmetry_group_IT_number 13
_symmetry_cell_setting 'monoclinic'
loop_
_space_group_symop_operation_xyz
x,y,z
-x,y,1/2-z
-x,-y,-z
x,-y,1/2+z
loop_
_atom_site_type_symbol
_atom_site_label
_atom_site_fract_x
_atom_site_fract_y
_atom_site_fract_z
Si Si1 0.271231 0.382007 0.064107
Si Si2 0.435003 0.801950 0.371178
Si Si3 0.830486 0.934648 0.593375
Si Si4 0.663623 0.305649 0.995170
Si Si5 0.000000 0.805518 0.750000
O O1 0.218593 0.553565 0.065077
O O2 0.123291 0.298521 0.158075
O O3 0.283962 0.308489 0.949014
O O4 0.471573 0.366745 0.079409
O O5 0.500000 0.742700 0.250000
O O6 0.614016 0.804041 0.410721
O O7 0.348114 0.963050 0.378253
O O8 0.780976 0.777403 0.556080
O O9 0.880539 0.911481 0.701331
O O10 0.000000 0.000000 0.500000
#
# Coordination Sequence:
#
# PCOD8121225 Si02
#       5
#     4   4   4   4   2
#     4   9  22  46  64  96 124 166 223 260 324 373
#     4  10  22  40  67  95 123 172 217 258 313 387
#     4  12  25  42  63  95 139 166 212 264 322 383
#     4   9  22  45  66  90 126 173 216 266 314 384
#     4  12  26  40  66  98 132 168 210 272 320 374
#
# _framework density 20.500416000000001
#
# number of rings (size 3 to 8) (size 9 to 14) (size 15 to 20)
#    1.333    0.444    2.222    0.667    6.222    2.667 
#    4.000    0.000    0.000    0.000    0.000    0.000 
#    0.000    0.000    0.000    0.000    0.000    0.000 
#
# Total GULP energy -223104.853641 kJ/mol
# GULP energy per Si atom -12394.714091 kJ/mol
# Density = 2.045376 g / cm^3
# Si number density = 20.500416 Si / 1000 Ang^3
#
#
#
# Elastic Constant Matrix: (Units=GPa)
#
#
# Indices 1 2 3 4 5 6 
#
# 1 52.9151 47.8965 40.1737 0.0000 19.0180 0.0000
# 2 47.8965 137.7430 52.1967 0.0000 12.3217 0.0000
# 3 40.1737 52.1967 144.0888 0.0000 2.0948 0.0000
# 4 0.0000 0.0000 0.0000 15.5623 0.0000 -5.3496
# 5 19.0180 12.3217 2.0948 0.0000 41.8737 0.0000
# 6 0.0000 0.0000 0.0000 -5.3496 0.0000 38.7898
#
#
#
# Elastic Compliance Matrix: (Units=1/GPa)
#
#
# Indices 1 2 3 4 5 6 
#
# 1 0.037464 -0.009152 -0.006927 0.000000 -0.013976 0.000000
# 2 -0.009152 0.010883 -0.001406 0.000000 0.001024 0.000000
# 3 -0.006927 -0.001406 0.009336 0.000000 0.003093 0.000000
# 4 0.000000 0.000000 0.000000 0.067456 0.000000 0.009303
# 5 -0.013976 0.001024 0.003093 0.000000 0.029773 0.000000
# 6 0.000000 0.000000 0.000000 0.009303 0.000000 0.027063
#
#
# Mechanical properties :
#
#
# Convention : Reuss Voigt Hill
#
# Bulk Modulus (GPa) = 44.02597 68.36452 56.19524
# Shear Modulus (GPa) = 22.27017 32.21049 27.24033
#
# Velocity S-wave (km/s) = 3.29952 3.96815 3.64918
# Velocity P-wave (km/s) = 6.00317 7.37667 6.72508
#
# Compressibility (1/GPa) = 0.02271387
#
# Stress axis : x y z
#
# Youngs Moduli (GPa) = 26.69210 91.88349 107.11535
#
# Poissons Ratio (x) = 0.84093 0.74198
# Poissons Ratio (y) = 0.24429 0.15057
# Poissons Ratio (z) = 0.18489 0.12916
#
# Static dielectric constant tensor:
#      x y z
#    x 3.638970 0.000000 0.059810 
#    y 0.000000 3.646840 0.000000 
#    z 0.059810 0.000000 3.606180 
# 
# 
# High freq. dielectric constant tensor:
#      x y z
#    x 1.789040 0.000000 0.000600 
#    y 0.000000 1.804700 0.000000 
#    z 0.000600 0.000000 1.789500 
# 
# From -- ./inp_files/45499.got.cif
#   From: 2010.06.25/outbox.cif.g09.slc.cpg/sg13_23_cif.got.tgz:45499.got - 2010.06.28 04:50:58.
