data_PCOD8121404
_publ_section_title
;
Structure prediction by ZEFSAII (Michael W. Deem and Ramdas Pophale) SiO2 
 PCOD8121404
Probable space group: P 2/C
;
_chemical_formula_sum "Si O2"
_cell_formula_units_Z 22
_cell_length_a 13.656638
_cell_length_b 6.852583
_cell_length_c 12.163688
_cell_angle_alpha 90.000000
_cell_angle_beta 67.718210
_cell_angle_gamma 90.000000
_cell_volume 1053.319549
_symmetry_space_group_name_H-M "P 2/C"
_symmetry_group_IT_number 13
_symmetry_cell_setting 'monoclinic'
loop_
_space_group_symop_operation_xyz
x,y,z
-x,y,1/2-z
-x,-y,-z
x,-y,1/2+z
loop_
_atom_site_type_symbol
_atom_site_label
_atom_site_fract_x
_atom_site_fract_y
_atom_site_fract_z
Si Si1 0.264741 0.707111 0.410850
Si Si2 0.552507 0.792402 0.000669
Si Si3 0.890318 0.970301 0.609163
Si Si4 0.000000 0.154578 0.750000
Si Si5 0.417203 0.500783 0.190221
Si Si6 0.099120 0.600725 0.014094
O O1 0.353740 0.801254 0.450337
O O2 0.199556 0.885802 0.392491
O O3 0.311083 0.585797 0.288556
O O4 0.188061 0.557811 0.508644
O O5 0.601138 0.701609 0.867773
O O6 0.458132 0.659776 0.086128
O O7 0.500000 0.000000 0.000000
O O8 0.914387 0.013373 0.727051
O O9 0.852590 0.751176 0.597247
O O10 0.000000 0.000000 0.500000
O O11 0.064426 0.291152 0.639535
O O12 0.500000 0.453752 0.250000
O O13 0.000000 0.500000 0.000000
#
# Coordination Sequence:
#
# PCOD8121404 Si02
#       6
#     4   4   4   2   4   4
#     4  11  23  42  67 100 133 180 223 279 346 410
#     4  10  23  43  69  97 130 171 224 282 341 405
#     4  10  22  43  60  96 137 172 232 280 322 410
#     4  10  22  42  64  90 138 182 230 282 336 398
#     4   9  22  43  64  94 134 166 219 276 336 408
#     4  11  23  43  64  94 139 182 231 283 338 412
#
# _framework density 20.886348999999999
#
# number of rings (size 3 to 8) (size 9 to 14) (size 15 to 20)
#    0.000    1.818    3.636    0.000    2.545    8.727 
#    9.818    0.000    0.000    0.000    0.000    0.000 
#    0.000    0.000    0.000    0.000    0.000    0.000 
#
# Total GULP energy -272737.721583 kJ/mol
# GULP energy per Si atom -12397.169163 kJ/mol
# Density = 2.083881 g / cm^3
# Si number density = 20.886349 Si / 1000 Ang^3
#
#
#
# Elastic Constant Matrix: (Units=GPa)
#
#
# Indices 1 2 3 4 5 6 
#
# 1 107.1001 72.6845 39.9437 0.0000 4.1578 0.0000
# 2 72.6845 152.5483 59.2720 0.0000 19.7529 0.0000
# 3 39.9437 59.2720 110.0298 0.0000 12.7355 0.0000
# 4 0.0000 0.0000 0.0000 30.0671 0.0000 1.2903
# 5 4.1578 19.7529 12.7355 0.0000 29.8222 0.0000
# 6 0.0000 0.0000 0.0000 1.2903 0.0000 42.3878
#
#
#
# Elastic Compliance Matrix: (Units=1/GPa)
#
#
# Indices 1 2 3 4 5 6 
#
# 1 0.014370 -0.006434 -0.002117 0.000000 0.003162 0.000000
# 2 -0.006434 0.011595 -0.003288 0.000000 -0.005379 0.000000
# 3 -0.002117 -0.003288 0.011932 0.000000 -0.002623 0.000000
# 4 0.000000 0.000000 0.000000 0.033302 0.000000 -0.001014
# 5 0.003162 -0.005379 -0.002623 0.000000 0.037774 0.000000
# 6 0.000000 0.000000 0.000000 -0.001014 0.000000 0.023623
#
#
# Mechanical properties :
#
#
# Convention : Reuss Voigt Hill
#
# Bulk Modulus (GPa) = 70.32591 79.27538 74.80065
# Shear Modulus (GPa) = 31.05355 33.64065 32.34710
#
# Velocity S-wave (km/s) = 3.86007 4.01765 3.93965
# Velocity P-wave (km/s) = 7.32193 7.71751 7.52232
#
# Compressibility (1/GPa) = 0.01421951
#
# Stress axis : x y z
#
# Youngs Moduli (GPa) = 69.58835 86.24577 83.81144
#
# Poissons Ratio (x) = 0.55490 0.17742
# Poissons Ratio (y) = 0.44772 0.27555
# Poissons Ratio (z) = 0.14731 0.28355
#
# Static dielectric constant tensor:
#      x y z
#    x 3.547060 0.000000 -0.766020 
#    y 0.000000 4.146960 0.000000 
#    z -0.766020 0.000000 1.000520 
# 
# 
# High freq. dielectric constant tensor:
#      x y z
#    x 1.818480 0.000000 0.005820 
#    y 0.000000 1.826080 0.000000 
#    z 0.005820 0.000000 1.816720 
# 
# From -- ./inp_files/35357.got.cif
#   From: 2010.06.25/outbox.cif.g09.slc.cpg/sg13_18_cif.got.tgz:35357.got - 2010.06.28 04:50:58.
