data_PCOD8121684
_publ_section_title
;
Structure prediction by ZEFSAII (Michael W. Deem and Ramdas Pophale) SiO2 
 PCOD8121684
Probable space group: P 2/C
;
_chemical_formula_sum "Si O2"
_cell_formula_units_Z 24
_cell_length_a 14.765726
_cell_length_b 10.091905
_cell_length_c 23.344946
_cell_angle_alpha 90.000000
_cell_angle_beta 161.060060
_cell_angle_gamma 90.000000
_cell_volume 1129.115480
_symmetry_space_group_name_H-M "P 2/C"
_symmetry_group_IT_number 13
_symmetry_cell_setting 'monoclinic'
loop_
_space_group_symop_operation_xyz
x,y,z
-x,y,1/2-z
-x,-y,-z
x,-y,1/2+z
loop_
_atom_site_type_symbol
_atom_site_label
_atom_site_fract_x
_atom_site_fract_y
_atom_site_fract_z
Si Si1 0.177753 0.039431 0.305117
Si Si2 0.284136 0.575047 0.445443
Si Si3 0.810671 0.849544 0.280169
Si Si4 0.625820 0.309241 0.052241
Si Si5 0.332434 0.989012 0.706154
Si Si6 0.375638 0.717443 0.618507
O O1 0.148111 0.198728 0.293239
O O2 0.000000 0.972604 0.250000
O O3 0.500000 0.000000 0.500000
O O4 0.060646 0.978963 0.176016
O O5 0.255014 0.415096 0.422590
O O6 0.544686 0.619042 0.562962
O O7 0.339852 0.616017 0.544516
O O8 0.000000 0.639903 0.250000
O O9 0.643766 0.757616 0.136985
O O10 0.077278 0.770434 0.462559
O O11 0.602257 0.903522 0.204858
O O12 0.500000 0.033405 0.750000
O O13 0.427310 0.841170 0.781791
O O14 0.000000 0.000000 0.500000
O O15 0.500000 0.645687 0.750000
#
# Coordination Sequence:
#
# PCOD8121684 Si02
#       6
#     4   4   4   4   4   4
#     4  10  23  36  60  97 132 162 209 276 338 398
#     4  11  22  42  67  91 130 180 223 281 328 400
#     4  11  22  39  66  95 134 171 224 277 341 409
#     4  10  23  39  63  97 130 167 225 278 336 395
#     4  11  22  40  63  96 134 178 219 278 341 401
#     4  11  23  41  68  93 134 177 227 268 342 407
#
# _framework density 21.255576999999999
#
# number of rings (size 3 to 8) (size 9 to 14) (size 15 to 20)
#    0.000    1.333    5.000    1.500    9.333    0.000 
#    0.000    3.333    0.000    0.000    0.000    0.000 
#    0.000    0.000    0.000    0.000    0.000    0.000 
#
# Total GULP energy -297412.085675 kJ/mol
# GULP energy per Si atom -12392.170236 kJ/mol
# Density = 2.120720 g / cm^3
# Si number density = 21.255577 Si / 1000 Ang^3
#
#
#
# Elastic Constant Matrix: (Units=GPa)
#
#
# Indices 1 2 3 4 5 6 
#
# 1 169.6630 60.7772 37.9779 0.0000 -7.6976 0.0000
# 2 60.7772 100.2829 18.5337 0.0000 -14.1686 0.0000
# 3 37.9779 18.5337 69.3996 0.0000 -10.3155 0.0000
# 4 0.0000 0.0000 0.0000 16.5443 0.0000 2.7253
# 5 -7.6976 -14.1686 -10.3155 0.0000 43.4024 0.0000
# 6 0.0000 0.0000 0.0000 2.7253 0.0000 35.9172
#
#
#
# Elastic Compliance Matrix: (Units=1/GPa)
#
#
# Indices 1 2 3 4 5 6 
#
# 1 0.008224 -0.004466 -0.003429 0.000000 -0.000814 0.000000
# 2 -0.004466 0.013268 -0.000594 0.000000 0.003398 0.000000
# 3 -0.003429 -0.000594 0.016923 0.000000 0.003220 0.000000
# 4 0.000000 0.000000 0.000000 0.061209 0.000000 -0.004644
# 5 -0.000814 0.003398 0.003220 0.000000 0.024770 0.000000
# 6 0.000000 0.000000 0.000000 -0.004644 0.000000 0.028194
#
#
# Mechanical properties :
#
#
# Convention : Reuss Voigt Hill
#
# Bulk Modulus (GPa) = 46.64789 63.76923 55.20856
# Shear Modulus (GPa) = 28.29436 33.97656 31.13546
#
# Velocity S-wave (km/s) = 3.65245 4.00243 3.83144
# Velocity P-wave (km/s) = 6.30722 7.17116 6.75302
#
# Compressibility (1/GPa) = 0.02143720
#
# Stress axis : x y z
#
# Youngs Moduli (GPa) = 121.58919 75.36780 59.09050
#
# Poissons Ratio (x) = 0.33657 0.20263
# Poissons Ratio (y) = 0.54299 0.03513
# Poissons Ratio (z) = 0.41694 0.04481
#
# Static dielectric constant tensor:
#      x y z
#    x 4.159660 0.000000 -0.120830 
#    y 0.000000 4.069240 0.000000 
#    z -0.120830 0.000000 3.984770 
# 
# 
# High freq. dielectric constant tensor:
#      x y z
#    x 1.836910 0.000000 0.006990 
#    y 0.000000 1.817090 0.000000 
#    z 0.006990 0.000000 1.835890 
# 
# From -- ./inp_files/87516.got.cif
#   From: 2010.06.25/outbox.cif.g09.slc.cpg/sg13_44_cif.got.tgz:87516.got - 2010.06.28 04:50:58.
