data_PCOD8121713
_publ_section_title
;
Structure prediction by ZEFSAII (Michael W. Deem and Ramdas Pophale) SiO2 
 PCOD8121713
Probable space group: P 2/C
;
_chemical_formula_sum "Si O2"
_cell_formula_units_Z 26
_cell_length_a 9.297871
_cell_length_b 9.042897
_cell_length_c 21.786259
_cell_angle_alpha 90.000000
_cell_angle_beta 135.939695
_cell_angle_gamma 90.000000
_cell_volume 1273.848802
_symmetry_space_group_name_H-M "P 2/C"
_symmetry_group_IT_number 13
_symmetry_cell_setting 'monoclinic'
loop_
_space_group_symop_operation_xyz
x,y,z
-x,y,1/2-z
-x,-y,-z
x,-y,1/2+z
loop_
_atom_site_type_symbol
_atom_site_label
_atom_site_fract_x
_atom_site_fract_y
_atom_site_fract_z
Si Si1 0.985512 0.724075 0.098111
Si Si2 0.642354 0.040275 0.460685
Si Si3 0.741922 0.716303 0.198604
Si Si4 0.626981 0.827110 0.349376
Si Si5 0.257443 0.163274 0.403135
Si Si6 0.739283 0.499420 0.085778
Si Si7 0.000000 0.973883 0.250000
O O1 0.085100 0.718729 0.195832
O O2 0.164722 0.735105 0.101898
O O3 0.836645 0.861955 0.040905
O O4 0.851299 0.572839 0.060122
O O5 0.432741 0.136685 0.404172
O O6 0.669529 0.979627 0.399470
O O7 0.641864 0.892273 0.502510
O O8 0.509630 0.711253 0.153087
O O9 0.781243 0.586315 0.162404
O O10 0.786211 0.878951 0.184079
O O11 0.500000 0.874760 0.250000
O O12 0.186003 0.332316 0.384991
O O13 0.042098 0.079151 0.321562
O O14 0.500000 0.500000 0.000000
#
# Coordination Sequence:
#
# PCOD8121713 Si02
#       7
#     4   4   4   4   4   4   2
#     4  11  22  40  63  92 126 173 212 258 334 391
#     4  11  20  42  63  96 132 160 221 272 319 397
#     4  11  21  41  64  89 126 169 215 262 328 391
#     4  10  23  39  67  93 126 176 219 261 327 396
#     4  11  24  35  66 102 125 166 220 279 328 377
#     4  12  23  39  64  97 129 168 219 274 329 397
#     4  12  20  38  66  92 124 164 216 274 324 388
#
# _framework density 20.410585000000001
#
# number of rings (size 3 to 8) (size 9 to 14) (size 15 to 20)
#    0.000    0.923    6.154    1.385    2.154    0.000 
#    0.000    3.077    0.000    0.923    0.000    0.000 
#    0.000    0.000    0.000    0.000    0.000    0.000 
#
# Total GULP energy -322123.493519 kJ/mol
# GULP energy per Si atom -12389.365135 kJ/mol
# Density = 2.036413 g / cm^3
# Si number density = 20.410585 Si / 1000 Ang^3
#
#
#
# Elastic Constant Matrix: (Units=GPa)
#
#
# Indices 1 2 3 4 5 6 
#
# 1 140.4486 65.1789 32.0038 0.0000 11.0479 0.0000
# 2 65.1789 149.3542 40.9434 0.0000 1.1754 0.0000
# 3 32.0038 40.9434 75.8194 0.0000 2.2243 0.0000
# 4 0.0000 0.0000 0.0000 32.8244 0.0000 2.5864
# 5 11.0479 1.1754 2.2243 0.0000 29.1828 0.0000
# 6 0.0000 0.0000 0.0000 2.5864 0.0000 31.2234
#
#
#
# Elastic Compliance Matrix: (Units=1/GPa)
#
#
# Indices 1 2 3 4 5 6 
#
# 1 0.009488 -0.003572 -0.001979 0.000000 -0.003297 0.000000
# 2 -0.003572 0.009204 -0.003499 0.000000 0.001248 0.000000
# 3 -0.001979 -0.003499 0.015924 0.000000 -0.000323 0.000000
# 4 0.000000 0.000000 0.000000 0.030665 0.000000 -0.002540
# 5 -0.003297 0.001248 -0.000323 0.000000 0.035489 0.000000
# 6 0.000000 0.000000 0.000000 -0.002540 0.000000 0.032238
#
#
# Mechanical properties :
#
#
# Convention : Reuss Voigt Hill
#
# Bulk Modulus (GPa) = 60.55152 71.31939 65.93545
# Shear Modulus (GPa) = 31.92570 33.81253 32.86912
#
# Velocity S-wave (km/s) = 3.95925 4.07457 4.01733
# Velocity P-wave (km/s) = 7.11562 7.56005 7.34120
#
# Compressibility (1/GPa) = 0.01651486
#
# Stress axis : x y z
#
# Youngs Moduli (GPa) = 105.39436 108.65125 62.79963
#
# Poissons Ratio (x) = 0.38812 0.12430
# Poissons Ratio (y) = 0.37648 0.21973
# Poissons Ratio (z) = 0.20860 0.38016
#
# Static dielectric constant tensor:
#      x y z
#    x 3.917350 0.000000 0.199930 
#    y 0.000000 5.871060 0.000000 
#    z 0.199930 0.000000 3.933240 
# 
# 
# High freq. dielectric constant tensor:
#      x y z
#    x 1.787960 0.000000 0.016210 
#    y 0.000000 1.781920 0.000000 
#    z 0.016210 0.000000 1.811640 
# 
# From -- ./inp_files/75977.got.cif
#   From: 2010.06.25/outbox.cif.g09.slc.cpg/sg13_38_cif.got.tgz:75977.got - 2010.06.28 04:50:58.
