data_PCOD8121953
_publ_section_title
;
Structure prediction by ZEFSAII (Michael W. Deem and Ramdas Pophale) SiO2 
 PCOD8121953
Probable space group: P 2/C
;
_chemical_formula_sum "Si O2"
_cell_formula_units_Z 20
_cell_length_a 10.296609
_cell_length_b 9.675232
_cell_length_c 17.070262
_cell_angle_alpha 90.000000
_cell_angle_beta 30.930237
_cell_angle_gamma 90.000000
_cell_volume 874.085377
_symmetry_space_group_name_H-M "P 2/C"
_symmetry_group_IT_number 13
_symmetry_cell_setting 'monoclinic'
loop_
_space_group_symop_operation_xyz
x,y,z
-x,y,1/2-z
-x,-y,-z
x,-y,1/2+z
loop_
_atom_site_type_symbol
_atom_site_label
_atom_site_fract_x
_atom_site_fract_y
_atom_site_fract_z
Si Si1 0.591177 0.581466 0.117039
Si Si2 0.996904 0.199895 0.431152
Si Si3 0.749165 0.683391 0.338287
Si Si4 0.540668 0.715308 0.606108
Si Si5 0.003502 0.892270 0.099608
O O1 0.500000 0.619553 0.250000
O O2 0.364943 0.586111 0.170133
O O3 0.683208 0.422333 0.065782
O O4 0.808792 0.692995 0.985550
O O5 0.270055 0.271917 0.286906
O O6 0.903759 0.160885 0.566886
O O7 0.010244 0.055635 0.378097
O O8 0.532315 0.708342 0.515579
O O9 0.000000 0.616522 0.250000
O O10 0.830924 0.827748 0.256756
O O11 0.705161 0.847352 0.545126
#
# Coordination Sequence:
#
# PCOD8121953 Si02
#       5
#     4   4   4   4   4
#     4  12  25  44  75 105 140 185 239 290 345 414
#     4  11  25  42  75 105 137 186 242 283 351 420
#     4  10  24  47  69  97 147 184 220 292 356 409
#     4  11  26  44  69 103 144 182 235 287 355 418
#     4  10  23  46  69 100 146 186 228 294 351 416
#
# _framework density 22.881059
#
# number of rings (size 3 to 8) (size 9 to 14) (size 15 to 20)
#    0.000    1.200    2.000    2.400    8.400    3.200 
#    7.200    0.000    0.000    0.000    0.000    0.000 
#    0.000    0.000    0.000    0.000    0.000    0.000 
#
# Total GULP energy -247971.906769 kJ/mol
# GULP energy per Si atom -12398.595338 kJ/mol
# Density = 2.282898 g / cm^3
# Si number density = 22.881059 Si / 1000 Ang^3
#
#
#
# Elastic Constant Matrix: (Units=GPa)
#
#
# Indices 1 2 3 4 5 6 
#
# 1 95.0677 28.9353 7.8454 0.0000 -0.2703 0.0000
# 2 28.9353 142.2406 37.9337 0.0000 -15.7772 0.0000
# 3 7.8454 37.9337 83.8178 0.0000 7.9689 0.0000
# 4 0.0000 0.0000 0.0000 30.5958 0.0000 -6.6060
# 5 -0.2703 -15.7772 7.9689 0.0000 34.9908 0.0000
# 6 0.0000 0.0000 0.0000 -6.6060 0.0000 30.1856
#
#
#
# Elastic Compliance Matrix: (Units=1/GPa)
#
#
# Indices 1 2 3 4 5 6 
#
# 1 0.011247 -0.002446 0.000154 0.000000 -0.001051 0.000000
# 2 -0.002446 0.009296 -0.004472 0.000000 0.005191 0.000000
# 3 0.000154 -0.004472 0.014444 0.000000 -0.005305 0.000000
# 4 0.000000 0.000000 0.000000 0.034305 0.000000 0.007508
# 5 -0.001051 0.005191 -0.005305 0.000000 0.032120 0.000000
# 6 0.000000 0.000000 0.000000 0.007508 0.000000 0.034771
#
#
# Mechanical properties :
#
#
# Convention : Reuss Voigt Hill
#
# Bulk Modulus (GPa) = 46.59599 52.28388 49.43994
# Shear Modulus (GPa) = 31.87452 35.58188 33.72820
#
# Velocity S-wave (km/s) = 3.73641 3.94773 3.84352
# Velocity P-wave (km/s) = 6.24684 6.60903 6.43049
#
# Compressibility (1/GPa) = 0.02146108
#
# Stress axis : x y z
#
# Youngs Moduli (GPa) = 88.90865 107.57050 69.23095
#
# Poissons Ratio (x) = 0.26308 -0.01066
# Poissons Ratio (y) = 0.21744 0.30959
# Poissons Ratio (z) = -0.01369 0.48104
#
# Static dielectric constant tensor:
#      x y z
#    x 4.204800 0.000000 0.169870 
#    y 0.000000 4.033740 0.000000 
#    z 0.169870 0.000000 4.060310 
# 
# 
# High freq. dielectric constant tensor:
#      x y z
#    x 1.898020 0.000000 0.014690 
#    y 0.000000 1.902690 0.000000 
#    z 0.014690 0.000000 1.901450 
# 
# From -- ./inp_files/32420.got.cif
#   From: 2010.06.25/outbox.cif.g09.slc.cpg/sg13_17_cif.got.tgz:32420.got - 2010.06.28 04:50:58.
