data_PCOD8121287
_publ_section_title
;
Structure prediction by ZEFSAII (Michael W. Deem and Ramdas Pophale) SiO2 
 PCOD8121287
Probable space group: P 2/C
;
_chemical_formula_sum "Si O2"
_cell_formula_units_Z 22
_cell_length_a 23.733850
_cell_length_b 5.207821
_cell_length_c 23.945008
_cell_angle_alpha 90.000000
_cell_angle_beta 162.700159
_cell_angle_gamma 90.000000
_cell_volume 880.115420
_symmetry_space_group_name_H-M "P 2/C"
_symmetry_group_IT_number 13
_symmetry_cell_setting 'monoclinic'
loop_
_space_group_symop_operation_xyz
x,y,z
-x,y,1/2-z
-x,-y,-z
x,-y,1/2+z
loop_
_atom_site_type_symbol
_atom_site_label
_atom_site_fract_x
_atom_site_fract_y
_atom_site_fract_z
Si Si1 0.691416 0.683405 0.019451
Si Si2 0.670581 0.175811 0.724280
Si Si3 0.021523 0.331441 0.172415
Si Si4 0.000000 0.985581 0.250000
Si Si5 0.283351 0.325035 0.160903
Si Si6 0.744521 0.989119 0.678954
O O1 0.778309 0.398765 0.108091
O O2 0.716752 0.806212 0.104248
O O3 0.811072 0.825127 0.085100
O O4 0.467698 0.663160 0.794810
O O5 0.708991 0.459221 0.783633
O O6 0.789014 0.131359 0.779441
O O7 0.733793 0.959587 0.829541
O O8 0.448555 0.173223 0.498711
O O9 0.922204 0.143971 0.122836
O O10 0.073683 0.191981 0.163199
O O11 0.899969 0.594242 0.049324
#
# Coordination Sequence:
#
# PCOD8121287 Si02
#       6
#     4   4   4   2   4   4
#     4  10  22  45  66  94 130 177 217 290 327 412
#     4  10  22  41  64 105 136 187 212 269 323 410
#     4  11  23  43  68  96 128 179 221 290 329 409
#     4  10  24  46  70  90 130 174 238 278 370 388
#     4  11  25  41  70  98 142 166 228 268 338 393
#     4   9  21  38  69  93 143 177 224 257 339 390
#
# _framework density 24.99672
#
# number of rings (size 3 to 8) (size 9 to 14) (size 15 to 20)
#    0.000    1.818    1.818    0.545    7.636    3.636 
#    0.000    5.455    0.000    0.000    0.000    0.000 
#    0.000    0.000    0.000    0.000    0.000    0.000 
#
# Total GULP energy -272733.540067 kJ/mol
# GULP energy per Si atom -12396.979094 kJ/mol
# Density = 2.493983 g / cm^3
# Si number density = 24.996720 Si / 1000 Ang^3
#
#
#
# Elastic Constant Matrix: (Units=GPa)
#
#
# Indices 1 2 3 4 5 6 
#
# 1 130.0887 8.2372 21.2964 0.0000 28.4698 0.0000
# 2 8.2372 48.4365 3.1723 0.0000 13.8166 0.0000
# 3 21.2964 3.1723 79.4708 0.0000 24.9315 0.0000
# 4 0.0000 0.0000 0.0000 40.6147 0.0000 0.6808
# 5 28.4698 13.8166 24.9315 0.0000 27.1991 0.0000
# 6 0.0000 0.0000 0.0000 0.6808 0.0000 28.0153
#
#
#
# Elastic Compliance Matrix: (Units=1/GPa)
#
#
# Indices 1 2 3 4 5 6 
#
# 1 0.010138 0.001789 0.001159 0.000000 -0.012583 0.000000
# 2 0.001789 0.025425 0.004414 0.000000 -0.018835 0.000000
# 3 0.001159 0.004414 0.018501 0.000000 -0.020414 0.000000
# 4 0.000000 0.000000 0.000000 0.024632 0.000000 -0.000599
# 5 -0.012583 -0.018835 -0.020414 0.000000 0.078217 0.000000
# 6 0.000000 0.000000 0.000000 -0.000599 0.000000 0.035709
#
#
# Mechanical properties :
#
#
# Convention : Reuss Voigt Hill
#
# Bulk Modulus (GPa) = 14.53704 35.93421 25.23563
# Shear Modulus (GPa) = 24.89730 34.18514 29.54122
#
# Velocity S-wave (km/s) = 3.15941 3.70210 3.44147
# Velocity P-wave (km/s) = 4.37462 5.71672 5.09010
#
# Compressibility (1/GPa) = 0.06878979
#
# Stress axis : x y z
#
# Youngs Moduli (GPa) = 98.64112 39.33169 54.05195
#
# Poissons Ratio (x) = -0.07038 -0.06267
# Poissons Ratio (y) = -0.17651 -0.23861
# Poissons Ratio (z) = -0.11437 -0.17363
#
# Static dielectric constant tensor:
#      x y z
#    x 4.678500 0.000000 0.472660 
#    y 0.000000 4.390050 0.000000 
#    z 0.472660 0.000000 4.631600 
# 
# 
# High freq. dielectric constant tensor:
#      x y z
#    x 1.997940 0.000000 0.020610 
#    y 0.000000 1.996800 0.000000 
#    z 0.020610 0.000000 1.985170 
# 
# From -- ./inp_files/84401.got.cif
#   From: 2010.06.25/outbox.cif.g09.slc.cpg/sg13_43_cif.got.tgz:84401.got - 2010.06.28 04:50:58.
