data_PCOD8121922
_publ_section_title
;
Structure prediction by ZEFSAII (Michael W. Deem and Ramdas Pophale) SiO2 
 PCOD8121922
Probable space group: P 2/C
;
_chemical_formula_sum "Si O2"
_cell_formula_units_Z 32
_cell_length_a 14.718483
_cell_length_b 11.525104
_cell_length_c 9.256170
_cell_angle_alpha 90.000000
_cell_angle_beta 81.520293
_cell_angle_gamma 90.000000
_cell_volume 1552.978503
_symmetry_space_group_name_H-M "P 2/C"
_symmetry_group_IT_number 13
_symmetry_cell_setting 'monoclinic'
loop_
_space_group_symop_operation_xyz
x,y,z
-x,y,1/2-z
-x,-y,-z
x,-y,1/2+z
loop_
_atom_site_type_symbol
_atom_site_label
_atom_site_fract_x
_atom_site_fract_y
_atom_site_fract_z
Si Si1 0.762822 0.372358 0.817858
Si Si2 0.911979 0.759167 0.689431
Si Si3 0.311902 0.968254 0.371448
Si Si4 0.187499 0.026990 0.156761
Si Si5 0.587510 0.772220 0.306787
Si Si6 0.256526 0.390060 0.343290
Si Si7 0.591794 0.789252 0.640366
Si Si8 0.912729 0.802798 0.364868
O O1 0.678854 0.301262 0.772193
O O2 0.756866 0.485666 0.723211
O O3 0.854247 0.293137 0.787914
O O4 0.755618 0.408432 0.984777
O O5 0.887199 0.877928 0.779079
O O6 0.820330 0.683878 0.720248
O O7 0.942734 0.761301 0.515693
O O8 0.000000 0.703406 0.750000
O O9 0.273099 0.926585 0.537443
O O10 0.395042 0.890829 0.288691
O O11 0.225004 0.961625 0.288083
O O12 0.341102 0.102051 0.365097
O O13 0.139871 0.921464 0.083397
O O14 0.500000 0.711455 0.250000
O O15 0.562498 0.784374 0.480268
O O16 0.355002 0.323795 0.307244
O O17 0.500000 0.808440 0.750000
O O18 0.000000 0.833319 0.250000
#
# Coordination Sequence:
#
# PCOD8121922 Si02
#       8
#     4   4   4   4   4   4   4   4
#     4  10  23  45  65  88 123 163 208 260 310 364
#     4  11  25  41  63  95 127 162 208 254 310 371
#     4  12  22  40  66  92 129 168 204 251 310 368
#     4  12  22  40  66  92 129 168 204 251 310 368
#     4  11  25  41  63  95 127 162 208 254 310 371
#     4  10  23  45  65  88 123 163 208 260 310 364
#     4  11  24  42  63  92 129 164 204 257 308 368
#     4  11  24  42  63  92 129 164 204 257 308 368
#
# _framework density 20.605564000000001
#
# number of rings (size 3 to 8) (size 9 to 14) (size 15 to 20)
#    0.000    1.000    5.000    1.500    3.500    6.000 
#    0.000    5.000    0.000    0.000    0.000    0.000 
#    0.000    0.000    0.000    0.000    0.000    0.000 
#
# Total GULP energy -396560.249956 kJ/mol
# GULP energy per Si atom -12392.507811 kJ/mol
# Density = 2.055866 g / cm^3
# Si number density = 20.605564 Si / 1000 Ang^3
#
#
#
# Elastic Constant Matrix: (Units=GPa)
#
#
# Indices 1 2 3 4 5 6 
#
# 1 108.6049 21.5708 51.8206 0.0000 9.7076 0.0000
# 2 21.5708 78.0946 35.4460 0.0000 8.1602 0.0000
# 3 51.8206 35.4460 81.4621 0.0000 3.0557 0.0000
# 4 0.0000 0.0000 0.0000 34.9930 0.0000 -0.9824
# 5 9.7076 8.1602 3.0557 0.0000 45.2399 0.0000
# 6 0.0000 0.0000 0.0000 -0.9824 0.0000 12.9058
#
#
#
# Elastic Compliance Matrix: (Units=1/GPa)
#
#
# Indices 1 2 3 4 5 6 
#
# 1 0.013472 0.000471 -0.008685 0.000000 -0.002389 0.000000
# 2 0.000471 0.016240 -0.007271 0.000000 -0.002539 0.000000
# 3 -0.008685 -0.007271 0.020898 0.000000 0.001764 0.000000
# 4 0.000000 0.000000 0.000000 0.028638 0.000000 0.002180
# 5 -0.002389 -0.002539 0.001764 0.000000 0.022956 0.000000
# 6 0.000000 0.000000 0.000000 0.002180 0.000000 0.077650
#
#
# Mechanical properties :
#
#
# Convention : Reuss Voigt Hill
#
# Bulk Modulus (GPa) = 50.91666 53.98184 52.44925
# Shear Modulus (GPa) = 23.00210 29.24935 26.12572
#
# Velocity S-wave (km/s) = 3.34474 3.77170 3.56462
# Velocity P-wave (km/s) = 6.29922 6.72474 6.51546
#
# Compressibility (1/GPa) = 0.01963994
#
# Stress axis : x y z
#
# Youngs Moduli (GPa) = 74.22919 61.57489 47.85177
#
# Poissons Ratio (x) = -0.02897 0.41559
# Poissons Ratio (y) = -0.03493 0.34791
# Poissons Ratio (z) = 0.64468 0.44769
#
# Static dielectric constant tensor:
#      x y z
#    x 1.793570 0.000000 -0.754990 
#    y 0.000000 3.694170 0.000000 
#    z -0.754990 0.000000 3.476400 
# 
# 
# High freq. dielectric constant tensor:
#      x y z
#    x 1.813750 0.000000 0.008610 
#    y 0.000000 1.790440 0.000000 
#    z 0.008610 0.000000 1.817590 
# 
# From -- ./inp_files/19037.got.cif
#   From: 2010.06.25/outbox.cif.g09.slc.cpg/sg13_10_cif.got.tgz:19037.got - 2010.06.28 04:50:58.
