data_PCOD8121654
_publ_section_title
;
Structure prediction by ZEFSAII (Michael W. Deem and Ramdas Pophale) SiO2 
 PCOD8121654
Probable space group: P 2/C
;
_chemical_formula_sum "Si O2"
_cell_formula_units_Z 26
_cell_length_a 8.605048
_cell_length_b 22.474246
_cell_length_c 7.432333
_cell_angle_alpha 90.000000
_cell_angle_beta 54.182879
_cell_angle_gamma 90.000000
_cell_volume 1165.534114
_symmetry_space_group_name_H-M "P 2/C"
_symmetry_group_IT_number 13
_symmetry_cell_setting 'monoclinic'
loop_
_space_group_symop_operation_xyz
x,y,z
-x,y,1/2-z
-x,-y,-z
x,-y,1/2+z
loop_
_atom_site_type_symbol
_atom_site_label
_atom_site_fract_x
_atom_site_fract_y
_atom_site_fract_z
Si Si1 0.219287 0.940439 0.404585
Si Si2 0.800378 0.067487 0.164187
Si Si3 0.500000 0.155683 0.750000
Si Si4 0.000000 0.384419 0.250000
Si Si5 0.500000 0.646929 0.750000
Si Si6 0.337601 0.807005 0.728018
Si Si7 0.417018 0.436686 0.995963
Si Si8 0.902640 0.295318 0.009802
O O1 0.190038 0.925931 0.630545
O O2 0.357410 0.888680 0.235809
O O3 0.016762 0.936665 0.437107
O O4 0.309282 0.006753 0.318418
O O5 0.697681 0.127036 0.166579
O O6 0.596579 0.195745 0.527976
O O7 0.815668 0.428358 0.353074
O O8 0.016985 0.340899 0.063808
O O9 0.516443 0.607964 0.562233
O O10 0.312183 0.684992 0.872479
O O11 0.500000 0.779449 0.750000
O O12 0.135596 0.770056 0.876760
O O13 0.500000 0.419139 0.750000
O O14 0.500000 0.500000 0.000000
O O15 0.000000 0.290555 0.750000
#
# Coordination Sequence:
#
# PCOD8121654 Si02
#       8
#     4   4   2   2   2   4   4   4
#     4   9  19  36  56  82 119 162 197 269 342 413
#     4   9  20  36  55  85 119 157 214 260 339 417
#     4  10  24  40  61  91 130 164 210 286 348 416
#     4  10  26  44  72 106 138 198 230 266 358 394
#     4  10  22  46  65  99 148 178 232 274 332 398
#     4  11  25  41  63  95 123 170 225 277 337 400
#     4  11  22  42  69 108 147 188 224 280 328 392
#     4  11  24  47  69  97 135 182 236 288 334 399
#
# _framework density 22.307369999999999
#
# number of rings (size 3 to 8) (size 9 to 14) (size 15 to 20)
#    0.000    1.846    1.538    0.923    3.231    6.769 
#    9.692    0.000    0.000    0.000    0.000    0.000 
#    0.000    0.000    0.000    0.000    0.000    0.000 
#
# Total GULP energy -322117.673861 kJ/mol
# GULP energy per Si atom -12389.141302 kJ/mol
# Density = 2.225660 g / cm^3
# Si number density = 22.307370 Si / 1000 Ang^3
#
#
#
# Elastic Constant Matrix: (Units=GPa)
#
#
# Indices 1 2 3 4 5 6 
#
# 1 66.2828 18.7723 10.6936 0.0000 14.9964 0.0000
# 2 18.7723 95.1505 38.3897 0.0000 13.5457 0.0000
# 3 10.6936 38.3897 101.3112 0.0000 28.0438 0.0000
# 4 0.0000 0.0000 0.0000 52.1962 0.0000 21.8278
# 5 14.9964 13.5457 28.0438 0.0000 20.4940 0.0000
# 6 0.0000 0.0000 0.0000 21.8278 0.0000 68.1835
#
#
#
# Elastic Compliance Matrix: (Units=1/GPa)
#
#
# Indices 1 2 3 4 5 6 
#
# 1 0.019236 -0.002878 0.003912 0.000000 -0.017526 0.000000
# 2 -0.002878 0.012941 -0.004532 0.000000 -0.000246 0.000000
# 3 0.003912 -0.004532 0.017929 0.000000 -0.024401 0.000000
# 4 0.000000 0.000000 0.000000 0.022120 0.000000 -0.007081
# 5 -0.017526 -0.000246 -0.024401 0.000000 0.095173 0.000000
# 6 0.000000 0.000000 0.000000 -0.007081 0.000000 0.016933
#
#
# Mechanical properties :
#
#
# Convention : Reuss Voigt Hill
#
# Bulk Modulus (GPa) = 23.19658 44.27285 33.73471
# Shear Modulus (GPa) = 24.30735 41.16735 32.73735
#
# Velocity S-wave (km/s) = 3.30457 4.30054 3.83503
# Velocity P-wave (km/s) = 4.99815 6.67453 5.89622
#
# Compressibility (1/GPa) = 0.04310980
#
# Stress axis : x y z
#
# Youngs Moduli (GPa) = 51.98518 77.27402 55.77426
#
# Poissons Ratio (x) = 0.22242 -0.21817
# Poissons Ratio (y) = 0.14963 0.25276
# Poissons Ratio (z) = -0.20335 0.35019
#
# Static dielectric constant tensor:
#      x y z
#    x 4.201600 0.000000 -0.308330 
#    y 0.000000 3.976360 0.000000 
#    z -0.308330 0.000000 4.036150 
# 
# 
# High freq. dielectric constant tensor:
#      x y z
#    x 1.878480 0.000000 -0.001220 
#    y 0.000000 1.879550 0.000000 
#    z -0.001220 0.000000 1.877370 
# 
# From -- ./inp_files/13480.got.cif
#   From: 2010.06.25/outbox.cif.g09.slc.cpg/sg13_7_cif.got.tgz:13480.got - 2010.06.28 04:50:58.
