data_PCOD8121166
_publ_section_title
;
Structure prediction by ZEFSAII (Michael W. Deem and Ramdas Pophale) SiO2 
 PCOD8121166
Probable space group: P 2/C
;
_chemical_formula_sum "Si O2"
_cell_formula_units_Z 28
_cell_length_a 8.094236
_cell_length_b 6.922656
_cell_length_c 24.860065
_cell_angle_alpha 90.000000
_cell_angle_beta 61.237169
_cell_angle_gamma 90.000000
_cell_volume 1221.129612
_symmetry_space_group_name_H-M "P 2/C"
_symmetry_group_IT_number 13
_symmetry_cell_setting 'monoclinic'
loop_
_space_group_symop_operation_xyz
x,y,z
-x,y,1/2-z
-x,-y,-z
x,-y,1/2+z
loop_
_atom_site_type_symbol
_atom_site_label
_atom_site_fract_x
_atom_site_fract_y
_atom_site_fract_z
Si Si1 0.500000 0.507624 0.750000
Si Si2 0.054455 0.963783 0.930995
Si Si3 0.786007 0.346100 0.626132
Si Si4 0.679112 0.669627 0.573675
Si Si5 0.886953 0.652267 0.348341
Si Si6 0.315475 0.125454 0.538356
Si Si7 0.000000 0.968076 0.250000
Si Si8 0.710032 0.694138 0.810444
O O1 0.608683 0.370541 0.692424
O O2 0.646138 0.637231 0.760635
O O3 0.201696 0.122800 0.888460
O O4 0.859093 0.973905 0.928216
O O5 0.172731 0.768369 0.907742
O O6 0.000000 0.000000 0.000000
O O7 0.733906 0.448239 0.577087
O O8 0.978555 0.422337 0.624392
O O9 0.715331 0.727701 0.506632
O O10 0.466587 0.727756 0.622455
O O11 0.694091 0.741009 0.406268
O O12 0.839131 0.475930 0.315961
O O13 0.003441 0.823788 0.300500
O O14 0.500000 0.000000 0.500000
O O15 0.181671 0.104697 0.214692
#
# Coordination Sequence:
#
# PCOD8121166 Si02
#       8
#     2   4   4   4   4   4   2   4
#     4  10  22  40  62  92 126 160 208 262 312 382
#     4   9  21  39  61  90 124 163 212 258 310 382
#     4  10  22  40  63  92 128 167 209 263 322 377
#     4  10  23  42  65  94 130 171 211 264 322 381
#     4  11  25  42  65  96 129 167 216 271 317 388
#     4  10  22  41  66  98 132 173 219 267 329 389
#     4  12  24  44  66  90 132 172 210 272 332 380
#     4  11  25  43  66  96 127 168 221 262 321 394
#
# _framework density 22.929587999999999
#
# number of rings (size 3 to 8) (size 9 to 14) (size 15 to 20)
#    0.000    1.714    0.000    3.000    0.000   21.714 
#    0.000    2.857    0.000    0.000    0.000    0.000 
#    0.000    0.000    0.000    0.000    0.000    0.000 
#
# Total GULP energy -346962.484894 kJ/mol
# GULP energy per Si atom -12391.517318 kJ/mol
# Density = 2.287740 g / cm^3
# Si number density = 22.929588 Si / 1000 Ang^3
#
#
#
# Elastic Constant Matrix: (Units=GPa)
#
#
# Indices 1 2 3 4 5 6 
#
# 1 74.4092 29.2663 22.6200 0.0000 -5.4219 0.0000
# 2 29.2663 77.8918 35.1812 0.0000 -6.5342 0.0000
# 3 22.6200 35.1812 80.2427 0.0000 2.4362 0.0000
# 4 0.0000 0.0000 0.0000 35.2270 0.0000 -8.5964
# 5 -5.4219 -6.5342 2.4362 0.0000 41.8168 0.0000
# 6 0.0000 0.0000 0.0000 -8.5964 0.0000 33.7665
#
#
#
# Elastic Compliance Matrix: (Units=1/GPa)
#
#
# Indices 1 2 3 4 5 6 
#
# 1 0.016209 -0.004839 -0.002493 0.000000 0.001491 0.000000
# 2 -0.004839 0.017816 -0.006524 0.000000 0.002537 0.000000
# 3 -0.002493 -0.006524 0.016094 0.000000 -0.002280 0.000000
# 4 0.000000 0.000000 0.000000 0.030268 0.000000 0.007706
# 5 0.001491 0.002537 -0.002280 0.000000 0.024636 0.000000
# 6 0.000000 0.000000 0.000000 0.007706 0.000000 0.031577
#
#
# Mechanical properties :
#
#
# Convention : Reuss Voigt Hill
#
# Bulk Modulus (GPa) = 44.62814 45.18652 44.90733
# Shear Modulus (GPa) = 29.10673 31.86049 30.48361
#
# Velocity S-wave (km/s) = 3.56672 3.73163 3.65011
# Velocity P-wave (km/s) = 6.03882 6.19001 6.11488
#
# Compressibility (1/GPa) = 0.02240739
#
# Stress axis : x y z
#
# Youngs Moduli (GPa) = 61.69426 56.12915 62.13303
#
# Poissons Ratio (x) = 0.27162 0.15488
# Poissons Ratio (y) = 0.29855 0.40536
# Poissons Ratio (z) = 0.15379 0.36619
#
# Static dielectric constant tensor:
#      x y z
#    x 4.399770 0.000000 -0.074630 
#    y 0.000000 4.230830 0.000000 
#    z -0.074630 0.000000 4.239620 
# 
# 
# High freq. dielectric constant tensor:
#      x y z
#    x 1.902630 0.000000 -0.006060 
#    y 0.000000 1.894480 0.000000 
#    z -0.006060 0.000000 1.921870 
# 
# From -- ./inp_files/95604.got.cif
#   From: 2010.06.25/outbox.cif.g09.slc.cpg/sg13_48_cif.got.tgz:95604.got - 2010.06.28 04:50:58.
