data_PCOD8121293
_publ_section_title
;
Structure prediction by ZEFSAII (Michael W. Deem and Ramdas Pophale) SiO2 
 PCOD8121293
Probable space group: P 2/C
;
_chemical_formula_sum "Si O2"
_cell_formula_units_Z 20
_cell_length_a 11.499647
_cell_length_b 13.949462
_cell_length_c 13.108804
_cell_angle_alpha 90.000000
_cell_angle_beta 28.688292
_cell_angle_gamma 90.000000
_cell_volume 1009.453477
_symmetry_space_group_name_H-M "P 2/C"
_symmetry_group_IT_number 13
_symmetry_cell_setting 'monoclinic'
loop_
_space_group_symop_operation_xyz
x,y,z
-x,y,1/2-z
-x,-y,-z
x,-y,1/2+z
loop_
_atom_site_type_symbol
_atom_site_label
_atom_site_fract_x
_atom_site_fract_y
_atom_site_fract_z
Si Si1 0.766206 0.742423 0.864512
Si Si2 0.004770 0.757576 0.364511
Si Si3 0.500000 0.659392 0.250000
Si Si4 0.035982 0.606251 0.510163
Si Si5 0.556307 0.106252 0.989839
Si Si6 0.500000 0.159393 0.250000
O O1 0.824498 0.652321 0.744126
O O2 0.000000 0.774813 0.750000
O O3 0.552730 0.721905 0.108828
O O4 0.672419 0.829504 0.867542
O O5 0.092496 0.670496 0.367543
O O6 0.729614 0.778095 0.608827
O O7 0.000000 0.725184 0.250000
O O8 0.187250 0.847679 0.244125
O O9 0.268404 0.595188 0.404148
O O10 0.000000 0.500000 0.500000
O O11 0.576701 0.095189 0.095851
O O12 0.500000 0.000000 0.000000
#
# Coordination Sequence:
#
# PCOD8121293 Si02
#       6
#     4   4   2   4   4   2
#     4  10  22  41  64  92 130 165 211 264 314 373
#     4  10  22  41  64  92 130 165 211 264 314 373
#     4  10  22  42  62  94 132 162 214 260 316 384
#     4  11  23  41  66  93 126 170 212 261 318 377
#     4  11  23  41  66  93 126 170 212 261 318 377
#     4  10  22  42  62  94 132 162 214 260 316 384
#
# _framework density 19.812702000000002
#
# number of rings (size 3 to 8) (size 9 to 14) (size 15 to 20)
#    0.000    1.600    4.000    0.000    0.000    8.000 
#    0.000    0.000    0.000    0.000    0.000    0.000 
#    0.000    0.000    0.000    0.000    0.000    0.000 
#
# Total GULP energy -247835.263681 kJ/mol
# GULP energy per Si atom -12391.763184 kJ/mol
# Density = 1.976761 g / cm^3
# Si number density = 19.812702 Si / 1000 Ang^3
#
#
#
# Elastic Constant Matrix: (Units=GPa)
#
#
# Indices 1 2 3 4 5 6 
#
# 1 106.4527 62.9131 36.7102 0.0000 1.4053 0.0000
# 2 62.9131 150.4125 55.7063 0.0000 -0.5096 0.0000
# 3 36.7102 55.7063 105.8952 0.0000 -1.4448 0.0000
# 4 0.0000 0.0000 0.0000 20.4067 0.0000 -0.6587
# 5 1.4053 -0.5096 -1.4448 0.0000 44.6006 0.0000
# 6 0.0000 0.0000 0.0000 -0.6587 0.0000 29.7050
#
#
#
# Elastic Compliance Matrix: (Units=1/GPa)
#
#
# Indices 1 2 3 4 5 6 
#
# 1 0.012828 -0.004617 -0.002025 0.000000 -0.000523 0.000000
# 2 -0.004617 0.009919 -0.003615 0.000000 0.000142 0.000000
# 3 -0.002025 -0.003615 0.012053 0.000000 0.000413 0.000000
# 4 0.000000 0.000000 0.000000 0.049039 0.000000 0.001087
# 5 -0.000523 0.000142 0.000413 0.000000 0.022453 0.000000
# 6 0.000000 0.000000 0.000000 0.001087 0.000000 0.033688
#
#
# Mechanical properties :
#
#
# Convention : Reuss Voigt Hill
#
# Bulk Modulus (GPa) = 70.00742 74.82441 72.41591
# Shear Modulus (GPa) = 30.25594 32.77118 31.51356
#
# Velocity S-wave (km/s) = 3.91205 4.07141 3.99253
# Velocity P-wave (km/s) = 7.47107 7.74272 7.60811
#
# Compressibility (1/GPa) = 0.01428420
#
# Stress axis : x y z
#
# Youngs Moduli (GPa) = 77.95497 100.81552 82.96778
#
# Poissons Ratio (x) = 0.46549 0.16803
# Poissons Ratio (y) = 0.35994 0.29996
# Poissons Ratio (z) = 0.15788 0.36449
#
# Static dielectric constant tensor:
#      x y z
#    x 4.012910 0.000000 -0.005380 
#    y 0.000000 3.162790 0.000000 
#    z -0.005380 0.000000 3.937610 
# 
# 
# High freq. dielectric constant tensor:
#      x y z
#    x 1.805640 0.000000 -0.001680 
#    y 0.000000 1.732070 0.000000 
#    z -0.001680 0.000000 1.781930 
# 
# From -- ./inp_files/51096.got.cif
#   From: 2010.06.25/outbox.cif.g09.slc.cpg/sg13_26_cif.got.tgz:51096.got - 2010.06.28 04:50:58.
