data_PCOD8121517
_publ_section_title
;
Structure prediction by ZEFSAII (Michael W. Deem and Ramdas Pophale) SiO2 
 PCOD8121517
Probable space group: P 2/C
;
_chemical_formula_sum "Si O2"
_cell_formula_units_Z 20
_cell_length_a 18.555089
_cell_length_b 5.698754
_cell_length_c 14.310143
_cell_angle_alpha 90.000000
_cell_angle_beta 33.726184
_cell_angle_gamma 90.000000
_cell_volume 840.147621
_symmetry_space_group_name_H-M "P 2/C"
_symmetry_group_IT_number 13
_symmetry_cell_setting 'monoclinic'
loop_
_space_group_symop_operation_xyz
x,y,z
-x,y,1/2-z
-x,-y,-z
x,-y,1/2+z
loop_
_atom_site_type_symbol
_atom_site_label
_atom_site_fract_x
_atom_site_fract_y
_atom_site_fract_z
Si Si1 0.225872 0.037394 0.577141
Si Si2 0.500000 0.884732 0.250000
Si Si3 0.818573 0.274963 0.679022
Si Si4 0.930161 0.657132 0.673572
Si Si5 0.456459 0.748035 0.094154
Si Si6 0.000000 0.685081 0.250000
O O1 0.222547 0.135282 0.685147
O O2 0.133059 0.166769 0.604338
O O3 0.372099 0.047052 0.380850
O O4 0.170959 0.774249 0.646245
O O5 0.507660 0.733280 0.146119
O O6 0.850214 0.545189 0.673522
O O7 0.700092 0.257640 0.734423
O O8 0.952600 0.172533 0.489068
O O9 0.006143 0.457500 0.648120
O O10 0.500000 0.500000 0.000000
O O11 0.500000 0.000000 0.000000
#
# Coordination Sequence:
#
# PCOD8121517 Si02
#       6
#     4   2   4   4   4   2
#     4  11  23  46  68 107 144 192 255 318 390 476
#     4  12  28  48  80 110 158 212 260 330 400 478
#     4  10  23  44  71 101 143 198 252 321 393 462
#     4  10  22  43  68 104 143 192 249 322 392 464
#     4  12  28  52  76 115 161 213 266 329 397 483
#     4  10  24  38  68 104 146 190 256 310 386 476
#
# _framework density 23.805339
#
# number of rings (size 3 to 8) (size 9 to 14) (size 15 to 20)
#    0.000    1.200    2.000    2.400    5.600    2.400 
#    3.600    0.000    0.000    0.000    0.000    0.000 
#    0.000    0.000    0.000    0.000    0.000    0.000 
#
# Total GULP energy -247800.779799 kJ/mol
# GULP energy per Si atom -12390.038990 kJ/mol
# Density = 2.375116 g / cm^3
# Si number density = 23.805339 Si / 1000 Ang^3
#
#
#
# Elastic Constant Matrix: (Units=GPa)
#
#
# Indices 1 2 3 4 5 6 
#
# 1 144.2423 44.1055 44.6897 0.0000 -15.1439 0.0000
# 2 44.1055 106.0118 49.0484 0.0000 -8.1802 0.0000
# 3 44.6897 49.0484 153.5218 0.0000 -31.2204 0.0000
# 4 0.0000 0.0000 0.0000 30.1981 0.0000 -0.9507
# 5 -15.1439 -8.1802 -31.2204 0.0000 53.0529 0.0000
# 6 0.0000 0.0000 0.0000 -0.9507 0.0000 23.2234
#
#
#
# Elastic Compliance Matrix: (Units=1/GPa)
#
#
# Indices 1 2 3 4 5 6 
#
# 1 0.008303 -0.002765 -0.001293 0.000000 0.001183 0.000000
# 2 -0.002765 0.011998 -0.003195 0.000000 -0.000819 0.000000
# 3 -0.001293 -0.003195 0.008787 0.000000 0.004309 0.000000
# 4 0.000000 0.000000 0.000000 0.033157 0.000000 0.001357
# 5 0.001183 -0.000819 0.004309 0.000000 0.021596 0.000000
# 6 0.000000 0.000000 0.000000 0.001357 0.000000 0.043116
#
#
# Mechanical properties :
#
#
# Convention : Reuss Voigt Hill
#
# Bulk Modulus (GPa) = 68.57564 75.49591 72.03577
# Shear Modulus (GPa) = 34.17055 39.02371 36.59713
#
# Velocity S-wave (km/s) = 3.79280 4.05320 3.92516
# Velocity P-wave (km/s) = 6.93180 7.32716 7.13222
#
# Compressibility (1/GPa) = 0.01458244
#
# Stress axis : x y z
#
# Youngs Moduli (GPa) = 120.43817 83.34541 113.80056
#
# Poissons Ratio (x) = 0.23044 0.14716
# Poissons Ratio (y) = 0.33300 0.36360
# Poissons Ratio (z) = 0.15574 0.26630
#
# Static dielectric constant tensor:
#      x y z
#    x 4.487140 0.000000 -0.223820 
#    y 0.000000 4.334590 0.000000 
#    z -0.223820 0.000000 4.301090 
# 
# 
# High freq. dielectric constant tensor:
#      x y z
#    x 1.960970 0.000000 -0.008810 
#    y 0.000000 1.926310 0.000000 
#    z -0.008810 0.000000 1.944980 
# 
# From -- ./inp_files/56406.got.cif
#   From: 2010.06.25/outbox.cif.g09.slc.cpg/sg13_29_cif.got.tgz:56406.got - 2010.06.28 04:50:58.
