data_PCOD8121439
_publ_section_title
;
Structure prediction by ZEFSAII (Michael W. Deem and Ramdas Pophale) SiO2 
 PCOD8121439
Probable space group: P 2/C
;
_chemical_formula_sum "Si O2"
_cell_formula_units_Z 18
_cell_length_a 22.935895
_cell_length_b 7.827528
_cell_length_c 15.930277
_cell_angle_alpha 90.000000
_cell_angle_beta 161.618239
_cell_angle_gamma 90.000000
_cell_volume 901.887368
_symmetry_space_group_name_H-M "P 2/C"
_symmetry_group_IT_number 13
_symmetry_cell_setting 'monoclinic'
loop_
_space_group_symop_operation_xyz
x,y,z
-x,y,1/2-z
-x,-y,-z
x,-y,1/2+z
loop_
_atom_site_type_symbol
_atom_site_label
_atom_site_fract_x
_atom_site_fract_y
_atom_site_fract_z
Si Si1 0.658018 0.371365 0.742910
Si Si2 0.000000 0.410420 0.750000
Si Si3 0.430817 0.173084 0.563505
Si Si4 0.785622 0.860366 0.268086
Si Si5 0.041919 0.200834 0.974407
O O1 0.500000 0.500000 0.500000
O O2 0.583401 0.228355 0.704503
O O3 0.737404 0.281383 0.769293
O O4 0.819716 0.473021 0.009938
O O5 0.001679 0.290587 0.671704
O O6 0.500000 0.222886 0.750000
O O7 0.398057 0.967945 0.509695
O O8 0.236142 0.270719 0.278757
O O9 0.873406 0.763360 0.307954
O O10 0.938099 0.995111 0.513056
#
# Coordination Sequence:
#
# PCOD8121439 Si02
#       5
#     4   2   4   4   4
#     4  12  25  42  63 101 136 173 209 266 332 396
#     4  12  26  40  70  92 140 170 212 268 336 380
#     4  10  22  42  67  95 127 169 222 266 318 381
#     4   9  22  43  68  91 128 168 223 265 316 381
#     4   9  22  45  65  95 126 171 221 266 315 384
#
# _framework density 19.958144999999998
#
# number of rings (size 3 to 8) (size 9 to 14) (size 15 to 20)
#    1.333    0.444    2.222    0.667    3.111    7.111 
#    0.000    0.000    0.000    0.000    0.000    0.000 
#    0.000    0.000    0.000    0.000    0.000    0.000 
#
# Total GULP energy -223150.413443 kJ/mol
# GULP energy per Si atom -12397.245191 kJ/mol
# Density = 1.991272 g / cm^3
# Si number density = 19.958145 Si / 1000 Ang^3
#
#
#
# Elastic Constant Matrix: (Units=GPa)
#
#
# Indices 1 2 3 4 5 6 
#
# 1 188.6384 72.5551 70.6373 0.0000 0.9910 0.0000
# 2 72.5551 71.6075 47.7765 0.0000 1.0179 0.0000
# 3 70.6373 47.7765 119.8832 0.0000 -10.7012 0.0000
# 4 0.0000 0.0000 0.0000 37.4678 0.0000 1.2485
# 5 0.9910 1.0179 -10.7012 0.0000 33.5781 0.0000
# 6 0.0000 0.0000 0.0000 1.2485 0.0000 9.9193
#
#
#
# Elastic Compliance Matrix: (Units=1/GPa)
#
#
# Indices 1 2 3 4 5 6 
#
# 1 0.009153 -0.007650 -0.002416 0.000000 -0.000808 0.000000
# 2 -0.007650 0.025732 -0.005967 0.000000 -0.002456 0.000000
# 3 -0.002416 -0.005967 0.012522 0.000000 0.004243 0.000000
# 4 0.000000 0.000000 0.000000 0.026802 0.000000 -0.003374
# 5 -0.000808 -0.002456 0.004243 0.000000 0.031232 0.000000
# 6 0.000000 0.000000 0.000000 -0.003374 0.000000 0.101239
#
#
# Mechanical properties :
#
#
# Convention : Reuss Voigt Hill
#
# Bulk Modulus (GPa) = 65.18639 84.67407 74.93023
# Shear Modulus (GPa) = 20.50370 28.80371 24.65371
#
# Velocity S-wave (km/s) = 3.20868 3.80308 3.51845
# Velocity P-wave (km/s) = 6.81616 7.86145 7.35739
#
# Compressibility (1/GPa) = 0.01534063
#
# Stress axis : x y z
#
# Youngs Moduli (GPa) = 109.25848 38.86184 79.86120
#
# Poissons Ratio (x) = 0.29730 0.19297
# Poissons Ratio (y) = 0.83584 0.47650
# Poissons Ratio (z) = 0.26400 0.23187
#
# Static dielectric constant tensor:
#      x y z
#    x 3.574020 0.000000 0.179770 
#    y 0.000000 3.481450 0.000000 
#    z 0.179770 0.000000 3.652990 
# 
# 
# High freq. dielectric constant tensor:
#      x y z
#    x 1.788030 0.000000 0.010720 
#    y 0.000000 1.766980 0.000000 
#    z 0.010720 0.000000 1.774130 
# 
# From -- ./inp_files/57087.got.cif
#   From: 2010.06.25/outbox.cif.g09.slc.cpg/sg13_29_cif.got.tgz:57087.got - 2010.06.28 04:50:58.
