data_PCOD8121218
_publ_section_title
;
Structure prediction by ZEFSAII (Michael W. Deem and Ramdas Pophale) SiO2 
 PCOD8121218
Probable space group: P 2/C
;
_chemical_formula_sum "Si O2"
_cell_formula_units_Z 28
_cell_length_a 8.721177
_cell_length_b 11.744301
_cell_length_c 13.998198
_cell_angle_alpha 90.000000
_cell_angle_beta 114.810677
_cell_angle_gamma 90.000000
_cell_volume 1301.416792
_symmetry_space_group_name_H-M "P 2/C"
_symmetry_group_IT_number 13
_symmetry_cell_setting 'monoclinic'
loop_
_space_group_symop_operation_xyz
x,y,z
-x,y,1/2-z
-x,-y,-z
x,-y,1/2+z
loop_
_atom_site_type_symbol
_atom_site_label
_atom_site_fract_x
_atom_site_fract_y
_atom_site_fract_z
Si Si1 0.577399 0.180834 0.036047
Si Si2 0.699730 0.331929 0.794528
Si Si3 0.873844 0.288319 0.028155
Si Si4 0.454670 0.002230 0.134800
Si Si5 0.229756 0.731938 0.397491
Si Si6 0.110272 0.110832 0.018785
Si Si7 0.001168 0.513046 0.143856
O O1 0.415903 0.266209 0.995030
O O2 0.566295 0.106248 0.937049
O O3 0.748056 0.255920 0.082119
O O4 0.590216 0.092271 0.127333
O O5 0.500000 0.357838 0.750000
O O6 0.750704 0.261257 0.712324
O O7 0.805058 0.450206 0.824560
O O8 0.764259 0.263555 0.903678
O O9 0.036141 0.207455 0.069014
O O10 0.939898 0.417405 0.053414
O O11 0.500000 0.952583 0.250000
O O12 0.290742 0.078743 0.105520
O O13 0.127240 0.840825 0.413646
O O14 0.127386 0.619235 0.400348
O O15 0.000000 0.000000 0.000000
O O16 0.000000 0.461286 0.250000
#
# Coordination Sequence:
#
# PCOD8121218 Si02
#       7
#     4   4   4   4   4   4   4
#     4  10  22  40  66  96 128 174 226 274 330 401
#     4  11  22  41  67 102 126 174 224 276 337 395
#     4  12  23  41  70  95 135 172 224 277 339 398
#     4  10  23  43  63  92 136 176 222 278 331 396
#     4  10  22  41  64  96 133 166 224 272 330 398
#     4  11  23  41  66  97 132 177 219 273 338 400
#     4  10  24  44  64  96 136 174 222 283 333 408
#
# _framework density 21.515013
#
# number of rings (size 3 to 8) (size 9 to 14) (size 15 to 20)
#    0.000    1.429    4.286    0.429    2.000    1.714 
#    0.000    0.714    3.143    0.000    0.000    0.000 
#    0.000    0.000    0.000    0.000    0.000    0.000 
#
# Total GULP energy -347012.878511 kJ/mol
# GULP energy per Si atom -12393.317090 kJ/mol
# Density = 2.146604 g / cm^3
# Si number density = 21.515013 Si / 1000 Ang^3
#
#
#
# Elastic Constant Matrix: (Units=GPa)
#
#
# Indices 1 2 3 4 5 6 
#
# 1 145.6912 57.6187 20.2212 0.0000 5.4326 0.0000
# 2 57.6187 104.8525 18.5513 0.0000 1.6826 0.0000
# 3 20.2212 18.5513 57.6923 0.0000 -8.9317 0.0000
# 4 0.0000 0.0000 0.0000 22.9586 0.0000 -1.3843
# 5 5.4326 1.6826 -8.9317 0.0000 26.5732 0.0000
# 6 0.0000 0.0000 0.0000 -1.3843 0.0000 36.4102
#
#
#
# Elastic Compliance Matrix: (Units=1/GPa)
#
#
# Indices 1 2 3 4 5 6 
#
# 1 0.009039 -0.004569 -0.002047 0.000000 -0.002246 0.000000
# 2 -0.004569 0.012507 -0.002530 0.000000 -0.000708 0.000000
# 3 -0.002047 -0.002530 0.019994 0.000000 0.007299 0.000000
# 4 0.000000 0.000000 0.000000 0.043657 0.000000 0.001660
# 5 -0.002246 -0.000708 0.007299 0.000000 0.040589 0.000000
# 6 0.000000 0.000000 0.000000 0.001660 0.000000 0.027528
#
#
# Mechanical properties :
#
#
# Convention : Reuss Voigt Hill
#
# Bulk Modulus (GPa) = 43.01289 55.66870 49.34080
# Shear Modulus (GPa) = 27.87785 31.31138 29.59461
#
# Velocity S-wave (km/s) = 3.60354 3.81901 3.71284
# Velocity P-wave (km/s) = 6.11142 6.73625 6.43143
#
# Compressibility (1/GPa) = 0.02324884
#
# Stress axis : x y z
#
# Youngs Moduli (GPa) = 110.63761 79.95661 50.01443
#
# Poissons Ratio (x) = 0.36530 0.10237
# Poissons Ratio (y) = 0.50547 0.12653
# Poissons Ratio (z) = 0.22644 0.20229
#
# Static dielectric constant tensor:
#      x y z
#    x 3.962740 0.000000 0.053850 
#    y 0.000000 3.733590 0.000000 
#    z 0.053850 0.000000 3.698790 
# 
# 
# High freq. dielectric constant tensor:
#      x y z
#    x 1.872030 0.000000 -0.008360 
#    y 0.000000 1.834600 0.000000 
#    z -0.008360 0.000000 1.816480 
# 
# From -- ./inp_files/47319.got.cif
#   From: 2010.06.25/outbox.cif.g09.slc.cpg/sg13_24_cif.got.tgz:47319.got - 2010.06.28 04:50:58.
