data_PCOD8121596
_publ_section_title
;
Structure prediction by ZEFSAII (Michael W. Deem and Ramdas Pophale) SiO2 
 PCOD8121596
Probable space group: P 2/C
;
_chemical_formula_sum "Si O2"
_cell_formula_units_Z 26
_cell_length_a 13.011793
_cell_length_b 9.037768
_cell_length_c 11.488482
_cell_angle_alpha 90.000000
_cell_angle_beta 61.452508
_cell_angle_gamma 90.000000
_cell_volume 1186.762568
_symmetry_space_group_name_H-M "P 2/C"
_symmetry_group_IT_number 13
_symmetry_cell_setting 'monoclinic'
loop_
_space_group_symop_operation_xyz
x,y,z
-x,y,1/2-z
-x,-y,-z
x,-y,1/2+z
loop_
_atom_site_type_symbol
_atom_site_label
_atom_site_fract_x
_atom_site_fract_y
_atom_site_fract_z
Si Si1 0.126156 0.845528 0.182292
Si Si2 0.531832 0.734418 0.945576
Si Si3 0.884836 0.465532 0.884009
Si Si4 0.500000 0.056640 0.250000
Si Si5 0.663670 0.552135 0.345855
Si Si6 0.822601 0.691773 0.099162
Si Si7 0.297341 0.083957 0.985094
O O1 0.122055 0.712728 0.088047
O O2 0.131684 0.759348 0.303620
O O3 0.000000 0.929988 0.250000
O O4 0.233768 0.955761 0.096414
O O5 0.579938 0.584201 0.864981
O O6 0.622645 0.808418 0.983365
O O7 0.510935 0.852074 0.859436
O O8 0.406081 0.695066 0.067892
O O9 0.767030 0.504573 0.875339
O O10 0.000000 0.506953 0.750000
O O11 0.898120 0.562836 0.995033
O O12 0.379375 0.967985 0.333755
O O13 0.704720 0.604169 0.196379
O O14 0.806911 0.823575 0.016147
#
# Coordination Sequence:
#
# PCOD8121596 Si02
#       7
#     4   4   4   2   4   4   4
#     4  10  25  45  66 101 140 175 232 285 334 414
#     4  11  24  41  63  99 131 176 224 282 329 411
#     4  10  22  44  68  98 130 174 228 281 331 405
#     4  12  24  36  64  90 130 180 214 272 348 392
#     4  10  23  41  65  98 134 164 232 278 330 401
#     4  11  23  43  71  96 130 186 216 285 346 390
#     4  12  24  44  65  99 139 179 226 276 345 418
#
# _framework density 21.908342999999999
#
# number of rings (size 3 to 8) (size 9 to 14) (size 15 to 20)
#    0.000    1.231    1.538    4.154    4.308    6.769 
#    0.000    0.000    0.000    0.000    0.000    0.000 
#    0.000    0.000    0.000    0.000    0.000    0.000 
#
# Total GULP energy -322094.115163 kJ/mol
# GULP energy per Si atom -12388.235199 kJ/mol
# Density = 2.185848 g / cm^3
# Si number density = 21.908343 Si / 1000 Ang^3
#
#
#
# Elastic Constant Matrix: (Units=GPa)
#
#
# Indices 1 2 3 4 5 6 
#
# 1 70.3005 35.7193 34.6743 0.0000 -20.4265 0.0000
# 2 35.7193 103.4930 58.5137 0.0000 -0.2311 0.0000
# 3 34.6743 58.5137 120.6008 0.0000 -15.1628 0.0000
# 4 0.0000 0.0000 0.0000 78.6280 0.0000 195.3215
# 5 -20.4265 -0.2311 -15.1628 0.0000 26.8956 0.0000
# 6 0.0000 0.0000 0.0000 195.3215 0.0000 737.5962
#
#
#
# Elastic Compliance Matrix: (Units=1/GPa)
#
#
# Indices 1 2 3 4 5 6 
#
# 1 0.023553 -0.007567 -0.000925 0.000000 0.017301 0.000000
# 2 -0.007567 0.016117 -0.006833 0.000000 -0.009461 0.000000
# 3 -0.000925 -0.006833 0.012676 0.000000 0.006385 0.000000
# 4 0.000000 0.000000 0.000000 0.037167 0.000000 -0.009842
# 5 0.017301 -0.009461 0.006385 0.000000 0.053839 0.000000
# 6 0.000000 0.000000 0.000000 -0.009842 0.000000 0.003962
#
#
# Mechanical properties :
#
#
# Convention : Reuss Voigt Hill
#
# Bulk Modulus (GPa) = 46.09544 61.35653 53.72599
# Shear Modulus (GPa) = 26.99836 179.65643 103.32740
#
# Velocity S-wave (km/s) = 3.51427 9.06541 6.87502
# Velocity P-wave (km/s) = 6.12802 11.73211 9.35935
#
# Compressibility (1/GPa) = 0.02169412
#
# Stress axis : x y z
#
# Youngs Moduli (GPa) = 42.45774 62.04768 78.88945
#
# Poissons Ratio (x) = 0.46954 0.07297
# Poissons Ratio (y) = 0.32129 0.53908
# Poissons Ratio (z) = 0.03927 0.42399
#
# Static dielectric constant tensor:
#      x y z
#    x 3.437690 0.000000 -0.510240 
#    y 0.000000 4.142740 0.000000 
#    z -0.510240 0.000000 3.911020 
# 
# 
# High freq. dielectric constant tensor:
#      x y z
#    x 1.862780 0.000000 -0.014020 
#    y 0.000000 1.868980 0.000000 
#    z -0.014020 0.000000 1.859860 
# 
# From -- ./inp_files/36103.got.cif
#   From: 2010.06.25/outbox.cif.g09.slc.cpg/sg13_19_cif.got.tgz:36103.got - 2010.06.28 04:50:58.
