data_PCOD8121804
_publ_section_title
;
Structure prediction by ZEFSAII (Michael W. Deem and Ramdas Pophale) SiO2 
 PCOD8121804
Probable space group: P 2/C
;
_chemical_formula_sum "Si O2"
_cell_formula_units_Z 28
_cell_length_a 18.821024
_cell_length_b 9.248930
_cell_length_c 14.160011
_cell_angle_alpha 90.000000
_cell_angle_beta 31.773556
_cell_angle_gamma 90.000000
_cell_volume 1297.923424
_symmetry_space_group_name_H-M "P 2/C"
_symmetry_group_IT_number 13
_symmetry_cell_setting 'monoclinic'
loop_
_space_group_symop_operation_xyz
x,y,z
-x,y,1/2-z
-x,-y,-z
x,-y,1/2+z
loop_
_atom_site_type_symbol
_atom_site_label
_atom_site_fract_x
_atom_site_fract_y
_atom_site_fract_z
Si Si1 0.148692 0.342419 0.110615
Si Si2 0.503662 0.728346 0.558262
Si Si3 0.750518 0.119124 0.235677
Si Si4 0.657394 0.548095 0.257857
Si Si5 0.138606 0.588855 0.834359
Si Si6 0.632325 0.049914 0.046308
Si Si7 0.150968 0.989258 0.557516
O O1 0.179049 0.389167 0.181396
O O2 0.000000 0.390161 0.250000
O O3 0.172464 0.174388 0.065503
O O4 0.250288 0.436739 0.936185
O O5 0.381736 0.832561 0.670786
O O6 0.591234 0.701168 0.363797
O O7 0.454401 0.569509 0.645788
O O8 0.591219 0.800297 0.542367
O O9 0.860590 0.248326 0.122986
O O10 0.700913 0.055873 0.391657
O O11 0.821997 0.002607 0.085784
O O12 0.742647 0.499919 0.252358
O O13 0.000000 0.500000 0.000000
O O14 0.500000 0.983256 0.250000
O O15 0.745100 0.085628 0.998170
O O16 0.000000 0.042683 0.750000
#
# Coordination Sequence:
#
# PCOD8121804 Si02
#       7
#     4   4   4   4   4   4   4
#     4  11  22  44  69  96 138 180 237 285 356 430
#     4  10  23  42  64  97 140 175 231 290 344 414
#     4  11  24  45  67 102 141 177 242 289 350 423
#     4  10  23  42  66  96 137 182 227 288 349 421
#     4  11  23  43  66  99 137 183 228 287 354 417
#     4  12  24  41  73 104 138 185 229 292 358 415
#     4  11  26  46  69 102 137 184 236 294 353 425
#
# _framework density 21.57292
#
# number of rings (size 3 to 8) (size 9 to 14) (size 15 to 20)
#    0.000    1.143    4.286    1.286    2.000    2.857 
#    5.143    5.000    0.000    0.000    0.000    0.000 
#    0.000    0.000    0.000    0.000    0.000    0.000 
#
# Total GULP energy -347102.240405 kJ/mol
# GULP energy per Si atom -12396.508586 kJ/mol
# Density = 2.152382 g / cm^3
# Si number density = 21.572920 Si / 1000 Ang^3
#
#
#
# Elastic Constant Matrix: (Units=GPa)
#
#
# Indices 1 2 3 4 5 6 
#
# 1 115.2744 40.4871 54.3432 0.0000 4.3368 0.0000
# 2 40.4871 80.4420 56.2317 0.0000 2.7093 0.0000
# 3 54.3432 56.2317 157.1824 0.0000 17.0369 0.0000
# 4 0.0000 0.0000 0.0000 46.1707 0.0000 44.1583
# 5 4.3368 2.7093 17.0369 0.0000 44.2990 0.0000
# 6 0.0000 0.0000 0.0000 44.1583 0.0000 187.3754
#
#
#
# Elastic Compliance Matrix: (Units=1/GPa)
#
#
# Indices 1 2 3 4 5 6 
#
# 1 0.011218 -0.003908 -0.002491 0.000000 0.000099 0.000000
# 2 -0.003908 0.018013 -0.005233 0.000000 0.001294 0.000000
# 3 -0.002491 -0.005233 0.009427 0.000000 -0.003062 0.000000
# 4 0.000000 0.000000 0.000000 0.027961 0.000000 -0.006590
# 5 0.000099 0.001294 -0.003062 0.000000 0.023663 0.000000
# 6 0.000000 0.000000 0.000000 -0.006590 0.000000 0.006890
#
#
# Mechanical properties :
#
#
# Convention : Reuss Voigt Hill
#
# Bulk Modulus (GPa) = 64.96181 72.78029 68.87105
# Shear Modulus (GPa) = 39.81912 69.02481 54.42197
#
# Velocity S-wave (km/s) = 4.30093 5.66264 5.02810
# Velocity P-wave (km/s) = 7.40554 8.75009 8.10574
#
# Compressibility (1/GPa) = 0.01539366
#
# Stress axis : x y z
#
# Youngs Moduli (GPa) = 89.14053 55.51585 106.07535
#
# Poissons Ratio (x) = 0.21697 0.26424
# Poissons Ratio (y) = 0.34838 0.55510
# Poissons Ratio (z) = 0.22206 0.29052
#
# Static dielectric constant tensor:
#      x y z
#    x 3.986790 0.000000 -0.034650 
#    y 0.000000 3.838080 0.000000 
#    z -0.034650 0.000000 4.115540 
# 
# 
# High freq. dielectric constant tensor:
#      x y z
#    x 1.854640 0.000000 0.001800 
#    y 0.000000 1.834670 0.000000 
#    z 0.001800 0.000000 1.860910 
# 
# From -- ./inp_files/57445.got.cif
#   From: 2010.06.25/outbox.cif.g09.slc.cpg/sg13_29_cif.got.tgz:57445.got - 2010.06.28 04:50:58.
