data_PCOD8121251
_publ_section_title
;
Structure prediction by ZEFSAII (Michael W. Deem and Ramdas Pophale) SiO2 
 PCOD8121251
Probable space group: P 2/C
;
_chemical_formula_sum "Si O2"
_cell_formula_units_Z 18
_cell_length_a 7.510761
_cell_length_b 18.621726
_cell_length_c 5.492822
_cell_angle_alpha 90.000000
_cell_angle_beta 110.457638
_cell_angle_gamma 90.000000
_cell_volume 719.791882
_symmetry_space_group_name_H-M "P 2/C"
_symmetry_group_IT_number 13
_symmetry_cell_setting 'monoclinic'
loop_
_space_group_symop_operation_xyz
x,y,z
-x,y,1/2-z
-x,-y,-z
x,-y,1/2+z
loop_
_atom_site_type_symbol
_atom_site_label
_atom_site_fract_x
_atom_site_fract_y
_atom_site_fract_z
Si Si1 0.224458 0.964854 0.384931
Si Si2 0.210073 0.676279 0.745518
Si Si3 0.500000 0.290030 0.750000
Si Si4 0.213175 0.471994 0.062761
Si Si5 0.219921 0.198208 0.913218
O O1 0.288086 0.883541 0.470607
O O2 0.000000 0.973402 0.250000
O O3 0.305307 0.008891 0.659214
O O4 0.221230 0.615009 0.541907
O O5 0.253008 0.757083 0.675865
O O6 0.000000 0.670604 0.750000
O O7 0.386230 0.658873 0.009511
O O8 0.334741 0.237608 0.760742
O O9 0.312463 0.495413 0.367535
O O10 0.000000 0.500000 0.000000
O O11 0.000000 0.201466 0.750000
#
# Coordination Sequence:
#
# PCOD8121251 Si02
#       5
#     4   4   2   4   4
#     4   9  20  39  69 105 145 191 248 306 372 443
#     4  12  25  45  77 104 151 199 245 311 380 438
#     4  12  28  46  70 112 150 190 264 302 368 458
#     4  10  22  40  72 107 145 191 244 306 374 441
#     4  11  25  44  76 106 149 199 248 310 377 442
#
# _framework density 25.007228000000001
#
# number of rings (size 3 to 8) (size 9 to 14) (size 15 to 20)
#    0.000    1.333    4.444    0.667    9.333    0.889 
#    0.000    2.222    0.000    0.000    0.000    0.000 
#    0.000    0.000    0.000    0.000    0.000    0.000 
#
# Total GULP energy -223003.772703 kJ/mol
# GULP energy per Si atom -12389.098483 kJ/mol
# Density = 2.495031 g / cm^3
# Si number density = 25.007228 Si / 1000 Ang^3
#
#
#
# Elastic Constant Matrix: (Units=GPa)
#
#
# Indices 1 2 3 4 5 6 
#
# 1 30.6238 -6.3053 12.5583 0.0000 16.2754 0.0000
# 2 -6.3053 166.3001 61.2176 0.0000 0.0268 0.0000
# 3 12.5583 61.2176 149.6359 0.0000 -25.2554 0.0000
# 4 0.0000 0.0000 0.0000 36.9027 0.0000 -2.9534
# 5 16.2754 0.0268 -25.2554 0.0000 45.2276 0.0000
# 6 0.0000 0.0000 0.0000 -2.9534 0.0000 -8.1005
#
#
#
# Elastic Compliance Matrix: (Units=1/GPa)
#
#
# Indices 1 2 3 4 5 6 
#
# 1 0.051437 0.005971 -0.010913 0.000000 -0.024607 0.000000
# 2 0.005971 0.007906 -0.004526 0.000000 -0.004681 0.000000
# 3 -0.010913 -0.004526 0.011166 0.000000 0.010165 0.000000
# 4 0.000000 0.000000 0.000000 0.026330 0.000000 -0.009600
# 5 -0.024607 -0.004681 0.010165 0.000000 0.036644 0.000000
# 6 0.000000 0.000000 0.000000 -0.009600 0.000000 -0.119949
#
#
# Mechanical properties :
#
#
# Convention : Reuss Voigt Hill
#
# Bulk Modulus (GPa) = 19.38941 53.50010 36.44475
# Shear Modulus (GPa) = 100.68340 33.41191 67.04765
#
# Velocity S-wave (km/s) = 6.35210 3.65922 5.18358
# Velocity P-wave (km/s) = 7.84660 6.26845 7.10150
#
# Compressibility (1/GPa) = 0.05157456
#
# Stress axis : x y z
#
# Youngs Moduli (GPa) = 19.44129 126.47991 89.55808
#
# Poissons Ratio (x) = -0.75527 0.97735
# Poissons Ratio (y) = -0.11609 0.40532
# Poissons Ratio (z) = 0.21216 0.57242
#
# Static dielectric constant tensor:
#      x y z
#    x 4.218770 0.000000 0.175870 
#    y 0.000000 4.648310 0.000000 
#    z 0.175870 0.000000 4.549730 
# 
# 
# High freq. dielectric constant tensor:
#      x y z
#    x 1.991390 0.000000 0.001430 
#    y 0.000000 1.999190 0.000000 
#    z 0.001430 0.000000 2.000500 
# 
# From -- ./inp_files/1689.got.cif
#   From: 2010.06.25/outbox.cif.g09.slc.cpg/sg13_1_cif.got.tgz:1689.got - 2010.06.28 04:50:58.
