data_PCOD8121982
_publ_section_title
;
Structure prediction by ZEFSAII (Michael W. Deem and Ramdas Pophale) SiO2 
 PCOD8121982
Probable space group: P 2/C
;
_chemical_formula_sum "Si O2"
_cell_formula_units_Z 30
_cell_length_a 26.162577
_cell_length_b 8.575149
_cell_length_c 9.090882
_cell_angle_alpha 90.000000
_cell_angle_beta 138.290928
_cell_angle_gamma 90.000000
_cell_volume 1356.992479
_symmetry_space_group_name_H-M "P 2/C"
_symmetry_group_IT_number 13
_symmetry_cell_setting 'monoclinic'
loop_
_space_group_symop_operation_xyz
x,y,z
-x,y,1/2-z
-x,-y,-z
x,-y,1/2+z
loop_
_atom_site_type_symbol
_atom_site_label
_atom_site_fract_x
_atom_site_fract_y
_atom_site_fract_z
Si Si1 0.336284 0.178592 0.257598
Si Si2 0.516711 0.347398 0.948744
Si Si3 0.186575 0.493467 0.648996
Si Si4 0.160413 0.720288 0.346132
Si Si5 0.754313 0.294921 0.975568
Si Si6 0.000000 0.995941 0.750000
Si Si7 0.896850 0.066225 0.278291
Si Si8 0.378773 0.874860 0.182763
O O1 0.392661 0.319843 0.341162
O O2 0.343644 0.127624 0.443297
O O3 0.369850 0.049260 0.219771
O O4 0.250464 0.234798 0.038644
O O5 0.500000 0.397830 0.750000
O O6 0.465156 0.193711 0.877886
O O7 0.500000 0.500000 0.000000
O O8 0.137849 0.608241 0.436399
O O9 0.137855 0.375070 0.648212
O O10 0.242759 0.392374 0.667364
O O11 0.237313 0.598524 0.863884
O O12 0.112781 0.878702 0.250017
O O13 0.670695 0.223863 0.806944
O O14 0.817491 0.157104 0.109552
O O15 0.946609 0.887683 0.740971
O O16 0.945019 0.104352 0.529628
#
# Coordination Sequence:
#
# PCOD8121982 Si02
#       8
#     4   4   4   4   4   2   4   4
#     4  11  24  40  62  94 126 173 216 279 317 382
#     4  10  25  42  62  88 134 174 217 264 332 387
#     4  10  24  36  60  98 134 164 204 280 320 380
#     4  11  22  40  66  93 132 167 224 263 327 379
#     4  11  22  40  66  93 132 167 224 263 327 379
#     4  10  24  38  68 100 128 156 212 268 328 378
#     4  11  22  42  68  95 124 170 214 265 314 400
#     4  11  24  40  62  94 126 173 216 279 317 382
#
# _framework density 22.107713
#
# number of rings (size 3 to 8) (size 9 to 14) (size 15 to 20)
#    0.000    1.333    2.667    2.000    5.600    1.067 
#    0.000    0.000    0.000   56.000    0.000    0.000 
#    0.000    0.000    0.000    0.000    0.000    0.000 
#
# Total GULP energy -371786.938979 kJ/mol
# GULP energy per Si atom -12392.897966 kJ/mol
# Density = 2.205740 g / cm^3
# Si number density = 22.107713 Si / 1000 Ang^3
#
#
#
# Elastic Constant Matrix: (Units=GPa)
#
#
# Indices 1 2 3 4 5 6 
#
# 1 106.5985 38.3343 43.0573 0.0000 -20.0444 0.0000
# 2 38.3343 113.5154 29.4269 0.0000 -17.2852 0.0000
# 3 43.0573 29.4269 58.6331 0.0000 -9.7920 0.0000
# 4 0.0000 0.0000 0.0000 -18.6174 0.0000 5.4780
# 5 -20.0444 -17.2852 -9.7920 0.0000 38.8725 0.0000
# 6 0.0000 0.0000 0.0000 5.4780 0.0000 19.2458
#
#
#
# Elastic Compliance Matrix: (Units=1/GPa)
#
#
# Indices 1 2 3 4 5 6 
#
# 1 0.014513 -0.001910 -0.008968 0.000000 0.004375 0.000000
# 2 -0.001910 0.010818 -0.003537 0.000000 0.002935 0.000000
# 3 -0.008968 -0.003537 0.025452 0.000000 0.000214 0.000000
# 4 0.000000 0.000000 0.000000 -0.049562 0.000000 0.014107
# 5 0.004375 0.002935 0.000214 0.000000 0.029340 0.000000
# 6 0.000000 0.000000 0.000000 0.014107 0.000000 0.047944
#
#
# Mechanical properties :
#
#
# Convention : Reuss Voigt Hill
#
# Bulk Modulus (GPa) = 45.55211 55.59821 50.57516
# Shear Modulus (GPa) = 43.60993 19.09541 31.35267
#
# Velocity S-wave (km/s) = 4.44623 2.94214 3.76996
# Velocity P-wave (km/s) = 6.85623 6.06176 6.47120
#
# Compressibility (1/GPa) = 0.02195288
#
# Stress axis : x y z
#
# Youngs Moduli (GPa) = 68.90335 92.43794 39.28965
#
# Poissons Ratio (x) = 0.17655 0.35237
# Poissons Ratio (y) = 0.13160 0.13896
# Poissons Ratio (z) = 0.61796 0.32693
#
# Static dielectric constant tensor:
#      x y z
#    x 4.242900 0.000000 -0.249490 
#    y 0.000000 4.065630 0.000000 
#    z -0.249490 0.000000 3.980110 
# 
# 
# High freq. dielectric constant tensor:
#      x y z
#    x 1.884350 0.000000 -0.017770 
#    y 0.000000 1.869680 0.000000 
#    z -0.017770 0.000000 1.858370 
# 
# From -- ./inp_files/24635.got.cif
#   From: 2010.06.25/outbox.cif.g09.slc.cpg/sg13_13_cif.got.tgz:24635.got - 2010.06.28 04:50:58.
