data_PCOD8121285
_publ_section_title
;
Structure prediction by ZEFSAII (Michael W. Deem and Ramdas Pophale) SiO2 
 PCOD8121285
Probable space group: P 2/C
;
_chemical_formula_sum "Si O2"
_cell_formula_units_Z 22
_cell_length_a 20.001808
_cell_length_b 4.728181
_cell_length_c 7.987101
_cell_angle_alpha 90.000000
_cell_angle_beta 109.986822
_cell_angle_gamma 90.000000
_cell_volume 709.863234
_symmetry_space_group_name_H-M "P 2/C"
_symmetry_group_IT_number 13
_symmetry_cell_setting 'monoclinic'
loop_
_space_group_symop_operation_xyz
x,y,z
-x,y,1/2-z
-x,-y,-z
x,-y,1/2+z
loop_
_atom_site_type_symbol
_atom_site_label
_atom_site_fract_x
_atom_site_fract_y
_atom_site_fract_z
Si Si1 0.771718 0.627781 0.906402
Si Si2 0.590411 0.703064 0.546344
Si Si3 0.049816 0.809596 0.431368
Si Si4 0.862145 0.255515 0.199184
Si Si5 0.500000 0.069164 0.250000
Si Si6 0.313877 0.194508 0.865793
O O1 0.791404 0.812853 0.755549
O O2 0.727062 0.346633 0.821863
O O3 0.844887 0.514988 0.060903
O O4 0.732075 0.825594 0.004353
O O5 0.526402 0.720331 0.625999
O O6 0.614226 0.381650 0.531717
O O7 0.564936 0.861105 0.356094
O O8 0.660697 0.880444 0.668821
O O9 0.110497 0.992411 0.384977
O O10 0.000000 0.646982 0.250000
O O11 0.084505 0.622475 0.610178
O O12 0.000000 0.000000 0.500000
#
# Coordination Sequence:
#
# PCOD8121285 Si02
#       6
#     4   4   4   4   2   4
#     4  10  24  40  63  99 135 182 236 298 364 429
#     4  11  24  42  65  96 136 179 238 294 361 432
#     4   9  20  41  67  95 130 183 235 289 354 424
#     4  10  22  41  63  96 134 171 234 292 351 430
#     4  10  24  40  66  96 130 182 234 300 360 426
#     4  11  24  43  66  99 139 187 236 296 364 435
#
# _framework density 30.991886000000001
#
# number of rings (size 3 to 8) (size 9 to 14) (size 15 to 20)
#    0.000    1.818    0.000    2.182    0.000   16.000 
#    0.000   11.818    0.000    0.000    0.000    0.000 
#    0.000    0.000    0.000    0.000    0.000    0.000 
#
# Total GULP energy -272689.367231 kJ/mol
# GULP energy per Si atom -12394.971238 kJ/mol
# Density = 3.092135 g / cm^3
# Si number density = 30.991886 Si / 1000 Ang^3
#
#
#
# Elastic Constant Matrix: (Units=GPa)
#
#
# Indices 1 2 3 4 5 6 
#
# 1 140.0752 29.7142 22.0303 0.0000 -26.9072 0.0000
# 2 29.7142 104.5467 19.4842 0.0000 -25.4406 0.0000
# 3 22.0303 19.4842 125.6595 0.0000 -6.0451 0.0000
# 4 0.0000 0.0000 0.0000 50.9295 0.0000 -16.2470
# 5 -26.9072 -25.4406 -6.0451 0.0000 55.1601 0.0000
# 6 0.0000 0.0000 0.0000 -16.2470 0.0000 29.7765
#
#
#
# Elastic Compliance Matrix: (Units=1/GPa)
#
#
# Indices 1 2 3 4 5 6 
#
# 1 0.008221 -0.001339 -0.001076 0.000000 0.003275 0.000000
# 2 -0.001339 0.011258 -0.001299 0.000000 0.004397 0.000000
# 3 -0.001076 -0.001299 0.008338 0.000000 -0.000210 0.000000
# 4 0.000000 0.000000 0.000000 0.023773 0.000000 0.012971
# 5 0.003275 0.004397 -0.000210 0.000000 0.021731 0.000000
# 6 0.000000 0.000000 0.000000 0.012971 0.000000 0.040661
#
#
# Mechanical properties :
#
#
# Convention : Reuss Voigt Hill
#
# Bulk Modulus (GPa) = 49.04879 56.97097 53.00988
# Shear Modulus (GPa) = 38.99921 47.11006 43.05463
#
# Velocity S-wave (km/s) = 3.55120 3.90305 3.73127
# Velocity P-wave (km/s) = 5.71624 6.22368 5.97535
#
# Compressibility (1/GPa) = 0.02038786
#
# Stress axis : x y z
#
# Youngs Moduli (GPa) = 121.63336 88.82765 119.93249
#
# Poissons Ratio (x) = 0.11896 0.12907
# Poissons Ratio (y) = 0.16290 0.15583
# Poissons Ratio (z) = 0.13090 0.11541
#
# Static dielectric constant tensor:
#      x y z
#    x 6.701930 0.000000 0.715350 
#    y 0.000000 4.991830 0.000000 
#    z 0.715350 0.000000 6.779700 
# 
# 
# High freq. dielectric constant tensor:
#      x y z
#    x 2.312060 0.000000 0.007890 
#    y 0.000000 2.240760 0.000000 
#    z 0.007890 0.000000 2.300260 
# 
# From -- ./inp_files/22276.got.cif
#   From: 2010.06.25/outbox.cif.g09.slc.cpg/sg13_12_cif.got.tgz:22276.got - 2010.06.28 04:50:58.
