data_PCOD8121908
_publ_section_title
;
Structure prediction by ZEFSAII (Michael W. Deem and Ramdas Pophale) SiO2 
 PCOD8121908
Probable space group: P 2/C
;
_chemical_formula_sum "Si O2"
_cell_formula_units_Z 16
_cell_length_a 11.820166
_cell_length_b 11.631224
_cell_length_c 8.898154
_cell_angle_alpha 90.000000
_cell_angle_beta 146.842715
_cell_angle_gamma 90.000000
_cell_volume 669.095337
_symmetry_space_group_name_H-M "P 2/C"
_symmetry_group_IT_number 13
_symmetry_cell_setting 'monoclinic'
loop_
_space_group_symop_operation_xyz
x,y,z
-x,y,1/2-z
-x,-y,-z
x,-y,1/2+z
loop_
_atom_site_type_symbol
_atom_site_label
_atom_site_fract_x
_atom_site_fract_y
_atom_site_fract_z
Si Si1 0.605041 0.242285 0.024716
Si Si2 0.801367 0.160310 0.794459
Si Si3 0.045383 0.620452 0.475567
Si Si4 0.249756 0.039933 0.464103
O O1 0.784970 0.144335 0.195253
O O2 0.713748 0.350326 0.226095
O O3 0.500000 0.281598 0.750000
O O4 0.440567 0.189583 0.956540
O O5 0.911275 0.282511 0.908557
O O6 0.832545 0.084342 0.679048
O O7 0.863038 0.076593 0.004541
O O8 0.000000 0.614488 0.250000
O O9 0.000000 0.500000 0.500000
O O10 0.500000 0.039501 0.750000
#
# Coordination Sequence:
#
# PCOD8121908 Si02
#       4
#     4   4   4   4
#     4   9  22  46  75 103 142 192 225 288 366 417
#     4  10  23  44  72 105 150 178 235 288 365 421
#     4  12  31  49  71 104 142 189 254 295 336 420
#     4   9  19  38  73 104 146 180 222 286 360 434
#
# _framework density 23.912887000000001
#
# number of rings (size 3 to 8) (size 9 to 14) (size 15 to 20)
#    0.000    2.500    0.000    3.000   14.000    2.000 
#    0.000    0.000    0.000    0.000    0.000    0.000 
#    0.000    0.000    0.000    0.000    0.000    0.000 
#
# Total GULP energy -198363.254712 kJ/mol
# GULP energy per Si atom -12397.703419 kJ/mol
# Density = 2.385846 g / cm^3
# Si number density = 23.912887 Si / 1000 Ang^3
#
#
#
# Elastic Constant Matrix: (Units=GPa)
#
#
# Indices 1 2 3 4 5 6 
#
# 1 132.8576 76.4755 43.2801 0.0000 -13.1227 0.0000
# 2 76.4755 199.8615 82.9211 0.0000 -12.6405 0.0000
# 3 43.2801 82.9211 96.6381 0.0000 -29.4476 0.0000
# 4 0.0000 0.0000 0.0000 38.9076 0.0000 -3.5270
# 5 -13.1227 -12.6405 -29.4476 0.0000 22.4432 0.0000
# 6 0.0000 0.0000 0.0000 -3.5270 0.0000 40.3939
#
#
#
# Elastic Compliance Matrix: (Units=1/GPa)
#
#
# Indices 1 2 3 4 5 6 
#
# 1 0.009973 -0.003351 -0.000648 0.000000 0.003093 0.000000
# 2 -0.003351 0.009683 -0.009568 0.000000 -0.009061 0.000000
# 3 -0.000648 -0.009568 0.028476 0.000000 0.031595 0.000000
# 4 0.000000 0.000000 0.000000 0.025907 0.000000 0.002262
# 5 0.003093 -0.009061 0.031595 0.000000 0.082718 0.000000
# 6 0.000000 0.000000 0.000000 0.002262 0.000000 0.024954
#
#
# Mechanical properties :
#
#
# Convention : Reuss Voigt Hill
#
# Bulk Modulus (GPa) = 47.62870 92.74565 70.18717
# Shear Modulus (GPa) = 23.16488 35.46097 29.31292
#
# Velocity S-wave (km/s) = 3.11580 3.85505 3.50497
# Velocity P-wave (km/s) = 5.73630 7.66056 6.76718
#
# Compressibility (1/GPa) = 0.02099575
#
# Stress axis : x y z
#
# Youngs Moduli (GPa) = 100.27424 103.27787 35.11750
#
# Poissons Ratio (x) = 0.34613 0.02276
# Poissons Ratio (y) = 0.33607 0.33601
# Poissons Ratio (z) = 0.06498 0.98818
#
# Static dielectric constant tensor:
#      x y z
#    x 4.282880 0.000000 0.156940 
#    y 0.000000 4.365330 0.000000 
#    z 0.156940 0.000000 4.529990 
# 
# 
# High freq. dielectric constant tensor:
#      x y z
#    x 1.956130 0.000000 0.018710 
#    y 0.000000 1.936740 0.000000 
#    z 0.018710 0.000000 1.968620 
# 
# From -- ./inp_files/15426.got.cif
#   From: 2010.06.25/outbox.cif.g09.slc.cpg/sg13_8_cif.got.tgz:15426.got - 2010.06.28 04:50:58.
