data_PCOD8121902
_publ_section_title
;
Structure prediction by ZEFSAII (Michael W. Deem and Ramdas Pophale) SiO2 
 PCOD8121902
Probable space group: P 2/C
;
_chemical_formula_sum "Si O2"
_cell_formula_units_Z 24
_cell_length_a 11.234938
_cell_length_b 8.052964
_cell_length_c 24.073088
_cell_angle_alpha 90.000000
_cell_angle_beta 150.769279
_cell_angle_gamma 90.000000
_cell_volume 1063.578484
_symmetry_space_group_name_H-M "P 2/C"
_symmetry_group_IT_number 13
_symmetry_cell_setting 'monoclinic'
loop_
_space_group_symop_operation_xyz
x,y,z
-x,y,1/2-z
-x,-y,-z
x,-y,1/2+z
loop_
_atom_site_type_symbol
_atom_site_label
_atom_site_fract_x
_atom_site_fract_y
_atom_site_fract_z
Si Si1 0.423861 0.813224 0.485405
Si Si2 0.016121 0.692539 0.914042
Si Si3 0.121876 0.829088 0.531981
Si Si4 0.366946 0.141099 0.318678
Si Si5 0.023190 0.673807 0.135901
Si Si6 0.451912 0.228582 0.876307
O O1 0.590178 0.757956 0.605850
O O2 0.457358 0.707242 0.442748
O O3 0.145955 0.783796 0.392072
O O4 0.500000 0.000000 0.500000
O O5 0.872996 0.699830 0.914205
O O6 0.874529 0.792198 0.808677
O O7 0.078472 0.509199 0.918012
O O8 0.271345 0.782742 0.031332
O O9 0.401499 0.842675 0.627296
O O10 0.951979 0.764875 0.412913
O O11 0.000000 0.000000 0.500000
O O12 0.324803 0.949933 0.317216
O O13 0.289393 0.648922 0.272296
#
# Coordination Sequence:
#
# PCOD8121902 Si02
#       6
#     4   4   4   4   4   4
#     4   9  22  45  72  96 129 185 234 283 341 413
#     4  12  26  43  68 106 140 183 228 294 361 411
#     4  11  22  46  71  97 134 189 240 287 344 422
#     4  10  23  44  70  98 135 182 241 285 338 425
#     4  11  26  43  67 100 147 175 230 295 356 413
#     4  11  24  44  71  98 137 180 237 283 348 422
#
# _framework density 22.565331
#
# number of rings (size 3 to 8) (size 9 to 14) (size 15 to 20)
#    0.000    1.333    1.667    2.500    9.333    2.000 
#    6.000    0.000    0.000    0.000    0.000    0.000 
#    0.000    0.000    0.000    0.000    0.000    0.000 
#
# Total GULP energy -297502.683527 kJ/mol
# GULP energy per Si atom -12395.945147 kJ/mol
# Density = 2.251397 g / cm^3
# Si number density = 22.565331 Si / 1000 Ang^3
#
#
#
# Elastic Constant Matrix: (Units=GPa)
#
#
# Indices 1 2 3 4 5 6 
#
# 1 114.1445 37.3008 44.4300 0.0000 -21.8767 0.0000
# 2 37.3008 87.0523 29.5542 0.0000 1.2762 0.0000
# 3 44.4300 29.5542 137.5573 0.0000 -4.0763 0.0000
# 4 0.0000 0.0000 0.0000 30.9327 0.0000 -3.2453
# 5 -21.8767 1.2762 -4.0763 0.0000 34.6148 0.0000
# 6 0.0000 0.0000 0.0000 -3.2453 0.0000 29.1667
#
#
#
# Elastic Compliance Matrix: (Units=1/GPa)
#
#
# Indices 1 2 3 4 5 6 
#
# 1 0.012975 -0.004676 -0.002948 0.000000 0.008025 0.000000
# 2 -0.004676 0.014097 -0.001627 0.000000 -0.003667 0.000000
# 3 -0.002948 -0.001627 0.008548 0.000000 -0.000797 0.000000
# 4 0.000000 0.000000 0.000000 0.032710 0.000000 0.003640
# 5 0.008025 -0.003667 -0.000797 0.000000 0.034003 0.000000
# 6 0.000000 0.000000 0.000000 0.003640 0.000000 0.034691
#
#
# Mechanical properties :
#
#
# Convention : Reuss Voigt Hill
#
# Bulk Modulus (GPa) = 58.42222 62.36935 60.39579
# Shear Modulus (GPa) = 31.01127 34.10743 32.55935
#
# Velocity S-wave (km/s) = 3.71116 3.89202 3.80266
# Velocity P-wave (km/s) = 6.65658 6.92073 6.78994
#
# Compressibility (1/GPa) = 0.01711677
#
# Stress axis : x y z
#
# Youngs Moduli (GPa) = 77.07368 70.93623 116.98756
#
# Poissons Ratio (x) = 0.33171 0.34490
# Poissons Ratio (y) = 0.36041 0.19035
# Poissons Ratio (z) = 0.22723 0.11542
#
# Static dielectric constant tensor:
#      x y z
#    x 4.341360 0.000000 -0.439010 
#    y 0.000000 3.801920 0.000000 
#    z -0.439010 0.000000 4.235790 
# 
# 
# High freq. dielectric constant tensor:
#      x y z
#    x 1.897510 0.000000 -0.018210 
#    y 0.000000 1.869490 0.000000 
#    z -0.018210 0.000000 1.900700 
# 
# From -- ./inp_files/86427.got.cif
#   From: 2010.06.25/outbox.cif.g09.slc.cpg/sg13_44_cif.got.tgz:86427.got - 2010.06.28 04:50:58.
