data_PCOD8121802
_publ_section_title
;
Structure prediction by ZEFSAII (Michael W. Deem and Ramdas Pophale) SiO2 
 PCOD8121802
Probable space group: P 2/C
;
_chemical_formula_sum "Si O2"
_cell_formula_units_Z 30
_cell_length_a 14.810969
_cell_length_b 8.682265
_cell_length_c 15.947675
_cell_angle_alpha 90.000000
_cell_angle_beta 133.883038
_cell_angle_gamma 90.000000
_cell_volume 1478.095069
_symmetry_space_group_name_H-M "P 2/C"
_symmetry_group_IT_number 13
_symmetry_cell_setting 'monoclinic'
loop_
_space_group_symop_operation_xyz
x,y,z
-x,y,1/2-z
-x,-y,-z
x,-y,1/2+z
loop_
_atom_site_type_symbol
_atom_site_label
_atom_site_fract_x
_atom_site_fract_y
_atom_site_fract_z
Si Si1 0.324799 0.772175 0.570765
Si Si2 0.863911 0.877967 0.182651
Si Si3 0.524033 0.326744 0.489118
Si Si4 0.652912 0.838921 0.219160
Si Si5 0.500000 0.034969 0.750000
Si Si6 0.891291 0.683081 0.363140
Si Si7 0.717298 0.865018 0.684279
Si Si8 0.159523 0.342528 0.109701
O O1 0.198458 0.808675 0.439943
O O2 0.425170 0.684070 0.574476
O O3 0.387574 0.929427 0.643124
O O4 0.276830 0.668230 0.619256
O O5 0.879829 0.737806 0.259304
O O6 0.000000 0.944901 0.250000
O O7 0.782162 0.024977 0.157845
O O8 0.500000 0.500000 0.500000
O O9 0.628730 0.251580 0.616573
O O10 0.393038 0.241326 0.422700
O O11 0.786567 0.785534 0.343945
O O12 0.541652 0.829982 0.212781
O O13 0.651892 0.023218 0.208086
O O14 0.851041 0.508908 0.355108
O O15 0.030883 0.713468 0.484800
O O16 0.821634 0.766081 0.798383
#
# Coordination Sequence:
#
# PCOD8121802 Si02
#       8
#     4   4   4   4   2   4   4   4
#     4  12  22  40  65  93 125 170 213 263 322 386
#     4  11  23  42  68  94 127 171 218 262 325 383
#     4  12  24  41  65  94 131 174 209 265 328 384
#     4  11  22  40  64  91 128 167 212 265 318 378
#     4  12  24  38  64  98 130 166 216 270 312 382
#     4  10  23  42  64  93 130 170 210 264 330 381
#     4  11  22  40  65  92 128 165 214 260 318 381
#     4  11  23  41  67  93 127 169 216 266 323 385
#
# _framework density 20.296395
#
# number of rings (size 3 to 8) (size 9 to 14) (size 15 to 20)
#    0.000    0.800    6.667    2.000    0.000    4.267 
#    0.000    3.333    0.000    0.000    0.000    0.000 
#    0.000    0.000    0.000    0.000    0.000    0.000 
#
# Total GULP energy -371682.880078 kJ/mol
# GULP energy per Si atom -12389.429336 kJ/mol
# Density = 2.025020 g / cm^3
# Si number density = 20.296395 Si / 1000 Ang^3
#
#
#
# Elastic Constant Matrix: (Units=GPa)
#
#
# Indices 1 2 3 4 5 6 
#
# 1 109.9124 40.4513 28.6196 0.0000 8.1912 0.0000
# 2 40.4513 98.7204 32.9744 0.0000 9.7853 0.0000
# 3 28.6196 32.9744 87.2228 0.0000 21.8154 0.0000
# 4 0.0000 0.0000 0.0000 27.8525 0.0000 6.8123
# 5 8.1912 9.7853 21.8154 0.0000 23.0364 0.0000
# 6 0.0000 0.0000 0.0000 6.8123 0.0000 29.9389
#
#
#
# Elastic Compliance Matrix: (Units=1/GPa)
#
#
# Indices 1 2 3 4 5 6 
#
# 1 0.011071 -0.003798 -0.002117 0.000000 -0.000318 0.000000
# 2 -0.003798 0.012914 -0.003409 0.000000 -0.000907 0.000000
# 3 -0.002117 -0.003409 0.016901 0.000000 -0.013804 0.000000
# 4 0.000000 0.000000 0.000000 0.038019 0.000000 -0.008651
# 5 -0.000318 -0.000907 -0.013804 0.000000 0.056981 0.000000
# 6 0.000000 0.000000 0.000000 -0.008651 0.000000 0.035370
#
#
# Mechanical properties :
#
#
# Convention : Reuss Voigt Hill
#
# Bulk Modulus (GPa) = 44.96847 55.54959 50.25903
# Shear Modulus (GPa) = 25.33991 29.08625 27.21308
#
# Velocity S-wave (km/s) = 3.53724 3.78970 3.66564
# Velocity P-wave (km/s) = 6.23592 6.82479 6.53699
#
# Compressibility (1/GPa) = 0.02223780
#
# Stress axis : x y z
#
# Youngs Moduli (GPa) = 90.32751 77.43304 59.16751
#
# Poissons Ratio (x) = 0.29406 0.12527
# Poissons Ratio (y) = 0.34303 0.20173
# Poissons Ratio (z) = 0.19125 0.26400
#
# Static dielectric constant tensor:
#      x y z
#    x 3.901290 0.000000 0.141920 
#    y 0.000000 3.544900 0.000000 
#    z 0.141920 0.000000 3.840930 
# 
# 
# High freq. dielectric constant tensor:
#      x y z
#    x 1.806520 0.000000 0.013050 
#    y 0.000000 1.781730 0.000000 
#    z 0.013050 0.000000 1.799840 
# 
# From -- ./inp_files/53160.got.cif
#   From: 2010.06.25/outbox.cif.g09.slc.cpg/sg13_27_cif.got.tgz:53160.got - 2010.06.28 04:50:58.
