data_PCOD8121382
_publ_section_title
;
Structure prediction by ZEFSAII (Michael W. Deem and Ramdas Pophale) SiO2 
 PCOD8121382
Probable space group: P 2/C
;
_chemical_formula_sum "Si O2"
_cell_formula_units_Z 20
_cell_length_a 8.920078
_cell_length_b 19.603834
_cell_length_c 5.046700
_cell_angle_alpha 90.000000
_cell_angle_beta 85.765099
_cell_angle_gamma 90.000000
_cell_volume 880.095444
_symmetry_space_group_name_H-M "P 2/C"
_symmetry_group_IT_number 13
_symmetry_cell_setting 'monoclinic'
loop_
_space_group_symop_operation_xyz
x,y,z
-x,y,1/2-z
-x,-y,-z
x,-y,1/2+z
loop_
_atom_site_type_symbol
_atom_site_label
_atom_site_fract_x
_atom_site_fract_y
_atom_site_fract_z
Si Si1 0.500000 0.855904 0.250000
Si Si2 0.251476 0.046289 0.922610
Si Si3 0.827650 0.319584 0.360154
Si Si4 0.756525 0.235501 0.897734
Si Si5 0.674459 0.542275 0.741910
Si Si6 0.000000 0.132729 0.750000
O O1 0.607223 0.903211 0.052693
O O2 0.397048 0.805945 0.094898
O O3 0.093991 0.087643 0.950469
O O4 0.259352 0.013501 0.631148
O O5 0.797198 0.286854 0.651554
O O6 0.774222 0.397078 0.345916
O O7 0.000000 0.314905 0.250000
O O8 0.729538 0.278109 0.164156
O O9 0.887796 0.180474 0.929897
O O10 0.500000 0.563484 0.750000
O O11 0.712958 0.520039 0.437243
#
# Coordination Sequence:
#
# PCOD8121382 Si02
#       6
#     2   4   4   4   4   2
#     4  10  26  42  66  92 132 168 212 270 324 382
#     4  11  24  41  65  92 125 164 214 262 321 383
#     4  12  24  42  67  96 132 169 217 266 314 379
#     4  11  25  41  63  96 130 170 214 266 323 379
#     4  10  23  42  65  96 131 171 213 258 312 375
#     4  10  22  42  62  92 128 168 208 262 320 386
#
# _framework density 22.724809
#
# number of rings (size 3 to 8) (size 9 to 14) (size 15 to 20)
#    0.000    1.200    2.000    2.400    2.800   10.400 
#    0.000    0.000    0.000    0.000    0.000    0.000 
#    0.000    0.000    0.000    0.000    0.000    0.000 
#
# Total GULP energy -247955.659382 kJ/mol
# GULP energy per Si atom -12397.782969 kJ/mol
# Density = 2.267309 g / cm^3
# Si number density = 22.724809 Si / 1000 Ang^3
#
#
#
# Elastic Constant Matrix: (Units=GPa)
#
#
# Indices 1 2 3 4 5 6 
#
# 1 124.7413 51.5986 14.1758 0.0000 13.1540 0.0000
# 2 51.5986 111.7001 13.6608 0.0000 12.4547 0.0000
# 3 14.1758 13.6608 63.9035 0.0000 12.6755 0.0000
# 4 0.0000 0.0000 0.0000 -0.1304 0.0000 10.1816
# 5 13.1540 12.4547 12.6755 0.0000 15.0531 0.0000
# 6 0.0000 0.0000 0.0000 10.1816 0.0000 58.3088
#
#
#
# Elastic Compliance Matrix: (Units=1/GPa)
#
#
# Indices 1 2 3 4 5 6 
#
# 1 0.010327 -0.004136 -0.000355 0.000000 -0.005304 0.000000
# 2 -0.004136 0.011537 -0.000447 0.000000 -0.005555 0.000000
# 3 -0.000355 -0.000447 0.018834 0.000000 -0.015179 0.000000
# 4 0.000000 0.000000 0.000000 -0.524044 0.000000 0.091506
# 5 -0.005304 -0.005555 -0.015179 0.000000 0.088444 0.000000
# 6 0.000000 0.000000 0.000000 0.091506 0.000000 0.001172
#
#
# Mechanical properties :
#
#
# Convention : Reuss Voigt Hill
#
# Bulk Modulus (GPa) = 32.44349 51.02393 41.73371
# Shear Modulus (GPa) = -13.38397 29.37362 7.99482
#
# Velocity S-wave (km/s) = -2.42948 3.59915 1.87770
# Velocity P-wave (km/s) = 2.53729 6.30662 4.80684
#
# Compressibility (1/GPa) = 0.03082282
#
# Stress axis : x y z
#
# Youngs Moduli (GPa) = 96.83497 86.67734 53.09639
#
# Poissons Ratio (x) = 0.35847 0.01884
# Poissons Ratio (y) = 0.40047 0.02373
# Poissons Ratio (z) = 0.03435 0.03874
#
# Static dielectric constant tensor:
#      x y z
#    x 3.307880 0.000000 0.064400 
#    y 0.000000 4.246900 0.000000 
#    z 0.064400 0.000000 3.817360 
# 
# 
# High freq. dielectric constant tensor:
#      x y z
#    x 1.906820 0.000000 0.010720 
#    y 0.000000 1.912410 0.000000 
#    z 0.010720 0.000000 1.882240 
# 
# From -- ./inp_files/1613.got.cif
#   From: 2010.06.25/outbox.cif.g09.slc.cpg/sg13_1_cif.got.tgz:1613.got - 2010.06.28 04:50:58.
