data_PCOD8121463
_publ_section_title
;
Structure prediction by ZEFSAII (Michael W. Deem and Ramdas Pophale) SiO2 
 PCOD8121463
Probable space group: P 2/C
;
_chemical_formula_sum "Si O2"
_cell_formula_units_Z 26
_cell_length_a 8.400533
_cell_length_b 11.588607
_cell_length_c 22.877784
_cell_angle_alpha 90.000000
_cell_angle_beta 147.719807
_cell_angle_gamma 90.000000
_cell_volume 1189.439004
_symmetry_space_group_name_H-M "P 2/C"
_symmetry_group_IT_number 13
_symmetry_cell_setting 'monoclinic'
loop_
_space_group_symop_operation_xyz
x,y,z
-x,y,1/2-z
-x,-y,-z
x,-y,1/2+z
loop_
_atom_site_type_symbol
_atom_site_label
_atom_site_fract_x
_atom_site_fract_y
_atom_site_fract_z
Si Si1 0.000000 0.091198 0.250000
Si Si2 0.312343 0.352136 0.502968
Si Si3 0.812132 0.171491 0.364682
Si Si4 0.797446 0.394143 0.554099
Si Si5 0.222846 0.728374 0.265618
Si Si6 0.980465 0.051321 0.853009
Si Si7 0.360554 0.816123 0.561710
O O1 0.716499 0.168241 0.181894
O O2 0.882322 0.010860 0.161101
O O3 0.533450 0.363153 0.517217
O O4 0.165374 0.478142 0.460360
O O5 0.468800 0.319667 0.612972
O O6 0.071428 0.251418 0.417793
O O7 0.500000 0.231115 0.250000
O O8 0.826633 0.153149 0.438728
O O9 0.813679 0.043074 0.339511
O O10 0.721918 0.316791 0.474728
O O11 0.105338 0.365395 0.682559
O O12 0.000000 0.747454 0.250000
O O13 0.255940 0.850688 0.241931
O O14 0.251109 0.107867 0.972891
#
# Coordination Sequence:
#
# PCOD8121463 Si02
#       7
#     2   4   4   4   4   4   4
#     4  12  22  40  68  94 130 174 228 286 326 398
#     4  10  22  42  69  97 133 176 222 278 334 398
#     4  12  26  42  61  98 141 179 217 271 339 413
#     4   9  21  43  69  99 126 171 228 280 327 393
#     4   9  19  39  66  96 129 169 225 275 332 392
#     4  11  23  40  65  95 133 177 223 278 339 396
#     4  11  25  42  63  97 133 176 225 277 338 402
#
# _framework density 21.859045999999999
#
# number of rings (size 3 to 8) (size 9 to 14) (size 15 to 20)
#    0.000    1.538    2.308    1.846    2.154    3.077 
#    4.154    2.308    0.000    0.000    0.000    0.000 
#    0.000    0.000    0.000    0.000    0.000    0.000 
#
# Total GULP energy -322304.177625 kJ/mol
# GULP energy per Si atom -12396.314524 kJ/mol
# Density = 2.180929 g / cm^3
# Si number density = 21.859046 Si / 1000 Ang^3
#
#
#
# Elastic Constant Matrix: (Units=GPa)
#
#
# Indices 1 2 3 4 5 6 
#
# 1 61.7872 38.1184 13.5092 0.0000 -17.7069 0.0000
# 2 38.1184 163.2581 70.3388 0.0000 -12.2052 0.0000
# 3 13.5092 70.3388 113.3008 0.0000 -6.3984 0.0000
# 4 0.0000 0.0000 0.0000 29.4045 0.0000 -10.0636
# 5 -17.7069 -12.2052 -6.3984 0.0000 33.4876 0.0000
# 6 0.0000 0.0000 0.0000 -10.0636 0.0000 29.9166
#
#
#
# Elastic Compliance Matrix: (Units=1/GPa)
#
#
# Indices 1 2 3 4 5 6 
#
# 1 0.021754 -0.004723 0.000900 0.000000 0.009953 0.000000
# 2 -0.004723 0.009533 -0.005358 0.000000 -0.000047 0.000000
# 3 0.000900 -0.005358 0.012092 0.000000 0.000834 0.000000
# 4 0.000000 0.000000 0.000000 0.038433 0.000000 0.012928
# 5 0.009953 -0.000047 0.000834 0.000000 0.035267 0.000000
# 6 0.000000 0.000000 0.000000 0.012928 0.000000 0.037775
#
#
# Mechanical properties :
#
#
# Convention : Reuss Voigt Hill
#
# Bulk Modulus (GPa) = 39.97098 64.69766 52.33432
# Shear Modulus (GPa) = 27.54004 32.98705 30.26355
#
# Velocity S-wave (km/s) = 3.55335 3.88890 3.72491
# Velocity P-wave (km/s) = 5.92963 7.05880 6.51871
#
# Compressibility (1/GPa) = 0.02501815
#
# Stress axis : x y z
#
# Youngs Moduli (GPa) = 45.96878 104.90034 82.70015
#
# Poissons Ratio (x) = 0.49545 -0.07447
# Poissons Ratio (y) = 0.21711 0.44308
# Poissons Ratio (z) = -0.04139 0.56202
#
# Static dielectric constant tensor:
#      x y z
#    x 3.729180 0.000000 -0.276940 
#    y 0.000000 4.038430 0.000000 
#    z -0.276940 0.000000 4.041610 
# 
# 
# High freq. dielectric constant tensor:
#      x y z
#    x 1.847880 0.000000 -0.021170 
#    y 0.000000 1.858010 0.000000 
#    z -0.021170 0.000000 1.862590 
# 
# From -- ./inp_files/85264.got.cif
#   From: 2010.06.25/outbox.cif.g09.slc.cpg/sg13_43_cif.got.tgz:85264.got - 2010.06.28 04:50:58.
