data_PCOD8121805
_publ_section_title
;
Structure prediction by ZEFSAII (Michael W. Deem and Ramdas Pophale) SiO2 
 PCOD8121805
Probable space group: P 2/C
;
_chemical_formula_sum "Si O2"
_cell_formula_units_Z 10
_cell_length_a 6.539673
_cell_length_b 11.442966
_cell_length_c 5.372104
_cell_angle_alpha 90.000000
_cell_angle_beta 77.819650
_cell_angle_gamma 90.000000
_cell_volume 392.962063
_symmetry_space_group_name_H-M "P 2/C"
_symmetry_group_IT_number 13
_symmetry_cell_setting 'monoclinic'
loop_
_space_group_symop_operation_xyz
x,y,z
-x,y,1/2-z
-x,-y,-z
x,-y,1/2+z
loop_
_atom_site_type_symbol
_atom_site_label
_atom_site_fract_x
_atom_site_fract_y
_atom_site_fract_z
Si Si1 0.000000 0.774408 0.750000
Si Si2 0.414660 0.868681 0.520324
Si Si3 0.747401 0.566651 0.664602
O O1 0.162557 0.860097 0.566491
O O2 0.139233 0.692153 0.894682
O O3 0.500000 0.803389 0.250000
O O4 0.500000 0.000000 0.500000
O O5 0.500000 0.806826 0.750000
O O6 0.500000 0.583506 0.750000
O O7 0.819397 0.488725 0.411656
#
# Coordination Sequence:
#
# PCOD8121805 Si02
#       3
#     2   4   4
#     4  12  24  42  74  98 132 186 222 264 346 398
#     4  10  25  45  65  97 134 172 226 282 326 389
#     4  10  23  42  64  98 137 170 219 276 325 397
#
# _framework density 25.447748000000001
#
# number of rings (size 3 to 8) (size 9 to 14) (size 15 to 20)
#    0.000    1.600    0.000    2.400    0.000   19.200 
#    0.000    0.000    0.000    0.000    0.000    0.000 
#    0.000    0.000    0.000    0.000    0.000    0.000 
#
# Total GULP energy -123895.196825 kJ/mol
# GULP energy per Si atom -12389.519682 kJ/mol
# Density = 2.538983 g / cm^3
# Si number density = 25.447748 Si / 1000 Ang^3
#
#
#
# Elastic Constant Matrix: (Units=GPa)
#
#
# Indices 1 2 3 4 5 6 
#
# 1 169.1079 64.3727 91.4883 0.0000 -35.8787 0.0000
# 2 64.3727 107.4792 31.1192 0.0000 -14.5410 0.0000
# 3 91.4883 31.1192 228.8595 0.0000 -6.6049 0.0000
# 4 0.0000 0.0000 0.0000 1.7720 0.0000 -13.2610
# 5 -35.8787 -14.5410 -6.6049 0.0000 54.5721 0.0000
# 6 0.0000 0.0000 0.0000 -13.2610 0.0000 67.3546
#
#
#
# Elastic Compliance Matrix: (Units=1/GPa)
#
#
# Indices 1 2 3 4 5 6 
#
# 1 0.010732 -0.004687 -0.003497 0.000000 0.005384 0.000000
# 2 -0.004687 0.012064 0.000238 0.000000 0.000162 0.000000
# 3 -0.003497 0.000238 0.005691 0.000000 -0.001547 0.000000
# 4 0.000000 0.000000 0.000000 -1.192076 0.000000 -0.234701
# 5 0.005384 0.000162 -0.001547 0.000000 0.021720 0.000000
# 6 0.000000 0.000000 0.000000 -0.234701 0.000000 -0.031362
#
#
# Mechanical properties :
#
#
# Convention : Reuss Voigt Hill
#
# Bulk Modulus (GPa) = 79.40318 97.71188 88.55753
# Shear Modulus (GPa) = -4.33598 45.97084 20.81743
#
# Velocity S-wave (km/s) = -1.30674 4.25488 2.86325
# Velocity P-wave (km/s) = 5.38455 7.91322 6.76803
#
# Compressibility (1/GPa) = 0.01259395
#
# Stress axis : x y z
#
# Youngs Moduli (GPa) = 93.18159 82.89007 175.72699
#
# Poissons Ratio (x) = 0.38847 0.61460
# Poissons Ratio (y) = 0.43670 -0.04178
# Poissons Ratio (z) = 0.32590 -0.01971
#
# Static dielectric constant tensor:
#      x y z
#    x 5.322240 0.000000 0.375370 
#    y 0.000000 4.473070 0.000000 
#    z 0.375370 0.000000 6.944500 
# 
# 
# High freq. dielectric constant tensor:
#      x y z
#    x 2.054600 0.000000 -0.009850 
#    y 0.000000 1.999220 0.000000 
#    z -0.009850 0.000000 2.009870 
# 
# From -- ./inp_files/89.got.cif
#   From: 2010.06.25/outbox.cif.g09.slc.cpg/sg13_1_cif.got.tgz:89.got - 2010.06.28 04:50:58.
