data_PCOD8121220
_publ_section_title
;
Structure prediction by ZEFSAII (Michael W. Deem and Ramdas Pophale) SiO2 
 PCOD8121220
Probable space group: P 2/C
;
_chemical_formula_sum "Si O2"
_cell_formula_units_Z 28
_cell_length_a 9.413551
_cell_length_b 13.608771
_cell_length_c 12.383954
_cell_angle_alpha 90.000000
_cell_angle_beta 127.782991
_cell_angle_gamma 90.000000
_cell_volume 1253.845397
_symmetry_space_group_name_H-M "P 2/C"
_symmetry_group_IT_number 13
_symmetry_cell_setting 'monoclinic'
loop_
_space_group_symop_operation_xyz
x,y,z
-x,y,1/2-z
-x,-y,-z
x,-y,1/2+z
loop_
_atom_site_type_symbol
_atom_site_label
_atom_site_fract_x
_atom_site_fract_y
_atom_site_fract_z
Si Si1 0.000000 0.972767 0.250000
Si Si2 0.634610 0.565501 0.401641
Si Si3 0.418424 0.745760 0.393481
Si Si4 0.132436 0.156267 0.616078
Si Si5 0.997337 0.349345 0.473507
Si Si6 0.816430 0.598070 0.094832
Si Si7 0.000000 0.705950 0.750000
Si Si8 0.743068 0.870883 0.553177
O O1 0.972199 0.909985 0.345290
O O2 0.819294 0.039304 0.159674
O O3 0.500000 0.516715 0.250000
O O4 0.547817 0.662913 0.409473
O O5 0.683607 0.496597 0.529480
O O6 0.809792 0.600869 0.418138
O O7 0.294870 0.783790 0.241218
O O8 0.288818 0.698216 0.424053
O O9 0.535221 0.842777 0.483908
O O10 0.216609 0.097960 0.552811
O O11 0.990059 0.234672 0.504449
O O12 0.859252 0.403010 0.487246
O O13 0.933262 0.361973 0.318738
O O14 0.000000 0.586753 0.250000
O O15 0.159333 0.769653 0.872573
#
# Coordination Sequence:
#
# PCOD8121220 Si02
#       8
#     2   4   4   4   4   4   2   4
#     4  11  24  40  66 109 130 164 239 292 356 408
#     4  12  23  42  65  97 139 186 238 283 342 420
#     4  12  22  43  68  95 133 185 228 272 354 418
#     4  11  20  40  70  89 134 177 223 280 338 432
#     4  11  22  42  67  95 132 186 233 268 357 408
#     4  12  26  40  66 106 141 178 239 297 335 406
#     4   9  20  38  68  91 128 182 225 268 336 424
#     4  10  22  40  66  96 133 177 221 280 354 422
#
# _framework density 22.331302000000001
#
# number of rings (size 3 to 8) (size 9 to 14) (size 15 to 20)
#    0.000    0.857    5.714    2.571    1.000    1.714 
#    0.000    0.000    0.000    0.000    0.000    0.000 
#    0.000    0.000    0.000    0.000    0.000    0.000 
#
# Total GULP energy -346911.196069 kJ/mol
# GULP energy per Si atom -12389.685574 kJ/mol
# Density = 2.228047 g / cm^3
# Si number density = 22.331302 Si / 1000 Ang^3
#
#
#
# Elastic Constant Matrix: (Units=GPa)
#
#
# Indices 1 2 3 4 5 6 
#
# 1 98.1056 27.3845 47.4209 0.0000 -3.7324 0.0000
# 2 27.3845 82.4069 43.9266 0.0000 5.6470 0.0000
# 3 47.4209 43.9266 122.8937 0.0000 -11.8301 0.0000
# 4 0.0000 0.0000 0.0000 161.8332 0.0000 -65.7624
# 5 -3.7324 5.6470 -11.8301 0.0000 26.1878 0.0000
# 6 0.0000 0.0000 0.0000 -65.7624 0.0000 62.6105
#
#
#
# Elastic Compliance Matrix: (Units=1/GPa)
#
#
# Indices 1 2 3 4 5 6 
#
# 1 0.012795 -0.002059 -0.004164 0.000000 0.000386 0.000000
# 2 -0.002059 0.016252 -0.005625 0.000000 -0.006339 0.000000
# 3 -0.004164 -0.005625 0.012351 0.000000 0.006199 0.000000
# 4 0.000000 0.000000 0.000000 0.010780 0.000000 0.011323
# 5 0.000386 -0.006339 0.006199 0.000000 0.042408 0.000000
# 6 0.000000 0.000000 0.000000 0.011323 0.000000 0.027865
#
#
# Mechanical properties :
#
#
# Convention : Reuss Voigt Hill
#
# Bulk Modulus (GPa) = 56.48848 60.09671 58.29259
# Shear Modulus (GPa) = 32.88438 62.43791 47.66115
#
# Velocity S-wave (km/s) = 3.84157 5.29344 4.62483
# Velocity P-wave (km/s) = 6.71025 8.02063 7.39452
#
# Compressibility (1/GPa) = 0.01770273
#
# Stress axis : x y z
#
# Youngs Moduli (GPa) = 78.15358 61.53233 80.96406
#
# Poissons Ratio (x) = 0.12668 0.33715
# Poissons Ratio (y) = 0.16090 0.45540
# Poissons Ratio (z) = 0.32545 0.34610
#
# Static dielectric constant tensor:
#      x y z
#    x 4.055900 0.000000 0.017620 
#    y 0.000000 4.063220 0.000000 
#    z 0.017620 0.000000 4.341940 
# 
# 
# High freq. dielectric constant tensor:
#      x y z
#    x 1.869310 0.000000 -0.002160 
#    y 0.000000 1.872030 0.000000 
#    z -0.002160 0.000000 1.883740 
# 
# From -- ./inp_files/30544.got.cif
#   From: 2010.06.25/outbox.cif.g09.slc.cpg/sg13_16_cif.got.tgz:30544.got - 2010.06.28 04:50:58.
