data_PCOD8121876
_publ_section_title
;
Structure prediction by ZEFSAII (Michael W. Deem and Ramdas Pophale) SiO2 
 PCOD8121876
Probable space group: P 2/C
;
_chemical_formula_sum "Si O2"
_cell_formula_units_Z 28
_cell_length_a 8.335664
_cell_length_b 12.874261
_cell_length_c 13.166362
_cell_angle_alpha 90.000000
_cell_angle_beta 67.129346
_cell_angle_gamma 90.000000
_cell_volume 1301.874873
_symmetry_space_group_name_H-M "P 2/C"
_symmetry_group_IT_number 13
_symmetry_cell_setting 'monoclinic'
loop_
_space_group_symop_operation_xyz
x,y,z
-x,y,1/2-z
-x,-y,-z
x,-y,1/2+z
loop_
_atom_site_type_symbol
_atom_site_label
_atom_site_fract_x
_atom_site_fract_y
_atom_site_fract_z
Si Si1 0.285257 0.757432 0.045336
Si Si2 0.500000 0.864086 0.250000
Si Si3 0.686785 0.312489 0.185592
Si Si4 0.190388 0.812124 0.664385
Si Si5 0.366567 0.296808 0.943036
Si Si6 0.157282 0.473883 0.888011
Si Si7 0.000000 0.347409 0.750000
Si Si8 0.208112 0.049434 0.678750
O O1 0.453464 0.691198 0.039063
O O2 0.289127 0.880232 0.068416
O O3 0.119534 0.721441 0.149213
O O4 0.264599 0.744371 0.931099
O O5 0.604354 0.789252 0.149073
O O6 0.658835 0.931920 0.258977
O O7 0.500000 0.360826 0.250000
O O8 0.691963 0.227418 0.273028
O O9 0.798930 0.414718 0.167567
O O10 0.218365 0.746735 0.554928
O O11 0.000000 0.789830 0.750000
O O12 0.229674 0.932454 0.634337
O O13 0.305591 0.408291 0.912604
O O14 0.116848 0.413261 0.796096
O O15 0.000000 0.500000 0.000000
O O16 0.000000 0.071525 0.750000
#
# Coordination Sequence:
#
# PCOD8121876 Si02
#       8
#     4   2   4   4   4   4   2   4
#     4  11  24  46  72 100 141 180 236 294 344 427
#     4  10  24  42  74 100 142 184 242 294 344 430
#     4  12  27  44  66 104 138 184 226 288 349 419
#     4  11  26  45  69 101 145 177 231 293 350 419
#     4  11  25  46  67 102 136 183 236 290 345 419
#     4  12  27  44  70 101 136 189 229 283 353 410
#     4  12  26  44  72 102 138 176 242 288 340 422
#     4  10  23  43  72 106 138 187 234 293 362 420
#
# _framework density 21.507442999999999
#
# number of rings (size 3 to 8) (size 9 to 14) (size 15 to 20)
#    0.000    0.857    3.571    2.571    7.000    4.000 
#    0.000    2.857    0.000    0.000    0.000    0.000 
#    0.000    0.000    0.000    0.000    0.000    0.000 
#
# Total GULP energy -346929.041983 kJ/mol
# GULP energy per Si atom -12390.322928 kJ/mol
# Density = 2.145849 g / cm^3
# Si number density = 21.507443 Si / 1000 Ang^3
#
#
#
# Elastic Constant Matrix: (Units=GPa)
#
#
# Indices 1 2 3 4 5 6 
#
# 1 88.3877 29.3506 15.5037 0.0000 -4.3596 0.0000
# 2 29.3506 106.8536 35.4103 0.0000 4.2991 0.0000
# 3 15.5037 35.4103 128.2064 0.0000 2.0038 0.0000
# 4 0.0000 0.0000 0.0000 31.3755 0.0000 1.2171
# 5 -4.3596 4.2991 2.0038 0.0000 39.4861 0.0000
# 6 0.0000 0.0000 0.0000 1.2171 0.0000 32.0059
#
#
#
# Elastic Compliance Matrix: (Units=1/GPa)
#
#
# Indices 1 2 3 4 5 6 
#
# 1 0.012618 -0.003328 -0.000635 0.000000 0.001788 0.000000
# 2 -0.003328 0.011217 -0.002673 0.000000 -0.001453 0.000000
# 3 -0.000635 -0.002673 0.008618 0.000000 -0.000216 0.000000
# 4 0.000000 0.000000 0.000000 0.031919 0.000000 -0.001214
# 5 0.001788 -0.001453 -0.000216 0.000000 0.025692 0.000000
# 6 0.000000 0.000000 0.000000 -0.001214 0.000000 0.031290
#
#
# Mechanical properties :
#
#
# Convention : Reuss Voigt Hill
#
# Bulk Modulus (GPa) = 52.12982 53.77521 52.95252
# Shear Modulus (GPa) = 35.45602 36.78571 36.12087
#
# Velocity S-wave (km/s) = 4.06463 4.14015 4.10257
# Velocity P-wave (km/s) = 6.80581 6.92184 6.86407
#
# Compressibility (1/GPa) = 0.01918288
#
# Stress axis : x y z
#
# Youngs Moduli (GPa) = 79.25015 89.15144 116.03165
#
# Poissons Ratio (x) = 0.29666 0.07365
# Poissons Ratio (y) = 0.26371 0.31015
# Poissons Ratio (z) = 0.05031 0.23830
#
# Static dielectric constant tensor:
#      x y z
#    x 3.994800 0.000000 -0.015820 
#    y 0.000000 3.936710 0.000000 
#    z -0.015820 0.000000 4.027940 
# 
# 
# High freq. dielectric constant tensor:
#      x y z
#    x 1.851620 0.000000 -0.009150 
#    y 0.000000 1.849640 0.000000 
#    z -0.009150 0.000000 1.859390 
# 
# From -- ./inp_files/47154.got.cif
#   From: 2010.06.25/outbox.cif.g09.slc.cpg/sg13_24_cif.got.tgz:47154.got - 2010.06.28 04:50:58.
