data_PCOD8121490
_publ_section_title
;
Structure prediction by ZEFSAII (Michael W. Deem and Ramdas Pophale) SiO2 
 PCOD8121490
Probable space group: P 2/C
;
_chemical_formula_sum "Si O2"
_cell_formula_units_Z 20
_cell_length_a 19.387746
_cell_length_b 8.690873
_cell_length_c 14.789380
_cell_angle_alpha 90.000000
_cell_angle_beta 158.579101
_cell_angle_gamma 90.000000
_cell_volume 910.103798
_symmetry_space_group_name_H-M "P 2/C"
_symmetry_group_IT_number 13
_symmetry_cell_setting 'monoclinic'
loop_
_space_group_symop_operation_xyz
x,y,z
-x,y,1/2-z
-x,-y,-z
x,-y,1/2+z
loop_
_atom_site_type_symbol
_atom_site_label
_atom_site_fract_x
_atom_site_fract_y
_atom_site_fract_z
Si Si1 0.537692 0.798661 0.956190
Si Si2 0.231588 0.286911 0.429356
Si Si3 0.786382 0.577495 0.976532
Si Si4 0.497975 0.859502 0.377992
Si Si5 0.124612 0.604316 0.086359
O O1 0.357268 0.718760 0.690540
O O2 0.562866 0.965023 0.940910
O O3 0.502024 0.816706 0.018466
O O4 0.726969 0.699306 0.171814
O O5 0.265868 0.459448 0.507526
O O6 0.359073 0.257801 0.496584
O O7 0.289995 0.165848 0.579476
O O8 0.011279 0.274497 0.132973
O O9 0.763478 0.497673 0.850352
O O10 0.000000 0.638979 0.250000
O O11 0.000000 0.500000 0.000000
#
# Coordination Sequence:
#
# PCOD8121490 Si02
#       5
#     4   4   4   4   4
#     4  11  23  43  66  97 131 171 217 272 325 402
#     4  10  22  43  63  92 130 171 217 265 323 385
#     4  10  22  43  66  96 125 170 221 271 326 377
#     4  10  23  42  65  93 131 176 213 263 340 382
#     4  11  23  39  69  99 126 169 219 268 324 383
#
# _framework density 21.975517
#
# number of rings (size 3 to 8) (size 9 to 14) (size 15 to 20)
#    0.000    1.600    2.000    1.800    5.600    0.800 
#   21.600    0.000    0.000    0.000    0.000    0.000 
#    0.000    0.000    0.000    0.000    0.000    0.000 
#
# Total GULP energy -247987.393718 kJ/mol
# GULP energy per Si atom -12399.369686 kJ/mol
# Density = 2.192550 g / cm^3
# Si number density = 21.975517 Si / 1000 Ang^3
#
#
#
# Elastic Constant Matrix: (Units=GPa)
#
#
# Indices 1 2 3 4 5 6 
#
# 1 78.8625 41.1616 9.9024 0.0000 7.7731 0.0000
# 2 41.1616 109.7549 67.2504 0.0000 15.7548 0.0000
# 3 9.9024 67.2504 146.5497 0.0000 7.4339 0.0000
# 4 0.0000 0.0000 0.0000 31.3117 0.0000 -0.7850
# 5 7.7731 15.7548 7.4339 0.0000 29.4416 0.0000
# 6 0.0000 0.0000 0.0000 -0.7850 0.0000 29.1220
#
#
#
# Elastic Compliance Matrix: (Units=1/GPa)
#
#
# Indices 1 2 3 4 5 6 
#
# 1 0.016364 -0.007450 0.002360 0.000000 -0.000930 0.000000
# 2 -0.007450 0.016969 -0.007012 0.000000 -0.005343 0.000000
# 3 0.002360 -0.007012 0.009849 0.000000 0.000642 0.000000
# 4 0.000000 0.000000 0.000000 0.031959 0.000000 0.000861
# 5 -0.000930 -0.005343 0.000642 0.000000 0.036908 0.000000
# 6 0.000000 0.000000 0.000000 0.000861 0.000000 0.034362
#
#
# Mechanical properties :
#
#
# Convention : Reuss Voigt Hill
#
# Bulk Modulus (GPa) = 52.69223 63.53289 58.11256
# Shear Modulus (GPa) = 28.25817 32.43188 30.34503
#
# Velocity S-wave (km/s) = 3.58983 3.84581 3.72002
# Velocity P-wave (km/s) = 6.41967 6.97810 6.70470
#
# Compressibility (1/GPa) = 0.01897813
#
# Stress axis : x y z
#
# Youngs Moduli (GPa) = 61.11041 58.93211 101.52805
#
# Poissons Ratio (x) = 0.43902 -0.23960
# Poissons Ratio (y) = 0.45524 0.71195
# Poissons Ratio (z) = -0.14422 0.41325
#
# Static dielectric constant tensor:
#      x y z
#    x 3.848820 0.000000 -0.167690 
#    y 0.000000 3.911620 0.000000 
#    z -0.167690 0.000000 4.329010 
# 
# 
# High freq. dielectric constant tensor:
#      x y z
#    x 1.864810 0.000000 -0.011050 
#    y 0.000000 1.844300 0.000000 
#    z -0.011050 0.000000 1.874710 
# 
# From -- ./inp_files/57391.got.cif
#   From: 2010.06.25/outbox.cif.g09.slc.cpg/sg13_29_cif.got.tgz:57391.got - 2010.06.28 04:50:58.
