data_PCOD8121039
_publ_section_title
;
Structure prediction by ZEFSAII (Michael W. Deem and Ramdas Pophale) SiO2 
 PCOD8121039
Probable space group: P 2/C
;
_chemical_formula_sum "Si O2"
_cell_formula_units_Z 20
_cell_length_a 16.243781
_cell_length_b 9.346854
_cell_length_c 21.414127
_cell_angle_alpha 90.000000
_cell_angle_beta 163.346608
_cell_angle_gamma 90.000000
_cell_volume 931.752923
_symmetry_space_group_name_H-M "P 2/C"
_symmetry_group_IT_number 13
_symmetry_cell_setting 'monoclinic'
loop_
_space_group_symop_operation_xyz
x,y,z
-x,y,1/2-z
-x,-y,-z
x,-y,1/2+z
loop_
_atom_site_type_symbol
_atom_site_label
_atom_site_fract_x
_atom_site_fract_y
_atom_site_fract_z
Si Si1 0.000000 0.011477 0.250000
Si Si2 0.214309 0.558085 0.105794
Si Si3 0.539956 0.240809 0.926329
Si Si4 0.810191 0.475763 0.197921
Si Si5 0.913106 0.214925 0.791289
Si Si6 0.500000 0.321215 0.250000
O O1 0.282303 0.105391 0.469484
O O2 0.897213 0.918332 0.233847
O O3 0.357909 0.704082 0.234594
O O4 0.454607 0.433287 0.274416
O O5 0.000000 0.500000 0.000000
O O6 0.040907 0.586805 0.915506
O O7 0.330334 0.201097 0.832044
O O8 0.773432 0.362551 0.115358
O O9 0.899119 0.636143 0.241959
O O10 0.500000 0.500000 0.000000
O O11 0.229302 0.215900 0.051002
#
# Coordination Sequence:
#
# PCOD8121039 Si02
#       6
#     2   4   4   4   4   2
#     4  12  28  40  66  94 144 188 214 262 340 414
#     4  11  20  39  68 103 128 162 217 293 332 377
#     4  11  24  45  67  98 135 174 225 280 334 391
#     4   9  19  38  71  97 122 165 226 279 326 382
#     4  10  23  45  64  96 132 175 226 268 332 409
#     4  10  22  38  70 102 126 166 230 276 340 394
#
# _framework density 21.464915999999999
#
# number of rings (size 3 to 8) (size 9 to 14) (size 15 to 20)
#    0.000    1.600    6.000    0.600    8.400    0.000 
#    3.600    1.000    0.000    0.000    0.000    0.000 
#    0.000    0.000    0.000    0.000    0.000    0.000 
#
# Total GULP energy -247760.997877 kJ/mol
# GULP energy per Si atom -12388.049894 kJ/mol
# Density = 2.141606 g / cm^3
# Si number density = 21.464916 Si / 1000 Ang^3
#
#
#
# Elastic Constant Matrix: (Units=GPa)
#
#
# Indices 1 2 3 4 5 6 
#
# 1 65.5015 40.3305 36.6887 0.0000 6.4524 0.0000
# 2 40.3305 126.7117 60.4247 0.0000 -7.3916 0.0000
# 3 36.6887 60.4247 122.3756 0.0000 -2.3232 0.0000
# 4 0.0000 0.0000 0.0000 34.3743 0.0000 1.7149
# 5 6.4524 -7.3916 -2.3232 0.0000 40.5126 0.0000
# 6 0.0000 0.0000 0.0000 1.7149 0.0000 40.0774
#
#
#
# Elastic Compliance Matrix: (Units=1/GPa)
#
#
# Indices 1 2 3 4 5 6 
#
# 1 0.021022 -0.005111 -0.003864 0.000000 -0.004502 0.000000
# 2 -0.005111 0.011669 -0.004178 0.000000 0.002703 0.000000
# 3 -0.003864 -0.004178 0.011403 0.000000 0.000507 0.000000
# 4 0.000000 0.000000 0.000000 0.029154 0.000000 -0.001248
# 5 -0.004502 0.002703 0.000507 0.000000 0.025923 0.000000
# 6 0.000000 0.000000 0.000000 -0.001248 0.000000 0.025005
#
#
# Mechanical properties :
#
#
# Convention : Reuss Voigt Hill
#
# Bulk Modulus (GPa) = 56.22156 65.49741 60.85949
# Shear Modulus (GPa) = 31.96726 34.80250 33.38488
#
# Velocity S-wave (km/s) = 3.86330 4.03099 3.94804
# Velocity P-wave (km/s) = 6.79333 7.22808 7.01407
#
# Compressibility (1/GPa) = 0.01778677
#
# Stress axis : x y z
#
# Youngs Moduli (GPa) = 47.57011 85.69949 87.69854
#
# Poissons Ratio (x) = 0.43799 0.33890
# Poissons Ratio (y) = 0.24312 0.36641
# Poissons Ratio (z) = 0.18383 0.35806
#
# Static dielectric constant tensor:
#      x y z
#    x 4.135620 0.000000 -0.459150 
#    y 0.000000 3.940450 0.000000 
#    z -0.459150 0.000000 4.682640 
# 
# 
# High freq. dielectric constant tensor:
#      x y z
#    x 1.835530 0.000000 0.026480 
#    y 0.000000 1.822730 0.000000 
#    z 0.026480 0.000000 1.864510 
# 
# From -- ./inp_files/45939.got.cif
#   From: 2010.06.25/outbox.cif.g09.slc.cpg/sg13_23_cif.got.tgz:45939.got - 2010.06.28 04:50:58.
