data_PCOD8121538
_publ_section_title
;
Structure prediction by ZEFSAII (Michael W. Deem and Ramdas Pophale) SiO2 
 PCOD8121538
Probable space group: P 2/C
;
_chemical_formula_sum "Si O2"
_cell_formula_units_Z 22
_cell_length_a 10.616357
_cell_length_b 9.270735
_cell_length_c 10.672673
_cell_angle_alpha 90.000000
_cell_angle_beta 70.824161
_cell_angle_gamma 90.000000
_cell_volume 992.137188
_symmetry_space_group_name_H-M "P 2/C"
_symmetry_group_IT_number 13
_symmetry_cell_setting 'monoclinic'
loop_
_space_group_symop_operation_xyz
x,y,z
-x,y,1/2-z
-x,-y,-z
x,-y,1/2+z
loop_
_atom_site_type_symbol
_atom_site_label
_atom_site_fract_x
_atom_site_fract_y
_atom_site_fract_z
Si Si1 0.858824 0.445163 0.503763
Si Si2 0.185292 0.901394 0.820039
Si Si3 0.300398 0.276173 0.493337
Si Si4 0.136585 0.225721 0.780557
Si Si5 0.461133 0.896686 0.625837
Si Si6 0.000000 0.302565 0.250000
O O1 0.745572 0.568864 0.545221
O O2 0.824584 0.318541 0.610887
O O3 0.000000 0.500000 0.500000
O O4 0.880797 0.395132 0.352465
O O5 0.234027 0.859887 0.942674
O O6 0.302084 0.872028 0.679126
O O7 0.062064 0.795904 0.837307
O O8 0.129957 0.062762 0.831552
O O9 0.261482 0.253880 0.649611
O O10 0.460247 0.255790 0.422066
O O11 0.000000 0.267709 0.750000
O O12 0.500000 0.963628 0.750000
O O13 0.500000 0.000000 0.500000
#
# Coordination Sequence:
#
# PCOD8121538 Si02
#       6
#     4   4   4   4   4   2
#     4  12  24  40  64  95 137 184 217 275 345 411
#     4  11  24  40  69 100 132 176 230 286 347 392
#     4  11  24  44  66  96 140 181 228 278 340 414
#     4  12  23  37  68 101 137 176 231 280 342 404
#     4  10  22  43  71  97 136 178 226 287 342 404
#     4  12  24  40  68  94 138 174 232 282 342 406
#
# _framework density 22.174351000000001
#
# number of rings (size 3 to 8) (size 9 to 14) (size 15 to 20)
#    0.000    0.727    6.364    1.091    2.545    1.455 
#    0.000    0.909    4.000    0.000    0.000    0.000 
#    0.000    0.000    0.000    0.000    0.000    0.000 
#
# Total GULP energy -272707.531930 kJ/mol
# GULP energy per Si atom -12395.796906 kJ/mol
# Density = 2.212388 g / cm^3
# Si number density = 22.174351 Si / 1000 Ang^3
#
#
#
# Elastic Constant Matrix: (Units=GPa)
#
#
# Indices 1 2 3 4 5 6 
#
# 1 50.9307 28.1083 11.0040 0.0000 -11.5890 0.0000
# 2 28.1083 129.4529 46.6435 0.0000 1.7430 0.0000
# 3 11.0040 46.6435 140.9691 0.0000 -0.5211 0.0000
# 4 0.0000 0.0000 0.0000 37.7243 0.0000 -4.2843
# 5 -11.5890 1.7430 -0.5211 0.0000 25.1162 0.0000
# 6 0.0000 0.0000 0.0000 -4.2843 0.0000 35.7588
#
#
#
# Elastic Compliance Matrix: (Units=1/GPa)
#
#
# Indices 1 2 3 4 5 6 
#
# 1 0.025563 -0.005690 -0.000068 0.000000 0.012189 0.000000
# 2 -0.005690 0.010048 -0.002893 0.000000 -0.003383 0.000000
# 3 -0.000068 -0.002893 0.008058 0.000000 0.000337 0.000000
# 4 0.000000 0.000000 0.000000 0.026874 0.000000 0.003220
# 5 0.012189 -0.003383 0.000337 0.000000 0.045681 0.000000
# 6 0.000000 0.000000 0.000000 0.003220 0.000000 0.028351
#
#
# Mechanical properties :
#
#
# Convention : Reuss Voigt Hill
#
# Bulk Modulus (GPa) = 37.92630 54.76269 46.34449
# Shear Modulus (GPa) = 29.29712 35.42632 32.36172
#
# Velocity S-wave (km/s) = 3.63880 4.00137 3.82438
# Velocity P-wave (km/s) = 5.89875 6.78955 6.35977
#
# Compressibility (1/GPa) = 0.02636693
#
# Stress axis : x y z
#
# Youngs Moduli (GPa) = 39.11901 99.51913 124.10750
#
# Poissons Ratio (x) = 0.56629 0.00839
# Poissons Ratio (y) = 0.22260 0.35905
# Poissons Ratio (z) = 0.00264 0.28792
#
# Static dielectric constant tensor:
#      x y z
#    x 4.171200 0.000000 -0.281380 
#    y 0.000000 4.449850 0.000000 
#    z -0.281380 0.000000 4.137050 
# 
# 
# High freq. dielectric constant tensor:
#      x y z
#    x 1.852280 0.000000 -0.004220 
#    y 0.000000 1.865220 0.000000 
#    z -0.004220 0.000000 1.891710 
# 
# From -- ./inp_files/32530.got.cif
#   From: 2010.06.25/outbox.cif.g09.slc.cpg/sg13_17_cif.got.tgz:32530.got - 2010.06.28 04:50:58.
