data_PCOD8121964
_publ_section_title
;
Structure prediction by ZEFSAII (Michael W. Deem and Ramdas Pophale) SiO2 
 PCOD8121964
Probable space group: P 2/C
;
_chemical_formula_sum "Si O2"
_cell_formula_units_Z 28
_cell_length_a 15.071574
_cell_length_b 10.982925
_cell_length_c 8.732990
_cell_angle_alpha 90.000000
_cell_angle_beta 59.452127
_cell_angle_gamma 90.000000
_cell_volume 1244.933140
_symmetry_space_group_name_H-M "P 2/C"
_symmetry_group_IT_number 13
_symmetry_cell_setting 'monoclinic'
loop_
_space_group_symop_operation_xyz
x,y,z
-x,y,1/2-z
-x,-y,-z
x,-y,1/2+z
loop_
_atom_site_type_symbol
_atom_site_label
_atom_site_fract_x
_atom_site_fract_y
_atom_site_fract_z
Si Si1 0.862384 0.224710 0.205036
Si Si2 0.387778 0.899042 0.808645
Si Si3 0.326202 0.650204 0.772023
Si Si4 0.619892 0.585070 0.113384
Si Si5 0.971841 0.629116 0.096697
Si Si6 0.746846 0.980680 0.299663
Si Si7 0.208207 0.264635 0.902734
O O1 0.786934 0.295563 0.155154
O O2 0.838829 0.079999 0.231227
O O3 0.854010 0.276582 0.383693
O O4 0.974093 0.257135 0.039040
O O5 0.500000 0.952768 0.750000
O O6 0.398207 0.753968 0.782409
O O7 0.356044 0.956549 0.675061
O O8 0.292168 0.930721 0.004127
O O9 0.372773 0.605053 0.572564
O O10 0.323245 0.540832 0.895477
O O11 0.500000 0.581947 0.250000
O O12 0.675188 0.689770 0.166706
O O13 0.849904 0.652823 0.174163
O O14 0.000000 0.630966 0.250000
O O15 0.000000 0.500000 0.000000
O O16 0.787373 0.873463 0.156895
#
# Coordination Sequence:
#
# PCOD8121964 Si02
#       7
#     4   4   4   4   4   4   4
#     4  10  23  47  66  99 139 176 233 285 345 414
#     4  11  24  42  67  97 139 186 242 292 346 411
#     4  10  24  40  65  98 136 184 231 287 347 419
#     4  11  24  41  65 100 144 182 231 281 353 417
#     4  12  27  46  76 106 136 179 230 283 355 415
#     4  11  24  43  68  99 139 183 235 287 351 409
#     4  11  25  43  70 100 138 184 226 290 339 418
#
# _framework density 22.491167000000001
#
# number of rings (size 3 to 8) (size 9 to 14) (size 15 to 20)
#    0.000    1.143    1.429    3.429    8.000    3.429 
#    0.000    0.000    0.000    0.000    0.000    0.000 
#    0.000    0.000    0.000    0.000    0.000    0.000 
#
# Total GULP energy -347213.484260 kJ/mol
# GULP energy per Si atom -12400.481581 kJ/mol
# Density = 2.243998 g / cm^3
# Si number density = 22.491167 Si / 1000 Ang^3
#
#
#
# Elastic Constant Matrix: (Units=GPa)
#
#
# Indices 1 2 3 4 5 6 
#
# 1 92.2219 31.5869 18.0286 0.0000 10.7568 0.0000
# 2 31.5869 143.2596 39.1035 0.0000 8.4208 0.0000
# 3 18.0286 39.1035 80.7386 0.0000 8.1095 0.0000
# 4 0.0000 0.0000 0.0000 36.6235 0.0000 9.1877
# 5 10.7568 8.4208 8.1095 0.0000 29.9947 0.0000
# 6 0.0000 0.0000 0.0000 9.1877 0.0000 22.5127
#
#
#
# Elastic Compliance Matrix: (Units=1/GPa)
#
#
# Indices 1 2 3 4 5 6 
#
# 1 0.012237 -0.002126 -0.001359 0.000000 -0.003424 0.000000
# 2 -0.002126 0.008458 -0.003556 0.000000 -0.000651 0.000000
# 3 -0.001359 -0.003556 0.014660 0.000000 -0.002478 0.000000
# 4 0.000000 0.000000 0.000000 0.030419 0.000000 -0.012414
# 5 -0.003424 -0.000651 -0.002478 0.000000 0.035420 0.000000
# 6 0.000000 0.000000 0.000000 -0.012414 0.000000 0.049486
#
#
# Mechanical properties :
#
#
# Convention : Reuss Voigt Hill
#
# Bulk Modulus (GPa) = 47.00827 54.85090 50.92958
# Shear Modulus (GPa) = 29.09465 32.99292 31.04379
#
# Velocity S-wave (km/s) = 3.60057 3.83420 3.71922
# Velocity P-wave (km/s) = 6.18317 6.63643 6.41381
#
# Compressibility (1/GPa) = 0.02127285
#
# Stress axis : x y z
#
# Youngs Moduli (GPa) = 81.72232 118.23083 68.21104
#
# Poissons Ratio (x) = 0.25134 0.09269
# Poissons Ratio (y) = 0.17373 0.24258
# Poissons Ratio (z) = 0.11105 0.42047
#
# Static dielectric constant tensor:
#      x y z
#    x 4.266060 0.000000 0.209090 
#    y 0.000000 4.125680 0.000000 
#    z 0.209090 0.000000 3.860140 
# 
# 
# High freq. dielectric constant tensor:
#      x y z
#    x 1.896740 0.000000 0.016470 
#    y 0.000000 1.892430 0.000000 
#    z 0.016470 0.000000 1.879300 
# 
# From -- ./inp_files/18956.got.cif
#   From: 2010.06.25/outbox.cif.g09.slc.cpg/sg13_10_cif.got.tgz:18956.got - 2010.06.28 04:50:58.
