data_PCOD8121707
_publ_section_title
;
Structure prediction by ZEFSAII (Michael W. Deem and Ramdas Pophale) SiO2 
 PCOD8121707
Probable space group: P 2/C
;
_chemical_formula_sum "Si O2"
_cell_formula_units_Z 24
_cell_length_a 20.618173
_cell_length_b 6.565489
_cell_length_c 14.299900
_cell_angle_alpha 90.000000
_cell_angle_beta 32.802870
_cell_angle_gamma 90.000000
_cell_volume 1048.695561
_symmetry_space_group_name_H-M "P 2/C"
_symmetry_group_IT_number 13
_symmetry_cell_setting 'monoclinic'
loop_
_space_group_symop_operation_xyz
x,y,z
-x,y,1/2-z
-x,-y,-z
x,-y,1/2+z
loop_
_atom_site_type_symbol
_atom_site_label
_atom_site_fract_x
_atom_site_fract_y
_atom_site_fract_z
Si Si1 0.543145 0.112763 0.039821
Si Si2 0.711770 0.057294 0.103381
Si Si3 0.847876 0.834524 0.611280
Si Si4 0.880421 0.127800 0.734134
Si Si5 0.262156 0.443852 0.692345
Si Si6 0.370615 0.760241 0.431597
O O1 0.417750 0.173701 0.243479
O O2 0.622379 0.957992 0.006686
O O3 0.621493 0.311960 0.917461
O O4 0.500000 0.000000 0.000000
O O5 0.763731 0.030718 0.145157
O O6 0.692648 0.828839 0.087965
O O7 0.805706 0.164408 0.919387
O O8 0.790458 0.607643 0.669883
O O9 0.980850 0.849505 0.408403
O O10 0.850247 0.913664 0.716630
O O11 0.849194 0.301759 0.697482
O O12 0.298050 0.572848 0.558725
O O13 0.500000 0.675279 0.250000
#
# Coordination Sequence:
#
# PCOD8121707 Si02
#       6
#     4   4   4   4   4   4
#     4  11  24  42  67 102 139 175 221 284 353 415
#     4  11  22  45  68  95 138 179 225 279 348 407
#     4  11  25  45  70  97 136 189 227 288 340 408
#     4  11  24  45  68  97 140 177 236 285 338 404
#     4  12  22  43  69  99 136 178 227 287 344 414
#     4  10  23  39  64  99 133 172 216 279 347 408
#
# _framework density 22.885574999999999
#
# number of rings (size 3 to 8) (size 9 to 14) (size 15 to 20)
#    0.000    1.000    3.333    3.000    2.333    2.667 
#    6.000    0.000    3.667    0.000    0.000    0.000 
#    0.000    0.000    0.000    0.000    0.000    0.000 
#
# Total GULP energy -297442.481517 kJ/mol
# GULP energy per Si atom -12393.436730 kJ/mol
# Density = 2.283349 g / cm^3
# Si number density = 22.885575 Si / 1000 Ang^3
#
#
#
# Elastic Constant Matrix: (Units=GPa)
#
#
# Indices 1 2 3 4 5 6 
#
# 1 85.1912 27.3833 13.9096 0.0000 -18.7491 0.0000
# 2 27.3833 99.5485 34.5413 0.0000 -18.2356 0.0000
# 3 13.9096 34.5413 107.3087 0.0000 -24.8316 0.0000
# 4 0.0000 0.0000 0.0000 37.2751 0.0000 0.4518
# 5 -18.7491 -18.2356 -24.8316 0.0000 39.9385 0.0000
# 6 0.0000 0.0000 0.0000 0.4518 0.0000 29.7489
#
#
#
# Elastic Compliance Matrix: (Units=1/GPa)
#
#
# Indices 1 2 3 4 5 6 
#
# 1 0.013806 -0.002952 0.000407 0.000000 0.005386 0.000000
# 2 -0.002952 0.012346 -0.003046 0.000000 0.002357 0.000000
# 3 0.000407 -0.003046 0.011644 0.000000 0.006040 0.000000
# 4 0.000000 0.000000 0.000000 0.026833 0.000000 -0.000408
# 5 0.005386 0.002357 0.006040 0.000000 0.032399 0.000000
# 6 0.000000 0.000000 0.000000 -0.000408 0.000000 0.033621
#
#
# Mechanical properties :
#
#
# Convention : Reuss Voigt Hill
#
# Bulk Modulus (GPa) = 37.57325 49.30184 43.43755
# Shear Modulus (GPa) = 33.17791 35.80679 34.49235
#
# Velocity S-wave (km/s) = 3.81166 3.95979 3.88643
# Velocity P-wave (km/s) = 5.98542 6.51891 6.25785
#
# Compressibility (1/GPa) = 0.02661468
#
# Stress axis : x y z
#
# Youngs Moduli (GPa) = 72.43089 80.99681 85.87911
#
# Poissons Ratio (x) = 0.23913 -0.03497
# Poissons Ratio (y) = 0.21384 0.26158
# Poissons Ratio (z) = -0.02949 0.24671
#
# Static dielectric constant tensor:
#      x y z
#    x 4.004140 0.000000 -0.099910 
#    y 0.000000 3.952220 0.000000 
#    z -0.099910 0.000000 4.624200 
# 
# 
# High freq. dielectric constant tensor:
#      x y z
#    x 1.889200 0.000000 -0.009210 
#    y 0.000000 1.877360 0.000000 
#    z -0.009210 0.000000 1.934900 
# 
# From -- ./inp_files/70859.got.cif
#   From: 2010.06.25/outbox.cif.g09.slc.cpg/sg13_36_cif.got.tgz:70859.got - 2010.06.28 04:50:58.
