data_PCOD8121177
_publ_section_title
;
Structure prediction by ZEFSAII (Michael W. Deem and Ramdas Pophale) SiO2 
 PCOD8121177
Probable space group: P 2/C
;
_chemical_formula_sum "Si O2"
_cell_formula_units_Z 12
_cell_length_a 8.232038
_cell_length_b 12.162671
_cell_length_c 5.176727
_cell_angle_alpha 90.000000
_cell_angle_beta 97.026497
_cell_angle_gamma 90.000000
_cell_volume 514.419699
_symmetry_space_group_name_H-M "P 2/C"
_symmetry_group_IT_number 13
_symmetry_cell_setting 'monoclinic'
loop_
_space_group_symop_operation_xyz
x,y,z
-x,y,1/2-z
-x,-y,-z
x,-y,1/2+z
loop_
_atom_site_type_symbol
_atom_site_label
_atom_site_fract_x
_atom_site_fract_y
_atom_site_fract_z
Si Si1 0.190007 0.567919 0.282493
Si Si2 0.396775 0.778904 0.475422
Si Si3 0.072024 0.877438 0.512543
O O1 0.233937 0.477222 0.507723
O O2 0.299866 0.672958 0.360668
O O3 0.000000 0.600635 0.250000
O O4 0.500000 0.823262 0.250000
O O5 0.268851 0.874310 0.537678
O O6 0.500000 0.750175 0.750000
O O7 0.000000 0.814718 0.750000
O O8 0.000000 0.000000 0.500000
O O9 0.000000 0.814227 0.250000
#
# Coordination Sequence:
#
# PCOD8121177 Si02
#       3
#     4   4   4
#     4  10  22  40  63  91 127 175 220 253 301 381
#     4  12  25  40  64  99 134 165 209 271 330 375
#     4  10  22  44  68  89 120 170 217 259 316 388
#
# _framework density 23.327256999999999
#
# number of rings (size 3 to 8) (size 9 to 14) (size 15 to 20)
#    0.000    1.333    0.000    5.000    0.000    8.000 
#    0.000   20.000    0.000    0.000    0.000    0.000 
#    0.000    0.000    0.000    0.000    0.000    0.000 
#
# Total GULP energy -148740.336307 kJ/mol
# GULP energy per Si atom -12395.028026 kJ/mol
# Density = 2.327416 g / cm^3
# Si number density = 23.327257 Si / 1000 Ang^3
#
#
#
# Elastic Constant Matrix: (Units=GPa)
#
#
# Indices 1 2 3 4 5 6 
#
# 1 173.5755 54.6165 80.9411 0.0000 -12.2341 0.0000
# 2 54.6165 75.5895 18.3431 0.0000 8.4005 0.0000
# 3 80.9411 18.3431 219.2061 0.0000 -8.0882 0.0000
# 4 0.0000 0.0000 0.0000 4.8068 0.0000 2.5007
# 5 -12.2341 8.4005 -8.0882 0.0000 53.0458 0.0000
# 6 0.0000 0.0000 0.0000 2.5007 0.0000 29.6587
#
#
#
# Elastic Compliance Matrix: (Units=1/GPa)
#
#
# Indices 1 2 3 4 5 6 
#
# 1 0.009229 -0.006293 -0.002781 0.000000 0.002701 0.000000
# 2 -0.006293 0.018086 0.000655 0.000000 -0.004216 0.000000
# 3 -0.002781 0.000655 0.005538 0.000000 0.000099 0.000000
# 4 0.000000 0.000000 0.000000 0.217580 0.000000 -0.018345
# 5 0.002701 -0.004216 0.000099 0.000000 0.020157 0.000000
# 6 0.000000 0.000000 0.000000 -0.018345 0.000000 0.035264
#
#
# Mechanical properties :
#
#
# Convention : Reuss Voigt Hill
#
# Bulk Modulus (GPa) = 62.44995 86.24138 74.34567
# Shear Modulus (GPa) = 15.24242 38.46697 26.85470
#
# Velocity S-wave (km/s) = 2.55897 4.06521 3.39664
# Velocity P-wave (km/s) = 5.96326 7.68668 6.87916
#
# Compressibility (1/GPa) = 0.01601282
#
# Stress axis : x y z
#
# Youngs Moduli (GPa) = 108.35589 55.29068 180.57669
#
# Poissons Ratio (x) = 0.34797 0.50226
# Poissons Ratio (y) = 0.68193 -0.11825
# Poissons Ratio (z) = 0.30138 -0.03621
#
# Static dielectric constant tensor:
#      x y z
#    x 4.467930 0.000000 0.285650 
#    y 0.000000 3.910170 0.000000 
#    z 0.285650 0.000000 2.403440 
# 
# 
# High freq. dielectric constant tensor:
#      x y z
#    x 1.927250 0.000000 -0.000380 
#    y 0.000000 1.897290 0.000000 
#    z -0.000380 0.000000 1.959910 
# 
# From -- ./inp_files/887.got.cif
#   From: 2010.06.25/outbox.cif.g09.slc.cpg/sg13_1_cif.got.tgz:887.got - 2010.06.28 04:50:58.
