data_PCOD8121227
_publ_section_title
;
Structure prediction by ZEFSAII (Michael W. Deem and Ramdas Pophale) SiO2 
 PCOD8121227
Probable space group: P 2/C
;
_chemical_formula_sum "Si O2"
_cell_formula_units_Z 22
_cell_length_a 9.735341
_cell_length_b 7.712351
_cell_length_c 26.829247
_cell_angle_alpha 90.000000
_cell_angle_beta 30.597297
_cell_angle_gamma 90.000000
_cell_volume 1025.332943
_symmetry_space_group_name_H-M "P 2/C"
_symmetry_group_IT_number 13
_symmetry_cell_setting 'monoclinic'
loop_
_space_group_symop_operation_xyz
x,y,z
-x,y,1/2-z
-x,-y,-z
x,-y,1/2+z
loop_
_atom_site_type_symbol
_atom_site_label
_atom_site_fract_x
_atom_site_fract_y
_atom_site_fract_z
Si Si1 0.482827 0.225795 0.069093
Si Si2 0.000000 0.996357 0.750000
Si Si3 0.989319 0.074965 0.861117
Si Si4 0.089998 0.690076 0.606063
Si Si5 0.741065 0.537516 0.047147
Si Si6 0.670004 0.394845 0.742865
O O1 0.632722 0.360103 0.057757
O O2 0.266161 0.124501 0.170383
O O3 0.338723 0.315647 0.066854
O O4 0.703794 0.094837 0.977641
O O5 0.029070 0.117008 0.692327
O O6 0.209135 0.209919 0.813198
O O7 0.071873 0.872912 0.840872
O O8 0.903464 0.531729 0.681454
O O9 0.188814 0.669865 0.518672
O O10 0.512389 0.629584 0.151496
O O11 0.000000 0.500000 0.000000
O O12 0.500000 0.470524 0.750000
#
# Coordination Sequence:
#
# PCOD8121227 Si02
#       6
#     4   2   4   4   4   4
#     4  11  23  45  67 104 138 169 234 275 332 404
#     4  10  22  40  68 102 130 184 218 278 334 402
#     4  11  25  42  69 100 137 172 227 278 332 399
#     4  11  24  46  68 100 135 179 217 285 331 393
#     4  12  24  44  72  98 136 183 220 275 341 397
#     4  12  26  46  65 100 137 174 232 273 333 408
#
# _framework density 21.456444000000001
#
# number of rings (size 3 to 8) (size 9 to 14) (size 15 to 20)
#    0.000    0.727    3.636    4.909    5.091    0.727 
#    3.273    1.818    0.000    0.000    0.000    0.000 
#    0.000    0.000    0.000    0.000    0.000    0.000 
#
# Total GULP energy -272825.614593 kJ/mol
# GULP energy per Si atom -12401.164300 kJ/mol
# Density = 2.140761 g / cm^3
# Si number density = 21.456444 Si / 1000 Ang^3
#
#
#
# Elastic Constant Matrix: (Units=GPa)
#
#
# Indices 1 2 3 4 5 6 
#
# 1 104.2057 22.1838 32.3412 0.0000 -5.6666 0.0000
# 2 22.1838 99.4236 38.8135 0.0000 -10.7941 0.0000
# 3 32.3412 38.8135 148.3897 0.0000 17.0188 0.0000
# 4 0.0000 0.0000 0.0000 32.2325 0.0000 9.4418
# 5 -5.6666 -10.7941 17.0188 0.0000 37.7851 0.0000
# 6 0.0000 0.0000 0.0000 9.4418 0.0000 20.9841
#
#
#
# Elastic Compliance Matrix: (Units=1/GPa)
#
#
# Indices 1 2 3 4 5 6 
#
# 1 0.010688 -0.001257 -0.002260 0.000000 0.002262 0.000000
# 2 -0.001257 0.012227 -0.003483 0.000000 0.004873 0.000000
# 3 -0.002260 -0.003483 0.008748 0.000000 -0.005274 0.000000
# 4 0.000000 0.000000 0.000000 0.035735 0.000000 -0.016079
# 5 0.002262 0.004873 -0.005274 0.000000 0.030572 0.000000
# 6 0.000000 0.000000 0.000000 -0.016079 0.000000 0.054890
#
#
# Mechanical properties :
#
#
# Convention : Reuss Voigt Hill
#
# Bulk Modulus (GPa) = 56.61655 59.85512 58.23584
# Shear Modulus (GPa) = 28.94388 35.44572 32.19480
#
# Velocity S-wave (km/s) = 3.67680 4.06887 3.87780
# Velocity P-wave (km/s) = 6.66852 7.07326 6.87387
#
# Compressibility (1/GPa) = 0.01766268
#
# Stress axis : x y z
#
# Youngs Moduli (GPa) = 93.55893 81.78422 114.31760
#
# Poissons Ratio (x) = 0.10280 0.25838
# Poissons Ratio (y) = 0.11760 0.39819
# Poissons Ratio (z) = 0.21146 0.28487
#
# Static dielectric constant tensor:
#      x y z
#    x 3.913620 0.000000 0.175010 
#    y 0.000000 3.695550 0.000000 
#    z 0.175010 0.000000 4.207990 
# 
# 
# High freq. dielectric constant tensor:
#      x y z
#    x 1.839080 0.000000 0.012410 
#    y 0.000000 1.835510 0.000000 
#    z 0.012410 0.000000 1.863840 
# 
# From -- ./inp_files/91201.got.cif
#   From: 2010.06.25/outbox.cif.g09.slc.cpg/sg13_46_cif.got.tgz:91201.got - 2010.06.28 04:50:58.
