data_PCOD8121989
_publ_section_title
;
Structure prediction by ZEFSAII (Michael W. Deem and Ramdas Pophale) SiO2 
 PCOD8121989
Probable space group: P 2/C
;
_chemical_formula_sum "Si O2"
_cell_formula_units_Z 22
_cell_length_a 21.267543
_cell_length_b 9.143631
_cell_length_c 9.102312
_cell_angle_alpha 90.000000
_cell_angle_beta 35.186091
_cell_angle_gamma 90.000000
_cell_volume 1019.968023
_symmetry_space_group_name_H-M "P 2/C"
_symmetry_group_IT_number 13
_symmetry_cell_setting 'monoclinic'
loop_
_space_group_symop_operation_xyz
x,y,z
-x,y,1/2-z
-x,-y,-z
x,-y,1/2+z
loop_
_atom_site_type_symbol
_atom_site_label
_atom_site_fract_x
_atom_site_fract_y
_atom_site_fract_z
Si Si1 0.941653 0.799627 0.122601
Si Si2 0.000000 0.984653 0.750000
Si Si3 0.816907 0.319055 0.305727
Si Si4 0.639380 0.908073 0.111181
Si Si5 0.593341 0.825011 0.879866
Si Si6 0.233704 0.594797 0.925089
O O1 0.925057 0.912507 0.289997
O O2 0.849239 0.679076 0.309613
O O3 0.057660 0.718697 0.906775
O O4 0.926094 0.884196 0.997654
O O5 0.750914 0.168515 0.447666
O O6 0.770057 0.426611 0.520206
O O7 0.801457 0.393524 0.176758
O O8 0.537954 0.816327 0.375124
O O9 0.639268 0.077297 0.158992
O O10 0.631049 0.910932 0.952561
O O11 0.645469 0.662630 0.778763
#
# Coordination Sequence:
#
# PCOD8121989 Si02
#       6
#     4   2   4   4   4   4
#     4  11  23  40  59  90 117 149 190 239 285 342
#     4  10  24  38  62  88 114 154 188 238 288 334
#     4  11  24  39  58  84 120 156 191 235 284 345
#     4   9  20  38  60  86 114 147 191 241 286 335
#     4   9  20  38  60  86 114 147 191 241 286 335
#     4  11  24  39  58  84 120 156 191 235 284 345
#
# _framework density 21.569303000000001
#
# number of rings (size 3 to 8) (size 9 to 14) (size 15 to 20)
#    0.000    1.818    1.818    0.545    7.636    2.182 
#    0.000    0.000    0.000    0.000    0.000    0.000 
#    0.000    0.000    0.000    0.000    0.000    0.000 
#
# Total GULP energy -272831.917483 kJ/mol
# GULP energy per Si atom -12401.450795 kJ/mol
# Density = 2.152021 g / cm^3
# Si number density = 21.569303 Si / 1000 Ang^3
#
#
#
# Elastic Constant Matrix: (Units=GPa)
#
#
# Indices 1 2 3 4 5 6 
#
# 1 47.8464 17.3794 21.0254 0.0000 8.8743 0.0000
# 2 17.3794 46.5744 6.6210 0.0000 9.4190 0.0000
# 3 21.0254 6.6210 59.3550 0.0000 5.0692 0.0000
# 4 0.0000 0.0000 0.0000 41.9975 0.0000 8.3654
# 5 8.8743 9.4190 5.0692 0.0000 34.8500 0.0000
# 6 0.0000 0.0000 0.0000 8.3654 0.0000 20.2621
#
#
#
# Elastic Compliance Matrix: (Units=1/GPa)
#
#
# Indices 1 2 3 4 5 6 
#
# 1 0.028625 -0.008683 -0.008859 0.000000 -0.003654 0.000000
# 2 -0.008683 0.025592 0.000631 0.000000 -0.004797 0.000000
# 3 -0.008859 0.000631 0.019986 0.000000 -0.000822 0.000000
# 4 0.000000 0.000000 0.000000 0.025944 0.000000 -0.010711
# 5 -0.003654 -0.004797 -0.000822 0.000000 0.031041 0.000000
# 6 0.000000 0.000000 0.000000 -0.010711 0.000000 0.053775
#
#
# Mechanical properties :
#
#
# Convention : Reuss Voigt Hill
#
# Bulk Modulus (GPa) = 24.76516 27.09194 25.92855
# Shear Modulus (GPa) = 21.52888 26.67192 24.10040
#
# Velocity S-wave (km/s) = 3.16274 3.52030 3.34630
# Velocity P-wave (km/s) = 4.98436 5.39547 5.19398
#
# Compressibility (1/GPa) = 0.04037930
#
# Stress axis : x y z
#
# Youngs Moduli (GPa) = 34.93457 39.07516 50.03556
#
# Poissons Ratio (x) = 0.33930 0.44327
# Poissons Ratio (y) = 0.30334 -0.03156
# Poissons Ratio (z) = 0.30949 -0.02465
#
# Static dielectric constant tensor:
#      x y z
#    x 3.800760 0.000000 0.086120 
#    y 0.000000 3.792130 0.000000 
#    z 0.086120 0.000000 4.019690 
# 
# 
# High freq. dielectric constant tensor:
#      x y z
#    x 1.839160 0.000000 0.006360 
#    y 0.000000 1.833690 0.000000 
#    z 0.006360 0.000000 1.853140 
# 
# From -- ./inp_files/22665.got.cif
#   From: 2010.06.25/outbox.cif.g09.slc.cpg/sg13_12_cif.got.tgz:22665.got - 2010.06.28 04:50:58.
