data_PCOD8121250
_publ_section_title
;
Structure prediction by ZEFSAII (Michael W. Deem and Ramdas Pophale) SiO2 
 PCOD8121250
Probable space group: P 2/C
;
_chemical_formula_sum "Si O2"
_cell_formula_units_Z 28
_cell_length_a 13.514462
_cell_length_b 8.314426
_cell_length_c 14.578096
_cell_angle_alpha 90.000000
_cell_angle_beta 129.004208
_cell_angle_gamma 90.000000
_cell_volume 1272.941963
_symmetry_space_group_name_H-M "P 2/C"
_symmetry_group_IT_number 13
_symmetry_cell_setting 'monoclinic'
loop_
_space_group_symop_operation_xyz
x,y,z
-x,y,1/2-z
-x,-y,-z
x,-y,1/2+z
loop_
_atom_site_type_symbol
_atom_site_label
_atom_site_fract_x
_atom_site_fract_y
_atom_site_fract_z
Si Si1 0.000000 0.849436 0.250000
Si Si2 0.103213 0.875298 0.925586
Si Si3 0.244600 0.651824 0.866632
Si Si4 0.734909 0.297424 0.600778
Si Si5 0.500000 0.028530 0.750000
Si Si6 0.496349 0.834763 0.051250
Si Si7 0.914317 0.356303 0.408075
Si Si8 0.264220 0.134637 0.083905
O O1 0.119265 0.742392 0.285755
O O2 0.033133 0.961818 0.354257
O O3 0.149548 0.768182 0.866770
O O4 0.012728 0.777802 0.937571
O O5 0.212889 0.949980 0.052291
O O6 0.267660 0.483580 0.931616
O O7 0.178278 0.601598 0.731196
O O8 0.381557 0.734940 0.937260
O O9 0.631082 0.260470 0.619686
O O10 0.692604 0.185125 0.492399
O O11 0.530888 0.140181 0.856186
O O12 0.610379 0.901747 0.784000
O O13 0.500000 0.000000 0.000000
O O14 0.825103 0.277470 0.432840
O O15 0.000000 0.500000 0.500000
#
# Coordination Sequence:
#
# PCOD8121250 Si02
#       8
#     2   4   4   4   2   4   4   4
#     4  10  22  40  72 104 122 198 240 290 356 448
#     4  11  22  44  70  97 141 189 239 298 364 443
#     4  12  25  47  71 103 146 193 236 307 387 441
#     4  11  26  44  72  99 149 186 239 300 380 449
#     4  12  24  44  80 108 138 192 260 312 356 458
#     4  12  24  49  74 104 140 196 253 299 380 442
#     4  12  27  42  69 108 148 187 239 309 376 440
#     4  11  25  44  69 106 139 185 249 299 359 448
#
# _framework density 21.996289000000001
#
# number of rings (size 3 to 8) (size 9 to 14) (size 15 to 20)
#    0.000    0.571    4.286    3.429    8.000    1.143 
#    2.571    0.000    0.000    0.000    0.000    0.000 
#    0.000    0.000    0.000    0.000    0.000    0.000 
#
# Total GULP energy -347012.040867 kJ/mol
# GULP energy per Si atom -12393.287174 kJ/mol
# Density = 2.194622 g / cm^3
# Si number density = 21.996289 Si / 1000 Ang^3
#
#
#
# Elastic Constant Matrix: (Units=GPa)
#
#
# Indices 1 2 3 4 5 6 
#
# 1 122.5740 47.4720 43.4920 0.0000 22.7699 0.0000
# 2 47.4720 122.6162 32.2513 0.0000 23.0973 0.0000
# 3 43.4920 32.2513 101.7335 0.0000 20.6072 0.0000
# 4 0.0000 0.0000 0.0000 23.7451 0.0000 13.7964
# 5 22.7699 23.0973 20.6072 0.0000 39.9733 0.0000
# 6 0.0000 0.0000 0.0000 13.7964 0.0000 34.5888
#
#
#
# Elastic Compliance Matrix: (Units=1/GPa)
#
#
# Indices 1 2 3 4 5 6 
#
# 1 0.010934 -0.002842 -0.003176 0.000000 -0.002949 0.000000
# 2 -0.002842 0.010287 -0.001307 0.000000 -0.003652 0.000000
# 3 -0.003176 -0.001307 0.012374 0.000000 -0.003815 0.000000
# 4 0.000000 0.000000 0.000000 0.054818 0.000000 -0.021865
# 5 -0.002949 -0.003652 -0.003815 0.000000 0.030773 0.000000
# 6 0.000000 0.000000 0.000000 -0.021865 0.000000 0.037632
#
#
# Mechanical properties :
#
#
# Convention : Reuss Voigt Hill
#
# Bulk Modulus (GPa) = 52.78150 65.92826 59.35488
# Shear Modulus (GPa) = 28.12396 34.57532 31.34964
#
# Velocity S-wave (km/s) = 3.57960 3.96898 3.77931
# Velocity P-wave (km/s) = 6.41346 7.14432 6.78873
#
# Compressibility (1/GPa) = 0.01894603
#
# Stress axis : x y z
#
# Youngs Moduli (GPa) = 91.45959 97.20548 80.81224
#
# Poissons Ratio (x) = 0.27629 0.25666
# Poissons Ratio (y) = 0.25996 0.10558
# Poissons Ratio (z) = 0.29047 0.12700
#
# Static dielectric constant tensor:
#      x y z
#    x 4.080480 0.000000 0.239740 
#    y 0.000000 4.761220 0.000000 
#    z 0.239740 0.000000 3.706270 
# 
# 
# High freq. dielectric constant tensor:
#      x y z
#    x 1.873820 0.000000 0.018650 
#    y 0.000000 1.871160 0.000000 
#    z 0.018650 0.000000 1.864170 
# 
# From -- ./inp_files/50500.got.cif
#   From: 2010.06.25/outbox.cif.g09.slc.cpg/sg13_26_cif.got.tgz:50500.got - 2010.06.28 04:50:58.
