data_PCOD8121732
_publ_section_title
;
Structure prediction by ZEFSAII (Michael W. Deem and Ramdas Pophale) SiO2 
 PCOD8121732
Probable space group: P 2/C
;
_chemical_formula_sum "Si O2"
_cell_formula_units_Z 18
_cell_length_a 22.048647
_cell_length_b 7.003776
_cell_length_c 5.253554
_cell_angle_alpha 90.000000
_cell_angle_beta 75.455196
_cell_angle_gamma 90.000000
_cell_volume 785.273630
_symmetry_space_group_name_H-M "P 2/C"
_symmetry_group_IT_number 13
_symmetry_cell_setting 'monoclinic'
loop_
_space_group_symop_operation_xyz
x,y,z
-x,y,1/2-z
-x,-y,-z
x,-y,1/2+z
loop_
_atom_site_type_symbol
_atom_site_label
_atom_site_fract_x
_atom_site_fract_y
_atom_site_fract_z
Si Si1 0.314091 0.119617 0.960403
Si Si2 0.000000 0.870136 0.250000
Si Si3 0.570972 0.619906 0.157068
Si Si4 0.866368 0.282790 0.923797
Si Si5 0.812872 0.290723 0.479747
O O1 0.262256 0.286418 0.976064
O O2 0.304943 0.039143 0.253579
O O3 0.383320 0.202736 0.853830
O O4 0.940872 0.727800 0.311567
O O5 0.000000 0.000000 0.500000
O O6 0.500000 0.697291 0.250000
O O7 0.583863 0.468223 0.366417
O O8 0.832184 0.181654 0.720124
O O9 0.840483 0.497583 0.984117
O O10 0.846138 0.180561 0.209067
#
# Coordination Sequence:
#
# PCOD8121732 Si02
#       5
#     4   2   4   4   4
#     4  12  26  41  66 103 137 175 223 286 341 384
#     4  12  26  42  66  96 130 164 214 280 332 388
#     4  10  23  43  70  99 135 183 232 272 323 404
#     4  10  23  42  65  93 122 176 214 269 323 404
#     4  10  23  40  65  92 128 169 221 265 321 411
#
# _framework density 22.921946999999999
#
# number of rings (size 3 to 8) (size 9 to 14) (size 15 to 20)
#    0.000    1.333    0.000    4.000    6.222    9.778 
#    0.000    0.000    0.000    0.000    0.000    0.000 
#    0.000    0.000    0.000    0.000    0.000    0.000 
#
# Total GULP energy -223140.554855 kJ/mol
# GULP energy per Si atom -12396.697492 kJ/mol
# Density = 2.286978 g / cm^3
# Si number density = 22.921947 Si / 1000 Ang^3
#
#
#
# Elastic Constant Matrix: (Units=GPa)
#
#
# Indices 1 2 3 4 5 6 
#
# 1 147.0294 37.4913 28.0859 0.0000 -3.7851 0.0000
# 2 37.4913 61.1789 -9.6680 0.0000 -7.9308 0.0000
# 3 28.0859 -9.6680 159.6966 0.0000 22.5409 0.0000
# 4 0.0000 0.0000 0.0000 6.9109 0.0000 -7.7104
# 5 -3.7851 -7.9308 22.5409 0.0000 43.4693 0.0000
# 6 0.0000 0.0000 0.0000 -7.7104 0.0000 36.3458
#
#
#
# Elastic Compliance Matrix: (Units=1/GPa)
#
#
# Indices 1 2 3 4 5 6 
#
# 1 0.008589 -0.005473 -0.001949 0.000000 0.000760 0.000000
# 2 -0.005473 0.020287 0.001873 0.000000 0.002254 0.000000
# 3 -0.001949 0.001873 0.007222 0.000000 -0.003573 0.000000
# 4 0.000000 0.000000 0.000000 0.189566 0.000000 0.040215
# 5 0.000760 0.002254 -0.003573 0.000000 0.025335 0.000000
# 6 0.000000 0.000000 0.000000 0.040215 0.000000 0.036045
#
#
# Mechanical properties :
#
#
# Convention : Reuss Voigt Hill
#
# Bulk Modulus (GPa) = 40.00020 53.30260 46.65140
# Shear Modulus (GPa) = 16.31450 38.14492 27.22971
#
# Velocity S-wave (km/s) = 2.67074 4.08379 3.45038
# Velocity P-wave (km/s) = 5.19605 6.74840 6.02245
#
# Compressibility (1/GPa) = 0.02499987
#
# Stress axis : x y z
#
# Youngs Moduli (GPa) = 116.43106 49.29168 138.45842
#
# Poissons Ratio (x) = 0.26976 0.26987
# Poissons Ratio (y) = 0.63720 -0.25927
# Poissons Ratio (z) = 0.22694 -0.09230
#
# Static dielectric constant tensor:
#      x y z
#    x 4.402390 0.000000 0.409200 
#    y 0.000000 3.758320 0.000000 
#    z 0.409200 0.000000 5.776370 
# 
# 
# High freq. dielectric constant tensor:
#      x y z
#    x 1.918390 0.000000 0.010500 
#    y 0.000000 1.876640 0.000000 
#    z 0.010500 0.000000 1.944460 
# 
# From -- ./inp_files/5847.got.cif
#   From: 2010.06.25/outbox.cif.g09.slc.cpg/sg13_3_cif.got.tgz:5847.got - 2010.06.28 04:50:58.
