data_PCOD8121363
_publ_section_title
;
Structure prediction by ZEFSAII (Michael W. Deem and Ramdas Pophale) SiO2 
 PCOD8121363
Probable space group: P 2/C
;
_chemical_formula_sum "Si O2"
_cell_formula_units_Z 28
_cell_length_a 8.500598
_cell_length_b 12.492489
_cell_length_c 14.382412
_cell_angle_alpha 90.000000
_cell_angle_beta 117.005553
_cell_angle_gamma 90.000000
_cell_volume 1360.785318
_symmetry_space_group_name_H-M "P 2/C"
_symmetry_group_IT_number 13
_symmetry_cell_setting 'monoclinic'
loop_
_space_group_symop_operation_xyz
x,y,z
-x,y,1/2-z
-x,-y,-z
x,-y,1/2+z
loop_
_atom_site_type_symbol
_atom_site_label
_atom_site_fract_x
_atom_site_fract_y
_atom_site_fract_z
Si Si1 0.683995 0.837133 0.254936
Si Si2 0.694194 0.402866 0.267013
Si Si3 0.986276 0.309727 0.475407
Si Si4 0.852913 0.622923 0.285700
Si Si5 0.178876 0.758339 0.849392
Si Si6 0.319879 0.006250 0.397747
Si Si7 0.968126 0.098575 0.554541
O O1 0.500000 0.802472 0.250000
O O2 0.754867 0.730309 0.221808
O O3 0.648680 0.945629 0.189670
O O4 0.836079 0.863484 0.368208
O O5 0.500000 0.377022 0.250000
O O6 0.838550 0.381154 0.386018
O O7 0.711443 0.527425 0.245921
O O8 0.720017 0.332165 0.181520
O O9 0.886143 0.199012 0.476922
O O10 0.064398 0.366645 0.588272
O O11 0.144738 0.284533 0.444753
O O12 0.000000 0.592902 0.250000
O O13 0.000000 0.788059 0.750000
O O14 0.286150 0.868537 0.877985
O O15 0.157927 0.938390 0.396625
O O16 0.500000 0.000000 0.500000
O O17 0.000000 0.000000 0.500000
#
# Coordination Sequence:
#
# PCOD8121363 Si02
#       7
#     4   4   4   4   4   4   4
#     4  11  24  40  63  94 129 169 215 274 324 385
#     4  11  25  43  66 100 131 169 217 277 327 389
#     4  10  22  41  70  93 130 172 219 266 327 394
#     4  11  23  46  70  93 127 174 224 268 329 393
#     4  10  22  43  65  94 132 177 217 264 326 390
#     4  12  25  39  64  97 134 172 217 268 324 394
#     4  11  21  39  62  92 127 172 214 257 327 382
#
# _framework density 20.576353000000001
#
# number of rings (size 3 to 8) (size 9 to 14) (size 15 to 20)
#    0.000    1.143    1.429    6.000    6.000    0.571 
#    0.000    1.429    0.000    0.000    0.000    0.000 
#    0.000    0.000    0.000    0.000    0.000    0.000 
#
# Total GULP energy -347083.026028 kJ/mol
# GULP energy per Si atom -12395.822358 kJ/mol
# Density = 2.052952 g / cm^3
# Si number density = 20.576353 Si / 1000 Ang^3
#
#
#
# Elastic Constant Matrix: (Units=GPa)
#
#
# Indices 1 2 3 4 5 6 
#
# 1 97.2928 39.3731 40.2738 0.0000 3.1639 0.0000
# 2 39.3731 147.5657 39.1182 0.0000 -1.9177 0.0000
# 3 40.2738 39.1182 77.8483 0.0000 -12.2689 0.0000
# 4 0.0000 0.0000 0.0000 22.9700 0.0000 -3.5568
# 5 3.1639 -1.9177 -12.2689 0.0000 34.8222 0.0000
# 6 0.0000 0.0000 0.0000 -3.5568 0.0000 39.3615
#
#
#
# Elastic Compliance Matrix: (Units=1/GPa)
#
#
# Indices 1 2 3 4 5 6 
#
# 1 0.014047 -0.001975 -0.006875 0.000000 -0.003807 0.000000
# 2 -0.001975 0.008129 -0.003139 0.000000 -0.000479 0.000000
# 3 -0.006875 -0.003139 0.019112 0.000000 0.007185 0.000000
# 4 0.000000 0.000000 0.000000 0.044153 0.000000 0.003990
# 5 -0.003807 -0.000479 0.007185 0.000000 0.031569 0.000000
# 6 0.000000 0.000000 0.000000 0.003990 0.000000 0.025766
#
#
# Mechanical properties :
#
#
# Convention : Reuss Voigt Hill
#
# Bulk Modulus (GPa) = 57.76552 62.24855 60.00703
# Shear Modulus (GPa) = 28.98172 33.02685 31.00429
#
# Velocity S-wave (km/s) = 3.75707 4.01070 3.88595
# Velocity P-wave (km/s) = 6.85240 7.19484 7.02571
#
# Compressibility (1/GPa) = 0.01731136
#
# Stress axis : x y z
#
# Youngs Moduli (GPa) = 71.18936 123.00994 52.32446
#
# Poissons Ratio (x) = 0.24296 0.35971
# Poissons Ratio (y) = 0.14060 0.16423
# Poissons Ratio (z) = 0.48940 0.38608
#
# Static dielectric constant tensor:
#      x y z
#    x 3.474440 0.000000 -0.024670 
#    y 0.000000 3.866970 0.000000 
#    z -0.024670 0.000000 3.607890 
# 
# 
# High freq. dielectric constant tensor:
#      x y z
#    x 1.806030 0.000000 -0.007310 
#    y 0.000000 1.829070 0.000000 
#    z -0.007310 0.000000 1.796830 
# 
# From -- ./inp_files/47344.got.cif
#   From: 2010.06.25/outbox.cif.g09.slc.cpg/sg13_24_cif.got.tgz:47344.got - 2010.06.28 04:50:58.
