data_PCOD8121825
_publ_section_title
;
Structure prediction by ZEFSAII (Michael W. Deem and Ramdas Pophale) SiO2 
 PCOD8121825
Probable space group: P 2/C
;
_chemical_formula_sum "Si O2"
_cell_formula_units_Z 32
_cell_length_a 10.731891
_cell_length_b 12.073222
_cell_length_c 12.342402
_cell_angle_alpha 90.000000
_cell_angle_beta 106.502685
_cell_angle_gamma 90.000000
_cell_volume 1533.310333
_symmetry_space_group_name_H-M "P 2/C"
_symmetry_group_IT_number 13
_symmetry_cell_setting 'monoclinic'
loop_
_space_group_symop_operation_xyz
x,y,z
-x,y,1/2-z
-x,-y,-z
x,-y,1/2+z
loop_
_atom_site_type_symbol
_atom_site_label
_atom_site_fract_x
_atom_site_fract_y
_atom_site_fract_z
Si Si1 0.701228 0.183433 0.649781
Si Si2 0.215642 0.919878 0.118699
Si Si3 0.870049 0.375494 0.760574
Si Si4 0.929361 0.711695 0.487503
Si Si5 0.560991 0.881047 0.498828
Si Si6 0.144029 0.377411 0.312969
Si Si7 0.819612 0.157874 0.448168
Si Si8 0.367731 0.245199 0.266052
O O1 0.722116 0.087339 0.745288
O O2 0.742723 0.302511 0.707576
O O3 0.549642 0.196362 0.582132
O O4 0.787743 0.153991 0.567063
O O5 0.138080 0.034889 0.080415
O O6 0.109862 0.824133 0.082639
O O7 0.320958 0.895402 0.053173
O O8 0.852797 0.490376 0.692902
O O9 0.000000 0.313867 0.750000
O O10 0.902920 0.389395 0.896775
O O11 0.837313 0.673675 0.563089
O O12 0.079368 0.741678 0.555053
O O13 0.608436 0.831807 0.624344
O O14 0.500000 0.000000 0.500000
O O15 0.262291 0.338667 0.267552
O O16 0.000000 0.332794 0.250000
O O17 0.687769 0.174661 0.347467
O O18 0.500000 0.298961 0.250000
#
# Coordination Sequence:
#
# PCOD8121825 Si02
#       8
#     4   4   4   4   4   4   4   4
#     4  11  23  41  63  95 131 168 221 269 320 394
#     4  11  24  39  64  96 134 176 215 263 332 401
#     4  10  23  42  69  96 127 172 222 273 341 391
#     4  11  23  43  65 100 133 163 219 277 329 395
#     4  12  22  41  65  91 132 179 219 266 324 399
#     4  11  24  44  70  96 128 174 222 282 333 386
#     4  12  23  40  66  96 132 175 211 269 329 392
#     4  12  24  42  65  97 133 171 225 269 327 396
#
# _framework density 20.869879999999998
#
# number of rings (size 3 to 8) (size 9 to 14) (size 15 to 20)
#    0.000    0.750    6.250    1.500    0.000    3.000 
#    0.000    3.125    0.000    0.000    0.000    0.000 
#    0.000    0.000    0.000    0.000    0.000    0.000 
#
# Total GULP energy -396575.168543 kJ/mol
# GULP energy per Si atom -12392.974017 kJ/mol
# Density = 2.082238 g / cm^3
# Si number density = 20.869880 Si / 1000 Ang^3
#
#
#
# Elastic Constant Matrix: (Units=GPa)
#
#
# Indices 1 2 3 4 5 6 
#
# 1 107.9970 26.3107 34.2042 0.0000 -5.7638 0.0000
# 2 26.3107 80.2671 39.0710 0.0000 4.3639 0.0000
# 3 34.2042 39.0710 131.3028 0.0000 -5.9263 0.0000
# 4 0.0000 0.0000 0.0000 25.2935 0.0000 -1.7963
# 5 -5.7638 4.3639 -5.9263 0.0000 41.5985 0.0000
# 6 0.0000 0.0000 0.0000 -1.7963 0.0000 27.8450
#
#
#
# Elastic Compliance Matrix: (Units=1/GPa)
#
#
# Indices 1 2 3 4 5 6 
#
# 1 0.010581 -0.002618 -0.001911 0.000000 0.001468 0.000000
# 2 -0.002618 0.015412 -0.004019 0.000000 -0.002552 0.000000
# 3 -0.001911 -0.004019 0.009377 0.000000 0.001493 0.000000
# 4 0.000000 0.000000 0.000000 0.039718 0.000000 0.002562
# 5 0.001468 -0.002552 0.001493 0.000000 0.024723 0.000000
# 6 0.000000 0.000000 0.000000 0.002562 0.000000 0.036078
#
#
# Mechanical properties :
#
#
# Convention : Reuss Voigt Hill
#
# Bulk Modulus (GPa) = 54.72420 57.63763 56.18091
# Shear Modulus (GPa) = 31.43142 33.61281 32.52211
#
# Velocity S-wave (km/s) = 3.88502 4.01757 3.95185
# Velocity P-wave (km/s) = 6.81198 7.01418 6.91382
#
# Compressibility (1/GPa) = 0.01827345
#
# Stress axis : x y z
#
# Youngs Moduli (GPa) = 94.50961 64.88594 106.64225
#
# Poissons Ratio (x) = 0.16987 0.20380
# Poissons Ratio (y) = 0.24742 0.42861
# Poissons Ratio (z) = 0.18061 0.26079
#
# Static dielectric constant tensor:
#      x y z
#    x 3.521790 0.000000 -0.136950 
#    y 0.000000 3.507680 0.000000 
#    z -0.136950 0.000000 3.933670 
# 
# 
# High freq. dielectric constant tensor:
#      x y z
#    x 1.818690 0.000000 -0.002050 
#    y 0.000000 1.795150 0.000000 
#    z -0.002050 0.000000 1.840000 
# 
# From -- ./inp_files/34142.got.cif
#   From: 2010.06.25/outbox.cif.g09.slc.cpg/sg13_18_cif.got.tgz:34142.got - 2010.06.28 04:50:58.
