data_PCOD8121388
_publ_section_title
;
Structure prediction by ZEFSAII (Michael W. Deem and Ramdas Pophale) SiO2 
 PCOD8121388
Probable space group: P 2/C
;
_chemical_formula_sum "Si O2"
_cell_formula_units_Z 28
_cell_length_a 15.001642
_cell_length_b 8.536089
_cell_length_c 11.767240
_cell_angle_alpha 90.000000
_cell_angle_beta 60.710937
_cell_angle_gamma 90.000000
_cell_volume 1314.225346
_symmetry_space_group_name_H-M "P 2/C"
_symmetry_group_IT_number 13
_symmetry_cell_setting 'monoclinic'
loop_
_space_group_symop_operation_xyz
x,y,z
-x,y,1/2-z
-x,-y,-z
x,-y,1/2+z
loop_
_atom_site_type_symbol
_atom_site_label
_atom_site_fract_x
_atom_site_fract_y
_atom_site_fract_z
Si Si1 0.500519 0.813715 0.517996
Si Si2 0.182686 0.450371 0.175909
Si Si3 0.902746 0.144670 0.619333
Si Si4 0.368192 0.625741 0.416421
Si Si5 0.039381 0.817797 0.845915
Si Si6 0.694541 0.706685 0.284096
Si Si7 0.500000 0.344858 0.250000
Si Si8 0.000000 0.669391 0.250000
O O1 0.432587 0.725016 0.466736
O O2 0.617323 0.756781 0.431500
O O3 0.461478 0.766310 0.669619
O O4 0.500000 0.000000 0.500000
O O5 0.120786 0.321307 0.285866
O O6 0.258409 0.536090 0.217647
O O7 0.100514 0.563913 0.167958
O O8 0.251798 0.381525 0.032394
O O9 0.786317 0.171394 0.724352
O O10 0.984882 0.219576 0.652694
O O11 0.935070 0.225208 0.479330
O O12 0.909419 0.957110 0.614688
O O13 0.366507 0.712772 0.296427
O O14 0.413902 0.453775 0.362400
O O15 0.000000 0.876960 0.750000
#
# Coordination Sequence:
#
# PCOD8121388 Si02
#       8
#     4   4   4   4   4   4   2   2
#     4  12  28  48  72 108 142 185 240 306 369 430
#     4  11  24  39  69 105 132 182 234 282 346 428
#     4  10  24  42  65  94 141 178 226 285 348 416
#     4  12  24  47  71 100 139 182 240 294 356 430
#     4  11  22  43  64  97 136 184 228 284 351 412
#     4  11  24  44  67 100 137 181 233 291 356 425
#     4  12  24  48  76  96 142 186 234 298 358 428
#     4  10  22  42  62  96 136 170 222 280 332 410
#
# _framework density 21.305326999999998
#
# number of rings (size 3 to 8) (size 9 to 14) (size 15 to 20)
#    0.000    0.857    4.286    2.143    6.000    1.143 
#    0.000    0.000    0.000    0.000    0.000    0.000 
#    0.000    0.000    0.000    0.000    0.000    0.000 
#
# Total GULP energy -347093.339266 kJ/mol
# GULP energy per Si atom -12396.190688 kJ/mol
# Density = 2.125683 g / cm^3
# Si number density = 21.305327 Si / 1000 Ang^3
#
#
#
# Elastic Constant Matrix: (Units=GPa)
#
#
# Indices 1 2 3 4 5 6 
#
# 1 96.4569 43.5740 50.0757 0.0000 2.4993 0.0000
# 2 43.5740 125.3231 40.8627 0.0000 -1.7858 0.0000
# 3 50.0757 40.8627 113.5932 0.0000 2.8726 0.0000
# 4 0.0000 0.0000 0.0000 30.2494 0.0000 5.3286
# 5 2.4993 -1.7858 2.8726 0.0000 45.8606 0.0000
# 6 0.0000 0.0000 0.0000 5.3286 0.0000 20.1832
#
#
#
# Elastic Compliance Matrix: (Units=1/GPa)
#
#
# Indices 1 2 3 4 5 6 
#
# 1 0.014620 -0.003393 -0.005209 0.000000 -0.000603 0.000000
# 2 -0.003393 0.009842 -0.002062 0.000000 0.000697 0.000000
# 3 -0.005209 -0.002062 0.011855 0.000000 -0.000539 0.000000
# 4 0.000000 0.000000 0.000000 0.034671 0.000000 -0.009154
# 5 -0.000603 0.000697 -0.000539 0.000000 0.021899 0.000000
# 6 0.000000 0.000000 0.000000 -0.009154 0.000000 0.051963
#
#
# Mechanical properties :
#
#
# Convention : Reuss Voigt Hill
#
# Bulk Modulus (GPa) = 66.72119 67.15532 66.93826
# Shear Modulus (GPa) = 29.20993 32.64936 30.92965
#
# Velocity S-wave (km/s) = 3.70674 3.91890 3.81430
# Velocity P-wave (km/s) = 7.05015 7.21567 7.13339
#
# Compressibility (1/GPa) = 0.01498774
#
# Stress axis : x y z
#
# Youngs Moduli (GPa) = 68.39830 101.61038 84.35211
#
# Poissons Ratio (x) = 0.34481 0.43940
# Poissons Ratio (y) = 0.23211 0.17393
# Poissons Ratio (z) = 0.35630 0.20952
#
# Static dielectric constant tensor:
#      x y z
#    x 3.897240 0.000000 -0.045610 
#    y 0.000000 3.801720 0.000000 
#    z -0.045610 0.000000 4.215530 
# 
# 
# High freq. dielectric constant tensor:
#      x y z
#    x 1.834980 0.000000 -0.003470 
#    y 0.000000 1.831390 0.000000 
#    z -0.003470 0.000000 1.852810 
# 
# From -- ./inp_files/36376.got.cif
#   From: 2010.06.25/outbox.cif.g09.slc.cpg/sg13_19_cif.got.tgz:36376.got - 2010.06.28 04:50:58.
