data_PCOD8121256
_publ_section_title
;
Structure prediction by ZEFSAII (Michael W. Deem and Ramdas Pophale) SiO2 
 PCOD8121256
Probable space group: P 2/C
;
_chemical_formula_sum "Si O2"
_cell_formula_units_Z 22
_cell_length_a 19.875044
_cell_length_b 9.100009
_cell_length_c 8.148984
_cell_angle_alpha 90.000000
_cell_angle_beta 135.899807
_cell_angle_gamma 90.000000
_cell_volume 1025.674877
_symmetry_space_group_name_H-M "P 2/C"
_symmetry_group_IT_number 13
_symmetry_cell_setting 'monoclinic'
loop_
_space_group_symop_operation_xyz
x,y,z
-x,y,1/2-z
-x,-y,-z
x,-y,1/2+z
loop_
_atom_site_type_symbol
_atom_site_label
_atom_site_fract_x
_atom_site_fract_y
_atom_site_fract_z
Si Si1 0.714100 0.810430 0.661062
Si Si2 0.395551 0.672920 0.511177
Si Si3 0.000000 0.442365 0.250000
Si Si4 0.295230 0.540678 0.630724
Si Si5 0.388321 0.955248 0.320088
Si Si6 0.875420 0.361373 0.309653
O O1 0.699950 0.641653 0.695743
O O2 0.641292 0.865541 0.393752
O O3 0.824007 0.793685 0.778942
O O4 0.690236 0.916003 0.775652
O O5 0.500000 0.622374 0.750000
O O6 0.318871 0.638727 0.516512
O O7 0.372125 0.588817 0.300545
O O8 0.386500 0.847053 0.472420
O O9 0.038257 0.334504 0.171351
O O10 0.083979 0.550427 0.463831
O O11 0.193943 0.465146 0.419416
O O12 0.500000 0.000000 0.500000
#
# Coordination Sequence:
#
# PCOD8121256 Si02
#       6
#     4   4   2   4   4   4
#     4  12  24  43  68  98 135 182 231 273 337 403
#     4  12  23  38  60  95 134 181 225 280 327 384
#     4  10  22  40  74 106 134 158 214 296 364 432
#     4  12  22  41  66 100 132 168 229 286 339 393
#     4  12  26  45  63  92 139 197 233 266 320 404
#     4  11  21  42  69 107 128 165 214 284 357 409
#
# _framework density 21.449292
#
# number of rings (size 3 to 8) (size 9 to 14) (size 15 to 20)
#    0.000    0.364    5.455    4.364    0.000    1.455 
#    0.000    0.000    0.000    3.273    0.000    0.000 
#    0.000    0.000    0.000    0.000    0.000    0.000 
#
# Total GULP energy -272538.957115 kJ/mol
# GULP energy per Si atom -12388.134414 kJ/mol
# Density = 2.140047 g / cm^3
# Si number density = 21.449292 Si / 1000 Ang^3
#
#
#
# Elastic Constant Matrix: (Units=GPa)
#
#
# Indices 1 2 3 4 5 6 
#
# 1 100.5266 42.4382 4.1244 0.0000 -1.7989 0.0000
# 2 42.4382 96.5831 43.5070 0.0000 4.5569 0.0000
# 3 4.1244 43.5070 115.1476 0.0000 3.6673 0.0000
# 4 0.0000 0.0000 0.0000 38.0531 0.0000 1.2223
# 5 -1.7989 4.5569 3.6673 0.0000 25.0109 0.0000
# 6 0.0000 0.0000 0.0000 1.2223 0.0000 73.5909
#
#
#
# Elastic Compliance Matrix: (Units=1/GPa)
#
#
# Indices 1 2 3 4 5 6 
#
# 1 0.012655 -0.006527 0.001955 0.000000 0.001813 0.000000
# 2 -0.006527 0.015907 -0.005696 0.000000 -0.002532 0.000000
# 3 0.001955 -0.005696 0.010779 0.000000 -0.000402 0.000000
# 4 0.000000 0.000000 0.000000 0.026293 0.000000 -0.000437
# 5 0.001813 -0.002532 -0.000402 0.000000 0.040633 0.000000
# 6 0.000000 0.000000 0.000000 -0.000437 0.000000 0.013596
#
#
# Mechanical properties :
#
#
# Convention : Reuss Voigt Hill
#
# Bulk Modulus (GPa) = 53.17360 54.71072 53.94216
# Shear Modulus (GPa) = 34.09068 42.14348 38.11708
#
# Velocity S-wave (km/s) = 3.99100 4.43741 4.22011
# Velocity P-wave (km/s) = 6.78835 7.19837 6.99636
#
# Compressibility (1/GPa) = 0.01880632
#
# Stress axis : x y z
#
# Youngs Moduli (GPa) = 79.01879 62.86594 92.76991
#
# Poissons Ratio (x) = 0.41032 -0.18137
# Poissons Ratio (y) = 0.51574 0.52840
# Poissons Ratio (z) = -0.15449 0.35807
#
# Static dielectric constant tensor:
#      x y z
#    x 4.277280 0.000000 -0.202240 
#    y 0.000000 3.884510 0.000000 
#    z -0.202240 0.000000 3.915770 
# 
# 
# High freq. dielectric constant tensor:
#      x y z
#    x 1.861430 0.000000 -0.020920 
#    y 0.000000 1.819520 0.000000 
#    z -0.020920 0.000000 1.840860 
# 
# From -- ./inp_files/17881.got.cif
#   From: 2010.06.25/outbox.cif.g09.slc.cpg/sg13_9_cif.got.tgz:17881.got - 2010.06.28 04:50:58.
