data_PCOD8121326
_publ_section_title
;
Structure prediction by ZEFSAII (Michael W. Deem and Ramdas Pophale) SiO2 
 PCOD8121326
Probable space group: P 2/C
;
_chemical_formula_sum "Si O2"
_cell_formula_units_Z 18
_cell_length_a 12.484405
_cell_length_b 7.350639
_cell_length_c 9.425751
_cell_angle_alpha 90.000000
_cell_angle_beta 64.171274
_cell_angle_gamma 90.000000
_cell_volume 778.573979
_symmetry_space_group_name_H-M "P 2/C"
_symmetry_group_IT_number 13
_symmetry_cell_setting 'monoclinic'
loop_
_space_group_symop_operation_xyz
x,y,z
-x,y,1/2-z
-x,-y,-z
x,-y,1/2+z
loop_
_atom_site_type_symbol
_atom_site_label
_atom_site_fract_x
_atom_site_fract_y
_atom_site_fract_z
Si Si1 0.247471 0.397141 0.658041
Si Si2 0.000000 0.560717 0.750000
Si Si3 0.089772 0.909414 0.590681
Si Si4 0.763668 0.000119 0.245713
Si Si5 0.637083 0.326599 0.203616
O O1 0.276748 0.208504 0.721184
O O2 0.282035 0.384445 0.474381
O O3 0.326532 0.550869 0.684435
O O4 0.106613 0.438501 0.748813
O O5 0.951868 0.698117 0.902783
O O6 0.115601 0.008054 0.425407
O O7 0.000000 0.019259 0.750000
O O8 0.211571 0.912386 0.614562
O O9 0.660164 0.115984 0.230737
O O10 0.500000 0.354242 0.250000
#
# Coordination Sequence:
#
# PCOD8121326 Si02
#       5
#     4   2   4   4   4
#     4  12  27  46  77 107 145 191 237 300 366 425
#     4  10  24  42  72 110 146 180 236 290 368 436
#     4  10  22  41  66 100 150 180 230 287 353 435
#     4  12  24  45  69 105 141 190 241 286 359 424
#     4  12  28  51  73 104 144 192 251 299 348 424
#
# _framework density 23.11919
#
# number of rings (size 3 to 8) (size 9 to 14) (size 15 to 20)
#    0.667    0.000    4.444    2.667    1.556    7.111 
#    0.000    0.000    0.000    0.000    0.000    0.000 
#    0.000    0.000    0.000    0.000    0.000    0.000 
#
# Total GULP energy -223118.844183 kJ/mol
# GULP energy per Si atom -12395.491344 kJ/mol
# Density = 2.306657 g / cm^3
# Si number density = 23.119190 Si / 1000 Ang^3
#
#
#
# Elastic Constant Matrix: (Units=GPa)
#
#
# Indices 1 2 3 4 5 6 
#
# 1 121.4679 57.7427 5.7433 0.0000 1.7875 0.0000
# 2 57.7427 144.0017 33.2676 0.0000 9.2710 0.0000
# 3 5.7433 33.2676 88.7720 0.0000 16.1059 0.0000
# 4 0.0000 0.0000 0.0000 30.5591 0.0000 7.9495
# 5 1.7875 9.2710 16.1059 0.0000 24.4832 0.0000
# 6 0.0000 0.0000 0.0000 7.9495 0.0000 15.8908
#
#
#
# Elastic Compliance Matrix: (Units=1/GPa)
#
#
# Indices 1 2 3 4 5 6 
#
# 1 0.010248 -0.004338 0.000909 0.000000 0.000297 0.000000
# 2 -0.004338 0.009467 -0.003037 0.000000 -0.001271 0.000000
# 3 0.000909 -0.003037 0.013794 0.000000 -0.007990 0.000000
# 4 0.000000 0.000000 0.000000 0.037619 0.000000 -0.018819
# 5 0.000297 -0.001271 -0.007990 0.000000 0.046560 0.000000
# 6 0.000000 0.000000 0.000000 -0.018819 0.000000 0.072344
#
#
# Mechanical properties :
#
#
# Convention : Reuss Voigt Hill
#
# Bulk Modulus (GPa) = 48.59883 60.86097 54.72990
# Shear Modulus (GPa) = 23.82969 31.35249 27.59109
#
# Velocity S-wave (km/s) = 3.21398 3.68655 3.45835
# Velocity P-wave (km/s) = 5.90250 6.67105 6.29851
#
# Compressibility (1/GPa) = 0.02057663
#
# Stress axis : x y z
#
# Youngs Moduli (GPa) = 97.58425 105.62710 72.49679
#
# Poissons Ratio (x) = 0.45823 -0.06590
# Poissons Ratio (y) = 0.42334 0.22015
# Poissons Ratio (z) = -0.08870 0.32076
#
# Static dielectric constant tensor:
#      x y z
#    x 3.925470 0.000000 0.134610 
#    y 0.000000 4.091060 0.000000 
#    z 0.134610 0.000000 4.270850 
# 
# 
# High freq. dielectric constant tensor:
#      x y z
#    x 1.898310 0.000000 0.016660 
#    y 0.000000 1.913380 0.000000 
#    z 0.016660 0.000000 1.914890 
# 
# From -- ./inp_files/14490.got.cif
#   From: 2010.06.25/outbox.cif.g09.slc.cpg/sg13_8_cif.got.tgz:14490.got - 2010.06.28 04:50:58.
