data_PCOD8121140
_publ_section_title
;
Structure prediction by ZEFSAII (Michael W. Deem and Ramdas Pophale) SiO2 
 PCOD8121140
Probable space group: P 2/C
;
_chemical_formula_sum "Si O2"
_cell_formula_units_Z 32
_cell_length_a 14.229090
_cell_length_b 17.102335
_cell_length_c 10.842673
_cell_angle_alpha 90.000000
_cell_angle_beta 146.892599
_cell_angle_gamma 90.000000
_cell_volume 1441.214672
_symmetry_space_group_name_H-M "P 2/C"
_symmetry_group_IT_number 13
_symmetry_cell_setting 'monoclinic'
loop_
_space_group_symop_operation_xyz
x,y,z
-x,y,1/2-z
-x,-y,-z
x,-y,1/2+z
loop_
_atom_site_type_symbol
_atom_site_label
_atom_site_fract_x
_atom_site_fract_y
_atom_site_fract_z
Si Si1 0.945131 0.058300 0.830405
Si Si2 0.197680 0.388751 0.966128
Si Si3 0.213717 0.837922 0.728502
Si Si4 0.092411 0.310432 0.227563
Si Si5 0.558625 0.257542 0.179615
Si Si6 0.393526 0.989655 0.009108
Si Si7 0.310705 0.442355 0.588787
Si Si8 0.741612 0.345781 0.732921
O O1 0.000000 0.033090 0.750000
O O2 0.737928 0.062351 0.613872
O O3 0.032540 0.141385 0.961772
O O4 0.000000 0.000000 0.000000
O O5 0.283428 0.387391 0.925398
O O6 0.000000 0.360484 0.750000
O O7 0.308665 0.332016 0.177377
O O8 0.207791 0.479590 0.013225
O O9 0.205943 0.761950 0.807226
O O10 0.349058 0.819356 0.769763
O O11 0.282732 0.910247 0.883147
O O12 0.206797 0.388312 0.376160
O O13 0.000000 0.282875 0.250000
O O14 0.943534 0.326450 0.964617
O O15 0.500000 0.234466 0.250000
O O16 0.388550 0.272231 0.909627
O O17 0.500000 0.983424 0.250000
O O18 0.500000 0.000000 0.000000
O O19 0.500000 0.462472 0.750000
O O20 0.327982 0.399323 0.736179
#
# Coordination Sequence:
#
# PCOD8121140 Si02
#       8
#     4   4   4   4   4   4   4   4
#     4  10  23  44  68  96 131 173 216 263 329 402
#     4  11  23  39  61  88 122 166 217 268 325 391
#     4  11  24  40  67  96 130 173 215 272 330 391
#     4  10  23  40  60  92 126 165 215 267 327 388
#     4  10  23  41  61  93 127 164 216 269 328 388
#     4  11  25  45  69 101 136 174 222 270 330 406
#     4  11  23  39  61  88 122 166 217 268 324 390
#     4  10  22  40  59  82 121 161 204 267 325 384
#
# _framework density 22.203493999999999
#
# number of rings (size 3 to 8) (size 9 to 14) (size 15 to 20)
#    0.000    1.500    0.000    5.250    0.000   15.500 
#    0.000    0.000    0.000    0.000    0.000    0.000 
#    0.000    0.000    0.000    0.000    0.000    0.000 
#
# Total GULP energy -396656.392179 kJ/mol
# GULP energy per Si atom -12395.512256 kJ/mol
# Density = 2.215296 g / cm^3
# Si number density = 22.203494 Si / 1000 Ang^3
#
#
#
# Elastic Constant Matrix: (Units=GPa)
#
#
# Indices 1 2 3 4 5 6 
#
# 1 95.8857 9.0581 28.5767 0.0000 2.5223 0.0000
# 2 9.0581 59.5876 26.9036 0.0000 -3.0027 0.0000
# 3 28.5767 26.9036 134.1644 0.0000 2.1628 0.0000
# 4 0.0000 0.0000 0.0000 31.0069 0.0000 8.2768
# 5 2.5223 -3.0027 2.1628 0.0000 42.5896 0.0000
# 6 0.0000 0.0000 0.0000 8.2768 0.0000 31.2649
#
#
#
# Elastic Compliance Matrix: (Units=1/GPa)
#
#
# Indices 1 2 3 4 5 6 
#
# 1 0.011177 -0.000724 -0.002226 0.000000 -0.000600 0.000000
# 2 -0.000724 0.018595 -0.003599 0.000000 0.001537 0.000000
# 3 -0.002226 -0.003599 0.008658 0.000000 -0.000562 0.000000
# 4 0.000000 0.000000 0.000000 0.034703 0.000000 -0.009187
# 5 -0.000600 0.001537 -0.000562 0.000000 0.023652 0.000000
# 6 0.000000 0.000000 0.000000 -0.009187 0.000000 0.034417
#
#
# Mechanical properties :
#
#
# Convention : Reuss Voigt Hill
#
# Bulk Modulus (GPa) = 39.47707 46.52383 43.00045
# Shear Modulus (GPa) = 32.73448 35.97889 34.35669
#
# Velocity S-wave (km/s) = 3.84382 4.02981 3.93791
# Velocity P-wave (km/s) = 6.12521 6.53080 6.33125
#
# Compressibility (1/GPa) = 0.02533116
#
# Stress axis : x y z
#
# Youngs Moduli (GPa) = 89.47257 53.77907 115.49484
#
# Poissons Ratio (x) = 0.03895 0.25705
# Poissons Ratio (y) = 0.06481 0.41569
# Poissons Ratio (z) = 0.19914 0.19356
#
# Static dielectric constant tensor:
#      x y z
#    x 48.282300 0.000000 22.451590 
#    y 0.000000 3.894840 0.000000 
#    z 22.451590 0.000000 15.693540 
# 
# 
# High freq. dielectric constant tensor:
#      x y z
#    x 1.885470 0.000000 0.005340 
#    y 0.000000 1.859240 0.000000 
#    z 0.005340 0.000000 1.888400 
# 
# From -- ./inp_files/37720.got.cif
#   From: 2010.06.25/outbox.cif.g09.slc.cpg/sg13_19_cif.got.tgz:37720.got - 2010.06.28 04:50:58.
