data_PCOD8121961
_publ_section_title
;
Structure prediction by ZEFSAII (Michael W. Deem and Ramdas Pophale) SiO2 
 PCOD8121961
Probable space group: P 2/C
;
_chemical_formula_sum "Si O2"
_cell_formula_units_Z 16
_cell_length_a 8.652124
_cell_length_b 5.127773
_cell_length_c 22.398882
_cell_angle_alpha 90.000000
_cell_angle_beta 37.321034
_cell_angle_gamma 90.000000
_cell_volume 602.492143
_symmetry_space_group_name_H-M "P 2/C"
_symmetry_group_IT_number 13
_symmetry_cell_setting 'monoclinic'
loop_
_space_group_symop_operation_xyz
x,y,z
-x,y,1/2-z
-x,-y,-z
x,-y,1/2+z
loop_
_atom_site_type_symbol
_atom_site_label
_atom_site_fract_x
_atom_site_fract_y
_atom_site_fract_z
Si Si1 0.323696 0.750340 0.555343
Si Si2 0.148998 0.426600 0.512633
Si Si3 0.254058 0.810001 0.284205
Si Si4 0.712657 0.689015 0.804815
O O1 0.500000 0.500000 0.500000
O O2 0.157424 0.702607 0.546903
O O3 0.150901 0.735961 0.670405
O O4 0.500000 0.000000 0.500000
O O5 0.415515 0.290368 0.414977
O O6 0.000000 0.500000 0.500000
O O7 0.997762 0.213080 0.598339
O O8 0.500000 0.771294 0.250000
O O9 0.244409 0.597729 0.234515
O O10 0.235225 0.092890 0.260671
#
# Coordination Sequence:
#
# PCOD8121961 Si02
#       4
#     4   4   4   4
#     4  10  23  46  73 106 146 197 251 316 389 457
#     4  11  25  48  78 112 152 209 256 322 399 464
#     4  12  26  44  75 111 148 201 258 318 387 463
#     4  11  25  48  72 105 155 190 259 323 377 467
#
# _framework density 26.556362
#
# number of rings (size 3 to 8) (size 9 to 14) (size 15 to 20)
#    0.000    1.000    2.500    3.750    0.000    8.000 
#    0.000    2.500    0.000    0.000    0.000    0.000 
#    0.000    0.000    0.000    0.000    0.000    0.000 
#
# Total GULP energy -198415.924546 kJ/mol
# GULP energy per Si atom -12400.995284 kJ/mol
# Density = 2.649592 g / cm^3
# Si number density = 26.556362 Si / 1000 Ang^3
#
#
#
# Elastic Constant Matrix: (Units=GPa)
#
#
# Indices 1 2 3 4 5 6 
#
# 1 185.4473 53.6530 37.5995 0.0000 38.7618 0.0000
# 2 53.6530 151.9145 40.2955 0.0000 10.7201 0.0000
# 3 37.5995 40.2955 155.4861 0.0000 24.9239 0.0000
# 4 0.0000 0.0000 0.0000 60.4939 0.0000 1.4108
# 5 38.7618 10.7201 24.9239 0.0000 44.0282 0.0000
# 6 0.0000 0.0000 0.0000 1.4108 0.0000 29.9850
#
#
#
# Elastic Compliance Matrix: (Units=1/GPa)
#
#
# Indices 1 2 3 4 5 6 
#
# 1 0.007246 -0.002077 -0.000300 0.000000 -0.005704 0.000000
# 2 -0.002077 0.007687 -0.001631 0.000000 0.000880 0.000000
# 3 -0.000300 -0.001631 0.007501 0.000000 -0.003586 0.000000
# 4 0.000000 0.000000 0.000000 0.016549 0.000000 -0.000779
# 5 -0.005704 0.000880 -0.003586 0.000000 0.029550 0.000000
# 6 0.000000 0.000000 0.000000 -0.000779 0.000000 0.033387
#
#
# Mechanical properties :
#
#
# Convention : Reuss Voigt Hill
#
# Bulk Modulus (GPa) = 69.35338 83.99376 76.67357
# Shear Modulus (GPa) = 43.57614 50.98808 47.28211
#
# Velocity S-wave (km/s) = 4.05519 4.38653 4.22411
# Velocity P-wave (km/s) = 6.93529 7.57315 7.26123
#
# Compressibility (1/GPa) = 0.01441891
#
# Stress axis : x y z
#
# Youngs Moduli (GPa) = 137.99973 130.09372 133.31018
#
# Poissons Ratio (x) = 0.27024 0.03994
# Poissons Ratio (y) = 0.28666 0.21742
# Poissons Ratio (z) = 0.04135 0.21217
#
# Static dielectric constant tensor:
#      x y z
#    x 6.706770 0.000000 0.184290 
#    y 0.000000 4.759970 0.000000 
#    z 0.184290 0.000000 5.787220 
# 
# 
# High freq. dielectric constant tensor:
#      x y z
#    x 2.098360 0.000000 -0.003920 
#    y 0.000000 2.064790 0.000000 
#    z -0.003920 0.000000 2.116180 
# 
# From -- ./inp_files/74338.got.cif
#   From: 2010.06.25/outbox.cif.g09.slc.cpg/sg13_38_cif.got.tgz:74338.got - 2010.06.28 04:50:58.
