data_PCOD8121716
_publ_section_title
;
Structure prediction by ZEFSAII (Michael W. Deem and Ramdas Pophale) SiO2 
 PCOD8121716
Probable space group: P 2/C
;
_chemical_formula_sum "Si O2"
_cell_formula_units_Z 28
_cell_length_a 25.050982
_cell_length_b 9.102357
_cell_length_c 8.830453
_cell_angle_alpha 90.000000
_cell_angle_beta 45.170453
_cell_angle_gamma 90.000000
_cell_volume 1428.021613
_symmetry_space_group_name_H-M "P 2/C"
_symmetry_group_IT_number 13
_symmetry_cell_setting 'monoclinic'
loop_
_space_group_symop_operation_xyz
x,y,z
-x,y,1/2-z
-x,-y,-z
x,-y,1/2+z
loop_
_atom_site_type_symbol
_atom_site_label
_atom_site_fract_x
_atom_site_fract_y
_atom_site_fract_z
Si Si1 0.855197 0.841467 0.219558
Si Si2 0.723010 0.658398 0.982777
Si Si3 0.584168 0.849015 0.258841
Si Si4 0.144797 0.158529 0.140370
Si Si5 0.723006 0.658395 0.625179
Si Si6 0.415835 0.150991 0.095515
Si Si7 0.000003 0.658150 0.572414
O O1 0.780723 0.771557 0.437470
O O2 0.867648 0.999996 0.264701
O O3 0.847487 0.852914 0.055019
O O4 0.926205 0.744695 0.128586
O O5 0.780735 0.771549 0.939594
O O6 0.736359 0.649287 0.777275
O O7 0.639463 0.715764 0.191425
O O8 0.735135 0.500001 0.029723
O O9 0.500003 0.809252 0.485500
O O10 0.613408 0.000006 0.273177
O O11 0.584452 0.876437 0.081091
O O12 0.073782 0.255285 0.333436
O O13 0.639455 0.715750 0.750735
O O14 0.000000 0.636963 0.750000
O O15 0.000000 0.500000 0.500000
#
# Coordination Sequence:
#
# PCOD8121716 Si02
#       7
#     4   4   4   4   4   4   4
#     4  11  23  40  61  86 115 149 190 233 280 333
#     4  11  23  38  57  83 115 150 189 234 284 336
#     4   9  19  36  57  81 110 145 186 231 279 333
#     4  11  23  40  61  86 115 149 190 233 280 333
#     4  11  23  38  57  83 115 150 189 234 284 336
#     4   9  19  36  57  81 110 145 186 231 279 333
#     4  10  23  40  60  86 116 150 187 230 279 332
#
# _framework density 19.607548000000001
#
# number of rings (size 3 to 8) (size 9 to 14) (size 15 to 20)
#    0.000    1.714    0.000    3.857    0.000    9.714 
#    0.000    0.000    0.000    0.000    0.000    0.000 
#    0.000    0.000    0.000    0.000    0.000    0.000 
#
# Total GULP energy -347301.729567 kJ/mol
# GULP energy per Si atom -12403.633199 kJ/mol
# Density = 1.956292 g / cm^3
# Si number density = 19.607548 Si / 1000 Ang^3
#
#
#
# Elastic Constant Matrix: (Units=GPa)
#
#
# Indices 1 2 3 4 5 6 
#
# 1 100.4608 59.2856 44.2830 0.0000 -12.3611 0.0000
# 2 59.2856 157.7658 59.5906 0.0000 -6.7549 0.0000
# 3 44.2830 59.5906 101.5927 0.0000 -12.1090 0.0000
# 4 0.0000 0.0000 0.0000 38.3246 0.0000 2.0939
# 5 -12.3611 -6.7549 -12.1090 0.0000 23.0943 0.0000
# 6 0.0000 0.0000 0.0000 2.0939 0.0000 38.4262
#
#
#
# Elastic Compliance Matrix: (Units=1/GPa)
#
#
# Indices 1 2 3 4 5 6 
#
# 1 0.014338 -0.003902 -0.003394 0.000000 0.004753 0.000000
# 2 -0.003902 0.009205 -0.003868 0.000000 -0.001425 0.000000
# 3 -0.003394 -0.003868 0.014123 0.000000 0.004457 0.000000
# 4 0.000000 0.000000 0.000000 0.026171 0.000000 -0.001426
# 5 0.004753 -0.001425 0.004457 0.000000 0.047765 0.000000
# 6 0.000000 0.000000 0.000000 -0.001426 0.000000 0.026102
#
#
# Mechanical properties :
#
#
# Convention : Reuss Voigt Hill
#
# Bulk Modulus (GPa) = 65.20414 76.23752 70.72083
# Shear Modulus (GPa) = 30.27639 33.07971 31.67805
#
# Velocity S-wave (km/s) = 3.93379 4.11188 4.02382
# Velocity P-wave (km/s) = 7.34573 7.84280 7.59833
#
# Compressibility (1/GPa) = 0.01533645
#
# Stress axis : x y z
#
# Youngs Moduli (GPa) = 69.74399 108.63619 70.80731
#
# Poissons Ratio (x) = 0.42395 0.24034
# Poissons Ratio (y) = 0.27217 0.27389
# Poissons Ratio (z) = 0.23673 0.42022
#
# Static dielectric constant tensor:
#      x y z
#    x 3.821210 0.000000 -0.206850 
#    y 0.000000 3.578470 0.000000 
#    z -0.206850 0.000000 3.830920 
# 
# 
# High freq. dielectric constant tensor:
#      x y z
#    x 1.774960 0.000000 -0.006670 
#    y 0.000000 1.771150 0.000000 
#    z -0.006670 0.000000 1.775280 
# 
# From -- ./inp_files/24529.got.cif
#   From: 2010.06.25/outbox.cif.g09.slc.cpg/sg13_13_cif.got.tgz:24529.got - 2010.06.28 04:50:58.
