data_PCOD8121416
_publ_section_title
;
Structure prediction by ZEFSAII (Michael W. Deem and Ramdas Pophale) SiO2 
 PCOD8121416
Probable space group: P 2/C
;
_chemical_formula_sum "Si O2"
_cell_formula_units_Z 32
_cell_length_a 25.034559
_cell_length_b 8.660351
_cell_length_c 15.130439
_cell_angle_alpha 90.000000
_cell_angle_beta 27.909119
_cell_angle_gamma 90.000000
_cell_volume 1535.458939
_symmetry_space_group_name_H-M "P 2/C"
_symmetry_group_IT_number 13
_symmetry_cell_setting 'monoclinic'
loop_
_space_group_symop_operation_xyz
x,y,z
-x,y,1/2-z
-x,-y,-z
x,-y,1/2+z
loop_
_atom_site_type_symbol
_atom_site_label
_atom_site_fract_x
_atom_site_fract_y
_atom_site_fract_z
Si Si1 0.498520 0.398443 0.853046
Si Si2 0.275644 0.571709 0.982448
Si Si3 0.755634 0.072039 0.286003
Si Si4 0.868240 0.069856 0.457122
Si Si5 0.869092 0.427725 0.457512
Si Si6 0.497548 0.065573 0.906528
Si Si7 0.754797 0.567380 0.787161
Si Si8 0.275152 0.931684 0.988602
O O1 0.500000 0.338197 0.750000
O O2 0.593474 0.527796 0.730898
O O3 0.522758 0.248715 0.877355
O O4 0.374649 0.470957 0.054790
O O5 0.269724 0.750502 0.013298
O O6 0.202323 0.534150 0.003860
O O7 0.226565 0.479065 0.138176
O O8 0.624033 0.032800 0.459700
O O9 0.781736 0.252359 0.237544
O O10 0.837197 0.977200 0.101848
O O11 0.785645 0.018102 0.341099
O O12 0.841671 0.249274 0.479820
O O13 0.790712 0.971243 0.504676
O O14 0.000000 0.030345 0.250000
O O15 0.839569 0.470616 0.601604
O O16 0.000000 0.466098 0.250000
O O17 0.593621 0.983446 0.707771
O O18 0.500000 0.000000 0.000000
#
# Coordination Sequence:
#
# PCOD8121416 Si02
#       8
#     4   4   4   4   4   4   4   4
#     4   9  20  40  61  90 127 165 205 252 308 370
#     4  11  24  40  64  93 128 167 205 255 311 377
#     4  11  23  41  68  93 129 167 207 262 311 373
#     4  11  25  45  66  93 123 161 216 266 313 373
#     4  11  25  43  65  90 122 163 210 263 314 369
#     4  11  21  37  63  95 129 165 207 257 312 370
#     4  10  22  42  65  93 126 165 205 253 315 367
#     4  12  24  41  64  96 128 168 211 252 317 374
#
# _framework density 20.840674
#
# number of rings (size 3 to 8) (size 9 to 14) (size 15 to 20)
#    0.000    1.250    1.250    5.625    1.750    7.500 
#    0.000    0.000    0.000    0.000    0.000    0.000 
#    0.000    0.000    0.000    0.000    0.000    0.000 
#
# Total GULP energy -397018.214987 kJ/mol
# GULP energy per Si atom -12406.819218 kJ/mol
# Density = 2.079324 g / cm^3
# Si number density = 20.840674 Si / 1000 Ang^3
#
#
#
# Elastic Constant Matrix: (Units=GPa)
#
#
# Indices 1 2 3 4 5 6 
#
# 1 44.9340 17.6603 17.0074 0.0000 14.8331 0.0000
# 2 17.6603 84.0110 33.2956 0.0000 -9.2833 0.0000
# 3 17.0074 33.2956 128.9958 0.0000 8.1329 0.0000
# 4 0.0000 0.0000 0.0000 6.6855 0.0000 18.8352
# 5 14.8331 -9.2833 8.1329 0.0000 30.9485 0.0000
# 6 0.0000 0.0000 0.0000 18.8352 0.0000 29.0176
#
#
#
# Elastic Compliance Matrix: (Units=1/GPa)
#
#
# Indices 1 2 3 4 5 6 
#
# 1 0.031542 -0.008163 -0.000960 0.000000 -0.017314 0.000000
# 2 -0.008163 0.016166 -0.003710 0.000000 0.009737 0.000000
# 3 -0.000960 -0.003710 0.009027 0.000000 -0.003025 0.000000
# 4 0.000000 0.000000 0.000000 -0.180492 0.000000 0.117157
# 5 -0.017314 0.009737 -0.003025 0.000000 0.044326 0.000000
# 6 0.000000 0.000000 0.000000 0.117157 0.000000 -0.041585
#
#
# Mechanical properties :
#
#
# Convention : Reuss Voigt Hill
#
# Bulk Modulus (GPa) = 32.18760 43.76306 37.97533
# Shear Modulus (GPa) = -58.82789 25.99549 -16.41620
#
# Velocity S-wave (km/s) = -5.31871 3.53561 -2.80964
# Velocity P-wave (km/s) = 4.71595 6.14099 2.78134
#
# Compressibility (1/GPa) = 0.03106787
#
# Stress axis : x y z
#
# Youngs Moduli (GPa) = 31.70363 61.85984 110.77738
#
# Poissons Ratio (x) = 0.50498 0.10634
# Poissons Ratio (y) = 0.25881 0.41100
# Poissons Ratio (z) = 0.03044 0.22951
#
# Static dielectric constant tensor:
#      x y z
#    x 3.669020 0.000000 -0.044320 
#    y 0.000000 3.715460 0.000000 
#    z -0.044320 0.000000 3.824430 
# 
# 
# High freq. dielectric constant tensor:
#      x y z
#    x 1.812520 0.000000 0.010030 
#    y 0.000000 1.821590 0.000000 
#    z 0.010030 0.000000 1.823860 
# 
# From -- ./inp_files/59502.got.cif
#   From: 2010.06.25/outbox.cif.g09.slc.cpg/sg13_30_cif.got.tgz:59502.got - 2010.06.28 04:50:58.
