data_PCOD8121595
_publ_section_title
;
Structure prediction by ZEFSAII (Michael W. Deem and Ramdas Pophale) SiO2 
 PCOD8121595
Probable space group: P 2/C
;
_chemical_formula_sum "Si O2"
_cell_formula_units_Z 14
_cell_length_a 6.207720
_cell_length_b 8.217736
_cell_length_c 15.501432
_cell_angle_alpha 90.000000
_cell_angle_beta 126.270399
_cell_angle_gamma 90.000000
_cell_volume 637.554403
_symmetry_space_group_name_H-M "P 2/C"
_symmetry_group_IT_number 13
_symmetry_cell_setting 'monoclinic'
loop_
_space_group_symop_operation_xyz
x,y,z
-x,y,1/2-z
-x,-y,-z
x,-y,1/2+z
loop_
_atom_site_type_symbol
_atom_site_label
_atom_site_fract_x
_atom_site_fract_y
_atom_site_fract_z
Si Si1 0.001625 0.129063 0.424711
Si Si2 0.000000 0.066824 0.750000
Si Si3 0.437425 0.702011 0.413228
Si Si4 0.267213 0.401927 0.054726
O O1 0.752216 0.254517 0.380553
O O2 0.282487 0.221021 0.493509
O O3 0.967986 0.047055 0.324721
O O4 0.000000 0.000000 0.500000
O O5 0.264948 0.178399 0.812899
O O6 0.484606 0.528413 0.374549
O O7 0.270115 0.674193 0.460100
O O8 0.000000 0.500000 0.000000
#
# Coordination Sequence:
#
# PCOD8121595 Si02
#       4
#     4   2   4   4
#     4  11  23  43  70  97 136 179 225 289 341 394
#     4  12  24  40  72 106 134 182 232 276 350 412
#     4  10  22  44  68  97 139 177 229 283 333 425
#     4   9  20  44  69  91 134 179 218 286 346 392
#
# _framework density 21.958909999999999
#
# number of rings (size 3 to 8) (size 9 to 14) (size 15 to 20)
#    0.000    1.714    2.857    0.857    0.000    1.143 
#    0.000   15.714    0.000    0.000    0.000    0.000 
#    0.000    0.000    0.000    0.000    0.000    0.000 
#
# Total GULP energy -173518.874406 kJ/mol
# GULP energy per Si atom -12394.205315 kJ/mol
# Density = 2.190893 g / cm^3
# Si number density = 21.958910 Si / 1000 Ang^3
#
#
#
# Elastic Constant Matrix: (Units=GPa)
#
#
# Indices 1 2 3 4 5 6 
#
# 1 141.2731 85.2486 56.1138 0.0000 -17.9484 0.0000
# 2 85.2486 177.8743 77.8678 0.0000 -17.2654 0.0000
# 3 56.1138 77.8678 104.3944 0.0000 -14.0414 0.0000
# 4 0.0000 0.0000 0.0000 22.5070 0.0000 4.5980
# 5 -17.9484 -17.2654 -14.0414 0.0000 32.3605 0.0000
# 6 0.0000 0.0000 0.0000 4.5980 0.0000 63.6898
#
#
#
# Elastic Compliance Matrix: (Units=1/GPa)
#
#
# Indices 1 2 3 4 5 6 
#
# 1 0.010719 -0.003722 -0.002604 0.000000 0.002829 0.000000
# 2 -0.003722 0.009747 -0.005148 0.000000 0.000902 0.000000
# 3 -0.002604 -0.005148 0.015139 0.000000 0.002378 0.000000
# 4 0.000000 0.000000 0.000000 0.045096 0.000000 -0.003256
# 5 0.002829 0.000902 0.002378 0.000000 0.033984 0.000000
# 6 0.000000 0.000000 0.000000 -0.003256 0.000000 0.015936
#
#
# Mechanical properties :
#
#
# Convention : Reuss Voigt Hill
#
# Bulk Modulus (GPa) = 79.02298 95.77802 87.40050
# Shear Modulus (GPa) = 31.68797 37.33224 34.51011
#
# Velocity S-wave (km/s) = 3.80288 4.12769 3.96861
# Velocity P-wave (km/s) = 7.43958 8.15038 7.80308
#
# Compressibility (1/GPa) = 0.01265455
#
# Stress axis : x y z
#
# Youngs Moduli (GPa) = 93.29653 102.59314 66.05477
#
# Poissons Ratio (x) = 0.38188 0.17204
# Poissons Ratio (y) = 0.34727 0.34007
# Poissons Ratio (z) = 0.24299 0.52819
#
# Static dielectric constant tensor:
#      x y z
#    x 4.769160 0.000000 -0.202410 
#    y 0.000000 4.892560 0.000000 
#    z -0.202410 0.000000 3.535720 
# 
# 
# High freq. dielectric constant tensor:
#      x y z
#    x 1.890190 0.000000 -0.005640 
#    y 0.000000 1.897500 0.000000 
#    z -0.005640 0.000000 1.814960 
# 
# From -- ./inp_files/25225.got.cif
#   From: 2010.06.25/outbox.cif.g09.slc.cpg/sg13_13_cif.got.tgz:25225.got - 2010.06.28 04:50:58.
