data_PCOD8121622
_publ_section_title
;
Structure prediction by ZEFSAII (Michael W. Deem and Ramdas Pophale) SiO2 
 PCOD8121622
Probable space group: P 2/C
;
_chemical_formula_sum "Si O2"
_cell_formula_units_Z 20
_cell_length_a 12.339136
_cell_length_b 5.906926
_cell_length_c 22.965359
_cell_angle_alpha 90.000000
_cell_angle_beta 30.731039
_cell_angle_gamma 90.000000
_cell_volume 855.357710
_symmetry_space_group_name_H-M "P 2/C"
_symmetry_group_IT_number 13
_symmetry_cell_setting 'monoclinic'
loop_
_space_group_symop_operation_xyz
x,y,z
-x,y,1/2-z
-x,-y,-z
x,-y,1/2+z
loop_
_atom_site_type_symbol
_atom_site_label
_atom_site_fract_x
_atom_site_fract_y
_atom_site_fract_z
Si Si1 0.214605 0.584184 0.541558
Si Si2 0.400246 0.892259 0.102591
Si Si3 0.000000 0.391547 0.750000
Si Si4 0.500000 0.469528 0.750000
Si Si5 0.464380 0.214219 0.368873
Si Si6 0.823663 0.853343 0.049332
O O1 0.439695 0.703328 0.448113
O O2 0.078098 0.560628 0.663173
O O3 0.272207 0.332071 0.493247
O O4 0.089485 0.729549 0.549765
O O5 0.179005 0.772641 0.192366
O O6 0.367871 0.096908 0.164305
O O7 0.500000 0.000000 0.000000
O O8 0.431327 0.611008 0.724454
O O9 0.280944 0.334632 0.860650
O O10 0.369326 0.016110 0.374572
O O11 0.000000 0.000000 0.000000
#
# Coordination Sequence:
#
# PCOD8121622 Si02
#       6
#     4   4   2   2   4   4
#     4  10  24  47  68 106 144 184 241 299 355 432
#     4  11  24  47  71 102 148 182 244 305 349 436
#     4  12  24  46  74 106 140 206 232 292 382 416
#     4  10  22  44  74 100 138 196 230 290 378 402
#     4  10  22  48  66 102 145 180 237 301 349 426
#     4  10  23  48  70 104 142 183 240 295 344 435
#
# _framework density 23.382031000000001
#
# number of rings (size 3 to 8) (size 9 to 14) (size 15 to 20)
#    0.000    1.600    2.000    1.200    0.000    4.000 
#   28.800    0.000    0.000    0.000    0.000    0.000 
#    0.000    0.000    0.000    0.000    0.000    0.000 
#
# Total GULP energy -247934.661704 kJ/mol
# GULP energy per Si atom -12396.733085 kJ/mol
# Density = 2.332881 g / cm^3
# Si number density = 23.382031 Si / 1000 Ang^3
#
#
#
# Elastic Constant Matrix: (Units=GPa)
#
#
# Indices 1 2 3 4 5 6 
#
# 1 162.1314 76.9276 75.2249 0.0000 11.2221 0.0000
# 2 76.9276 132.3316 69.0183 0.0000 16.2197 0.0000
# 3 75.2249 69.0183 142.2021 0.0000 29.4564 0.0000
# 4 0.0000 0.0000 0.0000 40.9992 0.0000 8.0857
# 5 11.2221 16.2197 29.4564 0.0000 38.0804 0.0000
# 6 0.0000 0.0000 0.0000 8.0857 0.0000 51.3001
#
#
#
# Elastic Compliance Matrix: (Units=1/GPa)
#
#
# Indices 1 2 3 4 5 6 
#
# 1 0.009526 -0.003925 -0.003452 0.000000 0.001535 0.000000
# 2 -0.003925 0.011747 -0.003368 0.000000 -0.001242 0.000000
# 3 -0.003452 -0.003368 0.011890 0.000000 -0.006746 0.000000
# 4 0.000000 0.000000 0.000000 0.025173 0.000000 -0.003968
# 5 0.001535 -0.001242 -0.006746 0.000000 0.031555 0.000000
# 6 0.000000 0.000000 0.000000 -0.003968 0.000000 0.020119
#
#
# Mechanical properties :
#
#
# Convention : Reuss Voigt Hill
#
# Bulk Modulus (GPa) = 85.66705 97.66741 91.66723
# Shear Modulus (GPa) = 36.93005 40.44222 38.68613
#
# Velocity S-wave (km/s) = 3.97850 4.16339 4.07200
# Velocity P-wave (km/s) = 7.60409 8.06057 7.83565
#
# Compressibility (1/GPa) = 0.01167310
#
# Stress axis : x y z
#
# Youngs Moduli (GPa) = 104.98002 85.12520 84.10235
#
# Poissons Ratio (x) = 0.33414 0.29031
# Poissons Ratio (y) = 0.41208 0.28325
# Poissons Ratio (z) = 0.36238 0.28670
#
# Static dielectric constant tensor:
#      x y z
#    x 3.781040 0.000000 0.712610 
#    y 0.000000 4.848880 0.000000 
#    z 0.712610 0.000000 3.999220 
# 
# 
# High freq. dielectric constant tensor:
#      x y z
#    x 1.927510 0.000000 0.028040 
#    y 0.000000 1.948360 0.000000 
#    z 0.028040 0.000000 1.911710 
# 
# From -- ./inp_files/41388.got.cif
#   From: 2010.06.25/outbox.cif.g09.slc.cpg/sg13_21_cif.got.tgz:41388.got - 2010.06.28 04:50:58.
