data_PCOD8121511
_publ_section_title
;
Structure prediction by ZEFSAII (Michael W. Deem and Ramdas Pophale) SiO2 
 PCOD8121511
Probable space group: P 2/C
;
_chemical_formula_sum "Si O2"
_cell_formula_units_Z 24
_cell_length_a 19.862352
_cell_length_b 8.838301
_cell_length_c 20.216894
_cell_angle_alpha 90.000000
_cell_angle_beta 159.897298
_cell_angle_gamma 90.000000
_cell_volume 1219.827608
_symmetry_space_group_name_H-M "P 2/C"
_symmetry_group_IT_number 13
_symmetry_cell_setting 'monoclinic'
loop_
_space_group_symop_operation_xyz
x,y,z
-x,y,1/2-z
-x,-y,-z
x,-y,1/2+z
loop_
_atom_site_type_symbol
_atom_site_label
_atom_site_fract_x
_atom_site_fract_y
_atom_site_fract_z
Si Si1 0.552391 0.312059 0.691562
Si Si2 0.924733 0.666110 0.445525
Si Si3 0.683753 0.834192 0.114616
Si Si4 0.500000 0.935583 0.250000
Si Si5 0.691699 0.817036 0.647587
Si Si6 0.229887 0.194085 0.954772
Si Si7 0.500000 0.560553 0.750000
O O1 0.758859 0.339778 0.847784
O O2 0.572536 0.165218 0.755989
O O3 0.379843 0.285884 0.479461
O O4 0.499326 0.459969 0.683855
O O5 0.844012 0.745373 0.305276
O O6 0.000000 0.500000 0.500000
O O7 0.101156 0.763710 0.635896
O O8 0.701705 0.775340 0.056851
O O9 0.722444 0.012166 0.152664
O O10 0.464328 0.801391 0.937103
O O11 0.685272 0.036083 0.441019
O O12 0.000000 0.185612 0.750000
O O13 0.308347 0.332786 0.071683
#
# Coordination Sequence:
#
# PCOD8121511 Si02
#       7
#     4   4   4   2   4   4   2
#     4  10  23  43  64  92 125 167 208 251 319 364
#     4  11  26  38  67  96 123 164 210 262 311 379
#     4  10  23  42  64  93 122 162 211 259 316 359
#     4  10  22  44  64  92 124 162 212 260 300 372
#     4  10  22  43  67  89 124 162 206 267 307 365
#     4  11  25  40  67  93 124 166 209 256 310 369
#     4  10  26  42  62  90 136 166 198 258 308 386
#
# _framework density 19.674911000000002
#
# number of rings (size 3 to 8) (size 9 to 14) (size 15 to 20)
#    0.000    1.667    1.667    0.500    9.333    2.667 
#    0.000    3.333    0.000    0.000    0.000    0.000 
#    0.000    0.000    0.000    0.000    0.000    0.000 
#
# Total GULP energy -297711.566957 kJ/mol
# GULP energy per Si atom -12404.648623 kJ/mol
# Density = 1.963013 g / cm^3
# Si number density = 19.674911 Si / 1000 Ang^3
#
#
#
# Elastic Constant Matrix: (Units=GPa)
#
#
# Indices 1 2 3 4 5 6 
#
# 1 60.8275 28.2337 5.9791 0.0000 0.2262 0.0000
# 2 28.2337 109.0724 37.7915 0.0000 5.7665 0.0000
# 3 5.9791 37.7915 106.9551 0.0000 11.4795 0.0000
# 4 0.0000 0.0000 0.0000 24.1415 0.0000 -4.1436
# 5 0.2262 5.7665 11.4795 0.0000 21.8546 0.0000
# 6 0.0000 0.0000 0.0000 -4.1436 0.0000 22.4709
#
#
#
# Elastic Compliance Matrix: (Units=1/GPa)
#
#
# Indices 1 2 3 4 5 6 
#
# 1 0.018752 -0.005132 0.000679 0.000000 0.000803 0.000000
# 2 -0.005132 0.011867 -0.003790 0.000000 -0.001088 0.000000
# 3 0.000679 -0.003790 0.011174 0.000000 -0.004877 0.000000
# 4 0.000000 0.000000 0.000000 0.042776 0.000000 0.007888
# 5 0.000803 -0.001088 -0.004877 0.000000 0.048597 0.000000
# 6 0.000000 0.000000 0.000000 0.007888 0.000000 0.045956
#
#
# Mechanical properties :
#
#
# Convention : Reuss Voigt Hill
#
# Bulk Modulus (GPa) = 39.51258 46.76265 43.13761
# Shear Modulus (GPa) = 24.50446 27.35010 25.92728
#
# Velocity S-wave (km/s) = 3.53295 3.73245 3.63407
# Velocity P-wave (km/s) = 6.06371 6.51108 6.29137
#
# Compressibility (1/GPa) = 0.02530840
#
# Stress axis : x y z
#
# Youngs Moduli (GPa) = 53.32716 84.26683 89.49216
#
# Poissons Ratio (x) = 0.43243 -0.06074
# Poissons Ratio (y) = 0.27366 0.33913
# Poissons Ratio (z) = -0.03619 0.31933
#
# Static dielectric constant tensor:
#      x y z
#    x 3.644410 0.000000 0.005560 
#    y 0.000000 3.846720 0.000000 
#    z 0.005560 0.000000 4.042670 
# 
# 
# High freq. dielectric constant tensor:
#      x y z
#    x 1.773110 0.000000 -0.008480 
#    y 0.000000 1.782480 0.000000 
#    z -0.008480 0.000000 1.773970 
# 
# From -- ./inp_files/81654.got.cif
#   From: 2010.06.25/outbox.cif.g09.slc.cpg/sg13_41_cif.got.tgz:81654.got - 2010.06.28 04:50:58.
