data_PCOD8121567
_publ_section_title
;
Structure prediction by ZEFSAII (Michael W. Deem and Ramdas Pophale) SiO2 
 PCOD8121567
Probable space group: P 2/C
;
_chemical_formula_sum "Si O2"
_cell_formula_units_Z 24
_cell_length_a 27.753058
_cell_length_b 5.424286
_cell_length_c 23.710891
_cell_angle_alpha 90.000000
_cell_angle_beta 163.428310
_cell_angle_gamma 90.000000
_cell_volume 1018.060036
_symmetry_space_group_name_H-M "P 2/C"
_symmetry_group_IT_number 13
_symmetry_cell_setting 'monoclinic'
loop_
_space_group_symop_operation_xyz
x,y,z
-x,y,1/2-z
-x,-y,-z
x,-y,1/2+z
loop_
_atom_site_type_symbol
_atom_site_label
_atom_site_fract_x
_atom_site_fract_y
_atom_site_fract_z
Si Si1 0.449599 0.844690 0.256637
Si Si2 0.140611 0.567854 0.952032
Si Si3 0.949969 0.609048 0.526493
Si Si4 0.677984 0.384164 0.094771
Si Si5 0.574066 0.225071 0.180471
Si Si6 0.236213 0.904405 0.709455
O O1 0.500000 0.904387 0.250000
O O2 0.572910 0.632927 0.418492
O O3 0.501120 0.078135 0.351427
O O4 0.252744 0.775527 0.045667
O O5 0.000000 0.472052 0.750000
O O6 0.048675 0.671806 0.905150
O O7 0.258792 0.351535 0.106466
O O8 0.843721 0.368225 0.390848
O O9 0.887521 0.860484 0.425563
O O10 0.866445 0.458497 0.290621
O O11 0.573772 0.598784 0.010483
O O12 0.673913 0.133707 0.128642
O O13 0.631262 0.049530 0.192598
#
# Coordination Sequence:
#
# PCOD8121567 Si02
#       6
#     4   4   4   4   4   4
#     4  11  24  42  65  95 132 173 228 280 341 408
#     4  10  22  44  65  92 134 177 227 278 343 406
#     4  11  24  43  68 104 137 177 230 282 339 406
#     4  11  25  41  69  97 135 178 224 283 344 410
#     4  10  24  43  64 101 133 180 224 289 343 414
#     4  11  24  45  69 100 140 179 227 279 344 412
#
# _framework density 23.574248999999998
#
# number of rings (size 3 to 8) (size 9 to 14) (size 15 to 20)
#    0.000    1.333    1.667    2.500    4.667    5.333 
#    3.000    0.000    0.000    0.000    0.000    0.000 
#    0.000    0.000    0.000    0.000    0.000    0.000 
#
# Total GULP energy -297460.392500 kJ/mol
# GULP energy per Si atom -12394.183021 kJ/mol
# Density = 2.352059 g / cm^3
# Si number density = 23.574249 Si / 1000 Ang^3
#
#
#
# Elastic Constant Matrix: (Units=GPa)
#
#
# Indices 1 2 3 4 5 6 
#
# 1 124.3843 5.6587 47.7477 0.0000 -4.1032 0.0000
# 2 5.6587 79.4719 21.7951 0.0000 6.5718 0.0000
# 3 47.7477 21.7951 115.0497 0.0000 2.2031 0.0000
# 4 0.0000 0.0000 0.0000 15.8505 0.0000 -0.1820
# 5 -4.1032 6.5718 2.2031 0.0000 38.7788 0.0000
# 6 0.0000 0.0000 0.0000 -0.1820 0.0000 34.3227
#
#
#
# Elastic Compliance Matrix: (Units=1/GPa)
#
#
# Indices 1 2 3 4 5 6 
#
# 1 0.009631 0.000335 -0.004084 0.000000 0.001194 0.000000
# 2 0.000335 0.013459 -0.002649 0.000000 -0.002095 0.000000
# 3 -0.004084 -0.002649 0.010900 0.000000 -0.000602 0.000000
# 4 0.000000 0.000000 0.000000 0.063093 0.000000 0.000335
# 5 0.001194 -0.002095 -0.000602 0.000000 0.026303 0.000000
# 6 0.000000 0.000000 0.000000 0.000335 0.000000 0.029137
#
#
# Mechanical properties :
#
#
# Convention : Reuss Voigt Hill
#
# Bulk Modulus (GPa) = 47.17815 52.14545 49.66180
# Shear Modulus (GPa) = 29.00527 34.03737 31.52132
#
# Velocity S-wave (km/s) = 3.51148 3.80391 3.66062
# Velocity P-wave (km/s) = 6.04125 6.43899 6.24329
#
# Compressibility (1/GPa) = 0.02119625
#
# Stress axis : x y z
#
# Youngs Moduli (GPa) = 103.82808 74.30072 91.74350
#
# Poissons Ratio (x) = -0.02492 0.37464
# Poissons Ratio (y) = -0.03482 0.24300
# Poissons Ratio (z) = 0.42399 0.19680
#
# Static dielectric constant tensor:
#      x y z
#    x 4.476340 0.000000 -0.038030 
#    y 0.000000 4.030970 0.000000 
#    z -0.038030 0.000000 4.206260 
# 
# 
# High freq. dielectric constant tensor:
#      x y z
#    x 1.944880 0.000000 0.000520 
#    y 0.000000 1.924520 0.000000 
#    z 0.000520 0.000000 1.939150 
# 
# From -- ./inp_files/89603.got.cif
#   From: 2010.06.25/outbox.cif.g09.slc.cpg/sg13_45_cif.got.tgz:89603.got - 2010.06.28 04:50:58.
