data_PCOD8121197
_publ_section_title
;
Structure prediction by ZEFSAII (Michael W. Deem and Ramdas Pophale) SiO2 
 PCOD8121197
Probable space group: P 2/C
;
_chemical_formula_sum "Si O2"
_cell_formula_units_Z 30
_cell_length_a 19.709669
_cell_length_b 10.903653
_cell_length_c 12.155466
_cell_angle_alpha 90.000000
_cell_angle_beta 30.853170
_cell_angle_gamma 90.000000
_cell_volume 1339.691023
_symmetry_space_group_name_H-M "P 2/C"
_symmetry_group_IT_number 13
_symmetry_cell_setting 'monoclinic'
loop_
_space_group_symop_operation_xyz
x,y,z
-x,y,1/2-z
-x,-y,-z
x,-y,1/2+z
loop_
_atom_site_type_symbol
_atom_site_label
_atom_site_fract_x
_atom_site_fract_y
_atom_site_fract_z
Si Si1 0.771236 0.797121 0.332429
Si Si2 0.500000 0.698768 0.750000
Si Si3 0.462330 0.767182 0.184805
Si Si4 0.740254 0.838616 0.731868
Si Si5 0.392389 0.500035 0.243263
Si Si6 0.870257 0.952329 0.743299
Si Si7 0.782131 0.891919 0.088400
Si Si8 0.856402 0.643686 0.414719
O O1 0.613921 0.778018 0.533366
O O2 0.832055 0.807614 0.122507
O O3 0.843419 0.690242 0.304419
O O4 0.779267 0.927100 0.383550
O O5 0.577813 0.616453 0.725795
O O6 0.500000 0.825602 0.250000
O O7 0.406403 0.629893 0.284068
O O8 0.350434 0.842708 0.281387
O O9 0.596261 0.774591 0.926120
O O10 0.801524 0.841973 0.770259
O O11 0.833040 0.760804 0.523926
O O12 0.739575 0.978216 0.695503
O O13 0.240472 0.471340 0.420406
O O14 0.500000 0.500000 0.000000
O O15 0.893277 0.902853 0.836355
O O16 0.000000 0.000000 0.500000
O O17 0.000000 0.593929 0.250000
#
# Coordination Sequence:
#
# PCOD8121197 Si02
#       8
#     4   2   4   4   4   4   4   4
#     4  10  23  39  64  97 136 176 221 283 340 414
#     4  10  22  40  64  98 128 170 234 280 352 404
#     4  12  23  42  66  99 136 174 229 288 348 403
#     4  11  23  39  66 100 132 182 225 283 340 415
#     4  11  22  40  70  95 132 178 229 288 345 407
#     4  11  23  40  63  93 140 185 226 273 343 421
#     4  11  24  40  65 100 138 177 225 277 350 414
#     4  11  23  43  71 100 135 181 234 284 344 424
#
# _framework density 22.393224
#
# number of rings (size 3 to 8) (size 9 to 14) (size 15 to 20)
#    0.000    1.067    4.667    2.000    1.867    3.733 
#    0.000    0.000    8.800    4.800    0.000    0.000 
#    0.000    0.000    0.000    0.000    0.000    0.000 
#
# Total GULP energy -371758.787883 kJ/mol
# GULP energy per Si atom -12391.959596 kJ/mol
# Density = 2.234226 g / cm^3
# Si number density = 22.393224 Si / 1000 Ang^3
#
#
#
# Elastic Constant Matrix: (Units=GPa)
#
#
# Indices 1 2 3 4 5 6 
#
# 1 128.1038 24.4635 53.5183 0.0000 9.7620 0.0000
# 2 24.4635 70.9291 31.1894 0.0000 -5.6289 0.0000
# 3 53.5183 31.1894 131.8546 0.0000 4.9192 0.0000
# 4 0.0000 0.0000 0.0000 42.4956 0.0000 -3.0535
# 5 9.7620 -5.6289 4.9192 0.0000 47.6077 0.0000
# 6 0.0000 0.0000 0.0000 -3.0535 0.0000 26.3458
#
#
#
# Elastic Compliance Matrix: (Units=1/GPa)
#
#
# Indices 1 2 3 4 5 6 
#
# 1 0.009761 -0.002015 -0.003415 0.000000 -0.001887 0.000000
# 2 -0.002015 0.016396 -0.003160 0.000000 0.002678 0.000000
# 3 -0.003415 -0.003160 0.009743 0.000000 -0.000680 0.000000
# 4 0.000000 0.000000 0.000000 0.023729 0.000000 0.002750
# 5 -0.001887 0.002678 -0.000680 0.000000 0.021779 0.000000
# 6 0.000000 0.000000 0.000000 0.002750 0.000000 0.038276
#
#
# Mechanical properties :
#
#
# Convention : Reuss Voigt Hill
#
# Bulk Modulus (GPa) = 53.41942 61.02555 57.22248
# Shear Modulus (GPa) = 34.93942 38.07090 36.50516
#
# Velocity S-wave (km/s) = 3.95431 4.12771 4.04194
# Velocity P-wave (km/s) = 6.68997 7.07307 6.88418
#
# Compressibility (1/GPa) = 0.01871979
#
# Stress axis : x y z
#
# Youngs Moduli (GPa) = 102.44388 60.99133 102.63549
#
# Poissons Ratio (x) = 0.12288 0.35051
# Poissons Ratio (y) = 0.20640 0.32438
# Poissons Ratio (z) = 0.34985 0.19276
#
# Static dielectric constant tensor:
#      x y z
#    x 4.576570 0.000000 -0.045330 
#    y 0.000000 3.695990 0.000000 
#    z -0.045330 0.000000 4.300470 
# 
# 
# High freq. dielectric constant tensor:
#      x y z
#    x 1.897020 0.000000 0.004200 
#    y 0.000000 1.861980 0.000000 
#    z 0.004200 0.000000 1.881180 
# 
# From -- ./inp_files/40890.got.cif
#   From: 2010.06.25/outbox.cif.g09.slc.cpg/sg13_21_cif.got.tgz:40890.got - 2010.06.28 04:50:58.
