data_PCOD8121037
_publ_section_title
;
Structure prediction by ZEFSAII (Michael W. Deem and Ramdas Pophale) SiO2 
 PCOD8121037
Probable space group: P 2/C
;
_chemical_formula_sum "Si O2"
_cell_formula_units_Z 28
_cell_length_a 28.000362
_cell_length_b 8.898219
_cell_length_c 27.900647
_cell_angle_alpha 90.000000
_cell_angle_beta 169.722560
_cell_angle_gamma 90.000000
_cell_volume 1240.257576
_symmetry_space_group_name_H-M "P 2/C"
_symmetry_group_IT_number 13
_symmetry_cell_setting 'monoclinic'
loop_
_space_group_symop_operation_xyz
x,y,z
-x,y,1/2-z
-x,-y,-z
x,-y,1/2+z
loop_
_atom_site_type_symbol
_atom_site_label
_atom_site_fract_x
_atom_site_fract_y
_atom_site_fract_z
Si Si1 0.189082 0.917751 0.057566
Si Si2 0.172113 0.510034 0.467310
Si Si3 0.500000 0.264001 0.750000
Si Si4 0.738416 0.935239 0.265498
Si Si5 0.968199 0.590171 0.861691
Si Si6 0.276026 0.976709 0.969737
Si Si7 0.415251 0.404248 0.870790
Si Si8 0.500000 0.234661 0.250000
O O1 0.081366 0.752632 0.961031
O O2 0.971915 0.001901 0.810348
O O3 0.245241 0.997363 0.163992
O O4 0.465003 0.922923 0.302832
O O5 0.379376 0.369490 0.673087
O O6 0.984920 0.510295 0.329834
O O7 0.333467 0.665741 0.623379
O O8 0.000000 0.488922 0.250000
O O9 0.744264 0.158752 0.011301
O O10 0.698582 0.756001 0.224487
O O11 0.000000 0.000000 0.500000
O O12 0.500000 0.000000 0.000000
O O13 0.666141 0.606008 0.582224
O O14 0.167118 0.516305 0.097931
O O15 0.300630 0.133953 0.021552
O O16 0.500000 0.500000 0.000000
#
# Coordination Sequence:
#
# PCOD8121037 Si02
#       8
#     4   4   2   4   4   4   4   2
#     4  11  22  41  70  97 128 172 235 284 325 411
#     4  11  24  42  66  96 142 183 226 277 345 411
#     4  10  22  38  68  96 126 176 234 278 326 400
#     4  11  23  44  69 101 134 176 221 289 356 417
#     4  11  23  43  73 101 129 181 235 283 339 411
#     4  11  23  42  65  97 131 179 229 278 338 388
#     4  11  25  47  71 101 137 175 229 295 354 417
#     4  10  28  42  60  96 150 184 216 288 348 414
#
# _framework density 22.575956000000001
#
# number of rings (size 3 to 8) (size 9 to 14) (size 15 to 20)
#    0.000    1.143    1.429    5.571    6.000    1.143 
#    7.714    0.000    0.000    0.000    0.000    0.000 
#    0.000    0.000    0.000    0.000    0.000    0.000 
#
# Total GULP energy -347088.447395 kJ/mol
# GULP energy per Si atom -12396.015978 kJ/mol
# Density = 2.252457 g / cm^3
# Si number density = 22.575956 Si / 1000 Ang^3
#
#
#
# Elastic Constant Matrix: (Units=GPa)
#
#
# Indices 1 2 3 4 5 6 
#
# 1 130.2222 55.3548 50.2744 0.0000 -14.6391 0.0000
# 2 55.3548 129.8971 64.9332 0.0000 -10.6942 0.0000
# 3 50.2744 64.9332 181.1877 0.0000 -25.8178 0.0000
# 4 0.0000 0.0000 0.0000 23.1910 0.0000 -3.5469
# 5 -14.6391 -10.6942 -25.8178 0.0000 68.2241 0.0000
# 6 0.0000 0.0000 0.0000 -3.5469 0.0000 30.1559
#
#
#
# Elastic Compliance Matrix: (Units=1/GPa)
#
#
# Indices 1 2 3 4 5 6 
#
# 1 0.009761 -0.003404 -0.001338 0.000000 0.001054 0.000000
# 2 -0.003404 0.010568 -0.002865 0.000000 -0.000158 0.000000
# 3 -0.001338 -0.002865 0.007201 0.000000 0.001989 0.000000
# 4 0.000000 0.000000 0.000000 0.043910 0.000000 0.005165
# 5 0.001054 -0.000158 0.001989 0.000000 0.015612 0.000000
# 6 0.000000 0.000000 0.000000 0.005165 0.000000 0.033768
#
#
# Mechanical properties :
#
#
# Convention : Reuss Voigt Hill
#
# Bulk Modulus (GPa) = 81.20200 86.93688 84.06944
# Shear Modulus (GPa) = 35.67835 42.36384 39.02109
#
# Velocity S-wave (km/s) = 3.97970 4.33656 4.16196
# Velocity P-wave (km/s) = 7.56067 7.97913 7.77272
#
# Compressibility (1/GPa) = 0.01231497
#
# Stress axis : x y z
#
# Youngs Moduli (GPa) = 102.44488 94.62233 138.87387
#
# Poissons Ratio (x) = 0.32208 0.18586
# Poissons Ratio (y) = 0.34871 0.39794
# Poissons Ratio (z) = 0.13711 0.27114
#
# Static dielectric constant tensor:
#      x y z
#    x 4.131150 0.000000 -0.158330 
#    y 0.000000 3.864510 0.000000 
#    z -0.158330 0.000000 4.481390 
# 
# 
# High freq. dielectric constant tensor:
#      x y z
#    x 1.903700 0.000000 -0.004480 
#    y 0.000000 1.871570 0.000000 
#    z -0.004480 0.000000 1.907070 
# 
# From -- ./inp_files/98131.got.cif
#   From: 2010.06.25/outbox.cif.g09.slc.cpg/sg13_50_cif.got.tgz:98131.got - 2010.06.28 04:50:58.
