data_PCOD8121232
_publ_section_title
;
Structure prediction by ZEFSAII (Michael W. Deem and Ramdas Pophale) SiO2 
 PCOD8121232
Probable space group: P 2/C
;
_chemical_formula_sum "Si O2"
_cell_formula_units_Z 18
_cell_length_a 16.656816
_cell_length_b 8.559731
_cell_length_c 10.563586
_cell_angle_alpha 90.000000
_cell_angle_beta 35.139230
_cell_angle_gamma 90.000000
_cell_volume 866.878195
_symmetry_space_group_name_H-M "P 2/C"
_symmetry_group_IT_number 13
_symmetry_cell_setting 'monoclinic'
loop_
_space_group_symop_operation_xyz
x,y,z
-x,y,1/2-z
-x,-y,-z
x,-y,1/2+z
loop_
_atom_site_type_symbol
_atom_site_label
_atom_site_fract_x
_atom_site_fract_y
_atom_site_fract_z
Si Si1 0.071090 0.928014 0.530627
Si Si2 0.633292 0.446916 0.753856
Si Si3 0.384239 0.128718 0.627366
Si Si4 0.500000 0.667235 0.750000
Si Si5 0.929542 0.437482 0.466154
O O1 0.237091 0.962125 0.309268
O O2 0.045034 0.745360 0.562657
O O3 0.000000 0.999185 0.750000
O O4 0.000000 0.000000 0.500000
O O5 0.625263 0.257278 0.745452
O O6 0.625224 0.551645 0.637301
O O7 0.768125 0.486065 0.664851
O O8 0.500000 0.500000 0.000000
O O9 0.422860 0.223415 0.450729
O O10 0.500000 0.000000 0.500000
O O11 0.000000 0.509452 0.250000
O O12 0.000000 0.500000 0.500000
#
# Coordination Sequence:
#
# PCOD8121232 Si02
#       5
#     4   4   4   2   4
#     4  10  24  44  62  92 133 170 214 268 332 392
#     4   9  21  40  62  91 128 165 217 264 324 388
#     4  10  23  41  65  98 127 170 226 270 329 394
#     4  10  22  40  68  94 132 174 222 276 336 392
#     4  10  23  40  64  95 125 167 216 266 323 389
#
# _framework density 20.764163
#
# number of rings (size 3 to 8) (size 9 to 14) (size 15 to 20)
#    0.000    2.222    0.000    0.000   12.444    5.333 
#    4.000    0.000    0.000    0.000    0.000    0.000 
#    0.000    0.000    0.000    0.000    0.000    0.000 
#
# Total GULP energy -223019.248465 kJ/mol
# GULP energy per Si atom -12389.958248 kJ/mol
# Density = 2.071690 g / cm^3
# Si number density = 20.764163 Si / 1000 Ang^3
#
#
#
# Elastic Constant Matrix: (Units=GPa)
#
#
# Indices 1 2 3 4 5 6 
#
# 1 187.5721 76.1015 93.1319 0.0000 -14.4642 0.0000
# 2 76.1015 80.1320 52.8359 0.0000 -15.9051 0.0000
# 3 93.1319 52.8359 152.4859 0.0000 -18.7200 0.0000
# 4 0.0000 0.0000 0.0000 29.0749 0.0000 -2.3447
# 5 -14.4642 -15.9051 -18.7200 0.0000 46.5178 0.0000
# 6 0.0000 0.0000 0.0000 -2.3447 0.0000 51.6029
#
#
#
# Elastic Compliance Matrix: (Units=1/GPa)
#
#
# Indices 1 2 3 4 5 6 
#
# 1 0.010070 -0.007270 -0.003737 0.000000 -0.000858 0.000000
# 2 -0.007270 0.021966 -0.002658 0.000000 0.004180 0.000000
# 3 -0.003737 -0.002658 0.010001 0.000000 0.001954 0.000000
# 4 0.000000 0.000000 0.000000 0.034520 0.000000 0.001569
# 5 -0.000858 0.004180 0.001954 0.000000 0.023446 0.000000
# 6 0.000000 0.000000 0.000000 0.001569 0.000000 0.019450
#
#
# Mechanical properties :
#
#
# Convention : Reuss Voigt Hill
#
# Bulk Modulus (GPa) = 67.98982 96.03652 82.01317
# Shear Modulus (GPa) = 32.96315 38.64719 35.80517
#
# Velocity S-wave (km/s) = 3.98867 4.31889 4.15706
# Velocity P-wave (km/s) = 7.35034 8.43931 7.91358
#
# Compressibility (1/GPa) = 0.01470808
#
# Stress axis : x y z
#
# Youngs Moduli (GPa) = 99.30510 45.52515 99.99070
#
# Poissons Ratio (x) = 0.33097 0.37363
# Poissons Ratio (y) = 0.72195 0.26574
# Poissons Ratio (z) = 0.37107 0.12099
#
# Static dielectric constant tensor:
#      x y z
#    x 4.170280 0.000000 0.267580 
#    y 0.000000 4.403450 0.000000 
#    z 0.267580 0.000000 4.223070 
# 
# 
# High freq. dielectric constant tensor:
#      x y z
#    x 1.810640 0.000000 -0.006900 
#    y 0.000000 1.805930 0.000000 
#    z -0.006900 0.000000 1.828040 
# 
# From -- ./inp_files/27695.got.cif
#   From: 2010.06.25/outbox.cif.g09.slc.cpg/sg13_14_cif.got.tgz:27695.got - 2010.06.28 04:50:58.
