data_PCOD8121798
_publ_section_title
;
Structure prediction by ZEFSAII (Michael W. Deem and Ramdas Pophale) SiO2 
 PCOD8121798
Probable space group: P 2/C
;
_chemical_formula_sum "Si O2"
_cell_formula_units_Z 30
_cell_length_a 19.138094
_cell_length_b 6.673422
_cell_length_c 22.697031
_cell_angle_alpha 90.000000
_cell_angle_beta 30.031897
_cell_angle_gamma 90.000000
_cell_volume 1450.790907
_symmetry_space_group_name_H-M "P 2/C"
_symmetry_group_IT_number 13
_symmetry_cell_setting 'monoclinic'
loop_
_space_group_symop_operation_xyz
x,y,z
-x,y,1/2-z
-x,-y,-z
x,-y,1/2+z
loop_
_atom_site_type_symbol
_atom_site_label
_atom_site_fract_x
_atom_site_fract_y
_atom_site_fract_z
Si Si1 0.875525 0.089348 0.128679
Si Si2 0.084014 0.117330 0.135388
Si Si3 0.991429 0.563391 0.903634
Si Si4 0.302758 0.161475 0.514957
Si Si5 0.500000 0.745993 0.250000
Si Si6 0.402542 0.905011 0.743140
Si Si7 0.872206 0.815036 0.243843
Si Si8 0.712125 0.407616 0.085169
O O1 0.736778 0.091291 0.192454
O O2 0.925130 0.316667 0.107077
O O3 0.837861 0.957721 0.213480
O O4 0.000000 0.000000 0.000000
O O5 0.080866 0.273750 0.085707
O O6 0.000000 0.220824 0.250000
O O7 0.241827 0.054697 0.037481
O O8 0.007806 0.906962 0.175986
O O9 0.102412 0.413397 0.793953
O O10 0.852560 0.438236 0.023143
O O11 0.470704 0.164744 0.391215
O O12 0.255416 0.198450 0.616723
O O13 0.246751 0.329417 0.510073
O O14 0.628478 0.611063 0.135116
O O15 0.560126 0.876817 0.259653
O O16 0.383745 0.754877 0.811759
#
# Coordination Sequence:
#
# PCOD8121798 Si02
#       8
#     4   4   4   4   2   4   4   4
#     4  11  26  46  66  94 130 178 224 267 326 393
#     4   9  20  36  62  98 129 163 205 262 332 379
#     4  11  23  39  67  96 126 168 221 263 316 389
#     4  11  21  43  64  95 141 162 209 284 325 386
#     4  12  22  42  64 102 124 166 218 268 342 386
#     4  12  25  44  66  94 137 172 219 273 326 392
#     4  10  23  42  63  97 132 171 216 265 324 389
#     4  12  23  38  67 100 128 164 217 274 332 378
#
# _framework density 20.678377000000001
#
# number of rings (size 3 to 8) (size 9 to 14) (size 15 to 20)
#    0.000    1.067    4.000    2.400    3.733    3.733 
#    2.400    0.667    0.000    0.000    0.000    0.000 
#    0.000    0.000    0.000    0.000    0.000    0.000 
#
# Total GULP energy -371885.993816 kJ/mol
# GULP energy per Si atom -12396.199794 kJ/mol
# Density = 2.063131 g / cm^3
# Si number density = 20.678377 Si / 1000 Ang^3
#
#
#
# Elastic Constant Matrix: (Units=GPa)
#
#
# Indices 1 2 3 4 5 6 
#
# 1 104.1198 25.9909 50.1015 0.0000 -11.7033 0.0000
# 2 25.9909 94.7120 43.4434 0.0000 3.0580 0.0000
# 3 50.1015 43.4434 128.3301 0.0000 0.5012 0.0000
# 4 0.0000 0.0000 0.0000 25.3618 0.0000 -3.0051
# 5 -11.7033 3.0580 0.5012 0.0000 39.0889 0.0000
# 6 0.0000 0.0000 0.0000 -3.0051 0.0000 27.2581
#
#
#
# Elastic Compliance Matrix: (Units=1/GPa)
#
#
# Indices 1 2 3 4 5 6 
#
# 1 0.012546 -0.001558 -0.004386 0.000000 0.003934 0.000000
# 2 -0.001558 0.012726 -0.003694 0.000000 -0.001415 0.000000
# 3 -0.004386 -0.003694 0.010760 0.000000 -0.001162 0.000000
# 4 0.000000 0.000000 0.000000 0.039951 0.000000 0.004405
# 5 0.003934 -0.001415 -0.001162 0.000000 0.026886 0.000000
# 6 0.000000 0.000000 0.000000 0.004405 0.000000 0.037172
#
#
# Mechanical properties :
#
#
# Convention : Reuss Voigt Hill
#
# Bulk Modulus (GPa) = 59.68301 62.91484 61.29892
# Shear Modulus (GPa) = 30.32076 32.18349 31.25212
#
# Velocity S-wave (km/s) = 3.83339 3.94938 3.89182
# Velocity P-wave (km/s) = 6.96551 7.16159 7.06423
#
# Compressibility (1/GPa) = 0.01675519
#
# Stress axis : x y z
#
# Youngs Moduli (GPa) = 79.70667 78.57846 92.93744
#
# Poissons Ratio (x) = 0.12243 0.40762
# Poissons Ratio (y) = 0.12419 0.34334
# Poissons Ratio (z) = 0.34959 0.29030
#
# Static dielectric constant tensor:
#      x y z
#    x 3.677720 0.000000 0.005880 
#    y 0.000000 3.912700 0.000000 
#    z 0.005880 0.000000 3.911500 
# 
# 
# High freq. dielectric constant tensor:
#      x y z
#    x 1.794510 0.000000 -0.005580 
#    y 0.000000 1.816840 0.000000 
#    z -0.005580 0.000000 1.816160 
# 
# From -- ./inp_files/88351.got.cif
#   From: 2010.06.25/outbox.cif.g09.slc.cpg/sg13_45_cif.got.tgz:88351.got - 2010.06.28 04:50:58.
