data_PCOD8121041
_publ_section_title
;
Structure prediction by ZEFSAII (Michael W. Deem and Ramdas Pophale) SiO2 
 PCOD8121041
Probable space group: P 2/C
;
_chemical_formula_sum "Si O2"
_cell_formula_units_Z 24
_cell_length_a 16.697640
_cell_length_b 12.398849
_cell_length_c 12.092684
_cell_angle_alpha 90.000000
_cell_angle_beta 151.876672
_cell_angle_gamma 90.000000
_cell_volume 1180.108746
_symmetry_space_group_name_H-M "P 2/C"
_symmetry_group_IT_number 13
_symmetry_cell_setting 'monoclinic'
loop_
_space_group_symop_operation_xyz
x,y,z
-x,y,1/2-z
-x,-y,-z
x,-y,1/2+z
loop_
_atom_site_type_symbol
_atom_site_label
_atom_site_fract_x
_atom_site_fract_y
_atom_site_fract_z
Si Si1 0.314597 0.857200 0.069502
Si Si2 0.000000 0.778967 0.250000
Si Si3 0.664291 0.344441 0.013671
Si Si4 0.869728 0.949497 0.257031
Si Si5 0.346943 0.305153 0.244837
Si Si6 0.419064 0.112643 0.933358
Si Si7 0.500000 0.546198 0.750000
O O1 0.500000 0.893239 0.250000
O O2 0.326387 0.833557 0.214961
O O3 0.217341 0.753176 0.888725
O O4 0.191228 0.959345 0.902698
O O5 0.034833 0.852634 0.187066
O O6 0.157305 0.699954 0.466558
O O7 0.655966 0.350614 0.134781
O O8 0.500000 0.293357 0.750000
O O9 0.668189 0.469130 0.976143
O O10 0.710761 0.897409 0.125294
O O11 0.000000 0.000000 0.500000
O O12 0.426430 0.186815 0.337454
O O13 0.462961 0.383892 0.312649
O O14 0.500000 0.000000 0.000000
#
# Coordination Sequence:
#
# PCOD8121041 Si02
#       7
#     4   2   4   4   4   4   2
#     4  11  19  36  60  90 119 158 210 253 317 372
#     4  12  28  40  56  92 140 176 204 264 328 390
#     4   9  19  38  65  93 115 154 210 277 321 376
#     4  12  24  38  57  90 132 172 210 259 319 383
#     4  12  22  42  62  93 128 166 215 266 325 386
#     4  12  21  35  63  87 119 165 214 255 304 386
#     4  10  22  38  70  98 112 158 224 278 318 378
#
# _framework density 20.337109000000002
#
# number of rings (size 3 to 8) (size 9 to 14) (size 15 to 20)
#    0.500    0.333    5.000    5.500    0.000    0.000 
#    0.000    0.833    0.000    5.000    0.000    0.000 
#    0.000    0.000    0.000    0.000    0.000    0.000 
#
# Total GULP energy -297349.874203 kJ/mol
# GULP energy per Si atom -12389.578092 kJ/mol
# Density = 2.029082 g / cm^3
# Si number density = 20.337109 Si / 1000 Ang^3
#
#
#
# Elastic Constant Matrix: (Units=GPa)
#
#
# Indices 1 2 3 4 5 6 
#
# 1 81.7161 26.6497 14.2283 0.0000 -20.7374 0.0000
# 2 26.6497 108.7738 18.0133 0.0000 -8.0340 0.0000
# 3 14.2283 18.0133 86.9937 0.0000 -11.1899 0.0000
# 4 0.0000 0.0000 0.0000 21.7028 0.0000 -11.5313
# 5 -20.7374 -8.0340 -11.1899 0.0000 34.7407 0.0000
# 6 0.0000 0.0000 0.0000 -11.5313 0.0000 25.1321
#
#
#
# Elastic Compliance Matrix: (Units=1/GPa)
#
#
# Indices 1 2 3 4 5 6 
#
# 1 0.015472 -0.003042 -0.000838 0.000000 0.008262 0.000000
# 2 -0.003042 0.010208 -0.001613 0.000000 0.000025 0.000000
# 3 -0.000838 -0.001613 0.012366 0.000000 0.003110 0.000000
# 4 0.000000 0.000000 0.000000 0.060932 0.000000 0.027957
# 5 0.008262 0.000025 0.003110 0.000000 0.034724 0.000000
# 6 0.000000 0.000000 0.000000 0.027957 0.000000 0.052617
#
#
# Mechanical properties :
#
#
# Convention : Reuss Voigt Hill
#
# Bulk Modulus (GPa) = 36.95377 43.91844 40.43611
# Shear Modulus (GPa) = 24.23373 30.88794 27.56084
#
# Velocity S-wave (km/s) = 3.45570 3.90140 3.68530
# Velocity P-wave (km/s) = 5.84231 6.47585 6.16722
#
# Compressibility (1/GPa) = 0.02706084
#
# Stress axis : x y z
#
# Youngs Moduli (GPa) = 64.63239 97.96648 80.86600
#
# Poissons Ratio (x) = 0.29798 0.06776
# Poissons Ratio (y) = 0.19659 0.13043
# Poissons Ratio (z) = 0.05416 0.15801
#
# Static dielectric constant tensor:
#      x y z
#    x 3.944620 0.000000 -0.237090 
#    y 0.000000 3.771310 0.000000 
#    z -0.237090 0.000000 3.723550 
# 
# 
# High freq. dielectric constant tensor:
#      x y z
#    x 1.785370 0.000000 -0.029180 
#    y 0.000000 1.801430 0.000000 
#    z -0.029180 0.000000 1.783370 
# 
# From -- ./inp_files/39259.got.cif
#   From: 2010.06.25/outbox.cif.g09.slc.cpg/sg13_20_cif.got.tgz:39259.got - 2010.06.28 04:50:58.
