data_PCOD8121909
_publ_section_title
;
Structure prediction by ZEFSAII (Michael W. Deem and Ramdas Pophale) SiO2 
 PCOD8121909
Probable space group: P 2/C
;
_chemical_formula_sum "Si O2"
_cell_formula_units_Z 20
_cell_length_a 15.818373
_cell_length_b 8.054563
_cell_length_c 22.517453
_cell_angle_alpha 90.000000
_cell_angle_beta 162.423138
_cell_angle_gamma 90.000000
_cell_volume 866.379840
_symmetry_space_group_name_H-M "P 2/C"
_symmetry_group_IT_number 13
_symmetry_cell_setting 'monoclinic'
loop_
_space_group_symop_operation_xyz
x,y,z
-x,y,1/2-z
-x,-y,-z
x,-y,1/2+z
loop_
_atom_site_type_symbol
_atom_site_label
_atom_site_fract_x
_atom_site_fract_y
_atom_site_fract_z
Si Si1 0.752004 0.602131 0.962987
Si Si2 0.052762 0.311250 0.555329
Si Si3 0.132806 0.299189 0.256532
Si Si4 0.621210 0.174653 0.962610
Si Si5 0.418942 0.810861 0.834169
O O1 0.500000 0.539940 0.750000
O O2 0.639538 0.708874 0.942735
O O3 0.958093 0.713801 0.060281
O O4 0.942826 0.460604 0.119274
O O5 0.376536 0.267825 0.762898
O O6 0.000000 0.500000 0.500000
O O7 0.878058 0.182865 0.398268
O O8 0.307262 0.297292 0.434475
O O9 0.361787 0.277305 0.358645
O O10 0.894688 0.154332 0.103288
O O11 0.528182 0.993722 0.921503
#
# Coordination Sequence:
#
# PCOD8121909 Si02
#       5
#     4   4   4   4   4
#     4  10  23  44  72 106 134 179 239 285 344 414
#     4  11  22  46  71 101 136 183 235 285 340 414
#     4  11  25  46  69 100 141 182 226 287 347 415
#     4  11  26  44  65 104 143 179 232 282 354 408
#     4  11  24  45  73 100 138 181 229 290 347 412
#
# _framework density 23.084565000000001
#
# number of rings (size 3 to 8) (size 9 to 14) (size 15 to 20)
#    0.000    1.200    2.000    3.600    2.800    0.800 
#    7.200    0.000    0.000    0.000    0.000    0.000 
#    0.000    0.000    0.000    0.000    0.000    0.000 
#
# Total GULP energy -247870.075235 kJ/mol
# GULP energy per Si atom -12393.503762 kJ/mol
# Density = 2.303202 g / cm^3
# Si number density = 23.084565 Si / 1000 Ang^3
#
#
#
# Elastic Constant Matrix: (Units=GPa)
#
#
# Indices 1 2 3 4 5 6 
#
# 1 133.2729 14.8588 0.7087 0.0000 7.6445 0.0000
# 2 14.8588 74.0090 22.1015 0.0000 -16.2705 0.0000
# 3 0.7087 22.1015 66.8747 0.0000 -4.2252 0.0000
# 4 0.0000 0.0000 0.0000 33.8481 0.0000 4.7500
# 5 7.6445 -16.2705 -4.2252 0.0000 32.9627 0.0000
# 6 0.0000 0.0000 0.0000 4.7500 0.0000 28.6673
#
#
#
# Elastic Compliance Matrix: (Units=1/GPa)
#
#
# Indices 1 2 3 4 5 6 
#
# 1 0.007938 -0.002400 0.000522 0.000000 -0.002959 0.000000
# 2 -0.002400 0.017410 -0.005192 0.000000 0.008484 0.000000
# 3 0.000522 -0.005192 0.016629 0.000000 -0.000552 0.000000
# 4 0.000000 0.000000 0.000000 0.030247 0.000000 -0.005012
# 5 -0.002959 0.008484 -0.000552 0.000000 0.035141 0.000000
# 6 0.000000 0.000000 0.000000 -0.005012 0.000000 0.035713
#
#
# Mechanical properties :
#
#
# Convention : Reuss Voigt Hill
#
# Bulk Modulus (GPa) = 35.92460 38.83273 37.37867
# Shear Modulus (GPa) = 30.03067 34.86146 32.44606
#
# Velocity S-wave (km/s) = 3.61071 3.89030 3.75311
# Velocity P-wave (km/s) = 5.74273 6.08586 5.91678
#
# Compressibility (1/GPa) = 0.02783608
#
# Stress axis : x y z
#
# Youngs Moduli (GPa) = 125.97757 57.43968 60.13631
#
# Poissons Ratio (x) = 0.13786 -0.03140
# Poissons Ratio (y) = 0.30235 0.31224
# Poissons Ratio (z) = -0.06578 0.29824
#
# Static dielectric constant tensor:
#      x y z
#    x 4.619750 0.000000 0.336740 
#    y 0.000000 3.811960 0.000000 
#    z 0.336740 0.000000 4.411580 
# 
# 
# High freq. dielectric constant tensor:
#      x y z
#    x 1.928250 0.000000 0.013300 
#    y 0.000000 1.885890 0.000000 
#    z 0.013300 0.000000 1.924340 
# 
# From -- ./inp_files/79893.got.cif
#   From: 2010.06.25/outbox.cif.g09.slc.cpg/sg13_40_cif.got.tgz:79893.got - 2010.06.28 04:50:58.
