data_PCOD8121317
_publ_section_title
;
Structure prediction by ZEFSAII (Michael W. Deem and Ramdas Pophale) SiO2 
 PCOD8121317
Probable space group: P 2/C
;
_chemical_formula_sum "Si O2"
_cell_formula_units_Z 20
_cell_length_a 14.037651
_cell_length_b 4.943518
_cell_length_c 21.459259
_cell_angle_alpha 90.000000
_cell_angle_beta 33.967169
_cell_angle_gamma 90.000000
_cell_volume 832.027658
_symmetry_space_group_name_H-M "P 2/C"
_symmetry_group_IT_number 13
_symmetry_cell_setting 'monoclinic'
loop_
_space_group_symop_operation_xyz
x,y,z
-x,y,1/2-z
-x,-y,-z
x,-y,1/2+z
loop_
_atom_site_type_symbol
_atom_site_label
_atom_site_fract_x
_atom_site_fract_y
_atom_site_fract_z
Si Si1 0.500000 0.196656 0.250000
Si Si2 0.714643 0.011889 0.478555
Si Si3 0.136808 0.550957 0.802689
Si Si4 0.221521 0.513877 0.976077
Si Si5 0.000000 0.291455 0.250000
Si Si6 0.358575 0.949353 0.203267
O O1 0.658032 0.389927 0.145286
O O2 0.434697 0.007178 0.230108
O O3 0.732772 0.209572 0.528635
O O4 0.839593 0.101471 0.355555
O O5 0.513134 0.019346 0.569280
O O6 0.757912 0.707641 0.475032
O O7 0.063232 0.519432 0.772349
O O8 0.293683 0.357432 0.733743
O O9 0.199816 0.858193 0.774780
O O10 0.978830 0.488132 0.935145
#
# Coordination Sequence:
#
# PCOD8121317 Si02
#       6
#     2   4   4   4   2   4
#     4  10  24  44  68  90 134 176 202 270 328 358
#     4  10  22  41  65  94 128 169 216 259 314 385
#     4  11  24  41  65  98 127 164 219 261 312 388
#     4  10  22  41  65  94 128 169 216 259 314 385
#     4  10  24  44  68  90 134 176 202 270 328 358
#     4  11  24  41  65  98 127 164 219 261 312 388
#
# _framework density 24.037662000000001
#
# number of rings (size 3 to 8) (size 9 to 14) (size 15 to 20)
#    0.000    1.600    0.000    4.800    0.000   17.600 
#    0.000    0.000    0.000    0.000    0.000    0.000 
#    0.000    0.000    0.000    0.000    0.000    0.000 
#
# Total GULP energy -247966.745156 kJ/mol
# GULP energy per Si atom -12398.337258 kJ/mol
# Density = 2.398295 g / cm^3
# Si number density = 24.037662 Si / 1000 Ang^3
#
#
#
# Elastic Constant Matrix: (Units=GPa)
#
#
# Indices 1 2 3 4 5 6 
#
# 1 78.0532 10.6944 32.8214 0.0000 -3.2627 0.0000
# 2 10.6944 63.6582 16.5514 0.0000 -6.0220 0.0000
# 3 32.8214 16.5514 213.0324 0.0000 -17.8209 0.0000
# 4 0.0000 0.0000 0.0000 44.3123 0.0000 -10.2926
# 5 -3.2627 -6.0220 -17.8209 0.0000 38.5910 0.0000
# 6 0.0000 0.0000 0.0000 -10.2926 0.0000 33.0818
#
#
#
# Elastic Compliance Matrix: (Units=1/GPa)
#
#
# Indices 1 2 3 4 5 6 
#
# 1 0.013902 -0.001818 -0.002003 0.000000 -0.000033 0.000000
# 2 -0.001818 0.016421 -0.000826 0.000000 0.002027 0.000000
# 3 -0.002003 -0.000826 0.005245 0.000000 0.002124 0.000000
# 4 0.000000 0.000000 0.000000 0.024325 0.000000 0.007568
# 5 -0.000033 0.002027 0.002124 0.000000 0.027207 0.000000
# 6 0.000000 0.000000 0.000000 0.007568 0.000000 0.032583
#
#
# Mechanical properties :
#
#
# Convention : Reuss Voigt Hill
#
# Bulk Modulus (GPa) = 38.06233 52.76426 45.41330
# Shear Modulus (GPa) = 36.30179 42.84210 39.57194
#
# Velocity S-wave (km/s) = 3.89035 4.22630 4.06180
# Velocity P-wave (km/s) = 6.00405 6.76859 6.39775
#
# Compressibility (1/GPa) = 0.02627269
#
# Stress axis : x y z
#
# Youngs Moduli (GPa) = 71.93275 60.89817 190.67170
#
# Poissons Ratio (x) = 0.11070 0.38199
# Poissons Ratio (y) = 0.13076 0.15753
# Poissons Ratio (z) = 0.14411 0.05031
#
# Static dielectric constant tensor:
#      x y z
#    x 3.869420 0.000000 -0.239850 
#    y 0.000000 4.104350 0.000000 
#    z -0.239850 0.000000 4.931300 
# 
# 
# High freq. dielectric constant tensor:
#      x y z
#    x 1.918410 0.000000 -0.021050 
#    y 0.000000 1.959080 0.000000 
#    z -0.021050 0.000000 1.984780 
# 
# From -- ./inp_files/58012.got.cif
#   From: 2010.06.25/outbox.cif.g09.slc.cpg/sg13_30_cif.got.tgz:58012.got - 2010.06.28 04:50:58.
