data_PCOD8121092
_publ_section_title
;
Structure prediction by ZEFSAII (Michael W. Deem and Ramdas Pophale) SiO2 
 PCOD8121092
Probable space group: P 2/C
;
_chemical_formula_sum "Si O2"
_cell_formula_units_Z 22
_cell_length_a 6.857986
_cell_length_b 8.398586
_cell_length_c 18.538815
_cell_angle_alpha 90.000000
_cell_angle_beta 77.010777
_cell_angle_gamma 90.000000
_cell_volume 1040.465112
_symmetry_space_group_name_H-M "P 2/C"
_symmetry_group_IT_number 13
_symmetry_cell_setting 'monoclinic'
loop_
_space_group_symop_operation_xyz
x,y,z
-x,y,1/2-z
-x,-y,-z
x,-y,1/2+z
loop_
_atom_site_type_symbol
_atom_site_label
_atom_site_fract_x
_atom_site_fract_y
_atom_site_fract_z
Si Si1 0.769763 0.254712 0.276145
Si Si2 0.198668 0.017739 0.347318
Si Si3 0.000000 0.784217 0.250000
Si Si4 0.220763 0.077627 0.077741
Si Si5 0.617065 0.596023 0.309853
Si Si6 0.534868 0.824486 0.069150
O O1 0.709398 0.164739 0.206640
O O2 0.739534 0.135894 0.344709
O O3 0.629668 0.406295 0.302327
O O4 0.000000 0.309844 0.250000
O O5 0.018280 0.071478 0.415874
O O6 0.099100 0.891338 0.302376
O O7 0.375146 0.945492 0.379327
O O8 0.165314 0.672304 0.200729
O O9 0.326603 0.904607 0.060162
O O10 0.315693 0.198167 0.010831
O O11 0.500000 0.663844 0.250000
O O12 0.498138 0.651375 0.391820
#
# Coordination Sequence:
#
# PCOD8121092 Si02
#       6
#     4   4   2   4   4   4
#     4  10  22  39  63  86 123 157 198 247 304 351
#     4  11  20  40  65  88 117 160 203 253 289 356
#     4  12  20  38  64  88 116 150 206 256 292 340
#     4  10  22  40  59  91 123 159 198 249 300 359
#     4  12  24  37  60  91 120 157 200 251 301 357
#     4  11  23  37  63  90 122 158 202 246 304 356
#
# _framework density 21.144390999999999
#
# number of rings (size 3 to 8) (size 9 to 14) (size 15 to 20)
#    0.000    1.091    7.273    0.545    2.545    0.727 
#    0.000    0.000    0.000    3.273    0.000    0.000 
#    0.000    0.000    0.000    0.000    0.000    0.000 
#
# Total GULP energy -272787.141699 kJ/mol
# GULP energy per Si atom -12399.415532 kJ/mol
# Density = 2.109627 g / cm^3
# Si number density = 21.144391 Si / 1000 Ang^3
#
#
#
# Elastic Constant Matrix: (Units=GPa)
#
#
# Indices 1 2 3 4 5 6 
#
# 1 49.7236 16.4823 8.4388 0.0000 -6.6004 0.0000
# 2 16.4823 78.8854 17.6735 0.0000 -16.5251 0.0000
# 3 8.4388 17.6735 82.1615 0.0000 -19.6047 0.0000
# 4 0.0000 0.0000 0.0000 23.5289 0.0000 -11.7773
# 5 -6.6004 -16.5251 -19.6047 0.0000 30.9641 0.0000
# 6 0.0000 0.0000 0.0000 -11.7773 0.0000 26.4289
#
#
#
# Elastic Compliance Matrix: (Units=1/GPa)
#
#
# Indices 1 2 3 4 5 6 
#
# 1 0.021836 -0.003944 -0.000926 0.000000 0.001964 0.000000
# 2 -0.003944 0.015138 -0.001324 0.000000 0.006400 0.000000
# 3 -0.000926 -0.001324 0.014531 0.000000 0.008296 0.000000
# 4 0.000000 0.000000 0.000000 0.054702 0.000000 0.024377
# 5 0.001964 0.006400 0.008296 0.000000 0.041382 0.000000
# 6 0.000000 0.000000 0.000000 0.024377 0.000000 0.048700
#
#
# Mechanical properties :
#
#
# Convention : Reuss Voigt Hill
#
# Bulk Modulus (GPa) = 25.56411 32.88441 29.22426
# Shear Modulus (GPa) = 22.55139 27.39612 24.97375
#
# Velocity S-wave (km/s) = 3.26934 3.60344 3.44045
# Velocity P-wave (km/s) = 5.13497 5.73578 5.44367
#
# Compressibility (1/GPa) = 0.03911733
#
# Stress axis : x y z
#
# Youngs Moduli (GPa) = 45.79551 66.05931 68.82043
#
# Poissons Ratio (x) = 0.26051 0.06372
# Poissons Ratio (y) = 0.18060 0.09113
# Poissons Ratio (z) = 0.04240 0.08747
#
# Static dielectric constant tensor:
#      x y z
#    x 4.254110 0.000000 -0.165630 
#    y 0.000000 3.579200 0.000000 
#    z -0.165630 0.000000 3.975970 
# 
# 
# High freq. dielectric constant tensor:
#      x y z
#    x 1.838520 0.000000 -0.013460 
#    y 0.000000 1.802190 0.000000 
#    z -0.013460 0.000000 1.828690 
# 
# From -- ./inp_files/63304.got.cif
#   From: 2010.06.25/outbox.cif.g09.slc.cpg/sg13_32_cif.got.tgz:63304.got - 2010.06.28 04:50:58.
