data_PCOD8121573
_publ_section_title
;
Structure prediction by ZEFSAII (Michael W. Deem and Ramdas Pophale) SiO2 
 PCOD8121573
Probable space group: P 2/C
;
_chemical_formula_sum "Si O2"
_cell_formula_units_Z 20
_cell_length_a 12.163201
_cell_length_b 10.787286
_cell_length_c 12.545458
_cell_angle_alpha 90.000000
_cell_angle_beta 33.970312
_cell_angle_gamma 90.000000
_cell_volume 919.759834
_symmetry_space_group_name_H-M "P 2/C"
_symmetry_group_IT_number 13
_symmetry_cell_setting 'monoclinic'
loop_
_space_group_symop_operation_xyz
x,y,z
-x,y,1/2-z
-x,-y,-z
x,-y,1/2+z
loop_
_atom_site_type_symbol
_atom_site_label
_atom_site_fract_x
_atom_site_fract_y
_atom_site_fract_z
Si Si1 0.277325 0.723419 0.181015
Si Si2 0.687519 0.234708 0.395543
Si Si3 0.500000 0.874061 0.250000
Si Si4 0.060786 0.603516 0.534329
Si Si5 0.000000 0.572241 0.250000
Si Si6 0.772848 0.984439 0.207017
O O1 0.249884 0.870609 0.192046
O O2 0.218097 0.692088 0.351787
O O3 0.146500 0.656329 0.199195
O O4 0.507268 0.689097 0.985254
O O5 0.637074 0.210538 0.561153
O O6 0.881694 0.314196 0.223242
O O7 0.695945 0.104230 0.329169
O O8 0.645167 0.961137 0.202742
O O9 0.000000 0.500000 0.500000
O O10 0.140315 0.519153 0.567737
O O11 0.000000 0.000000 0.000000
#
# Coordination Sequence:
#
# PCOD8121573 Si02
#       6
#     4   4   2   4   2   4
#     4  10  22  44  65  99 134 174 225 282 342 405
#     4  11  24  44  69 101 140 172 229 285 336 421
#     4  10  24  40  68 108 132 186 220 274 370 406
#     4  10  23  43  63  96 133 179 232 272 326 400
#     4  10  24  40  68  92 132 184 226 276 334 402
#     4  11  23  43  71 102 141 173 221 291 345 418
#
# _framework density 21.744807000000002
#
# number of rings (size 3 to 8) (size 9 to 14) (size 15 to 20)
#    0.000    1.600    2.000    2.400    5.600    7.200 
#    0.000    4.000    0.000    0.000    0.000    0.000 
#    0.000    0.000    0.000    0.000    0.000    0.000 
#
# Total GULP energy -247806.793862 kJ/mol
# GULP energy per Si atom -12390.339693 kJ/mol
# Density = 2.169531 g / cm^3
# Si number density = 21.744807 Si / 1000 Ang^3
#
#
#
# Elastic Constant Matrix: (Units=GPa)
#
#
# Indices 1 2 3 4 5 6 
#
# 1 115.2924 58.4210 38.9640 0.0000 8.7103 0.0000
# 2 58.4210 115.6220 51.0514 0.0000 5.9084 0.0000
# 3 38.9640 51.0514 124.5020 0.0000 -2.9816 0.0000
# 4 0.0000 0.0000 0.0000 10.7463 0.0000 23.1085
# 5 8.7103 5.9084 -2.9816 0.0000 37.5994 0.0000
# 6 0.0000 0.0000 0.0000 23.1085 0.0000 11.2104
#
#
#
# Elastic Compliance Matrix: (Units=1/GPa)
#
#
# Indices 1 2 3 4 5 6 
#
# 1 0.012056 -0.005246 -0.001672 0.000000 -0.002101 0.000000
# 2 -0.005246 0.012997 -0.003714 0.000000 -0.001122 0.000000
# 3 -0.001672 -0.003714 0.010121 0.000000 0.001774 0.000000
# 4 0.000000 0.000000 0.000000 -0.027109 0.000000 0.055881
# 5 -0.002101 -0.001122 0.001774 0.000000 0.027400 0.000000
# 6 0.000000 0.000000 0.000000 0.055881 0.000000 -0.025987
#
#
# Mechanical properties :
#
#
# Convention : Reuss Voigt Hill
#
# Bulk Modulus (GPa) = 71.89833 72.47656 72.18745
# Shear Modulus (GPa) = 141.32969 25.70990 83.51980
#
# Velocity S-wave (km/s) = 8.07067 3.44226 6.20423
# Velocity P-wave (km/s) = 10.95373 7.01439 9.19744
#
# Compressibility (1/GPa) = 0.01390853
#
# Stress axis : x y z
#
# Youngs Moduli (GPa) = 82.94924 76.94231 98.80531
#
# Poissons Ratio (x) = 0.40361 0.16523
# Poissons Ratio (y) = 0.43512 0.36701
# Poissons Ratio (z) = 0.13871 0.28580
#
# Static dielectric constant tensor:
#      x y z
#    x 3.981140 0.000000 0.251750 
#    y 0.000000 4.226960 0.000000 
#    z 0.251750 0.000000 4.552060 
# 
# 
# High freq. dielectric constant tensor:
#      x y z
#    x 1.852560 0.000000 0.004420 
#    y 0.000000 1.869960 0.000000 
#    z 0.004420 0.000000 1.864160 
# 
# From -- ./inp_files/33650.got.cif
#   From: 2010.06.25/outbox.cif.g09.slc.cpg/sg13_17_cif.got.tgz:33650.got - 2010.06.28 04:50:58.
