data_PCOD8121258
_publ_section_title
;
Structure prediction by ZEFSAII (Michael W. Deem and Ramdas Pophale) SiO2 
 PCOD8121258
Probable space group: P 2/C
;
_chemical_formula_sum "Si O2"
_cell_formula_units_Z 16
_cell_length_a 11.347034
_cell_length_b 10.877988
_cell_length_c 7.966559
_cell_angle_alpha 90.000000
_cell_angle_beta 140.694139
_cell_angle_gamma 90.000000
_cell_volume 622.903720
_symmetry_space_group_name_H-M "P 2/C"
_symmetry_group_IT_number 13
_symmetry_cell_setting 'monoclinic'
loop_
_space_group_symop_operation_xyz
x,y,z
-x,y,1/2-z
-x,-y,-z
x,-y,1/2+z
loop_
_atom_site_type_symbol
_atom_site_label
_atom_site_fract_x
_atom_site_fract_y
_atom_site_fract_z
Si Si1 0.930504 0.130137 0.486855
Si Si2 0.815084 0.316672 0.898504
Si Si3 0.310391 0.542691 0.941826
Si Si4 0.556564 0.243692 0.120354
O O1 0.007163 0.233347 0.444501
O O2 0.000000 0.157992 0.750000
O O3 0.705685 0.138018 0.236147
O O4 0.000000 0.000000 0.500000
O O5 0.787840 0.416668 0.720287
O O6 0.630333 0.229067 0.697606
O O7 0.834938 0.382464 0.101423
O O8 0.355359 0.621668 0.823459
O O9 0.500000 0.516211 0.250000
O O10 0.500000 0.232862 0.250000
#
# Coordination Sequence:
#
# PCOD8121258 Si02
#       4
#     4   4   4   4
#     4  12  30  49  72  99 140 187 247 288 332 413
#     4  11  23  46  72 108 144 182 227 287 355 415
#     4  10  22  40  75 108 148 176 228 281 359 432
#     4  11  22  46  72 102 141 183 224 289 355 407
#
# _framework density 25.686154999999999
#
# number of rings (size 3 to 8) (size 9 to 14) (size 15 to 20)
#    0.000    1.000    2.500    5.250    3.500    2.000 
#    0.000    0.000    0.000    0.000    0.000    0.000 
#    0.000    0.000    0.000    0.000    0.000    0.000 
#
# Total GULP energy -198428.699982 kJ/mol
# GULP energy per Si atom -12401.793749 kJ/mol
# Density = 2.562769 g / cm^3
# Si number density = 25.686155 Si / 1000 Ang^3
#
#
#
# Elastic Constant Matrix: (Units=GPa)
#
#
# Indices 1 2 3 4 5 6 
#
# 1 194.6272 83.0946 48.9554 0.0000 16.3325 0.0000
# 2 83.0946 129.3823 39.1733 0.0000 5.5404 0.0000
# 3 48.9554 39.1733 64.0410 0.0000 14.1583 0.0000
# 4 0.0000 0.0000 0.0000 28.4377 0.0000 2.3820
# 5 16.3325 5.5404 14.1583 0.0000 40.0859 0.0000
# 6 0.0000 0.0000 0.0000 2.3820 0.0000 37.0237
#
#
#
# Elastic Compliance Matrix: (Units=1/GPa)
#
#
# Indices 1 2 3 4 5 6 
#
# 1 0.007749 -0.003951 -0.003178 0.000000 -0.001489 0.000000
# 2 -0.003951 0.011524 -0.004374 0.000000 0.001562 0.000000
# 3 -0.003178 -0.004374 0.022019 0.000000 -0.005878 0.000000
# 4 0.000000 0.000000 0.000000 0.035355 0.000000 -0.002275
# 5 -0.001489 0.001562 -0.005878 0.000000 0.027413 0.000000
# 6 0.000000 0.000000 0.000000 -0.002275 0.000000 0.027156
#
#
# Mechanical properties :
#
#
# Convention : Reuss Voigt Hill
#
# Bulk Modulus (GPa) = 54.68483 81.16633 67.92558
# Shear Modulus (GPa) = 31.18796 35.56461 33.37628
#
# Velocity S-wave (km/s) = 3.48831 3.72504 3.60861
# Velocity P-wave (km/s) = 6.12864 7.08301 6.62304
#
# Compressibility (1/GPa) = 0.01828661
#
# Stress axis : x y z
#
# Youngs Moduli (GPa) = 129.04740 86.77586 45.41442
#
# Poissons Ratio (x) = 0.34284 0.14432
# Poissons Ratio (y) = 0.50985 0.19865
# Poissons Ratio (z) = 0.41009 0.37958
#
# Static dielectric constant tensor:
#      x y z
#    x 5.138590 0.000000 0.172920 
#    y 0.000000 4.358150 0.000000 
#    z 0.172920 0.000000 4.840820 
# 
# 
# High freq. dielectric constant tensor:
#      x y z
#    x 2.054880 0.000000 0.003890 
#    y 0.000000 1.995140 0.000000 
#    z 0.003890 0.000000 2.032480 
# 
# From -- ./inp_files/15700.got.cif
#   From: 2010.06.25/outbox.cif.g09.slc.cpg/sg13_8_cif.got.tgz:15700.got - 2010.06.28 04:50:58.
