data_PCOD8121583
_publ_section_title
;
Structure prediction by ZEFSAII (Michael W. Deem and Ramdas Pophale) SiO2 
 PCOD8121583
Probable space group: P 2/C
;
_chemical_formula_sum "Si O2"
_cell_formula_units_Z 28
_cell_length_a 26.933984
_cell_length_b 11.336900
_cell_length_c 21.365101
_cell_angle_alpha 90.000000
_cell_angle_beta 168.308735
_cell_angle_gamma 90.000000
_cell_volume 1321.967466
_symmetry_space_group_name_H-M "P 2/C"
_symmetry_group_IT_number 13
_symmetry_cell_setting 'monoclinic'
loop_
_space_group_symop_operation_xyz
x,y,z
-x,y,1/2-z
-x,-y,-z
x,-y,1/2+z
loop_
_atom_site_type_symbol
_atom_site_label
_atom_site_fract_x
_atom_site_fract_y
_atom_site_fract_z
Si Si1 0.500000 0.356644 0.250000
Si Si2 0.998463 0.571189 0.318867
Si Si3 0.575989 0.156073 0.250281
Si Si4 0.977218 0.978101 0.139263
Si Si5 0.387579 0.829219 0.261900
Si Si6 0.000000 0.651925 0.750000
Si Si7 0.202438 0.037754 0.298825
Si Si8 0.332991 0.772600 0.773862
O O1 0.750140 0.431720 0.554450
O O2 0.530864 0.280444 0.226266
O O3 0.050308 0.431479 0.372913
O O4 0.000000 0.630249 0.250000
O O5 0.206107 0.643360 0.613088
O O6 0.541269 0.183817 0.134605
O O7 0.836316 0.092515 0.585087
O O8 0.363115 0.075339 0.013447
O O9 0.095937 0.071109 0.236350
O O10 0.774390 0.051650 0.928798
O O11 0.861459 0.876570 0.951662
O O12 0.630121 0.857524 0.521449
O O13 0.462001 0.770244 0.419502
O O14 0.236279 0.735393 0.034104
O O15 0.000000 0.000000 0.000000
#
# Coordination Sequence:
#
# PCOD8121583 Si02
#       8
#     2   4   4   4   4   2   4   4
#     4  12  20  38  70  96 120 168 216 300 324 382
#     4  10  22  44  67  92 123 164 235 285 323 383
#     4  12  21  35  66  97 130 173 216 259 339 396
#     4  12  22  40  63 102 136 174 214 262 335 414
#     4  12  26  43  66  95 145 179 213 273 339 410
#     4  10  26  52  66  90 126 188 232 274 342 398
#     4  12  23  37  57  97 138 174 211 254 325 408
#     4  12  21  40  68 100 131 169 220 284 328 391
#
# _framework density 21.180551000000001
#
# number of rings (size 3 to 8) (size 9 to 14) (size 15 to 20)
#    0.429    0.000    7.143    2.571    0.000    0.571 
#    2.571    0.000    0.000    1.714    0.000    0.000 
#    0.000    0.000    0.000    0.000    0.000    0.000 
#
# Total GULP energy -346900.674904 kJ/mol
# GULP energy per Si atom -12389.309818 kJ/mol
# Density = 2.113234 g / cm^3
# Si number density = 21.180551 Si / 1000 Ang^3
#
#
#
# Elastic Constant Matrix: (Units=GPa)
#
#
# Indices 1 2 3 4 5 6 
#
# 1 89.6479 16.8782 11.9969 0.0000 18.9277 0.0000
# 2 16.8782 106.7355 39.5194 0.0000 -4.6151 0.0000
# 3 11.9969 39.5194 79.6345 0.0000 8.8032 0.0000
# 4 0.0000 0.0000 0.0000 23.6109 0.0000 -3.2158
# 5 18.9277 -4.6151 8.8032 0.0000 36.7468 0.0000
# 6 0.0000 0.0000 0.0000 -3.2158 0.0000 18.4017
#
#
#
# Elastic Compliance Matrix: (Units=1/GPa)
#
#
# Indices 1 2 3 4 5 6 
#
# 1 0.013088 -0.002366 -0.000020 0.000000 -0.007034 0.000000
# 2 -0.002366 0.012211 -0.006171 0.000000 0.004231 0.000000
# 3 -0.000020 -0.006171 0.016135 0.000000 -0.004630 0.000000
# 4 0.000000 0.000000 0.000000 0.043386 0.000000 0.007582
# 5 -0.007034 0.004231 -0.004630 0.000000 0.032477 0.000000
# 6 0.000000 0.000000 0.000000 0.007582 0.000000 0.055668
#
#
# Mechanical properties :
#
#
# Convention : Reuss Voigt Hill
#
# Bulk Modulus (GPa) = 41.11984 45.86742 43.49363
# Shear Modulus (GPa) = 25.22895 29.59344 27.41120
#
# Velocity S-wave (km/s) = 3.45503 3.74197 3.60136
# Velocity P-wave (km/s) = 5.94747 6.35391 6.15405
#
# Compressibility (1/GPa) = 0.02431916
#
# Stress axis : x y z
#
# Youngs Moduli (GPa) = 76.40569 81.89382 61.97870
#
# Poissons Ratio (x) = 0.19380 0.00123
# Poissons Ratio (y) = 0.18081 0.38247
# Poissons Ratio (z) = 0.00151 0.50537
#
# Static dielectric constant tensor:
#      x y z
#    x 3.893140 0.000000 0.249100 
#    y 0.000000 3.634460 0.000000 
#    z 0.249100 0.000000 3.697010 
# 
# 
# High freq. dielectric constant tensor:
#      x y z
#    x 1.833000 0.000000 0.012680 
#    y 0.000000 1.806720 0.000000 
#    z 0.012680 0.000000 1.831340 
# 
# From -- ./inp_files/89710.got.cif
#   From: 2010.06.25/outbox.cif.g09.slc.cpg/sg13_45_cif.got.tgz:89710.got - 2010.06.28 04:50:58.
