data_PCOD8121578
_publ_section_title
;
Structure prediction by ZEFSAII (Michael W. Deem and Ramdas Pophale) SiO2 
 PCOD8121578
Probable space group: P 2/C
;
_chemical_formula_sum "Si O2"
_cell_formula_units_Z 24
_cell_length_a 12.148913
_cell_length_b 11.893050
_cell_length_c 7.554833
_cell_angle_alpha 90.000000
_cell_angle_beta 67.878205
_cell_angle_gamma 90.000000
_cell_volume 1011.223749
_symmetry_space_group_name_H-M "P 2/C"
_symmetry_group_IT_number 13
_symmetry_cell_setting 'monoclinic'
loop_
_space_group_symop_operation_xyz
x,y,z
-x,y,1/2-z
-x,-y,-z
x,-y,1/2+z
loop_
_atom_site_type_symbol
_atom_site_label
_atom_site_fract_x
_atom_site_fract_y
_atom_site_fract_z
Si Si1 0.366898 0.163378 0.783629
Si Si2 0.095978 0.218565 0.542361
Si Si3 0.255528 0.371703 0.030419
Si Si4 0.301286 0.380877 0.400748
Si Si5 0.314309 0.922024 0.925340
Si Si6 0.000000 0.309807 0.250000
Si Si7 0.500000 0.766514 0.750000
O O1 0.500000 0.199228 0.750000
O O2 0.356906 0.129285 0.586253
O O3 0.327014 0.055137 0.921214
O O4 0.282569 0.268635 0.882321
O O5 0.177861 0.326847 0.544820
O O6 0.177259 0.107703 0.473947
O O7 0.029421 0.230903 0.397487
O O8 0.000000 0.198589 0.750000
O O9 0.315318 0.350744 0.183867
O O10 0.113266 0.387482 0.135994
O O11 0.305931 0.486342 0.918999
O O12 0.417305 0.319412 0.419838
O O13 0.400528 0.855343 0.730663
#
# Coordination Sequence:
#
# PCOD8121578 Si02
#       7
#     4   4   4   4   4   2   2
#     4  12  26  44  73 101 140 180 231 278 346 418
#     4  10  23  45  71 101 132 188 234 289 345 408
#     4  11  26  43  66 104 132 184 226 280 342 411
#     4  10  25  40  70  96 144 173 228 282 342 409
#     4  11  25  44  72  99 138 182 227 288 343 409
#     4  10  24  44  72  94 144 174 242 284 340 410
#     4  10  22  44  66  98 136 176 224 280 344 400
#
# _framework density 23.733619999999998
#
# number of rings (size 3 to 8) (size 9 to 14) (size 15 to 20)
#    0.000    1.333    0.833    2.500   16.333    2.000 
#    1.500    1.667    0.000    0.000    0.000    0.000 
#    0.000    0.000    0.000    0.000    0.000    0.000 
#
# Total GULP energy -297342.217325 kJ/mol
# GULP energy per Si atom -12389.259055 kJ/mol
# Density = 2.367960 g / cm^3
# Si number density = 23.733620 Si / 1000 Ang^3
#
#
#
# Elastic Constant Matrix: (Units=GPa)
#
#
# Indices 1 2 3 4 5 6 
#
# 1 101.4355 29.8220 43.2243 0.0000 -22.8309 0.0000
# 2 29.8220 175.6830 36.1450 0.0000 -32.1507 0.0000
# 3 43.2243 36.1450 84.5027 0.0000 -18.6463 0.0000
# 4 0.0000 0.0000 0.0000 28.4783 0.0000 -4.2669
# 5 -22.8309 -32.1507 -18.6463 0.0000 45.3765 0.0000
# 6 0.0000 0.0000 0.0000 -4.2669 0.0000 34.6121
#
#
#
# Elastic Compliance Matrix: (Units=1/GPa)
#
#
# Indices 1 2 3 4 5 6 
#
# 1 0.013341 -0.000324 -0.005779 0.000000 0.004108 0.000000
# 2 -0.000324 0.006854 -0.001903 0.000000 0.003912 0.000000
# 3 -0.005779 -0.001903 0.016127 0.000000 0.002371 0.000000
# 4 0.000000 0.000000 0.000000 0.035775 0.000000 0.004410
# 5 0.004108 0.003912 0.002371 0.000000 0.027851 0.000000
# 6 0.000000 0.000000 0.000000 0.004410 0.000000 0.029435
#
#
# Mechanical properties :
#
#
# Convention : Reuss Voigt Hill
#
# Bulk Modulus (GPa) = 49.23539 64.44489 56.84014
# Shear Modulus (GPa) = 32.85884 38.52203 35.69044
#
# Velocity S-wave (km/s) = 3.72490 4.03314 3.88208
# Velocity P-wave (km/s) = 6.26817 6.99290 6.64043
#
# Compressibility (1/GPa) = 0.02031060
#
# Stress axis : x y z
#
# Youngs Moduli (GPa) = 74.95705 145.89107 62.00695
#
# Poissons Ratio (x) = 0.04724 0.35834
# Poissons Ratio (y) = 0.02427 0.11801
# Poissons Ratio (z) = 0.43318 0.27765
#
# Static dielectric constant tensor:
#      x y z
#    x 4.409210 0.000000 -0.118930 
#    y 0.000000 4.293130 0.000000 
#    z -0.118930 0.000000 4.263860 
# 
# 
# High freq. dielectric constant tensor:
#      x y z
#    x 1.946300 0.000000 -0.013260 
#    y 0.000000 1.944070 0.000000 
#    z -0.013260 0.000000 1.934130 
# 
# From -- ./inp_files/15816.got.cif
#   From: 2010.06.25/outbox.cif.g09.slc.cpg/sg13_8_cif.got.tgz:15816.got - 2010.06.28 04:50:58.
