data_PCOD8121461
_publ_section_title
;
Structure prediction by ZEFSAII (Michael W. Deem and Ramdas Pophale) SiO2 
 PCOD8121461
Probable space group: P 2/C
;
_chemical_formula_sum "Si O2"
_cell_formula_units_Z 22
_cell_length_a 14.447132
_cell_length_b 11.903552
_cell_length_c 10.892719
_cell_angle_alpha 90.000000
_cell_angle_beta 30.524716
_cell_angle_gamma 90.000000
_cell_volume 951.439723
_symmetry_space_group_name_H-M "P 2/C"
_symmetry_group_IT_number 13
_symmetry_cell_setting 'monoclinic'
loop_
_space_group_symop_operation_xyz
x,y,z
-x,y,1/2-z
-x,-y,-z
x,-y,1/2+z
loop_
_atom_site_type_symbol
_atom_site_label
_atom_site_fract_x
_atom_site_fract_y
_atom_site_fract_z
Si Si1 0.184038 0.804323 0.608595
Si Si2 0.000000 0.264710 0.750000
Si Si3 0.214151 0.992904 0.762276
Si Si4 0.658008 0.767460 0.323667
Si Si5 0.640762 0.150636 0.192161
Si Si6 0.997035 0.367452 0.501451
O O1 0.269937 0.904379 0.592072
O O2 0.334931 0.773886 0.332918
O O3 0.000000 0.846930 0.750000
O O4 0.130270 0.693903 0.750864
O O5 0.178027 0.193672 0.583192
O O6 0.938134 0.335432 0.937352
O O7 0.295133 0.953901 0.799570
O O8 0.287596 0.118079 0.666154
O O9 0.000000 0.000000 0.000000
O O10 0.452564 0.752632 0.612069
O O11 0.787911 0.666945 0.217294
O O12 0.500000 0.107988 0.250000
O O13 0.000000 0.500000 0.500000
#
# Coordination Sequence:
#
# PCOD8121461 Si02
#       6
#     4   2   4   4   4   4
#     4  10  22  42  69 105 145 186 242 300 362 441
#     4  12  24  50  78  98 148 198 248 310 386 440
#     4  12  23  44  72 110 147 197 236 295 379 450
#     4  11  25  44  68 107 150 187 244 307 364 444
#     4  12  27  46  73 111 152 193 250 306 372 464
#     4  11  24  45  75 106 141 195 250 310 372 439
#
# _framework density 23.12285
#
# number of rings (size 3 to 8) (size 9 to 14) (size 15 to 20)
#    0.000    0.727    7.273    0.545    6.364    0.727 
#    1.636    0.909    4.000    0.000    0.000    0.000 
#    0.000    0.000    0.000    0.000    0.000    0.000 
#
# Total GULP energy -272600.243937 kJ/mol
# GULP energy per Si atom -12390.920179 kJ/mol
# Density = 2.307022 g / cm^3
# Si number density = 23.122850 Si / 1000 Ang^3
#
#
#
# Elastic Constant Matrix: (Units=GPa)
#
#
# Indices 1 2 3 4 5 6 
#
# 1 160.6158 50.6780 43.4593 0.0000 10.5588 0.0000
# 2 50.6780 142.0735 33.8673 0.0000 0.9283 0.0000
# 3 43.4593 33.8673 135.3724 0.0000 11.6557 0.0000
# 4 0.0000 0.0000 0.0000 13.0887 0.0000 -3.8165
# 5 10.5588 0.9283 11.6557 0.0000 41.4335 0.0000
# 6 0.0000 0.0000 0.0000 -3.8165 0.0000 29.0142
#
#
#
# Elastic Compliance Matrix: (Units=1/GPa)
#
#
# Indices 1 2 3 4 5 6 
#
# 1 0.007494 -0.002253 -0.001724 0.000000 -0.001374 0.000000
# 2 -0.002253 0.008168 -0.001387 0.000000 0.000781 0.000000
# 3 -0.001724 -0.001387 0.008452 0.000000 -0.001907 0.000000
# 4 0.000000 0.000000 0.000000 0.079449 0.000000 0.010451
# 5 -0.001374 0.000781 -0.001907 0.000000 0.025004 0.000000
# 6 0.000000 0.000000 0.000000 0.010451 0.000000 0.035841
#
#
# Mechanical properties :
#
#
# Convention : Reuss Voigt Hill
#
# Bulk Modulus (GPa) = 74.71146 77.11900 75.91523
# Shear Modulus (GPa) = 27.84000 37.37774 32.60887
#
# Velocity S-wave (km/s) = 3.47364 4.02491 3.75940
# Velocity P-wave (km/s) = 6.96197 7.41783 7.19351
#
# Compressibility (1/GPa) = 0.01338483
#
# Stress axis : x y z
#
# Youngs Moduli (GPa) = 133.44533 122.43002 118.31920
#
# Poissons Ratio (x) = 0.27585 0.20395
# Poissons Ratio (y) = 0.30067 0.16415
# Poissons Ratio (z) = 0.23002 0.16986
#
# Static dielectric constant tensor:
#      x y z
#    x 4.572580 0.000000 0.196310 
#    y 0.000000 3.901510 0.000000 
#    z 0.196310 0.000000 4.552490 
# 
# 
# High freq. dielectric constant tensor:
#      x y z
#    x 1.941210 0.000000 0.016350 
#    y 0.000000 1.863780 0.000000 
#    z 0.016350 0.000000 1.928130 
# 
# From -- ./inp_files/37107.got.cif
#   From: 2010.06.25/outbox.cif.g09.slc.cpg/sg13_19_cif.got.tgz:37107.got - 2010.06.28 04:50:58.
