data_PCOD8121306
_publ_section_title
;
Structure prediction by ZEFSAII (Michael W. Deem and Ramdas Pophale) SiO2 
 PCOD8121306
Probable space group: P 2/C
;
_chemical_formula_sum "Si O2"
_cell_formula_units_Z 22
_cell_length_a 7.141861
_cell_length_b 5.962007
_cell_length_c 25.653234
_cell_angle_alpha 90.000000
_cell_angle_beta 71.957458
_cell_angle_gamma 90.000000
_cell_volume 1038.597843
_symmetry_space_group_name_H-M "P 2/C"
_symmetry_group_IT_number 13
_symmetry_cell_setting 'monoclinic'
loop_
_space_group_symop_operation_xyz
x,y,z
-x,y,1/2-z
-x,-y,-z
x,-y,1/2+z
loop_
_atom_site_type_symbol
_atom_site_label
_atom_site_fract_x
_atom_site_fract_y
_atom_site_fract_z
Si Si1 0.999233 0.788628 0.659392
Si Si2 0.147056 0.164415 0.899192
Si Si3 0.589669 0.803135 0.027089
Si Si4 0.000000 0.894214 0.250000
Si Si5 0.717454 0.411964 0.711935
Si Si6 0.781522 0.477645 0.930718
O O1 0.166117 0.614792 0.626317
O O2 0.086394 0.955173 0.695442
O O3 0.817665 0.655272 0.700360
O O4 0.928774 0.926736 0.615168
O O5 0.280921 0.100714 0.936974
O O6 0.276786 0.292033 0.844701
O O7 0.962611 0.318915 0.931907
O O8 0.409165 0.666559 0.067417
O O9 0.733080 0.643701 0.981994
O O10 0.500000 0.000000 0.000000
O O11 0.177601 0.741914 0.254263
O O12 0.500000 0.455443 0.750000
#
# Coordination Sequence:
#
# PCOD8121306 Si02
#       6
#     4   4   4   2   4   4
#     4  10  22  41  65  89 123 164 201 252 305 359
#     4  10  23  42  61  88 125 162 202 251 305 359
#     4  11  24  40  64  93 122 162 207 251 302 362
#     4  10  22  42  64  90 122 158 202 252 306 362
#     4  10  23  41  62  90 123 160 202 250 304 362
#     4  10  23  42  62  90 124 160 203 254 306 358
#
# _framework density 21.182404999999999
#
# number of rings (size 3 to 8) (size 9 to 14) (size 15 to 20)
#    0.000    1.818    0.000    2.182    0.000   18.909 
#    0.000    3.636    0.000    0.000    0.000    0.000 
#    0.000    0.000    0.000    0.000    0.000    0.000 
#
# Total GULP energy -272883.235394 kJ/mol
# GULP energy per Si atom -12403.783427 kJ/mol
# Density = 2.113419 g / cm^3
# Si number density = 21.182405 Si / 1000 Ang^3
#
#
#
# Elastic Constant Matrix: (Units=GPa)
#
#
# Indices 1 2 3 4 5 6 
#
# 1 125.4374 68.1698 91.3940 0.0000 -1.0856 0.0000
# 2 68.1698 140.1617 63.1350 0.0000 1.3879 0.0000
# 3 91.3940 63.1350 113.5605 0.0000 -0.7343 0.0000
# 4 0.0000 0.0000 0.0000 34.4051 0.0000 3.8782
# 5 -1.0856 1.3879 -0.7343 0.0000 55.9035 0.0000
# 6 0.0000 0.0000 0.0000 3.8782 0.0000 11.0570
#
#
#
# Elastic Compliance Matrix: (Units=1/GPa)
#
#
# Indices 1 2 3 4 5 6 
#
# 1 0.020407 -0.003377 -0.014544 0.000000 0.000289 0.000000
# 2 -0.003377 0.010082 -0.002890 0.000000 -0.000354 0.000000
# 3 -0.014544 -0.002890 0.022118 0.000000 0.000080 0.000000
# 4 0.000000 0.000000 0.000000 0.030262 0.000000 -0.010614
# 5 0.000289 -0.000354 0.000080 0.000000 0.017903 0.000000
# 6 0.000000 0.000000 0.000000 -0.010614 0.000000 0.094163
#
#
# Mechanical properties :
#
#
# Convention : Reuss Voigt Hill
#
# Bulk Modulus (GPa) = 91.02954 91.61746 91.32350
# Shear Modulus (GPa) = 20.81431 30.70384 25.75908
#
# Velocity S-wave (km/s) = 3.13808 3.81136 3.49099
# Velocity P-wave (km/s) = 7.49650 7.91923 7.71076
#
# Compressibility (1/GPa) = 0.01098545
#
# Stress axis : x y z
#
# Youngs Moduli (GPa) = 49.00385 99.18476 45.21116
#
# Poissons Ratio (x) = 0.33490 0.65756
# Poissons Ratio (y) = 0.16546 0.13067
# Poissons Ratio (z) = 0.71272 0.28665
#
# Static dielectric constant tensor:
#      x y z
#    x 3.632330 0.000000 -0.097700 
#    y 0.000000 4.031510 0.000000 
#    z -0.097700 0.000000 3.971650 
# 
# 
# High freq. dielectric constant tensor:
#      x y z
#    x 1.817500 0.000000 -0.006790 
#    y 0.000000 1.846710 0.000000 
#    z -0.006790 0.000000 1.839380 
# 
# From -- ./inp_files/94549.got.cif
#   From: 2010.06.25/outbox.cif.g09.slc.cpg/sg13_48_cif.got.tgz:94549.got - 2010.06.28 04:50:58.
