data_PCOD8121842
_publ_section_title
;
Structure prediction by ZEFSAII (Michael W. Deem and Ramdas Pophale) SiO2 
 PCOD8121842
Probable space group: P 2/C
;
_chemical_formula_sum "Si O2"
_cell_formula_units_Z 32
_cell_length_a 5.281558
_cell_length_b 14.824137
_cell_length_c 18.239839
_cell_angle_alpha 90.000000
_cell_angle_beta 98.656147
_cell_angle_gamma 90.000000
_cell_volume 1411.813063
_symmetry_space_group_name_H-M "P 2/C"
_symmetry_group_IT_number 13
_symmetry_cell_setting 'monoclinic'
loop_
_space_group_symop_operation_xyz
x,y,z
-x,y,1/2-z
-x,-y,-z
x,-y,1/2+z
loop_
_atom_site_type_symbol
_atom_site_label
_atom_site_fract_x
_atom_site_fract_y
_atom_site_fract_z
Si Si1 0.001207 0.815898 0.400485
Si Si2 0.572860 0.636147 0.550024
Si Si3 0.602733 0.548740 0.405132
Si Si4 0.586072 0.100086 0.173356
Si Si5 0.472088 0.892121 0.330648
Si Si6 0.935590 0.264105 0.167045
Si Si7 0.038546 0.376813 0.837062
Si Si8 0.255690 0.201162 0.056348
O O1 0.255664 0.841650 0.366670
O O2 0.040218 0.829745 0.489683
O O3 0.755099 0.879422 0.376387
O O4 0.955853 0.712676 0.377692
O O5 0.706269 0.604260 0.480470
O O6 0.396926 0.555662 0.572046
O O7 0.753914 0.660433 0.625455
O O8 0.432063 0.728557 0.519851
O O9 0.817995 0.552951 0.351630
O O10 0.322551 0.586154 0.367951
O O11 0.500000 0.134474 0.250000
O O12 0.832020 0.160795 0.165310
O O13 0.390450 0.113794 0.097107
O O14 0.634567 0.993991 0.177806
O O15 0.500000 0.852143 0.250000
O O16 0.000000 0.300728 0.250000
O O17 0.174396 0.259562 0.123503
O O18 0.000000 0.357971 0.750000
#
# Coordination Sequence:
#
# PCOD8121842 Si02
#       8
#     4   4   4   4   4   4   4   4
#     4  12  26  45  70 101 136 179 230 280 344 401
#     4  10  25  43  69 102 136 180 231 283 342 414
#     4  11  25  46  72 101 138 185 230 283 348 405
#     4  10  23  43  66 100 136 179 227 276 346 404
#     4  11  26  45  71 101 136 179 227 283 336 410
#     4  11  23  42  71  98 138 184 227 282 344 411
#     4  12  25  45  69 101 140 183 230 288 344 405
#     4  11  24  43  68  98 138 178 225 283 338 412
#
# _framework density 22.665889
#
# number of rings (size 3 to 8) (size 9 to 14) (size 15 to 20)
#    0.000    1.000    2.500    3.000    7.000    2.500 
#    2.250    0.000    0.000    0.000    0.000    0.000 
#    0.000    0.000    0.000    0.000    0.000    0.000 
#
# Total GULP energy -396595.795351 kJ/mol
# GULP energy per Si atom -12393.618605 kJ/mol
# Density = 2.261430 g / cm^3
# Si number density = 22.665889 Si / 1000 Ang^3
#
#
#
# Elastic Constant Matrix: (Units=GPa)
#
#
# Indices 1 2 3 4 5 6 
#
# 1 93.1827 3.1986 24.6895 0.0000 6.5749 0.0000
# 2 3.1986 55.7734 10.9468 0.0000 4.2571 0.0000
# 3 24.6895 10.9468 117.5376 0.0000 22.7981 0.0000
# 4 0.0000 0.0000 0.0000 22.6914 0.0000 -0.7713
# 5 6.5749 4.2571 22.7981 0.0000 44.1815 0.0000
# 6 0.0000 0.0000 0.0000 -0.7713 0.0000 13.0068
#
#
#
# Elastic Compliance Matrix: (Units=1/GPa)
#
#
# Indices 1 2 3 4 5 6 
#
# 1 0.011376 -0.000167 -0.002277 0.000000 -0.000502 0.000000
# 2 -0.000167 0.018304 -0.001481 0.000000 -0.000975 0.000000
# 3 -0.002277 -0.001481 0.010035 0.000000 -0.004697 0.000000
# 4 0.000000 0.000000 0.000000 0.044159 0.000000 0.002619
# 5 -0.000502 -0.000975 -0.004697 0.000000 0.025226 0.000000
# 6 0.000000 0.000000 0.000000 0.002619 0.000000 0.077038
#
#
# Mechanical properties :
#
#
# Convention : Reuss Voigt Hill
#
# Bulk Modulus (GPa) = 31.38099 38.24038 34.81069
# Shear Modulus (GPa) = 24.43686 31.15321 27.79504
#
# Velocity S-wave (km/s) = 3.28706 3.71138 3.50565
# Velocity P-wave (km/s) = 5.31803 5.93917 5.63716
#
# Compressibility (1/GPa) = 0.03186642
#
# Stress axis : x y z
#
# Youngs Moduli (GPa) = 87.90443 54.63206 99.65104
#
# Poissons Ratio (x) = 0.00914 0.22687
# Poissons Ratio (y) = 0.01470 0.14754
# Poissons Ratio (z) = 0.20013 0.08089
#
# Static dielectric constant tensor:
#      x y z
#    x 4.014860 0.000000 0.043950 
#    y 0.000000 3.962630 0.000000 
#    z 0.043950 0.000000 4.456090 
# 
# 
# High freq. dielectric constant tensor:
#      x y z
#    x 1.888230 0.000000 0.001110 
#    y 0.000000 1.891090 0.000000 
#    z 0.001110 0.000000 1.913830 
# 
# From -- ./inp_files/61599.got.cif
#   From: 2010.06.25/outbox.cif.g09.slc.cpg/sg13_31_cif.got.tgz:61599.got - 2010.06.28 04:50:58.
