data_PCOD8121488
_publ_section_title
;
Structure prediction by ZEFSAII (Michael W. Deem and Ramdas Pophale) SiO2 
 PCOD8121488
Probable space group: P 2/C
;
_chemical_formula_sum "Si O2"
_cell_formula_units_Z 20
_cell_length_a 16.880249
_cell_length_b 5.095877
_cell_length_c 15.955874
_cell_angle_alpha 90.000000
_cell_angle_beta 141.570056
_cell_angle_gamma 90.000000
_cell_volume 853.099199
_symmetry_space_group_name_H-M "P 2/C"
_symmetry_group_IT_number 13
_symmetry_cell_setting 'monoclinic'
loop_
_space_group_symop_operation_xyz
x,y,z
-x,y,1/2-z
-x,-y,-z
x,-y,1/2+z
loop_
_atom_site_type_symbol
_atom_site_label
_atom_site_fract_x
_atom_site_fract_y
_atom_site_fract_z
Si Si1 0.416163 0.964558 0.258485
Si Si2 0.252425 0.464594 0.118362
Si Si3 0.351031 0.905468 0.938044
Si Si4 0.235485 0.416951 0.781393
Si Si5 0.859825 0.657923 0.640694
O O1 0.500000 0.053667 0.250000
O O2 0.370838 0.665522 0.210308
O O3 0.299216 0.166074 0.166663
O O4 0.507097 0.981644 0.415853
O O5 0.173347 0.538208 0.137813
O O6 0.165363 0.492173 0.964367
O O7 0.296010 0.128874 0.831602
O O8 0.350271 0.630769 0.887131
O O9 0.252450 0.873150 0.936664
O O10 0.136111 0.458869 0.775446
O O11 0.000000 0.789527 0.750000
#
# Coordination Sequence:
#
# PCOD8121488 Si02
#       5
#     4   4   4   4   4
#     4  12  22  40  67  98 136 168 219 265 326 407
#     4  12  25  40  69  99 128 179 213 271 333 383
#     4  10  22  43  62  96 132 171 212 272 327 380
#     4  10  23  43  63 102 130 167 227 258 336 392
#     4  10  25  47  67  94 136 175 225 275 324 386
#
# _framework density 23.443933000000001
#
# number of rings (size 3 to 8) (size 9 to 14) (size 15 to 20)
#    1.200    0.000    2.000    4.200    0.000    6.400 
#    0.000    1.000    0.000    0.000    0.000    0.000 
#    0.000    0.000    0.000    0.000    0.000    0.000 
#
# Total GULP energy -247858.892638 kJ/mol
# GULP energy per Si atom -12392.944632 kJ/mol
# Density = 2.339057 g / cm^3
# Si number density = 23.443933 Si / 1000 Ang^3
#
#
#
# Elastic Constant Matrix: (Units=GPa)
#
#
# Indices 1 2 3 4 5 6 
#
# 1 92.4720 8.2295 52.9421 0.0000 -31.7300 0.0000
# 2 8.2295 111.6402 6.5684 0.0000 3.2373 0.0000
# 3 52.9421 6.5684 64.5480 0.0000 -7.9850 0.0000
# 4 0.0000 0.0000 0.0000 21.3359 0.0000 -7.2680
# 5 -31.7300 3.2373 -7.9850 0.0000 51.5296 0.0000
# 6 0.0000 0.0000 0.0000 -7.2680 0.0000 22.3734
#
#
#
# Elastic Compliance Matrix: (Units=1/GPa)
#
#
# Indices 1 2 3 4 5 6 
#
# 1 0.027556 -0.001210 -0.020768 0.000000 0.013826 0.000000
# 2 -0.001210 0.009091 -0.000097 0.000000 -0.001331 0.000000
# 3 -0.020768 -0.000097 0.031559 0.000000 -0.007891 0.000000
# 4 0.000000 0.000000 0.000000 0.052701 0.000000 0.017120
# 5 0.013826 -0.001331 -0.007891 0.000000 0.026780 0.000000
# 6 0.000000 0.000000 0.000000 0.017120 0.000000 0.050257
#
#
# Mechanical properties :
#
#
# Convention : Reuss Voigt Hill
#
# Bulk Modulus (GPa) = 41.56953 44.90447 43.23700
# Shear Modulus (GPa) = 19.99091 32.44247 26.21669
#
# Velocity S-wave (km/s) = 2.92329 3.72403 3.34769
# Velocity P-wave (km/s) = 5.40038 6.13895 5.78147
#
# Compressibility (1/GPa) = 0.02405608
#
# Stress axis : x y z
#
# Youngs Moduli (GPa) = 36.29024 110.00033 31.68621
#
# Poissons Ratio (x) = 0.13313 0.65804
# Poissons Ratio (y) = 0.04392 0.00308
# Poissons Ratio (z) = 0.75366 0.01068
#
# Static dielectric constant tensor:
#      x y z
#    x 4.378790 0.000000 -0.414120 
#    y 0.000000 3.883340 0.000000 
#    z -0.414120 0.000000 3.825010 
# 
# 
# High freq. dielectric constant tensor:
#      x y z
#    x 1.937800 0.000000 -0.035610 
#    y 0.000000 1.918330 0.000000 
#    z -0.035610 0.000000 1.899160 
# 
# From -- ./inp_files/69082.got.cif
#   From: 2010.06.25/outbox.cif.g09.slc.cpg/sg13_35_cif.got.tgz:69082.got - 2010.06.28 04:50:58.
