data_PCOD8121398
_publ_section_title
;
Structure prediction by ZEFSAII (Michael W. Deem and Ramdas Pophale) SiO2 
 PCOD8121398
Probable space group: P 2/C
;
_chemical_formula_sum "Si O2"
_cell_formula_units_Z 24
_cell_length_a 16.720444
_cell_length_b 10.271186
_cell_length_c 18.279316
_cell_angle_alpha 90.000000
_cell_angle_beta 159.773561
_cell_angle_gamma 90.000000
_cell_volume 1085.342847
_symmetry_space_group_name_H-M "P 2/C"
_symmetry_group_IT_number 13
_symmetry_cell_setting 'monoclinic'
loop_
_space_group_symop_operation_xyz
x,y,z
-x,y,1/2-z
-x,-y,-z
x,-y,1/2+z
loop_
_atom_site_type_symbol
_atom_site_label
_atom_site_fract_x
_atom_site_fract_y
_atom_site_fract_z
Si Si1 0.930018 0.231923 0.040402
Si Si2 0.403944 0.341785 0.853994
Si Si3 0.165155 0.499369 0.265288
Si Si4 0.372245 0.124802 0.359093
Si Si5 0.000000 0.096300 0.250000
Si Si6 0.377623 0.108126 0.070898
Si Si7 0.000000 0.676173 0.250000
O O1 0.011066 0.379301 0.109558
O O2 0.096423 0.131058 0.138844
O O3 0.903367 0.184245 0.100909
O O4 0.685582 0.245660 0.787652
O O5 0.201877 0.418098 0.722679
O O6 0.596196 0.446753 0.992143
O O7 0.524639 0.253852 0.018006
O O8 0.021428 0.587057 0.197467
O O9 0.417951 0.130367 0.311722
O O10 0.500000 0.000000 0.500000
O O11 0.209174 0.007893 0.399232
O O12 0.500000 0.064105 0.250000
O O13 0.230174 0.238183 0.956811
#
# Coordination Sequence:
#
# PCOD8121398 Si02
#       7
#     4   4   4   4   2   4   2
#     4  11  24  40  71  92 129 178 216 268 338 386
#     4  10  23  42  67  94 130 169 215 272 325 391
#     4  10  22  42  63  97 130 162 220 272 317 399
#     4  11  23  43  64  99 130 168 225 272 317 398
#     4  11  25  44  58 100 133 165 226 274 322 397
#     4  11  26  42  65  94 135 174 217 274 329 388
#     4  11  23  44  66  94 135 167 214 276 328 395
#
# _framework density 22.112826999999999
#
# number of rings (size 3 to 8) (size 9 to 14) (size 15 to 20)
#    0.000    1.333    3.333    1.000    4.667    2.000 
#    0.000    3.333    0.000    0.000    0.000    0.000 
#    0.000    0.000    0.000    0.000    0.000    0.000 
#
# Total GULP energy -297595.043240 kJ/mol
# GULP energy per Si atom -12399.793468 kJ/mol
# Density = 2.206250 g / cm^3
# Si number density = 22.112827 Si / 1000 Ang^3
#
#
#
# Elastic Constant Matrix: (Units=GPa)
#
#
# Indices 1 2 3 4 5 6 
#
# 1 120.3120 19.7471 23.9824 0.0000 -11.5528 0.0000
# 2 19.7471 77.9370 3.2706 0.0000 -4.5165 0.0000
# 3 23.9824 3.2706 70.3356 0.0000 -19.6145 0.0000
# 4 0.0000 0.0000 0.0000 8.7103 0.0000 -3.0803
# 5 -11.5528 -4.5165 -19.6145 0.0000 33.9644 0.0000
# 6 0.0000 0.0000 0.0000 -3.0803 0.0000 34.1195
#
#
#
# Elastic Compliance Matrix: (Units=1/GPa)
#
#
# Indices 1 2 3 4 5 6 
#
# 1 0.009336 -0.002175 -0.002715 0.000000 0.001319 0.000000
# 2 -0.002175 0.013439 0.000487 0.000000 0.001329 0.000000
# 3 -0.002715 0.000487 0.017738 0.000000 0.009385 0.000000
# 4 0.000000 0.000000 0.000000 0.118592 0.000000 0.010707
# 5 0.001319 0.001329 0.009385 0.000000 0.035488 0.000000
# 6 0.000000 0.000000 0.000000 0.010707 0.000000 0.030275
#
#
# Mechanical properties :
#
#
# Convention : Reuss Voigt Hill
#
# Bulk Modulus (GPa) = 31.53806 40.28720 35.91263
# Shear Modulus (GPa) = 20.47148 30.13115 25.30132
#
# Velocity S-wave (km/s) = 3.04595 3.69536 3.38626
# Velocity P-wave (km/s) = 5.16370 6.03871 5.61826
#
# Compressibility (1/GPa) = 0.03170772
#
# Stress axis : x y z
#
# Youngs Moduli (GPa) = 107.10653 74.41263 56.37728
#
# Poissons Ratio (x) = 0.16187 0.15304
# Poissons Ratio (y) = 0.23299 -0.02747
# Poissons Ratio (z) = 0.29074 -0.03626
#
# Static dielectric constant tensor:
#      x y z
#    x 4.081950 0.000000 0.219460 
#    y 0.000000 4.163130 0.000000 
#    z 0.219460 0.000000 3.944250 
# 
# 
# High freq. dielectric constant tensor:
#      x y z
#    x 1.869500 0.000000 0.003560 
#    y 0.000000 1.886490 0.000000 
#    z 0.003560 0.000000 1.856810 
# 
# From -- ./inp_files/69882.got.cif
#   From: 2010.06.25/outbox.cif.g09.slc.cpg/sg13_35_cif.got.tgz:69882.got - 2010.06.28 04:50:58.
