data_PCOD8121399
_publ_section_title
;
Structure prediction by ZEFSAII (Michael W. Deem and Ramdas Pophale) SiO2 
 PCOD8121399
Probable space group: P 2/C
;
_chemical_formula_sum "Si O2"
_cell_formula_units_Z 26
_cell_length_a 15.782109
_cell_length_b 7.682027
_cell_length_c 18.127209
_cell_angle_alpha 90.000000
_cell_angle_beta 33.054914
_cell_angle_gamma 90.000000
_cell_volume 1198.728573
_symmetry_space_group_name_H-M "P 2/C"
_symmetry_group_IT_number 13
_symmetry_cell_setting 'monoclinic'
loop_
_space_group_symop_operation_xyz
x,y,z
-x,y,1/2-z
-x,-y,-z
x,-y,1/2+z
loop_
_atom_site_type_symbol
_atom_site_label
_atom_site_fract_x
_atom_site_fract_y
_atom_site_fract_z
Si Si1 0.423552 0.690136 0.945755
Si Si2 0.190910 0.661638 0.230079
Si Si3 0.652686 0.006892 0.096958
Si Si4 0.054787 0.121260 0.524933
Si Si5 0.281409 0.622129 0.457246
Si Si6 0.751484 0.434769 0.171347
Si Si7 0.000000 0.540080 0.750000
O O1 0.342627 0.868559 0.977207
O O2 0.367972 0.525628 0.939265
O O3 0.609118 0.686797 0.802712
O O4 0.369115 0.686549 0.071626
O O5 0.187923 0.544041 0.304353
O O6 0.108794 0.577920 0.220048
O O7 0.098479 0.840816 0.313978
O O8 0.500000 0.075496 0.250000
O O9 0.629823 0.803971 0.094497
O O10 0.810234 0.026068 0.028414
O O11 0.112669 0.307171 0.453322
O O12 0.000000 0.000000 0.500000
O O13 0.286314 0.567573 0.367752
O O14 0.107005 0.652620 0.616332
#
# Coordination Sequence:
#
# PCOD8121399 Si02
#       7
#     4   4   4   4   4   4   2
#     4  11  23  46  68 101 139 184 227 289 350 405
#     4  11  24  43  68  98 139 181 230 289 349 412
#     4  12  23  43  70  98 135 184 233 287 344 423
#     4  12  25  41  68 103 138 179 234 286 347 406
#     4  11  23  40  74  98 134 177 237 273 351 410
#     4  12  22  45  71  99 140 187 229 285 344 423
#     4  10  22  42  64 100 130 180 224 290 344 404
#
# _framework density 21.689647999999998
#
# number of rings (size 3 to 8) (size 9 to 14) (size 15 to 20)
#    0.000    0.615    4.615    4.154    2.154    1.231 
#    2.769    0.769    0.000    0.000    0.000    0.000 
#    0.000    0.000    0.000    0.000    0.000    0.000 
#
# Total GULP energy -322344.562446 kJ/mol
# GULP energy per Si atom -12397.867786 kJ/mol
# Density = 2.164028 g / cm^3
# Si number density = 21.689648 Si / 1000 Ang^3
#
#
#
# Elastic Constant Matrix: (Units=GPa)
#
#
# Indices 1 2 3 4 5 6 
#
# 1 64.5993 22.4938 15.2105 0.0000 0.6406 0.0000
# 2 22.4938 121.3200 19.0572 0.0000 6.0342 0.0000
# 3 15.2105 19.0572 132.3882 0.0000 -2.1121 0.0000
# 4 0.0000 0.0000 0.0000 -67.0022 0.0000 -71.3131
# 5 0.6406 6.0342 -2.1121 0.0000 32.6503 0.0000
# 6 0.0000 0.0000 0.0000 -71.3131 0.0000 -24.7950
#
#
#
# Elastic Compliance Matrix: (Units=1/GPa)
#
#
# Indices 1 2 3 4 5 6 
#
# 1 0.016842 -0.002890 -0.001517 0.000000 0.000105 0.000000
# 2 -0.002890 0.009018 -0.000993 0.000000 -0.001674 0.000000
# 3 -0.001517 -0.000993 0.007882 0.000000 0.000723 0.000000
# 4 0.000000 0.000000 0.000000 0.007241 0.000000 -0.020826
# 5 0.000105 -0.001674 0.000723 0.000000 0.030982 0.000000
# 6 0.000000 0.000000 0.000000 -0.020826 0.000000 0.019567
#
#
# Mechanical properties :
#
#
# Convention : Reuss Voigt Hill
#
# Bulk Modulus (GPa) = 43.58679 47.98117 45.78398
# Shear Modulus (GPa) = 45.46299 5.60701 25.53500
#
# Velocity S-wave (km/s) = 4.58325 1.60957 3.43489
# Velocity P-wave (km/s) = 6.93884 5.06202 6.07337
#
# Compressibility (1/GPa) = 0.02294273
#
# Stress axis : x y z
#
# Youngs Moduli (GPa) = 59.37367 110.89377 126.86591
#
# Poissons Ratio (x) = 0.32044 0.19251
# Poissons Ratio (y) = 0.17157 0.12595
# Poissons Ratio (z) = 0.09010 0.11009
#
# Static dielectric constant tensor:
#      x y z
#    x 3.730650 0.000000 -0.154830 
#    y 0.000000 3.797900 0.000000 
#    z -0.154830 0.000000 4.837560 
# 
# 
# High freq. dielectric constant tensor:
#      x y z
#    x 1.841100 0.000000 -0.006920 
#    y 0.000000 1.841970 0.000000 
#    z -0.006920 0.000000 1.880440 
# 
# From -- ./inp_files/52909.got.cif
#   From: 2010.06.25/outbox.cif.g09.slc.cpg/sg13_27_cif.got.tgz:52909.got - 2010.06.28 04:50:58.
