data_PCOD8121497
_publ_section_title
;
Structure prediction by ZEFSAII (Michael W. Deem and Ramdas Pophale) SiO2 
 PCOD8121497
Probable space group: P 2/C
;
_chemical_formula_sum "Si O2"
_cell_formula_units_Z 16
_cell_length_a 9.026658
_cell_length_b 8.280168
_cell_length_c 11.923183
_cell_angle_alpha 90.000000
_cell_angle_beta 123.306571
_cell_angle_gamma 90.000000
_cell_volume 744.786536
_symmetry_space_group_name_H-M "P 2/C"
_symmetry_group_IT_number 13
_symmetry_cell_setting 'monoclinic'
loop_
_space_group_symop_operation_xyz
x,y,z
-x,y,1/2-z
-x,-y,-z
x,-y,1/2+z
loop_
_atom_site_type_symbol
_atom_site_label
_atom_site_fract_x
_atom_site_fract_y
_atom_site_fract_z
Si Si1 0.725877 0.850048 0.121113
Si Si2 0.042214 0.283928 0.615964
Si Si3 0.930545 0.344919 0.336284
Si Si4 0.584164 0.170732 0.166880
O O1 0.762449 0.755468 0.253582
O O2 0.899954 0.833042 0.116270
O O3 0.689520 0.032389 0.143872
O O4 0.566492 0.770482 0.983063
O O5 0.006164 0.470711 0.628349
O O6 0.027979 0.249467 0.477651
O O7 0.717757 0.318005 0.251716
O O8 0.000000 0.269036 0.250000
O O9 0.500000 0.109824 0.250000
#
# Coordination Sequence:
#
# PCOD8121497 Si02
#       4
#     4   4   4   4
#     4  10  22  43  65  92 137 165 212 266 319 383
#     4  10  22  44  65  94 131 169 217 261 317 386
#     4  11  23  41  69  96 126 172 217 259 322 382
#     4  11  24  41  65 101 130 167 212 266 323 380
#
# _framework density 21.482664
#
# number of rings (size 3 to 8) (size 9 to 14) (size 15 to 20)
#    0.000    1.500    5.000    0.000    3.500    6.000 
#    0.000    1.250    0.000    0.000    0.000    0.000 
#    0.000    0.000    0.000    0.000    0.000    0.000 
#
# Total GULP energy -198236.935946 kJ/mol
# GULP energy per Si atom -12389.808497 kJ/mol
# Density = 2.143377 g / cm^3
# Si number density = 21.482664 Si / 1000 Ang^3
#
#
#
# Elastic Constant Matrix: (Units=GPa)
#
#
# Indices 1 2 3 4 5 6 
#
# 1 94.2357 44.7456 72.2699 0.0000 -14.9322 0.0000
# 2 44.7456 46.5807 33.0083 0.0000 -1.1258 0.0000
# 3 72.2699 33.0083 258.1987 0.0000 -2.1069 0.0000
# 4 0.0000 0.0000 0.0000 25.1041 0.0000 3.1153
# 5 -14.9322 -1.1258 -2.1069 0.0000 37.1663 0.0000
# 6 0.0000 0.0000 0.0000 3.1153 0.0000 25.8292
#
#
#
# Elastic Compliance Matrix: (Units=1/GPa)
#
#
# Indices 1 2 3 4 5 6 
#
# 1 0.025480 -0.021168 -0.004349 0.000000 0.009349 0.000000
# 2 -0.021168 0.041203 0.000598 0.000000 -0.007223 0.000000
# 3 -0.004349 0.000598 0.005002 0.000000 -0.001446 0.000000
# 4 0.000000 0.000000 0.000000 0.040439 0.000000 -0.004877
# 5 0.009349 -0.007223 -0.001446 0.000000 0.030362 0.000000
# 6 0.000000 0.000000 0.000000 -0.004877 0.000000 0.039304
#
#
# Mechanical properties :
#
#
# Convention : Reuss Voigt Hill
#
# Bulk Modulus (GPa) = 45.77151 77.67365 61.72258
# Shear Modulus (GPa) = 20.92833 34.21932 27.57383
#
# Velocity S-wave (km/s) = 3.12460 3.99542 3.58654
# Velocity P-wave (km/s) = 5.86259 7.58416 6.77825
#
# Compressibility (1/GPa) = 0.02184765
#
# Stress axis : x y z
#
# Youngs Moduli (GPa) = 39.24683 24.26982 199.91710
#
# Poissons Ratio (x) = 0.51374 0.86952
# Poissons Ratio (y) = 0.83077 -0.11965
# Poissons Ratio (z) = 0.17070 -0.01453
#
# Static dielectric constant tensor:
#      x y z
#    x 3.707090 0.000000 -0.025100 
#    y 0.000000 3.469780 0.000000 
#    z -0.025100 0.000000 4.832460 
# 
# 
# High freq. dielectric constant tensor:
#      x y z
#    x 1.821210 0.000000 -0.004490 
#    y 0.000000 1.812340 0.000000 
#    z -0.004490 0.000000 1.887140 
# 
# From -- ./inp_files/27531.got.cif
#   From: 2010.06.25/outbox.cif.g09.slc.cpg/sg13_14_cif.got.tgz:27531.got - 2010.06.28 04:50:58.
