data_PCOD8121800
_publ_section_title
;
Structure prediction by ZEFSAII (Michael W. Deem and Ramdas Pophale) SiO2 
 PCOD8121800
Probable space group: P 2/C
;
_chemical_formula_sum "Si O2"
_cell_formula_units_Z 28
_cell_length_a 25.452401
_cell_length_b 12.202184
_cell_length_c 9.668635
_cell_angle_alpha 90.000000
_cell_angle_beta 151.592691
_cell_angle_gamma 90.000000
_cell_volume 1428.558043
_symmetry_space_group_name_H-M "P 2/C"
_symmetry_group_IT_number 13
_symmetry_cell_setting 'monoclinic'
loop_
_space_group_symop_operation_xyz
x,y,z
-x,y,1/2-z
-x,-y,-z
x,-y,1/2+z
loop_
_atom_site_type_symbol
_atom_site_label
_atom_site_fract_x
_atom_site_fract_y
_atom_site_fract_z
Si Si1 0.111655 0.379098 0.807912
Si Si2 0.123186 0.629150 0.832384
Si Si3 0.249465 0.697342 0.377894
Si Si4 0.621426 0.888867 0.371047
Si Si5 0.258783 0.667842 0.881788
Si Si6 0.636056 0.096832 0.224559
Si Si7 0.419839 0.522224 0.691888
O O1 0.102354 0.505185 0.836355
O O2 0.194187 0.373747 0.870055
O O3 0.993151 0.326406 0.495296
O O4 0.156534 0.309805 0.041832
O O5 0.217575 0.626979 0.934502
O O6 0.161668 0.706515 0.048409
O O7 0.284721 0.814269 0.520447
O O8 0.356280 0.635690 0.566460
O O9 0.675096 0.778429 0.440409
O O10 0.660555 0.915817 0.617942
O O11 0.661856 0.983949 0.362247
O O12 0.491088 0.869806 0.054263
O O13 0.334090 0.577673 0.978447
O O14 0.500000 0.534093 0.750000
O O15 0.500000 0.500000 0.000000
#
# Coordination Sequence:
#
# PCOD8121800 Si02
#       7
#     4   4   4   4   4   4   4
#     4  11  21  41  61  89 126 163 209 253 304 363
#     4  11  23  37  63  93 123 161 211 254 299 372
#     4  12  22  40  61  91 124 163 201 254 310 361
#     4  10  23  42  64  89 120 164 208 250 300 366
#     4  12  22  39  62  89 125 164 201 252 311 362
#     4  10  23  42  64  89 121 162 209 250 298 368
#     4  12  24  36  55  90 129 162 192 238 306 374
#
# _framework density 19.600183000000001
#
# number of rings (size 3 to 8) (size 9 to 14) (size 15 to 20)
#    0.000    0.857    4.286    3.429    4.000    2.286 
#    2.571    0.000    0.000    5.143    0.000    0.000 
#    0.000    0.000    0.000    0.000    0.000    0.000 
#
# Total GULP energy -347270.248468 kJ/mol
# GULP energy per Si atom -12402.508874 kJ/mol
# Density = 1.955557 g / cm^3
# Si number density = 19.600183 Si / 1000 Ang^3
#
#
#
# Elastic Constant Matrix: (Units=GPa)
#
#
# Indices 1 2 3 4 5 6 
#
# 1 73.1598 6.0505 -0.1333 0.0000 -9.0458 0.0000
# 2 6.0505 48.5490 1.3377 0.0000 4.4225 0.0000
# 3 -0.1333 1.3377 88.9171 0.0000 -11.2609 0.0000
# 4 0.0000 0.0000 0.0000 32.4859 0.0000 -5.0316
# 5 -9.0458 4.4225 -11.2609 0.0000 29.8982 0.0000
# 6 0.0000 0.0000 0.0000 -5.0316 0.0000 22.6146
#
#
#
# Elastic Compliance Matrix: (Units=1/GPa)
#
#
# Indices 1 2 3 4 5 6 
#
# 1 0.014473 -0.002276 0.000686 0.000000 0.004974 0.000000
# 2 -0.002276 0.021283 -0.000850 0.000000 -0.004157 0.000000
# 3 0.000686 -0.000850 0.011869 0.000000 0.004803 0.000000
# 4 0.000000 0.000000 0.000000 0.031881 0.000000 0.007093
# 5 0.004974 -0.004157 0.004803 0.000000 0.037376 0.000000
# 6 0.000000 0.000000 0.000000 0.007093 0.000000 0.045797
#
#
# Mechanical properties :
#
#
# Convention : Reuss Voigt Hill
#
# Bulk Modulus (GPa) = 23.39438 25.01508 24.20473
# Shear Modulus (GPa) = 27.50155 30.55780 29.02968
#
# Velocity S-wave (km/s) = 3.74990 3.95277 3.85267
# Velocity P-wave (km/s) = 5.54172 5.79853 5.67158
#
# Compressibility (1/GPa) = 0.04274531
#
# Stress axis : x y z
#
# Youngs Moduli (GPa) = 69.09337 46.98485 84.25609
#
# Poissons Ratio (x) = 0.10693 -0.05779
# Poissons Ratio (y) = 0.15724 0.07162
# Poissons Ratio (z) = -0.04739 0.03994
#
# Static dielectric constant tensor:
#      x y z
#    x 3.572620 0.000000 -0.024340 
#    y 0.000000 3.303550 0.000000 
#    z -0.024340 0.000000 3.904430 
# 
# 
# High freq. dielectric constant tensor:
#      x y z
#    x 1.769540 0.000000 -0.009950 
#    y 0.000000 1.731780 0.000000 
#    z -0.009950 0.000000 1.782910 
# 
# From -- ./inp_files/24718.got.cif
#   From: 2010.06.25/outbox.cif.g09.slc.cpg/sg13_13_cif.got.tgz:24718.got - 2010.06.28 04:50:58.
