data_PCOD8121242
_publ_section_title
;
Structure prediction by ZEFSAII (Michael W. Deem and Ramdas Pophale) SiO2 
 PCOD8121242
Probable space group: P 2/C
;
_chemical_formula_sum "Si O2"
_cell_formula_units_Z 24
_cell_length_a 10.034320
_cell_length_b 4.708607
_cell_length_c 23.764874
_cell_angle_alpha 90.000000
_cell_angle_beta 132.410847
_cell_angle_gamma 90.000000
_cell_volume 829.020084
_symmetry_space_group_name_H-M "P 2/C"
_symmetry_group_IT_number 13
_symmetry_cell_setting 'monoclinic'
loop_
_space_group_symop_operation_xyz
x,y,z
-x,y,1/2-z
-x,-y,-z
x,-y,1/2+z
loop_
_atom_site_type_symbol
_atom_site_label
_atom_site_fract_x
_atom_site_fract_y
_atom_site_fract_z
Si Si1 0.970929 0.831817 0.119116
Si Si2 0.348627 0.314966 0.381715
Si Si3 0.642688 0.012051 0.900799
Si Si4 0.500000 0.008908 0.750000
Si Si5 0.306332 0.616055 0.989961
Si Si6 0.000000 0.389084 0.750000
Si Si7 0.820250 0.327123 0.362208
O O1 0.995844 0.158165 0.105358
O O2 0.788883 0.693812 0.040959
O O3 0.980507 0.809434 0.189492
O O4 0.140232 0.657991 0.138539
O O5 0.480205 0.575191 0.436710
O O6 0.277837 0.202502 0.423421
O O7 0.178898 0.416976 0.296213
O O8 0.461368 0.083186 0.380885
O O9 0.763886 0.746636 0.911409
O O10 0.564653 0.188403 0.823402
O O11 0.764890 0.205065 0.976141
O O12 0.338381 0.793308 0.723128
#
# Coordination Sequence:
#
# PCOD8121242 Si02
#       7
#     4   4   4   2   4   2   4
#     4  11  25  46  66 108 139 184 240 285 354 423
#     4  10  22  44  65 101 131 185 239 290 354 419
#     4  10  22  40  69  94 137 186 223 297 349 420
#     4   8  22  40  60 106 122 194 216 294 336 420
#     4  10  24  41  67  97 137 183 233 290 355 418
#     4  10  24  44  76  96 142 188 236 308 342 420
#     4  10  25  42  70  99 143 177 237 285 353 419
#
# _framework density 28.949839999999998
#
# number of rings (size 3 to 8) (size 9 to 14) (size 15 to 20)
#    1.000    1.000    0.000    1.500    7.000    2.667 
#    9.000    0.000    0.000    0.000    0.000    0.000 
#    0.000    0.000    0.000    0.000    0.000    0.000 
#
# Total GULP energy -297386.160930 kJ/mol
# GULP energy per Si atom -12391.090039 kJ/mol
# Density = 2.888395 g / cm^3
# Si number density = 28.949840 Si / 1000 Ang^3
#
#
#
# Elastic Constant Matrix: (Units=GPa)
#
#
# Indices 1 2 3 4 5 6 
#
# 1 97.8964 -13.0493 19.8818 0.0000 -1.9863 0.0000
# 2 -13.0493 62.5283 13.4874 0.0000 -13.7774 0.0000
# 3 19.8818 13.4874 151.7284 0.0000 2.5947 0.0000
# 4 0.0000 0.0000 0.0000 12.6327 0.0000 2.5191
# 5 -1.9863 -13.7774 2.5947 0.0000 54.1203 0.0000
# 6 0.0000 0.0000 0.0000 2.5191 0.0000 28.6009
#
#
#
# Elastic Compliance Matrix: (Units=1/GPa)
#
#
# Indices 1 2 3 4 5 6 
#
# 1 0.010980 0.002934 -0.001721 0.000000 0.001232 0.000000
# 2 0.002934 0.018115 -0.002077 0.000000 0.004819 0.000000
# 3 -0.001721 -0.002077 0.007017 0.000000 -0.000928 0.000000
# 4 0.000000 0.000000 0.000000 0.080575 0.000000 -0.007097
# 5 0.001232 0.004819 -0.000928 0.000000 0.019794 0.000000
# 6 0.000000 0.000000 0.000000 -0.007097 0.000000 0.035589
#
#
# Mechanical properties :
#
#
# Convention : Reuss Voigt Hill
#
# Bulk Modulus (GPa) = 29.08250 39.19919 34.14084
# Shear Modulus (GPa) = 26.98931 38.52634 32.75782
#
# Velocity S-wave (km/s) = 3.05664 3.65197 3.36748
# Velocity P-wave (km/s) = 4.74605 5.59931 5.19024
#
# Compressibility (1/GPa) = 0.03438494
#
# Stress axis : x y z
#
# Youngs Moduli (GPa) = 91.07065 55.20300 142.51674
#
# Poissons Ratio (x) = -0.16198 0.24523
# Poissons Ratio (y) = -0.26723 0.29603
# Poissons Ratio (z) = 0.15671 0.11467
#
# Static dielectric constant tensor:
#      x y z
#    x 5.576300 0.000000 0.032180 
#    y 0.000000 4.630300 0.000000 
#    z 0.032180 0.000000 5.401270 
# 
# 
# High freq. dielectric constant tensor:
#      x y z
#    x 2.203950 0.000000 0.009420 
#    y 0.000000 2.141320 0.000000 
#    z 0.009420 0.000000 2.189910 
# 
# From -- ./inp_files/85644.got.cif
#   From: 2010.06.25/outbox.cif.g09.slc.cpg/sg13_43_cif.got.tgz:85644.got - 2010.06.28 04:50:58.
