data_PCOD8121421
_publ_section_title
;
Structure prediction by ZEFSAII (Michael W. Deem and Ramdas Pophale) SiO2 
 PCOD8121421
Probable space group: P 2/C
;
_chemical_formula_sum "Si O2"
_cell_formula_units_Z 20
_cell_length_a 18.688814
_cell_length_b 8.740717
_cell_length_c 13.130345
_cell_angle_alpha 90.000000
_cell_angle_beta 155.093271
_cell_angle_gamma 90.000000
_cell_volume 903.303807
_symmetry_space_group_name_H-M "P 2/C"
_symmetry_group_IT_number 13
_symmetry_cell_setting 'monoclinic'
loop_
_space_group_symop_operation_xyz
x,y,z
-x,y,1/2-z
-x,-y,-z
x,-y,1/2+z
loop_
_atom_site_type_symbol
_atom_site_label
_atom_site_fract_x
_atom_site_fract_y
_atom_site_fract_z
Si Si1 0.423786 0.181863 0.761797
Si Si2 0.839094 0.372285 0.975689
Si Si3 0.254298 0.690416 0.718337
Si Si4 0.947586 0.825235 0.427543
Si Si5 0.819961 0.098785 0.554205
O O1 0.500000 0.199562 0.750000
O O2 0.280386 0.308430 0.590229
O O3 0.338448 0.015457 0.665949
O O4 0.570597 0.222757 0.031437
O O5 0.742404 0.507322 0.789982
O O6 0.868265 0.237514 0.929748
O O7 0.000000 0.427632 0.250000
O O8 0.197572 0.753286 0.537196
O O9 0.115294 0.724736 0.625475
O O10 0.817512 0.827840 0.164511
O O11 0.000000 0.000000 0.500000
O O12 0.000000 0.019379 0.750000
#
# Coordination Sequence:
#
# PCOD8121421 Si02
#       5
#     4   4   4   4   4
#     4  12  25  42  63  93 129 169 216 272 325 378
#     4  12  24  43  67  94 132 175 214 264 323 393
#     4  11  24  42  65  97 130 167 214 268 327 384
#     4  11  22  41  68  97 127 169 219 264 317 390
#     4  10  22  42  66  93 126 168 219 266 320 391
#
# _framework density 22.140944000000001
#
# number of rings (size 3 to 8) (size 9 to 14) (size 15 to 20)
#    0.000    0.800    0.000   10.200    0.000    3.200 
#    0.000    1.000    0.000    0.000    0.000    0.000 
#    0.000    0.000    0.000    0.000    0.000    0.000 
#
# Total GULP energy -247876.692715 kJ/mol
# GULP energy per Si atom -12393.834636 kJ/mol
# Density = 2.209055 g / cm^3
# Si number density = 22.140944 Si / 1000 Ang^3
#
#
#
# Elastic Constant Matrix: (Units=GPa)
#
#
# Indices 1 2 3 4 5 6 
#
# 1 126.9915 52.3170 30.8359 0.0000 4.0868 0.0000
# 2 52.3170 122.2246 31.5158 0.0000 11.1548 0.0000
# 3 30.8359 31.5158 110.2211 0.0000 -4.8290 0.0000
# 4 0.0000 0.0000 0.0000 31.8646 0.0000 -7.9274
# 5 4.0868 11.1548 -4.8290 0.0000 35.7477 0.0000
# 6 0.0000 0.0000 0.0000 -7.9274 0.0000 19.8660
#
#
#
# Elastic Compliance Matrix: (Units=1/GPa)
#
#
# Indices 1 2 3 4 5 6 
#
# 1 0.009839 -0.003761 -0.001685 0.000000 -0.000179 0.000000
# 2 -0.003761 0.010629 -0.002126 0.000000 -0.003174 0.000000
# 3 -0.001685 -0.002126 0.010250 0.000000 0.002241 0.000000
# 4 0.000000 0.000000 0.000000 0.034842 0.000000 0.013903
# 5 -0.000179 -0.003174 0.002241 0.000000 0.029287 0.000000
# 6 0.000000 0.000000 0.000000 0.013903 0.000000 0.055886
#
#
# Mechanical properties :
#
#
# Convention : Reuss Voigt Hill
#
# Bulk Modulus (GPa) = 64.20769 65.41937 64.81353
# Shear Modulus (GPa) = 29.22811 33.81354 31.52083
#
# Velocity S-wave (km/s) = 3.63725 3.91217 3.77721
# Velocity P-wave (km/s) = 6.83388 7.07232 6.95412
#
# Compressibility (1/GPa) = 0.01557446
#
# Stress axis : x y z
#
# Youngs Moduli (GPa) = 101.63937 94.07996 97.55865
#
# Poissons Ratio (x) = 0.35379 0.16440
# Poissons Ratio (y) = 0.38222 0.20743
# Poissons Ratio (z) = 0.17127 0.20004
#
# Static dielectric constant tensor:
#      x y z
#    x 4.322930 0.000000 -0.059350 
#    y 0.000000 3.747170 0.000000 
#    z -0.059350 0.000000 4.434130 
# 
# 
# High freq. dielectric constant tensor:
#      x y z
#    x 1.883190 0.000000 -0.007120 
#    y 0.000000 1.869350 0.000000 
#    z -0.007120 0.000000 1.872380 
# 
# From -- ./inp_files/57372.got.cif
#   From: 2010.06.25/outbox.cif.g09.slc.cpg/sg13_29_cif.got.tgz:57372.got - 2010.06.28 04:50:58.
