data_PCOD8121588
_publ_section_title
;
Structure prediction by ZEFSAII (Michael W. Deem and Ramdas Pophale) SiO2 
 PCOD8121588
Probable space group: P 2/C
;
_chemical_formula_sum "Si O2"
_cell_formula_units_Z 22
_cell_length_a 9.684815
_cell_length_b 13.976191
_cell_length_c 7.815761
_cell_angle_alpha 90.000000
_cell_angle_beta 93.416382
_cell_angle_gamma 90.000000
_cell_volume 1056.036491
_symmetry_space_group_name_H-M "P 2/C"
_symmetry_group_IT_number 13
_symmetry_cell_setting 'monoclinic'
loop_
_space_group_symop_operation_xyz
x,y,z
-x,y,1/2-z
-x,-y,-z
x,-y,1/2+z
loop_
_atom_site_type_symbol
_atom_site_label
_atom_site_fract_x
_atom_site_fract_y
_atom_site_fract_z
Si Si1 0.500000 0.207997 0.250000
Si Si2 0.907363 0.290244 0.582768
Si Si3 0.639622 0.375935 0.452732
Si Si4 0.252620 0.099978 0.391566
Si Si5 0.840466 0.095529 0.733393
Si Si6 0.500000 0.470498 0.750000
Si Si7 0.000000 0.211172 0.250000
O O1 0.597459 0.273311 0.375033
O O2 0.403664 0.141311 0.360909
O O3 0.795077 0.371857 0.535347
O O4 0.829539 0.191129 0.620501
O O5 0.000651 0.276739 0.420124
O O6 0.000000 0.323902 0.750000
O O7 0.535138 0.401731 0.596646
O O8 0.628575 0.459356 0.308500
O O9 0.215511 0.121416 0.584058
O O10 0.137652 0.146774 0.259658
O O11 0.253213 0.985855 0.360405
O O12 0.000000 0.060691 0.750000
#
# Coordination Sequence:
#
# PCOD8121588 Si02
#       7
#     2   4   4   4   4   2   2
#     4  11  26  40  65 100 132 180 219 278 330 383
#     4  11  23  40  67 102 125 176 223 273 327 380
#     4  10  22  44  67  97 125 160 222 260 337 417
#     4  12  23  39  60  93 136 182 229 274 317 378
#     4  11  22  38  61  91 132 185 232 263 323 381
#     4   9  22  44  73  88 126 174 191 272 348 423
#     4  12  20  40  66  90 138 174 224 284 308 386
#
# _framework density 20.832614
#
# number of rings (size 3 to 8) (size 9 to 14) (size 15 to 20)
#    0.000    1.091    6.364    1.636    2.545    0.727 
#    3.273    0.909    0.000    0.000    0.000    0.000 
#    0.000    0.000    0.000    0.000    0.000    0.000 
#
# Total GULP energy -272851.133327 kJ/mol
# GULP energy per Si atom -12402.324242 kJ/mol
# Density = 2.078520 g / cm^3
# Si number density = 20.832614 Si / 1000 Ang^3
#
#
#
# Elastic Constant Matrix: (Units=GPa)
#
#
# Indices 1 2 3 4 5 6 
#
# 1 92.5301 33.5932 38.3288 0.0000 -4.2995 0.0000
# 2 33.5932 68.3917 28.6315 0.0000 -0.5585 0.0000
# 3 38.3288 28.6315 132.9584 0.0000 -9.1534 0.0000
# 4 0.0000 0.0000 0.0000 6.3562 0.0000 -5.5524
# 5 -4.2995 -0.5585 -9.1534 0.0000 41.7114 0.0000
# 6 0.0000 0.0000 0.0000 -5.5524 0.0000 22.8761
#
#
#
# Elastic Compliance Matrix: (Units=1/GPa)
#
#
# Indices 1 2 3 4 5 6 
#
# 1 0.014076 -0.005750 -0.002767 0.000000 0.000767 0.000000
# 2 -0.005750 0.018431 -0.002371 0.000000 -0.000866 0.000000
# 3 -0.002767 -0.002371 0.008943 0.000000 0.001645 0.000000
# 4 0.000000 0.000000 0.000000 0.199657 0.000000 0.048460
# 5 0.000767 -0.000866 0.001645 0.000000 0.024403 0.000000
# 6 0.000000 0.000000 0.000000 0.048460 0.000000 0.055476
#
#
# Mechanical properties :
#
#
# Convention : Reuss Voigt Hill
#
# Bulk Modulus (GPa) = 50.82589 54.99858 52.91223
# Shear Modulus (GPa) = 14.31353 27.07721 20.69537
#
# Velocity S-wave (km/s) = 2.62405 3.60912 3.15526
# Velocity P-wave (km/s) = 5.79923 6.62006 6.22319
#
# Compressibility (1/GPa) = 0.01967501
#
# Stress axis : x y z
#
# Youngs Moduli (GPa) = 71.04046 54.25531 111.82281
#
# Poissons Ratio (x) = 0.31194 0.30942
# Poissons Ratio (y) = 0.40845 0.26516
# Poissons Ratio (z) = 0.19657 0.12865
#
# Static dielectric constant tensor:
#      x y z
#    x 3.569840 0.000000 0.070350 
#    y 0.000000 3.642230 0.000000 
#    z 0.070350 0.000000 3.889350 
# 
# 
# High freq. dielectric constant tensor:
#      x y z
#    x 1.794040 0.000000 0.000730 
#    y 0.000000 1.799520 0.000000 
#    z 0.000730 0.000000 1.834480 
# 
# From -- ./inp_files/12342.got.cif
#   From: 2010.06.25/outbox.cif.g09.slc.cpg/sg13_7_cif.got.tgz:12342.got - 2010.06.28 04:50:58.
