data_PCOD8121322
_publ_section_title
;
Structure prediction by ZEFSAII (Michael W. Deem and Ramdas Pophale) SiO2 
 PCOD8121322
Probable space group: P 2/C
;
_chemical_formula_sum "Si O2"
_cell_formula_units_Z 22
_cell_length_a 13.684935
_cell_length_b 6.697775
_cell_length_c 23.942072
_cell_angle_alpha 90.000000
_cell_angle_beta 152.024554
_cell_angle_gamma 90.000000
_cell_volume 1029.423556
_symmetry_space_group_name_H-M "P 2/C"
_symmetry_group_IT_number 13
_symmetry_cell_setting 'monoclinic'
loop_
_space_group_symop_operation_xyz
x,y,z
-x,y,1/2-z
-x,-y,-z
x,-y,1/2+z
loop_
_atom_site_type_symbol
_atom_site_label
_atom_site_fract_x
_atom_site_fract_y
_atom_site_fract_z
Si Si1 0.259839 0.129586 0.324116
Si Si2 0.786416 0.158134 0.076393
Si Si3 0.500000 0.018424 0.750000
Si Si4 0.261331 0.803189 0.231417
Si Si5 0.225382 0.163413 0.023118
Si Si6 0.520112 0.524853 0.910560
O O1 0.263574 0.047711 0.389805
O O2 0.422631 0.311114 0.402470
O O3 0.029698 0.210602 0.193719
O O4 0.319485 0.953478 0.311481
O O5 0.660663 0.364606 0.013681
O O6 0.717855 0.012896 0.991816
O O7 0.681123 0.885567 0.869102
O O8 0.608785 0.150544 0.758120
O O9 0.326907 0.581260 0.282150
O O10 0.019612 0.806591 0.094946
O O11 0.329082 0.370120 0.057626
#
# Coordination Sequence:
#
# PCOD8121322 Si02
#       6
#     4   4   2   4   4   4
#     4  10  22  41  65  96 134 171 210 261 322 387
#     4  10  22  41  65  96 134 171 210 261 322 387
#     4  12  22  50  66  90 126 176 218 260 324 374
#     4  11  25  44  67  96 130 170 216 265 317 382
#     4  11  25  44  67  96 130 170 216 265 317 382
#     4  12  21  41  64 100 130 165 215 264 324 380
#
# _framework density 21.371184
#
# number of rings (size 3 to 8) (size 9 to 14) (size 15 to 20)
#    0.000    1.091    3.636    2.182    0.000    5.091 
#    0.000    5.455    0.000    0.000    0.000    0.000 
#    0.000    0.000    0.000    0.000    0.000    0.000 
#
# Total GULP energy -272817.861608 kJ/mol
# GULP energy per Si atom -12400.811891 kJ/mol
# Density = 2.132254 g / cm^3
# Si number density = 21.371184 Si / 1000 Ang^3
#
#
#
# Elastic Constant Matrix: (Units=GPa)
#
#
# Indices 1 2 3 4 5 6 
#
# 1 117.9432 30.6773 19.0283 0.0000 -0.7132 0.0000
# 2 30.6773 83.4944 17.3613 0.0000 3.9853 0.0000
# 3 19.0283 17.3613 57.1822 0.0000 -7.2568 0.0000
# 4 0.0000 0.0000 0.0000 34.3198 0.0000 17.0463
# 5 -0.7132 3.9853 -7.2568 0.0000 42.4226 0.0000
# 6 0.0000 0.0000 0.0000 17.0463 0.0000 24.7607
#
#
#
# Elastic Compliance Matrix: (Units=1/GPa)
#
#
# Indices 1 2 3 4 5 6 
#
# 1 0.009645 -0.003075 -0.002268 0.000000 0.000063 0.000000
# 2 -0.003075 0.013917 -0.003449 0.000000 -0.001949 0.000000
# 3 -0.002268 -0.003449 0.019755 0.000000 0.003665 0.000000
# 4 0.000000 0.000000 0.000000 0.044278 0.000000 -0.030483
# 5 0.000063 -0.001949 0.003665 0.000000 0.024383 0.000000
# 6 0.000000 0.000000 0.000000 -0.030483 0.000000 0.061372
#
#
# Mechanical properties :
#
#
# Convention : Reuss Voigt Hill
#
# Bulk Modulus (GPa) = 38.86205 43.63931 41.25068
# Shear Modulus (GPa) = 25.06105 33.07082 29.06594
#
# Velocity S-wave (km/s) = 3.42812 3.93803 3.69189
# Velocity P-wave (km/s) = 5.82178 6.41416 6.12514
#
# Compressibility (1/GPa) = 0.02573205
#
# Stress axis : x y z
#
# Youngs Moduli (GPa) = 103.68324 71.85455 50.62001
#
# Poissons Ratio (x) = 0.22096 0.11480
# Poissons Ratio (y) = 0.31884 0.17461
# Poissons Ratio (z) = 0.23513 0.24786
#
# Static dielectric constant tensor:
#      x y z
#    x 3.883680 0.000000 0.122490 
#    y 0.000000 3.679890 0.000000 
#    z 0.122490 0.000000 4.126400 
# 
# 
# High freq. dielectric constant tensor:
#      x y z
#    x 1.848230 0.000000 0.017280 
#    y 0.000000 1.823490 0.000000 
#    z 0.017280 0.000000 1.860180 
# 
# From -- ./inp_files/52343.got.cif
#   From: 2010.06.25/outbox.cif.g09.slc.cpg/sg13_27_cif.got.tgz:52343.got - 2010.06.28 04:50:58.
