data_PCOD8121803
_publ_section_title
;
Structure prediction by ZEFSAII (Michael W. Deem and Ramdas Pophale) SiO2 
 PCOD8121803
Probable space group: P 2/C
;
_chemical_formula_sum "Si O2"
_cell_formula_units_Z 24
_cell_length_a 11.274770
_cell_length_b 10.762262
_cell_length_c 12.568414
_cell_angle_alpha 90.000000
_cell_angle_beta 51.905812
_cell_angle_gamma 90.000000
_cell_volume 1200.231837
_symmetry_space_group_name_H-M "P 2/C"
_symmetry_group_IT_number 13
_symmetry_cell_setting 'monoclinic'
loop_
_space_group_symop_operation_xyz
x,y,z
-x,y,1/2-z
-x,-y,-z
x,-y,1/2+z
loop_
_atom_site_type_symbol
_atom_site_label
_atom_site_fract_x
_atom_site_fract_y
_atom_site_fract_z
Si Si1 0.002721 0.641327 0.622895
Si Si2 0.500000 0.643614 0.750000
Si Si3 0.764894 0.461236 0.660065
Si Si4 0.035839 0.140471 0.511023
Si Si5 0.500000 0.056705 0.750000
Si Si6 0.349473 0.150731 0.460095
Si Si7 0.277524 0.793312 0.235010
O O1 0.892940 0.528094 0.657168
O O2 0.950604 0.772102 0.600444
O O3 0.000000 0.662232 0.750000
O O4 0.166675 0.601348 0.485686
O O5 0.639176 0.559962 0.704066
O O6 0.549678 0.730063 0.624663
O O7 0.691062 0.353916 0.773974
O O8 0.189535 0.153879 0.490249
O O9 0.901777 0.188434 0.659535
O O10 0.000000 0.000000 0.500000
O O11 0.637315 0.139694 0.715485
O O12 0.561918 0.973630 0.619481
O O13 0.333769 0.149539 0.594530
#
# Coordination Sequence:
#
# PCOD8121803 Si02
#       7
#     4   2   4   4   2   4   4
#     4  10  23  42  67  95 130 171 211 271 325 369
#     4  11  23  44  62  94 133 163 214 264 320 387
#     4  10  23  42  64  95 133 163 219 268 310 402
#     4  11  22  45  65  95 128 164 225 266 308 392
#     4  11  23  46  58  98 141 159 218 276 316 391
#     4  11  24  42  68  92 129 175 215 265 326 383
#     4  11  24  41  69  95 126 176 212 267 331 377
#
# _framework density 19.996137000000001
#
# number of rings (size 3 to 8) (size 9 to 14) (size 15 to 20)
#    0.000    1.333    3.333    1.500    2.333    2.000 
#    6.000    0.000    0.000    0.000    0.000    0.000 
#    0.000    0.000    0.000    0.000    0.000    0.000 
#
# Total GULP energy -297658.666465 kJ/mol
# GULP energy per Si atom -12402.444436 kJ/mol
# Density = 1.995063 g / cm^3
# Si number density = 19.996137 Si / 1000 Ang^3
#
#
#
# Elastic Constant Matrix: (Units=GPa)
#
#
# Indices 1 2 3 4 5 6 
#
# 1 70.7195 33.0253 28.6362 0.0000 -3.9513 0.0000
# 2 33.0253 142.7575 34.7737 0.0000 6.8236 0.0000
# 3 28.6362 34.7737 96.3388 0.0000 16.6782 0.0000
# 4 0.0000 0.0000 0.0000 22.1078 0.0000 -8.4350
# 5 -3.9513 6.8236 16.6782 0.0000 35.9459 0.0000
# 6 0.0000 0.0000 0.0000 -8.4350 0.0000 29.7114
#
#
#
# Elastic Compliance Matrix: (Units=1/GPa)
#
#
# Indices 1 2 3 4 5 6 
#
# 1 0.017929 -0.003154 -0.005040 0.000000 0.004908 0.000000
# 2 -0.003154 0.008236 -0.001853 0.000000 -0.001050 0.000000
# 3 -0.005040 -0.001853 0.013681 0.000000 -0.006550 0.000000
# 4 0.000000 0.000000 0.000000 0.050728 0.000000 0.014402
# 5 0.004908 -0.001050 -0.006550 0.000000 0.031598 0.000000
# 6 0.000000 0.000000 0.000000 0.014402 0.000000 0.037746
#
#
# Mechanical properties :
#
#
# Convention : Reuss Voigt Hill
#
# Bulk Modulus (GPa) = 50.63351 55.85401 53.24376
# Shear Modulus (GPa) = 26.79579 31.77842 29.28710
#
# Velocity S-wave (km/s) = 3.66464 3.99084 3.83121
# Velocity P-wave (km/s) = 6.57896 7.01632 6.80116
#
# Compressibility (1/GPa) = 0.01974977
#
# Stress axis : x y z
#
# Youngs Moduli (GPa) = 55.77664 121.41362 73.09319
#
# Poissons Ratio (x) = 0.38299 0.36841
# Poissons Ratio (y) = 0.17594 0.13547
# Poissons Ratio (z) = 0.28113 0.22503
#
# Static dielectric constant tensor:
#      x y z
#    x 3.785180 0.000000 -0.329560 
#    y 0.000000 4.002230 0.000000 
#    z -0.329560 0.000000 3.694770 
# 
# 
# High freq. dielectric constant tensor:
#      x y z
#    x 1.776300 0.000000 -0.014880 
#    y 0.000000 1.802760 0.000000 
#    z -0.014880 0.000000 1.778960 
# 
# From -- ./inp_files/29381.got.cif
#   From: 2010.06.25/outbox.cif.g09.slc.cpg/sg13_15_cif.got.tgz:29381.got - 2010.06.28 04:50:58.
