data_PCOD8121176
_publ_section_title
;
Structure prediction by ZEFSAII (Michael W. Deem and Ramdas Pophale) SiO2 
 PCOD8121176
Probable space group: P 2/C
;
_chemical_formula_sum "Si O2"
_cell_formula_units_Z 32
_cell_length_a 11.392464
_cell_length_b 8.648959
_cell_length_c 30.251808
_cell_angle_alpha 90.000000
_cell_angle_beta 32.665116
_cell_angle_gamma 90.000000
_cell_volume 1608.820852
_symmetry_space_group_name_H-M "P 2/C"
_symmetry_group_IT_number 13
_symmetry_cell_setting 'monoclinic'
loop_
_space_group_symop_operation_xyz
x,y,z
-x,y,1/2-z
-x,-y,-z
x,-y,1/2+z
loop_
_atom_site_type_symbol
_atom_site_label
_atom_site_fract_x
_atom_site_fract_y
_atom_site_fract_z
Si Si1 0.487078 0.183100 0.502874
Si Si2 0.933902 0.172766 0.530351
Si Si3 0.986721 0.413279 0.070097
Si Si4 0.410099 0.629880 0.326222
Si Si5 0.064865 0.634561 0.641299
Si Si6 0.799722 0.632944 0.344050
Si Si7 0.274895 0.692907 0.982240
Si Si8 0.650161 0.419643 0.316600
O O1 0.729822 0.251792 0.422125
O O2 0.363615 0.233492 0.587325
O O3 0.347069 0.239528 0.505975
O O4 0.500000 0.000000 0.500000
O O5 0.992075 0.269434 0.468722
O O6 0.067713 0.212315 0.531963
O O7 0.679715 0.211225 0.622451
O O8 0.000000 0.000000 0.500000
O O9 0.792723 0.514254 0.112016
O O10 0.942810 0.352155 0.133085
O O11 0.209724 0.511238 0.004205
O O12 0.500000 0.674304 0.250000
O O13 0.597358 0.545451 0.295112
O O14 0.124076 0.457404 0.635649
O O15 0.869886 0.677695 0.737089
O O16 0.668632 0.508741 0.357167
O O17 0.000000 0.698119 0.250000
O O18 0.462775 0.706428 0.885181
#
# Coordination Sequence:
#
# PCOD8121176 Si02
#       8
#     4   4   4   4   4   4   4   4
#     4  12  26  41  61  94 136 174 208 265 343 395
#     4  11  25  39  62  95 130 169 213 255 336 404
#     4  11  20  38  67  89 120 163 216 266 313 380
#     4  11  21  39  63  94 123 161 212 276 317 371
#     4  11  22  37  65  93 119 162 218 266 313 380
#     4  10  22  40  63  90 120 162 216 267 314 374
#     4  11  21  41  64  88 122 167 215 262 315 382
#     4  11  20  38  68  93 118 155 222 273 304 362
#
# _framework density 19.890345
#
# number of rings (size 3 to 8) (size 9 to 14) (size 15 to 20)
#    0.000    1.000    6.250    1.875    1.750    0.000 
#    2.250    1.875    0.000    0.000    0.000    0.000 
#    0.000    0.000    0.000    0.000    0.000    0.000 
#
# Total GULP energy -396578.819793 kJ/mol
# GULP energy per Si atom -12393.088119 kJ/mol
# Density = 1.984507 g / cm^3
# Si number density = 19.890345 Si / 1000 Ang^3
#
#
#
# Elastic Constant Matrix: (Units=GPa)
#
#
# Indices 1 2 3 4 5 6 
#
# 1 94.7024 22.4888 18.1844 0.0000 8.6839 0.0000
# 2 22.4888 108.4816 58.1870 0.0000 5.9818 0.0000
# 3 18.1844 58.1870 141.3586 0.0000 0.7238 0.0000
# 4 0.0000 0.0000 0.0000 21.3154 0.0000 3.1067
# 5 8.6839 5.9818 0.7238 0.0000 34.3454 0.0000
# 6 0.0000 0.0000 0.0000 3.1067 0.0000 17.3843
#
#
#
# Elastic Compliance Matrix: (Units=1/GPa)
#
#
# Indices 1 2 3 4 5 6 
#
# 1 0.011363 -0.001846 -0.000689 0.000000 -0.002537 0.000000
# 2 -0.001846 0.012263 -0.004802 0.000000 -0.001568 0.000000
# 3 -0.000689 -0.004802 0.009135 0.000000 0.000818 0.000000
# 4 0.000000 0.000000 0.000000 0.048169 0.000000 -0.008608
# 5 -0.002537 -0.001568 0.000818 0.000000 0.030013 0.000000
# 6 0.000000 0.000000 0.000000 -0.008608 0.000000 0.059061
#
#
# Mechanical properties :
#
#
# Convention : Reuss Voigt Hill
#
# Bulk Modulus (GPa) = 55.28940 60.25144 57.77042
# Shear Modulus (GPa) = 26.21803 30.98785 28.60294
#
# Velocity S-wave (km/s) = 3.63454 3.95135 3.79625
# Velocity P-wave (km/s) = 6.74319 7.15368 6.95147
#
# Compressibility (1/GPa) = 0.01808665
#
# Stress axis : x y z
#
# Youngs Moduli (GPa) = 88.00730 81.54480 109.46438
#
# Poissons Ratio (x) = 0.15055 0.07539
# Poissons Ratio (y) = 0.16248 0.52568
# Poissons Ratio (z) = 0.06061 0.39161
#
# Static dielectric constant tensor:
#      x y z
#    x 3.821680 0.000000 -0.062960 
#    y 0.000000 3.292320 0.000000 
#    z -0.062960 0.000000 4.029510 
# 
# 
# High freq. dielectric constant tensor:
#      x y z
#    x 1.794440 0.000000 0.002130 
#    y 0.000000 1.725210 0.000000 
#    z 0.002130 0.000000 1.793230 
# 
# From -- ./inp_files/96690.got.cif
#   From: 2010.06.25/outbox.cif.g09.slc.cpg/sg13_49_cif.got.tgz:96690.got - 2010.06.28 04:50:58.
