data_PCOD8121212
_publ_section_title
;
Structure prediction by ZEFSAII (Michael W. Deem and Ramdas Pophale) SiO2 
 PCOD8121212
Probable space group: P 2/C
;
_chemical_formula_sum "Si O2"
_cell_formula_units_Z 26
_cell_length_a 14.322532
_cell_length_b 14.369876
_cell_length_c 8.862269
_cell_angle_alpha 90.000000
_cell_angle_beta 137.526479
_cell_angle_gamma 90.000000
_cell_volume 1231.634826
_symmetry_space_group_name_H-M "P 2/C"
_symmetry_group_IT_number 13
_symmetry_cell_setting 'monoclinic'
loop_
_space_group_symop_operation_xyz
x,y,z
-x,y,1/2-z
-x,-y,-z
x,-y,1/2+z
loop_
_atom_site_type_symbol
_atom_site_label
_atom_site_fract_x
_atom_site_fract_y
_atom_site_fract_z
Si Si1 0.394405 0.873435 0.385601
Si Si2 0.191387 0.590291 0.715488
Si Si3 0.822011 0.731956 0.293725
Si Si4 0.000000 0.668779 0.250000
Si Si5 0.555491 0.705277 0.478886
Si Si6 0.500000 0.013684 0.750000
Si Si7 0.000000 0.365976 0.250000
Si Si8 0.606766 0.420257 0.510034
O O1 0.244158 0.829988 0.238637
O O2 0.515777 0.793774 0.537272
O O3 0.395855 0.922190 0.223246
O O4 0.411577 0.950103 0.533920
O O5 0.088115 0.574054 0.733964
O O6 0.293473 0.503788 0.823950
O O7 0.105956 0.598511 0.458855
O O8 0.280449 0.686092 0.835487
O O9 0.934675 0.738959 0.295375
O O10 0.704148 0.665692 0.081619
O O11 0.889380 0.694808 0.527423
O O12 0.500000 0.730946 0.250000
O O13 0.481689 0.610121 0.448788
O O14 0.500000 0.445680 0.250000
#
# Coordination Sequence:
#
# PCOD8121212 Si02
#       8
#     4   4   4   2   4   2   2   4
#     4  10  22  40  66 102 124 159 194 258 330 379
#     4  11  23  40  58  88 125 169 222 258 300 369
#     4  10  23  41  62  90 129 167 216 256 302 382
#     4  10  24  39  60  89 120 184 214 257 298 352
#     4  11  22  38  64  92 125 161 198 263 324 372
#     4  10  22  40  68 104 128 150 192 258 342 384
#     4  10  24  41  60  85 122 186 212 255 296 356
#     4  11  24  39  61  92 125 166 215 268 321 360
#
# _framework density 21.110153
#
# number of rings (size 3 to 8) (size 9 to 14) (size 15 to 20)
#    0.000    1.538    0.769    3.692    6.462    7.385 
#    0.000    1.538    0.000    2.769    0.000    0.000 
#    0.000    0.000    0.000    0.000    0.000    0.000 
#
# Total GULP energy -322324.366028 kJ/mol
# GULP energy per Si atom -12397.091001 kJ/mol
# Density = 2.106210 g / cm^3
# Si number density = 21.110153 Si / 1000 Ang^3
#
#
#
# Elastic Constant Matrix: (Units=GPa)
#
#
# Indices 1 2 3 4 5 6 
#
# 1 113.6818 55.9579 40.0793 0.0000 -9.5897 0.0000
# 2 55.9579 105.8696 47.4613 0.0000 0.3765 0.0000
# 3 40.0793 47.4613 123.7160 0.0000 -3.3151 0.0000
# 4 0.0000 0.0000 0.0000 22.9745 0.0000 -2.0375
# 5 -9.5897 0.3765 -3.3151 0.0000 34.3328 0.0000
# 6 0.0000 0.0000 0.0000 -2.0375 0.0000 32.0257
#
#
#
# Elastic Compliance Matrix: (Units=1/GPa)
#
#
# Indices 1 2 3 4 5 6 
#
# 1 0.012595 -0.005895 -0.001727 0.000000 0.003416 0.000000
# 2 -0.005895 0.014177 -0.003586 0.000000 -0.002148 0.000000
# 3 -0.001727 -0.003586 0.010033 0.000000 0.000526 0.000000
# 4 0.000000 0.000000 0.000000 0.043774 0.000000 0.002785
# 5 0.003416 -0.002148 0.000526 0.000000 0.030155 0.000000
# 6 0.000000 0.000000 0.000000 0.002785 0.000000 0.031402
#
#
# Mechanical properties :
#
#
# Convention : Reuss Voigt Hill
#
# Bulk Modulus (GPa) = 69.50715 70.02938 69.76827
# Shear Modulus (GPa) = 29.52477 31.18452 30.35465
#
# Velocity S-wave (km/s) = 3.74385 3.84764 3.79610
# Velocity P-wave (km/s) = 7.18930 7.27904 7.23431
#
# Compressibility (1/GPa) = 0.01438701
#
# Stress axis : x y z
#
# Youngs Moduli (GPa) = 79.39400 70.53701 99.67521
#
# Poissons Ratio (x) = 0.41583 0.17217
# Poissons Ratio (y) = 0.46804 0.35748
# Poissons Ratio (z) = 0.13714 0.25298
#
# Static dielectric constant tensor:
#      x y z
#    x 4.227560 0.000000 0.047230 
#    y 0.000000 3.719840 0.000000 
#    z 0.047230 0.000000 3.889980 
# 
# 
# High freq. dielectric constant tensor:
#      x y z
#    x 1.850510 0.000000 -0.007810 
#    y 0.000000 1.801410 0.000000 
#    z -0.007810 0.000000 1.823410 
# 
# From -- ./inp_files/16436.got.cif
#   From: 2010.06.25/outbox.cif.g09.slc.cpg/sg13_9_cif.got.tgz:16436.got - 2010.06.28 04:50:58.
