data_PCOD8121435
_publ_section_title
;
Structure prediction by ZEFSAII (Michael W. Deem and Ramdas Pophale) SiO2 
 PCOD8121435
Probable space group: P 2/C
;
_chemical_formula_sum "Si O2"
_cell_formula_units_Z 20
_cell_length_a 4.896696
_cell_length_b 5.531485
_cell_length_c 29.232363
_cell_angle_alpha 90.000000
_cell_angle_beta 110.296934
_cell_angle_gamma 90.000000
_cell_volume 742.623713
_symmetry_space_group_name_H-M "P 2/C"
_symmetry_group_IT_number 13
_symmetry_cell_setting 'monoclinic'
loop_
_space_group_symop_operation_xyz
x,y,z
-x,y,1/2-z
-x,-y,-z
x,-y,1/2+z
loop_
_atom_site_type_symbol
_atom_site_label
_atom_site_fract_x
_atom_site_fract_y
_atom_site_fract_z
Si Si1 0.809685 0.689048 0.462338
Si Si2 0.599342 0.711746 0.898426
Si Si3 0.698187 0.254644 0.305948
Si Si4 0.174688 0.246021 0.714747
Si Si5 0.797184 0.073793 0.052860
O O1 0.552256 0.553320 0.418933
O O2 0.663366 0.857667 0.494107
O O3 0.000000 0.500000 0.500000
O O4 0.030111 0.823025 0.440847
O O5 0.495510 0.722396 0.839654
O O6 0.445438 0.919472 0.920557
O O7 0.950704 0.737861 0.917724
O O8 0.500000 0.229160 0.250000
O O9 0.903772 0.496812 0.315032
O O10 0.872160 0.996069 0.319356
O O11 0.500000 0.282725 0.750000
O O12 0.000000 0.203957 0.750000
#
# Coordination Sequence:
#
# PCOD8121435 Si02
#       5
#     4   4   4   4   4
#     4   9  21  42  65  97 132 176 224 283 353 414
#     4  11  24  40  65  97 133 179 228 284 347 421
#     4  10  24  45  67 102 136 183 229 288 344 414
#     4  10  22  42  67  91 127 173 225 278 339 398
#     4  10  23  41  65  96 134 174 226 286 347 424
#
# _framework density 26.931542
#
# number of rings (size 3 to 8) (size 9 to 14) (size 15 to 20)
#    0.000    2.000    0.000    1.200    2.800   16.800 
#    0.000    0.000    0.000    0.000    0.000    0.000 
#    0.000    0.000    0.000    0.000    0.000    0.000 
#
# Total GULP energy -247795.709300 kJ/mol
# GULP energy per Si atom -12389.785465 kJ/mol
# Density = 2.687024 g / cm^3
# Si number density = 26.931542 Si / 1000 Ang^3
#
#
#
# Elastic Constant Matrix: (Units=GPa)
#
#
# Indices 1 2 3 4 5 6 
#
# 1 85.5664 11.7355 48.9302 0.0000 -45.9547 0.0000
# 2 11.7355 209.3454 45.6332 0.0000 -33.3878 0.0000
# 3 48.9302 45.6332 166.9368 0.0000 -45.6000 0.0000
# 4 0.0000 0.0000 0.0000 40.1901 0.0000 -8.5768
# 5 -45.9547 -33.3878 -45.6000 0.0000 44.8639 0.0000
# 6 0.0000 0.0000 0.0000 -8.5768 0.0000 37.8799
#
#
#
# Elastic Compliance Matrix: (Units=1/GPa)
#
#
# Indices 1 2 3 4 5 6 
#
# 1 0.028052 0.003470 -0.000853 0.000000 0.030449 0.000000
# 2 0.003470 0.005883 -0.000635 0.000000 0.007287 0.000000
# 3 -0.000853 -0.000635 0.008370 0.000000 0.007161 0.000000
# 4 0.000000 0.000000 0.000000 0.026145 0.000000 0.005920
# 5 0.030449 0.007287 0.007161 0.000000 0.066180 0.000000
# 6 0.000000 0.000000 0.000000 0.005920 0.000000 0.027740
#
#
# Mechanical properties :
#
#
# Convention : Reuss Voigt Hill
#
# Bulk Modulus (GPa) = 21.61311 74.93849 48.27580
# Shear Modulus (GPa) = 28.76393 48.29010 38.52701
#
# Velocity S-wave (km/s) = 3.27163 4.23906 3.78637
# Velocity P-wave (km/s) = 4.72378 7.20038 6.08931
#
# Compressibility (1/GPa) = 0.04626822
#
# Stress axis : x y z
#
# Youngs Moduli (GPa) = 35.64816 169.98704 119.47518
#
# Poissons Ratio (x) = -0.58980 0.10195
# Poissons Ratio (y) = -0.12369 0.07582
# Poissons Ratio (z) = 0.03042 0.10787
#
# Static dielectric constant tensor:
#      x y z
#    x 4.051780 0.000000 -0.432370 
#    y 0.000000 8.558740 0.000000 
#    z -0.432370 0.000000 5.782600 
# 
# 
# High freq. dielectric constant tensor:
#      x y z
#    x 2.057940 0.000000 -0.019270 
#    y 0.000000 2.112630 0.000000 
#    z -0.019270 0.000000 2.074740 
# 
# From -- ./inp_files/89894.got.cif
#   From: 2010.06.25/outbox.cif.g09.slc.cpg/sg13_45_cif.got.tgz:89894.got - 2010.06.28 04:50:58.
