data_PCOD8121060
_publ_section_title
;
Structure prediction by ZEFSAII (Michael W. Deem and Ramdas Pophale) SiO2 
 PCOD8121060
Probable space group: P 2/C
;
_chemical_formula_sum "Si O2"
_cell_formula_units_Z 28
_cell_length_a 14.009362
_cell_length_b 8.438927
_cell_length_c 17.958565
_cell_angle_alpha 90.000000
_cell_angle_beta 38.730759
_cell_angle_gamma 90.000000
_cell_volume 1328.362711
_symmetry_space_group_name_H-M "P 2/C"
_symmetry_group_IT_number 13
_symmetry_cell_setting 'monoclinic'
loop_
_space_group_symop_operation_xyz
x,y,z
-x,y,1/2-z
-x,-y,-z
x,-y,1/2+z
loop_
_atom_site_type_symbol
_atom_site_label
_atom_site_fract_x
_atom_site_fract_y
_atom_site_fract_z
Si Si1 0.829786 0.565972 0.119663
Si Si2 0.551586 0.098556 0.539048
Si Si3 0.138439 0.255216 0.111561
Si Si4 0.430888 0.565972 0.119663
Si Si5 0.870318 0.098556 0.539048
Si Si6 0.299766 0.542395 0.950234
Si Si7 0.370679 0.875170 0.879321
O O1 0.746457 0.519379 0.250000
O O2 0.716961 0.500115 0.125766
O O3 0.830550 0.756070 0.117143
O O4 0.000000 0.500000 0.000000
O O5 0.723471 0.166416 0.430640
O O6 0.435163 0.243930 0.617143
O O7 0.500000 0.000000 0.500000
O O8 0.541482 0.982561 0.614928
O O9 0.084750 0.166417 0.069360
O O10 0.000000 0.252349 0.250000
O O11 0.178998 0.439135 0.071002
O O12 0.531507 0.500115 0.125766
O O13 0.500000 0.500000 0.000000
O O14 0.728661 0.982562 0.614928
O O15 0.000000 0.000000 0.500000
O O16 0.273303 0.732340 0.976697
O O17 0.500000 0.792767 0.750000
#
# Coordination Sequence:
#
# PCOD8121060 Si02
#       7
#     4   4   4   4   4   4   4
#     4  11  23  40  63  91 122 161 205 251 303 366
#     4  10  22  39  59  88 122 157 200 250 305 366
#     4   9  21  39  60  86 122 164 205 254 310 364
#     4  11  23  40  63  91 122 161 205 251 303 366
#     4  10  22  39  59  88 122 157 200 250 305 366
#     4  10  22  40  62  86 119 159 204 247 299 368
#     4  11  21  37  62  88 114 151 197 247 298 356
#
# _framework density 21.078579999999999
#
# number of rings (size 3 to 8) (size 9 to 14) (size 15 to 20)
#    0.000    1.714    0.000    4.714    0.000    6.857 
#    0.000    2.857    0.000    0.000    0.000    0.000 
#    0.000    0.000    0.000    0.000    0.000    0.000 
#
# Total GULP energy -346938.995079 kJ/mol
# GULP energy per Si atom -12390.678396 kJ/mol
# Density = 2.103060 g / cm^3
# Si number density = 21.078580 Si / 1000 Ang^3
#
#
#
# Elastic Constant Matrix: (Units=GPa)
#
#
# Indices 1 2 3 4 5 6 
#
# 1 124.2386 49.3849 51.3288 0.0000 2.1611 0.0000
# 2 49.3849 155.9031 46.8847 0.0000 0.1289 0.0000
# 3 51.3288 46.8847 180.0218 0.0000 -5.0306 0.0000
# 4 0.0000 0.0000 0.0000 16.1339 0.0000 1.4014
# 5 2.1611 0.1289 -5.0306 0.0000 15.8291 0.0000
# 6 0.0000 0.0000 0.0000 1.4014 0.0000 43.3685
#
#
#
# Elastic Compliance Matrix: (Units=1/GPa)
#
#
# Indices 1 2 3 4 5 6 
#
# 1 0.010009 -0.002488 -0.002264 0.000000 -0.002066 0.000000
# 2 -0.002488 0.007584 -0.001269 0.000000 -0.000125 0.000000
# 3 -0.002264 -0.001269 0.006598 0.000000 0.002416 0.000000
# 4 0.000000 0.000000 0.000000 0.062156 0.000000 -0.002008
# 5 -0.002066 -0.000125 0.002416 0.000000 0.064226 0.000000
# 6 0.000000 0.000000 0.000000 -0.002008 0.000000 0.023123
#
#
# Mechanical properties :
#
#
# Convention : Reuss Voigt Hill
#
# Bulk Modulus (GPa) = 82.30626 83.92889 83.11757
# Shear Modulus (GPa) = 26.34516 35.90398 31.12457
#
# Velocity S-wave (km/s) = 3.53916 4.13163 3.84682
# Velocity P-wave (km/s) = 7.47215 7.91607 7.69731
#
# Compressibility (1/GPa) = 0.01214974
#
# Stress axis : x y z
#
# Youngs Moduli (GPa) = 99.90818 131.85269 151.55222
#
# Poissons Ratio (x) = 0.32807 0.34305
# Poissons Ratio (y) = 0.24859 0.19237
# Poissons Ratio (z) = 0.22615 0.16736
#
# Static dielectric constant tensor:
#      x y z
#    x 3.776680 0.000000 0.005600 
#    y 0.000000 4.110630 0.000000 
#    z 0.005600 0.000000 3.668000 
# 
# 
# High freq. dielectric constant tensor:
#      x y z
#    x 1.827580 0.000000 0.000820 
#    y 0.000000 1.841470 0.000000 
#    z 0.000820 0.000000 1.811680 
# 
# From -- ./inp_files/68147.got.cif
#   From: 2010.06.25/outbox.cif.g09.slc.cpg/sg13_35_cif.got.tgz:68147.got - 2010.06.28 04:50:58.
