data_PCOD8121179
_publ_section_title
;
Structure prediction by ZEFSAII (Michael W. Deem and Ramdas Pophale) SiO2 
 PCOD8121179
Probable space group: P 2/C
;
_chemical_formula_sum "Si O2"
_cell_formula_units_Z 20
_cell_length_a 12.020992
_cell_length_b 6.316953
_cell_length_c 24.719090
_cell_angle_alpha 90.000000
_cell_angle_beta 30.907950
_cell_angle_gamma 90.000000
_cell_volume 964.176272
_symmetry_space_group_name_H-M "P 2/C"
_symmetry_group_IT_number 13
_symmetry_cell_setting 'monoclinic'
loop_
_space_group_symop_operation_xyz
x,y,z
-x,y,1/2-z
-x,-y,-z
x,-y,1/2+z
loop_
_atom_site_type_symbol
_atom_site_label
_atom_site_fract_x
_atom_site_fract_y
_atom_site_fract_z
Si Si1 0.086557 0.288123 0.990526
Si Si2 0.489085 0.162466 0.630077
Si Si3 0.512199 0.181485 0.038625
Si Si4 0.731860 0.991222 0.675960
Si Si5 0.753266 0.565179 0.357730
O O1 0.308708 0.300170 0.932363
O O2 0.139919 0.143503 0.917403
O O3 0.000000 0.500000 0.000000
O O4 0.894743 0.208573 0.111026
O O5 0.308802 0.109445 0.750519
O O6 0.377226 0.303193 0.631979
O O7 0.566811 0.933671 0.572856
O O8 0.286916 0.314206 0.135083
O O9 0.686173 0.358500 0.946481
O O10 0.500000 0.000000 0.000000
O O11 0.500000 0.914665 0.750000
O O12 0.000000 0.620292 0.250000
#
# Coordination Sequence:
#
# PCOD8121179 Si02
#       5
#     4   4   4   4   4
#     4  10  22  40  63  91 128 162 206 263 310 379
#     4  10  22  40  65  94 124 169 207 261 326 372
#     4   9  21  42  59  87 130 159 210 259 312 375
#     4   9  21  40  60  90 124 163 207 254 313 378
#     4  10  22  40  64  94 126 165 216 264 310 381
#
# _framework density 20.743095
#
# number of rings (size 3 to 8) (size 9 to 14) (size 15 to 20)
#    0.000    2.400    0.000    0.000    2.800   12.000 
#   14.400    0.000    0.000    0.000    0.000    0.000 
#    0.000    0.000    0.000    0.000    0.000    0.000 
#
# Total GULP energy -247785.720029 kJ/mol
# GULP energy per Si atom -12389.286001 kJ/mol
# Density = 2.069588 g / cm^3
# Si number density = 20.743095 Si / 1000 Ang^3
#
#
#
# Elastic Constant Matrix: (Units=GPa)
#
#
# Indices 1 2 3 4 5 6 
#
# 1 92.5611 49.6490 52.7321 0.0000 -2.6679 0.0000
# 2 49.6490 97.3286 49.2776 0.0000 -21.4366 0.0000
# 3 52.7321 49.2776 136.6950 0.0000 -5.9873 0.0000
# 4 0.0000 0.0000 0.0000 24.6275 0.0000 -0.6841
# 5 -2.6679 -21.4366 -5.9873 0.0000 28.4938 0.0000
# 6 0.0000 0.0000 0.0000 -0.6841 0.0000 38.2216
#
#
#
# Elastic Compliance Matrix: (Units=1/GPa)
#
#
# Indices 1 2 3 4 5 6 
#
# 1 0.017152 -0.007852 -0.004012 0.000000 -0.005144 0.000000
# 2 -0.007852 0.018654 -0.003142 0.000000 0.012639 0.000000
# 3 -0.004012 -0.003142 0.009968 0.000000 -0.000645 0.000000
# 4 0.000000 0.000000 0.000000 0.040625 0.000000 0.000727
# 5 -0.005144 0.012639 -0.000645 0.000000 0.043987 0.000000
# 6 0.000000 0.000000 0.000000 0.000727 0.000000 0.026176
#
#
# Mechanical properties :
#
#
# Convention : Reuss Voigt Hill
#
# Bulk Modulus (GPa) = 63.43865 69.98913 66.71389
# Shear Modulus (GPa) = 26.06507 29.93033 27.99770
#
# Velocity S-wave (km/s) = 3.54865 3.80268 3.67786
# Velocity P-wave (km/s) = 6.88767 7.28661 7.08995
#
# Compressibility (1/GPa) = 0.01576326
#
# Stress axis : x y z
#
# Youngs Moduli (GPa) = 58.30105 53.60694 100.32476
#
# Poissons Ratio (x) = 0.42090 0.40247
# Poissons Ratio (y) = 0.45775 0.31525
# Poissons Ratio (z) = 0.23388 0.16845
#
# Static dielectric constant tensor:
#      x y z
#    x 12.647510 0.000000 -7.772910 
#    y 0.000000 4.084680 0.000000 
#    z -7.772910 0.000000 11.514380 
# 
# 
# High freq. dielectric constant tensor:
#      x y z
#    x 1.798700 0.000000 0.013040 
#    y 0.000000 1.811880 0.000000 
#    z 0.013040 0.000000 1.823070 
# 
# From -- ./inp_files/38275.got.cif
#   From: 2010.06.25/outbox.cif.g09.slc.cpg/sg13_20_cif.got.tgz:38275.got - 2010.06.28 04:50:58.
