data_PCOD8121519
_publ_section_title
;
Structure prediction by ZEFSAII (Michael W. Deem and Ramdas Pophale) SiO2 
 PCOD8121519
Probable space group: P 2/C
;
_chemical_formula_sum "Si O2"
_cell_formula_units_Z 26
_cell_length_a 21.714706
_cell_length_b 6.471706
_cell_length_c 17.637840
_cell_angle_alpha 90.000000
_cell_angle_beta 29.883350
_cell_angle_gamma 90.000000
_cell_volume 1234.960488
_symmetry_space_group_name_H-M "P 2/C"
_symmetry_group_IT_number 13
_symmetry_cell_setting 'monoclinic'
loop_
_space_group_symop_operation_xyz
x,y,z
-x,y,1/2-z
-x,-y,-z
x,-y,1/2+z
loop_
_atom_site_type_symbol
_atom_site_label
_atom_site_fract_x
_atom_site_fract_y
_atom_site_fract_z
Si Si1 0.159424 0.146195 0.881635
Si Si2 0.433331 0.355488 0.439987
Si Si3 0.677488 0.856234 0.716515
Si Si4 0.110277 0.897811 0.789260
Si Si5 0.500000 0.308335 0.750000
Si Si6 0.296361 0.041013 0.476205
Si Si7 0.228092 0.439418 0.256941
O O1 0.144563 0.388750 0.885637
O O2 0.284850 0.086440 0.794066
O O3 0.167728 0.051255 0.789331
O O4 0.037218 0.075348 0.057948
O O5 0.533040 0.201849 0.372686
O O6 0.497222 0.545129 0.327001
O O7 0.356097 0.211161 0.466749
O O8 0.352638 0.455002 0.592731
O O9 0.727015 0.840183 0.577614
O O10 0.750524 0.712112 0.696059
O O11 0.153930 0.667847 0.767288
O O12 0.166987 0.958849 0.647570
O O13 0.618501 0.159938 0.627443
#
# Coordination Sequence:
#
# PCOD8121519 Si02
#       7
#     4   4   4   4   2   4   4
#     4  10  23  42  65  92 132 164 215 277 314 383
#     4  12  23  41  65  99 128 176 217 262 334 404
#     4  11  25  39  61 103 133 163 211 272 331 384
#     4  10  22  43  68  91 118 177 226 255 322 390
#     4  12  22  40  66  92 126 170 216 264 318 396
#     4  12  23  42  68  91 130 174 216 267 326 392
#     4  11  23  41  67  98 129 171 218 270 328 391
#
# _framework density 21.053304000000001
#
# number of rings (size 3 to 8) (size 9 to 14) (size 15 to 20)
#    0.000    0.923    6.154    0.923    2.154    1.231 
#    0.000    0.000    3.385    0.000    0.000    0.000 
#    0.000    0.000    0.000    0.000    0.000    0.000 
#
# Total GULP energy -322284.423390 kJ/mol
# GULP energy per Si atom -12395.554746 kJ/mol
# Density = 2.100539 g / cm^3
# Si number density = 21.053304 Si / 1000 Ang^3
#
#
#
# Elastic Constant Matrix: (Units=GPa)
#
#
# Indices 1 2 3 4 5 6 
#
# 1 74.8468 26.7213 30.3386 0.0000 2.6746 0.0000
# 2 26.7213 97.3756 28.9070 0.0000 4.4512 0.0000
# 3 30.3386 28.9070 108.6618 0.0000 11.4734 0.0000
# 4 0.0000 0.0000 0.0000 35.4108 0.0000 6.4191
# 5 2.6746 4.4512 11.4734 0.0000 15.0888 0.0000
# 6 0.0000 0.0000 0.0000 6.4191 0.0000 24.1049
#
#
#
# Elastic Compliance Matrix: (Units=1/GPa)
#
#
# Indices 1 2 3 4 5 6 
#
# 1 0.016013 -0.003345 -0.003681 0.000000 0.000947 0.000000
# 2 -0.003345 0.011866 -0.002083 0.000000 -0.001324 0.000000
# 3 -0.003681 -0.002083 0.011581 0.000000 -0.007539 0.000000
# 4 0.000000 0.000000 0.000000 0.029672 0.000000 -0.007902
# 5 0.000947 -0.001324 -0.007539 0.000000 0.072229 0.000000
# 6 0.000000 0.000000 0.000000 -0.007902 0.000000 0.043590
#
#
# Mechanical properties :
#
#
# Convention : Reuss Voigt Hill
#
# Bulk Modulus (GPa) = 47.07615 50.31309 48.69462
# Shear Modulus (GPa) = 23.78120 27.91538 25.84829
#
# Velocity S-wave (km/s) = 3.36456 3.64529 3.50773
# Velocity P-wave (km/s) = 6.12394 6.45503 6.29166
#
# Compressibility (1/GPa) = 0.02124218
#
# Stress axis : x y z
#
# Youngs Moduli (GPa) = 62.44930 84.27256 86.34956
#
# Poissons Ratio (x) = 0.28187 0.31786
# Poissons Ratio (y) = 0.20888 0.17988
# Poissons Ratio (z) = 0.22988 0.17555
#
# Static dielectric constant tensor:
#      x y z
#    x 3.737630 0.000000 0.135130 
#    y 0.000000 4.113400 0.000000 
#    z 0.135130 0.000000 3.826310 
# 
# 
# High freq. dielectric constant tensor:
#      x y z
#    x 1.807150 0.000000 0.008700 
#    y 0.000000 1.837640 0.000000 
#    z 0.008700 0.000000 1.826660 
# 
# From -- ./inp_files/70905.got.cif
#   From: 2010.06.25/outbox.cif.g09.slc.cpg/sg13_36_cif.got.tgz:70905.got - 2010.06.28 04:50:58.
