data_PCOD8121741
_publ_section_title
;
Structure prediction by ZEFSAII (Michael W. Deem and Ramdas Pophale) SiO2 
 PCOD8121741
Probable space group: P 2/C
;
_chemical_formula_sum "Si O2"
_cell_formula_units_Z 32
_cell_length_a 18.713384
_cell_length_b 15.333129
_cell_length_c 13.719757
_cell_angle_alpha 90.000000
_cell_angle_beta 157.437084
_cell_angle_gamma 90.000000
_cell_volume 1510.493082
_symmetry_space_group_name_H-M "P 2/C"
_symmetry_group_IT_number 13
_symmetry_cell_setting 'monoclinic'
loop_
_space_group_symop_operation_xyz
x,y,z
-x,y,1/2-z
-x,-y,-z
x,-y,1/2+z
loop_
_atom_site_type_symbol
_atom_site_label
_atom_site_fract_x
_atom_site_fract_y
_atom_site_fract_z
Si Si1 0.290278 0.908196 0.516552
Si Si2 0.881407 0.085295 0.186090
Si Si3 0.167662 0.614185 0.155036
Si Si4 0.428512 0.200438 0.765094
Si Si5 0.230542 0.537100 0.867090
Si Si6 0.534110 0.099645 0.069743
Si Si7 0.576803 0.599618 0.204426
Si Si8 0.842941 0.819979 0.325198
O O1 0.500000 0.890531 0.750000
O O2 0.291502 0.892480 0.635539
O O3 0.150838 0.842314 0.283360
O O4 0.239764 0.007154 0.421309
O O5 0.000000 0.039236 0.250000
O O6 0.981789 0.136885 0.399916
O O7 0.769607 0.153487 0.977280
O O8 0.202434 0.563602 0.300455
O O9 0.331495 0.583351 0.285955
O O10 0.168416 0.716870 0.173007
O O11 0.963650 0.587080 0.861151
O O12 0.500000 0.176140 0.750000
O O13 0.387005 0.300948 0.724476
O O14 0.576528 0.159912 0.028619
O O15 0.354483 0.582436 0.936346
O O16 0.328027 0.537776 0.094946
O O17 0.343974 0.136664 0.872838
O O18 0.500000 0.000000 0.000000
#
# Coordination Sequence:
#
# PCOD8121741 Si02
#       8
#     4   4   4   4   4   4   4   4
#     4  10  23  41  58  86 128 169 217 259 319 393
#     4  12  21  38  60  93 125 167 215 267 326 379
#     4  11  22  43  67  95 134 171 213 278 338 398
#     4  12  23  38  66  93 124 165 219 275 316 382
#     4  10  23  40  66  99 130 165 217 274 337 401
#     4  11  21  41  61  89 129 170 217 263 322 390
#     4  11  21  43  64 101 128 170 221 271 335 401
#     4  11  23  39  63  94 124 174 217 264 332 394
#
# _framework density 21.185134000000001
#
# number of rings (size 3 to 8) (size 9 to 14) (size 15 to 20)
#    0.000    1.000    5.000    2.250    1.750    0.000 
#    9.000    0.000    0.000    1.500    0.000    0.000 
#    0.000    0.000    0.000    0.000    0.000    0.000 
#
# Total GULP energy -396551.138024 kJ/mol
# GULP energy per Si atom -12392.223063 kJ/mol
# Density = 2.113692 g / cm^3
# Si number density = 21.185134 Si / 1000 Ang^3
#
#
#
# Elastic Constant Matrix: (Units=GPa)
#
#
# Indices 1 2 3 4 5 6 
#
# 1 89.2048 23.6800 32.8324 0.0000 -24.5573 0.0000
# 2 23.6800 89.2877 33.7926 0.0000 -21.6491 0.0000
# 3 32.8324 33.7926 68.1984 0.0000 -18.8470 0.0000
# 4 0.0000 0.0000 0.0000 18.7779 0.0000 -11.8700
# 5 -24.5573 -21.6491 -18.8470 0.0000 45.4072 0.0000
# 6 0.0000 0.0000 0.0000 -11.8700 0.0000 18.3235
#
#
#
# Elastic Compliance Matrix: (Units=1/GPa)
#
#
# Indices 1 2 3 4 5 6 
#
# 1 0.014852 -0.000577 -0.005332 0.000000 0.005544 0.000000
# 2 -0.000577 0.014563 -0.005767 0.000000 0.004238 0.000000
# 3 -0.005332 -0.005767 0.020932 0.000000 0.003055 0.000000
# 4 0.000000 0.000000 0.000000 0.090184 0.000000 0.058421
# 5 0.005544 0.004238 0.003055 0.000000 0.028310 0.000000
# 6 0.000000 0.000000 0.000000 0.058421 0.000000 0.092420
#
#
# Mechanical properties :
#
#
# Convention : Reuss Voigt Hill
#
# Bulk Modulus (GPa) = 37.04425 47.47788 42.26107
# Shear Modulus (GPa) = 17.02934 26.92744 21.97839
#
# Velocity S-wave (km/s) = 2.83827 3.56905 3.22443
# Velocity P-wave (km/s) = 5.31648 6.28043 5.81845
#
# Compressibility (1/GPa) = 0.02699474
#
# Stress axis : x y z
#
# Youngs Moduli (GPa) = 67.33067 68.66774 47.77346
#
# Poissons Ratio (x) = 0.03959 0.25474
# Poissons Ratio (y) = 0.03882 0.27552
# Poissons Ratio (z) = 0.35903 0.39603
#
# Static dielectric constant tensor:
#      x y z
#    x 4.462530 0.000000 -0.251210 
#    y 0.000000 3.171530 0.000000 
#    z -0.251210 0.000000 4.319590 
# 
# 
# High freq. dielectric constant tensor:
#      x y z
#    x 1.833710 0.000000 -0.006040 
#    y 0.000000 1.824710 0.000000 
#    z -0.006040 0.000000 1.831140 
# 
# From -- ./inp_files/57890.got.cif
#   From: 2010.06.25/outbox.cif.g09.slc.cpg/sg13_29_cif.got.tgz:57890.got - 2010.06.28 04:50:58.
