data_PCOD8121380
_publ_section_title
;
Structure prediction by ZEFSAII (Michael W. Deem and Ramdas Pophale) SiO2 
 PCOD8121380
Probable space group: P 2/C
;
_chemical_formula_sum "Si O2"
_cell_formula_units_Z 22
_cell_length_a 15.390167
_cell_length_b 12.812381
_cell_length_c 5.062064
_cell_angle_alpha 90.000000
_cell_angle_beta 80.534244
_cell_angle_gamma 90.000000
_cell_volume 984.570589
_symmetry_space_group_name_H-M "P 2/C"
_symmetry_group_IT_number 13
_symmetry_cell_setting 'monoclinic'
loop_
_space_group_symop_operation_xyz
x,y,z
-x,y,1/2-z
-x,-y,-z
x,-y,1/2+z
loop_
_atom_site_type_symbol
_atom_site_label
_atom_site_fract_x
_atom_site_fract_y
_atom_site_fract_z
Si Si1 0.055385 0.250000 0.972308
Si Si2 0.818653 0.066847 0.686218
Si Si3 0.617346 0.569924 0.040171
Si Si4 0.500000 0.750000 0.250000
Si Si5 0.181347 0.566847 0.504871
Si Si6 0.617346 0.930076 0.342483
O O1 0.115419 0.161966 0.807043
O O2 0.115420 0.338034 0.077538
O O3 0.000000 0.293703 0.750000
O O4 0.000000 0.206298 0.250000
O O5 0.718979 0.105499 0.783749
O O6 0.837363 0.024025 0.385437
O O7 0.593141 0.508057 0.317414
O O8 0.561228 0.675918 0.038303
O O9 0.718979 0.605499 0.997272
O O10 0.561228 0.824082 0.400468
O O11 0.162638 0.475975 0.722798
O O12 0.593142 0.008057 0.589444
#
# Coordination Sequence:
#
# PCOD8121380 Si02
#       6
#     4   4   4   2   4   4
#     4  12  25  38  60  93 118 147 198 244 291 352
#     4  10  22  42  62  83 119 159 193 237 291 346
#     4  10  23  40  60  88 118 155 200 236 284 353
#     4  12  22  38  64  88 124 154 188 250 298 324
#     4  10  22  42  62  83 119 159 193 237 291 346
#     4  10  23  40  60  88 118 155 200 236 284 353
#
# _framework density 22.344767000000001
#
# number of rings (size 3 to 8) (size 9 to 14) (size 15 to 20)
#    0.000    1.455    0.000    4.364    0.000    7.273 
#    0.000   10.909    0.000    0.000    0.000    0.000 
#    0.000    0.000    0.000    0.000    0.000    0.000 
#
# Total GULP energy -272865.754872 kJ/mol
# GULP energy per Si atom -12402.988858 kJ/mol
# Density = 2.229391 g / cm^3
# Si number density = 22.344767 Si / 1000 Ang^3
#
#
#
# Elastic Constant Matrix: (Units=GPa)
#
#
# Indices 1 2 3 4 5 6 
#
# 1 105.2426 77.4784 39.1644 0.0000 -3.2880 0.0000
# 2 77.4784 110.1230 20.8686 0.0000 -5.1903 0.0000
# 3 39.1644 20.8686 111.3661 0.0000 3.8492 0.0000
# 4 0.0000 0.0000 0.0000 15.4226 0.0000 -2.4771
# 5 -3.2880 -5.1903 3.8492 0.0000 15.7643 0.0000
# 6 0.0000 0.0000 0.0000 -2.4771 0.0000 42.4399
#
#
#
# Elastic Compliance Matrix: (Units=1/GPa)
#
#
# Indices 1 2 3 4 5 6 
#
# 1 0.022165 -0.014578 -0.005100 0.000000 0.001069 0.000000
# 2 -0.014578 0.019205 0.001426 0.000000 0.002934 0.000000
# 3 -0.005100 0.001426 0.010616 0.000000 -0.003186 0.000000
# 4 0.000000 0.000000 0.000000 0.065454 0.000000 0.003820
# 5 0.001069 0.002934 -0.003186 0.000000 0.065401 0.000000
# 6 0.000000 0.000000 0.000000 0.003820 0.000000 0.023786
#
#
# Mechanical properties :
#
#
# Convention : Reuss Voigt Hill
#
# Bulk Modulus (GPa) = 64.58654 66.86159 65.72406
# Shear Modulus (GPa) = 20.13771 27.34006 23.73889
#
# Velocity S-wave (km/s) = 3.00530 3.50173 3.26297
# Velocity P-wave (km/s) = 6.40389 6.80714 6.60859
#
# Compressibility (1/GPa) = 0.01548310
#
# Stress axis : x y z
#
# Youngs Moduli (GPa) = 45.11603 52.06969 94.19914
#
# Poissons Ratio (x) = 0.75905 0.48043
# Poissons Ratio (y) = 0.65769 -0.13436
# Poissons Ratio (z) = 0.23010 -0.07427
#
# Static dielectric constant tensor:
#      x y z
#    x 4.331060 0.000000 -0.036940 
#    y 0.000000 3.744820 0.000000 
#    z -0.036940 0.000000 3.928150 
# 
# 
# High freq. dielectric constant tensor:
#      x y z
#    x 1.903110 0.000000 -0.001970 
#    y 0.000000 1.869610 0.000000 
#    z -0.001970 0.000000 1.881650 
# 
# From -- ./inp_files/4772.got.cif
#   From: 2010.06.25/outbox.cif.g09.slc.cpg/sg13_3_cif.got.tgz:4772.got - 2010.06.28 04:50:58.
