data_PCOD8121241
_publ_section_title
;
Structure prediction by ZEFSAII (Michael W. Deem and Ramdas Pophale) SiO2 
 PCOD8121241
Probable space group: P 2/C
;
_chemical_formula_sum "Si O2"
_cell_formula_units_Z 28
_cell_length_a 8.436012
_cell_length_b 8.141958
_cell_length_c 27.197100
_cell_angle_alpha 90.000000
_cell_angle_beta 42.873350
_cell_angle_gamma 90.000000
_cell_volume 1270.984419
_symmetry_space_group_name_H-M "P 2/C"
_symmetry_group_IT_number 13
_symmetry_cell_setting 'monoclinic'
loop_
_space_group_symop_operation_xyz
x,y,z
-x,y,1/2-z
-x,-y,-z
x,-y,1/2+z
loop_
_atom_site_type_symbol
_atom_site_label
_atom_site_fract_x
_atom_site_fract_y
_atom_site_fract_z
Si Si1 0.255957 0.963683 0.793599
Si Si2 0.422503 0.361628 0.979938
Si Si3 0.746705 0.844872 0.811991
Si Si4 0.097673 0.571985 0.276204
Si Si5 0.449005 0.472639 0.368541
Si Si6 0.085235 0.363070 0.375372
Si Si7 0.822763 0.874471 0.369854
O O1 0.500000 0.053911 0.750000
O O2 0.024160 0.064482 0.862625
O O3 0.272403 0.956238 0.731481
O O4 0.250391 0.784907 0.820378
O O5 0.414589 0.426912 0.926149
O O6 0.601821 0.210412 0.945869
O O7 0.500000 0.500000 0.000000
O O8 0.165376 0.295695 0.050678
O O9 0.547552 0.707271 0.860061
O O10 0.000000 0.759161 0.750000
O O11 0.726390 0.966906 0.862873
O O12 0.377587 0.575613 0.206573
O O13 0.032927 0.483078 0.341641
O O14 0.000000 0.476154 0.250000
O O15 0.963812 0.745302 0.304295
O O16 0.208623 0.455934 0.392838
#
# Coordination Sequence:
#
# PCOD8121241 Si02
#       7
#     4   4   4   4   4   4   4
#     4  11  22  42  69 104 139 172 230 292 352 406
#     4  12  27  48  69 100 142 190 241 279 351 431
#     4  10  22  40  69 101 132 174 228 283 347 409
#     4  12  21  42  71 105 129 180 240 291 346 397
#     4  12  24  43  72 101 138 182 233 297 349 414
#     4  12  25  45  68 104 140 186 231 287 357 419
#     4  11  26  42  69 102 138 178 231 290 341 415
#
# _framework density 22.030166999999999
#
# number of rings (size 3 to 8) (size 9 to 14) (size 15 to 20)
#    0.000    0.571    5.714    2.571    6.000    1.714 
#    0.000    0.714    0.000    0.000    0.000    0.000 
#    0.000    0.000    0.000    0.000    0.000    0.000 
#
# Total GULP energy -346966.302960 kJ/mol
# GULP energy per Si atom -12391.653677 kJ/mol
# Density = 2.198002 g / cm^3
# Si number density = 22.030167 Si / 1000 Ang^3
#
#
#
# Elastic Constant Matrix: (Units=GPa)
#
#
# Indices 1 2 3 4 5 6 
#
# 1 133.3070 17.5922 30.8383 0.0000 -16.0279 0.0000
# 2 17.5922 68.4847 15.8676 0.0000 -2.6540 0.0000
# 3 30.8383 15.8676 94.1309 0.0000 -16.2169 0.0000
# 4 0.0000 0.0000 0.0000 42.7299 0.0000 -4.9709
# 5 -16.0279 -2.6540 -16.2169 0.0000 40.1048 0.0000
# 6 0.0000 0.0000 0.0000 -4.9709 0.0000 31.3157
#
#
#
# Elastic Compliance Matrix: (Units=1/GPa)
#
#
# Indices 1 2 3 4 5 6 
#
# 1 0.008490 -0.001602 -0.002091 0.000000 0.002442 0.000000
# 2 -0.001602 0.015498 -0.002173 0.000000 -0.000493 0.000000
# 3 -0.002091 -0.002173 0.012368 0.000000 0.004022 0.000000
# 4 0.000000 0.000000 0.000000 0.023843 0.000000 0.003785
# 5 0.002442 -0.000493 0.004022 0.000000 0.027504 0.000000
# 6 0.000000 0.000000 0.000000 0.003785 0.000000 0.032534
#
#
# Mechanical properties :
#
#
# Convention : Reuss Voigt Hill
#
# Bulk Modulus (GPa) = 40.60958 47.16877 43.88917
# Shear Modulus (GPa) = 35.66978 38.27172 36.97075
#
# Velocity S-wave (km/s) = 4.02821 4.17254 4.10101
# Velocity P-wave (km/s) = 6.33316 6.68364 6.51076
#
# Compressibility (1/GPa) = 0.02462473
#
# Stress axis : x y z
#
# Youngs Moduli (GPa) = 117.78410 64.52631 80.85679
#
# Poissons Ratio (x) = 0.10336 0.16905
# Poissons Ratio (y) = 0.18868 0.17567
# Poissons Ratio (z) = 0.24626 0.14019
#
# Static dielectric constant tensor:
#      x y z
#    x 3.852230 0.000000 -0.167090 
#    y 0.000000 3.876870 0.000000 
#    z -0.167090 0.000000 3.953060 
# 
# 
# High freq. dielectric constant tensor:
#      x y z
#    x 1.876520 0.000000 -0.011350 
#    y 0.000000 1.862030 0.000000 
#    z -0.011350 0.000000 1.853860 
# 
# From -- ./inp_files/91393.got.cif
#   From: 2010.06.25/outbox.cif.g09.slc.cpg/sg13_46_cif.got.tgz:91393.got - 2010.06.28 04:50:58.
