data_PCOD8121003
_publ_section_title
;
Structure prediction by ZEFSAII (Michael W. Deem and Ramdas Pophale) SiO2 
 PCOD8121003
Probable space group: P 2/C
;
_chemical_formula_sum "Si O2"
_cell_formula_units_Z 28
_cell_length_a 12.408560
_cell_length_b 13.461208
_cell_length_c 8.974903
_cell_angle_alpha 90.000000
_cell_angle_beta 60.809547
_cell_angle_gamma 90.000000
_cell_volume 1308.733130
_symmetry_space_group_name_H-M "P 2/C"
_symmetry_group_IT_number 13
_symmetry_cell_setting 'monoclinic'
loop_
_space_group_symop_operation_xyz
x,y,z
-x,y,1/2-z
-x,-y,-z
x,-y,1/2+z
loop_
_atom_site_type_symbol
_atom_site_label
_atom_site_fract_x
_atom_site_fract_y
_atom_site_fract_z
Si Si1 0.739268 0.551521 0.658391
Si Si2 0.858348 0.036335 0.851117
Si Si3 0.435100 0.287352 0.136424
Si Si4 0.049765 0.677913 0.874224
Si Si5 0.886787 0.763689 0.216084
Si Si6 0.325333 0.374398 0.607611
Si Si7 0.227831 0.135606 0.277081
O O1 0.664788 0.626020 0.815560
O O2 0.882170 0.587089 0.583548
O O3 0.716854 0.438200 0.722131
O O4 0.682916 0.554367 0.530716
O O5 0.850979 0.120537 0.726599
O O6 0.000000 0.998940 0.750000
O O7 0.775513 0.944041 0.854726
O O8 0.808910 0.082695 0.040927
O O9 0.500000 0.291727 0.250000
O O10 0.367549 0.180004 0.171268
O O11 0.544325 0.317894 0.947254
O O12 0.133739 0.775720 0.807849
O O13 0.000000 0.637948 0.750000
O O14 0.922806 0.711455 0.038472
O O15 0.769871 0.711850 0.367893
O O16 0.000000 0.752645 0.250000
#
# Coordination Sequence:
#
# PCOD8121003 Si02
#       7
#     4   4   4   4   4   4   4
#     4  10  22  38  62  91 119 160 209 251 307 365
#     4  11  21  36  63  97 126 164 204 248 310 378
#     4   9  20  42  65  82 118 166 205 253 309 361
#     4  11  23  38  59  91 131 166 199 254 307 367
#     4  11  21  40  59  87 131 166 203 242 316 377
#     4  11  22  40  65  89 121 166 206 257 307 367
#     4  11  22  39  63  93 125 161 209 252 307 365
#
# _framework density 21.394735000000001
#
# number of rings (size 3 to 8) (size 9 to 14) (size 15 to 20)
#    0.000    1.429    4.286    3.000    4.000    1.143 
#    0.000    2.857    0.000    1.714    0.000    0.000 
#    0.000    0.000    0.000    0.000    0.000    0.000 
#
# Total GULP energy -346904.186525 kJ/mol
# GULP energy per Si atom -12389.435233 kJ/mol
# Density = 2.134604 g / cm^3
# Si number density = 21.394735 Si / 1000 Ang^3
#
#
#
# Elastic Constant Matrix: (Units=GPa)
#
#
# Indices 1 2 3 4 5 6 
#
# 1 67.3635 39.3498 22.3881 0.0000 -7.7735 0.0000
# 2 39.3498 79.0597 25.0717 0.0000 -18.2322 0.0000
# 3 22.3881 25.0717 54.0270 0.0000 -2.1377 0.0000
# 4 0.0000 0.0000 0.0000 30.2547 0.0000 -0.2112
# 5 -7.7735 -18.2322 -2.1377 0.0000 24.3899 0.0000
# 6 0.0000 0.0000 0.0000 -0.2112 0.0000 37.4648
#
#
#
# Elastic Compliance Matrix: (Units=1/GPa)
#
#
# Indices 1 2 3 4 5 6 
#
# 1 0.021914 -0.009558 -0.004668 0.000000 -0.000570 0.000000
# 2 -0.009558 0.022286 -0.005863 0.000000 0.013099 0.000000
# 3 -0.004668 -0.005863 0.023012 0.000000 -0.003854 0.000000
# 4 0.000000 0.000000 0.000000 0.033054 0.000000 0.000186
# 5 -0.000570 0.013099 -0.003854 0.000000 0.050274 0.000000
# 6 0.000000 0.000000 0.000000 0.000186 0.000000 0.026693
#
#
# Mechanical properties :
#
#
# Convention : Reuss Voigt Hill
#
# Bulk Modulus (GPa) = 36.99059 41.56325 39.27692
# Shear Modulus (GPa) = 22.08277 25.99792 24.04035
#
# Velocity S-wave (km/s) = 3.21621 3.48969 3.35574
# Velocity P-wave (km/s) = 5.57845 5.97547 5.78037
#
# Compressibility (1/GPa) = 0.02703390
#
# Stress axis : x y z
#
# Youngs Moduli (GPa) = 45.63364 44.87105 43.45591
#
# Poissons Ratio (x) = 0.42888 0.20284
# Poissons Ratio (y) = 0.43617 0.25478
# Poissons Ratio (z) = 0.21301 0.26308
#
# Static dielectric constant tensor:
#      x y z
#    x 3.897760 0.000000 -0.373070 
#    y 0.000000 3.994010 0.000000 
#    z -0.373070 0.000000 4.107660 
# 
# 
# High freq. dielectric constant tensor:
#      x y z
#    x 1.828060 0.000000 -0.010120 
#    y 0.000000 1.840770 0.000000 
#    z -0.010120 0.000000 1.823620 
# 
# From -- ./inp_files/16454.got.cif
#   From: 2010.06.25/outbox.cif.g09.slc.cpg/sg13_9_cif.got.tgz:16454.got - 2010.06.28 04:50:58.
