data_PCOD8121074
_publ_section_title
;
Structure prediction by ZEFSAII (Michael W. Deem and Ramdas Pophale) SiO2 
 PCOD8121074
Probable space group: P 2/C
;
_chemical_formula_sum "Si O2"
_cell_formula_units_Z 32
_cell_length_a 27.123191
_cell_length_b 7.018101
_cell_length_c 16.702817
_cell_angle_alpha 90.000000
_cell_angle_beta 28.923242
_cell_angle_gamma 90.000000
_cell_volume 1537.694512
_symmetry_space_group_name_H-M "P 2/C"
_symmetry_group_IT_number 13
_symmetry_cell_setting 'monoclinic'
loop_
_space_group_symop_operation_xyz
x,y,z
-x,y,1/2-z
-x,-y,-z
x,-y,1/2+z
loop_
_atom_site_type_symbol
_atom_site_label
_atom_site_fract_x
_atom_site_fract_y
_atom_site_fract_z
Si Si1 0.010160 0.698739 0.442648
Si Si2 0.314129 0.582596 0.180645
Si Si3 0.472138 0.633597 0.702620
Si Si4 0.688456 0.948115 0.557523
Si Si5 0.846652 0.326928 0.907450
Si Si6 0.818271 0.771274 0.623079
Si Si7 0.305352 0.355361 0.872812
Si Si8 0.807845 0.877529 0.230517
O O1 0.057621 0.685955 0.286449
O O2 0.075551 0.848086 0.403701
O O3 0.000000 0.500000 0.500000
O O4 0.893784 0.758872 0.592919
O O5 0.284402 0.357523 0.224655
O O6 0.306648 0.682411 0.276909
O O7 0.230971 0.668417 0.238224
O O8 0.426559 0.633287 0.993198
O O9 0.500000 0.552548 0.750000
O O10 0.396813 0.492176 0.766065
O O11 0.422073 0.844680 0.782477
O O12 0.680679 0.162172 0.598999
O O13 0.763817 0.834216 0.507698
O O14 0.732972 0.957483 0.405028
O O15 0.875936 0.285732 0.958653
O O16 0.800989 0.537846 0.956624
O O17 0.792173 0.994569 0.672103
#
# Coordination Sequence:
#
# PCOD8121074 Si02
#       8
#     4   4   4   4   4   4   4   4
#     4  11  22  40  65  91 126 163 204 258 309 365
#     4  11  23  42  60  91 123 161 208 256 306 370
#     4  11  23  39  61  91 127 157 203 259 308 364
#     4  10  22  39  61  91 123 161 200 256 305 362
#     4   9  22  42  62  90 127 159 203 258 306 366
#     4  11  23  40  65  88 124 167 204 254 314 363
#     4  10  23  40  66  88 120 166 205 245 315 372
#     4  11  23  38  64  92 123 162 209 252 305 369
#
# _framework density 20.810376999999999
#
# number of rings (size 3 to 8) (size 9 to 14) (size 15 to 20)
#    0.000    1.500    2.500    1.875    3.500    2.000 
#    0.000    0.000    2.750    0.000    0.000    0.000 
#    0.000    0.000    0.000    0.000    0.000    0.000 
#
# Total GULP energy -396608.276900 kJ/mol
# GULP energy per Si atom -12394.008653 kJ/mol
# Density = 2.076301 g / cm^3
# Si number density = 20.810377 Si / 1000 Ang^3
#
#
#
# Elastic Constant Matrix: (Units=GPa)
#
#
# Indices 1 2 3 4 5 6 
#
# 1 91.7856 27.8329 15.5352 0.0000 -0.1190 0.0000
# 2 27.8329 100.9601 27.7871 0.0000 5.3294 0.0000
# 3 15.5352 27.7871 60.1223 0.0000 -3.9029 0.0000
# 4 0.0000 0.0000 0.0000 27.2136 0.0000 14.3994
# 5 -0.1190 5.3294 -3.9029 0.0000 28.1121 0.0000
# 6 0.0000 0.0000 0.0000 14.3994 0.0000 63.9513
#
#
#
# Elastic Compliance Matrix: (Units=1/GPa)
#
#
# Indices 1 2 3 4 5 6 
#
# 1 0.012062 -0.002855 -0.001775 0.000000 0.000346 0.000000
# 2 -0.002855 0.012264 -0.005129 0.000000 -0.003049 0.000000
# 3 -0.001775 -0.005129 0.019702 0.000000 0.003700 0.000000
# 4 0.000000 0.000000 0.000000 0.041716 0.000000 -0.009393
# 5 0.000346 -0.003049 0.003700 0.000000 0.036665 0.000000
# 6 0.000000 0.000000 0.000000 -0.009393 0.000000 0.017752
#
#
# Mechanical properties :
#
#
# Convention : Reuss Voigt Hill
#
# Bulk Modulus (GPa) = 40.79737 43.90872 42.35304
# Shear Modulus (GPa) = 29.78888 35.96959 32.87923
#
# Velocity S-wave (km/s) = 3.78755 4.16197 3.97916
# Velocity P-wave (km/s) = 6.22690 6.65141 6.44265
#
# Compressibility (1/GPa) = 0.02451138
#
# Stress axis : x y z
#
# Youngs Moduli (GPa) = 82.90836 81.53647 50.75666
#
# Poissons Ratio (x) = 0.23278 0.09008
# Poissons Ratio (y) = 0.23670 0.26031
# Poissons Ratio (z) = 0.14713 0.41817
#
# Static dielectric constant tensor:
#      x y z
#    x 3.956300 0.000000 0.048330 
#    y 0.000000 3.761540 0.000000 
#    z 0.048330 0.000000 3.852360 
# 
# 
# High freq. dielectric constant tensor:
#      x y z
#    x 1.831140 0.000000 0.001270 
#    y 0.000000 1.811160 0.000000 
#    z 0.001270 0.000000 1.808520 
# 
# From -- ./inp_files/72213.got.cif
#   From: 2010.06.25/outbox.cif.g09.slc.cpg/sg13_37_cif.got.tgz:72213.got - 2010.06.28 04:50:58.
