data_PCOD8121509
_publ_section_title
;
Structure prediction by ZEFSAII (Michael W. Deem and Ramdas Pophale) SiO2 
 PCOD8121509
Probable space group: P 2/C
;
_chemical_formula_sum "Si O2"
_cell_formula_units_Z 24
_cell_length_a 8.782017
_cell_length_b 11.658958
_cell_length_c 21.929043
_cell_angle_alpha 90.000000
_cell_angle_beta 29.958954
_cell_angle_gamma 90.000000
_cell_volume 1121.254934
_symmetry_space_group_name_H-M "P 2/C"
_symmetry_group_IT_number 13
_symmetry_cell_setting 'monoclinic'
loop_
_space_group_symop_operation_xyz
x,y,z
-x,y,1/2-z
-x,-y,-z
x,-y,1/2+z
loop_
_atom_site_type_symbol
_atom_site_label
_atom_site_fract_x
_atom_site_fract_y
_atom_site_fract_z
Si Si1 0.361894 0.910995 0.962017
Si Si2 0.765418 0.706081 0.778549
Si Si3 0.794695 0.312818 0.481096
Si Si4 0.832516 0.766497 0.106966
Si Si5 0.189000 0.444002 0.488987
Si Si6 0.340612 0.131781 0.610456
O O1 0.619246 0.827186 0.846876
O O2 0.466550 0.042424 0.913599
O O3 0.339877 0.903129 0.041424
O O4 0.032418 0.881840 0.046791
O O5 0.514081 0.607045 0.855468
O O6 0.000000 0.667400 0.750000
O O7 0.928120 0.728215 0.657537
O O8 0.849173 0.270836 0.531040
O O9 0.756003 0.449813 0.484589
O O10 0.481504 0.257695 0.567087
O O11 0.500000 0.787968 0.250000
O O12 0.992043 0.659581 0.087993
O O13 0.000000 0.500000 0.500000
O O14 0.000000 0.136733 0.750000
#
# Coordination Sequence:
#
# PCOD8121509 Si02
#       6
#     4   4   4   4   4   4
#     4  10  23  42  65  95 127 176 215 271 341 378
#     4  11  22  43  66  97 137 169 227 279 325 404
#     4  11  24  40  68  99 127 180 221 264 336 390
#     4  10  22  43  66  95 135 172 222 274 325 403
#     4   9  23  39  64  96 133 177 214 267 337 394
#     4  11  23  41  69  93 130 171 218 272 332 402
#
# _framework density 21.404589000000001
#
# number of rings (size 3 to 8) (size 9 to 14) (size 15 to 20)
#    0.000    1.667    1.667    1.500    7.000    7.333 
#    0.000    0.000    0.000    0.000    0.000    0.000 
#    0.000    0.000    0.000    0.000    0.000    0.000 
#
# Total GULP energy -297492.892381 kJ/mol
# GULP energy per Si atom -12395.537183 kJ/mol
# Density = 2.135587 g / cm^3
# Si number density = 21.404589 Si / 1000 Ang^3
#
#
#
# Elastic Constant Matrix: (Units=GPa)
#
#
# Indices 1 2 3 4 5 6 
#
# 1 87.1690 54.6967 41.7916 0.0000 3.3115 0.0000
# 2 54.6967 163.1740 46.8112 0.0000 3.2334 0.0000
# 3 41.7916 46.8112 189.7201 0.0000 -7.3544 0.0000
# 4 0.0000 0.0000 0.0000 37.4280 0.0000 -7.8934
# 5 3.3115 3.2334 -7.3544 0.0000 44.4863 0.0000
# 6 0.0000 0.0000 0.0000 -7.8934 0.0000 34.7122
#
#
#
# Elastic Compliance Matrix: (Units=1/GPa)
#
#
# Indices 1 2 3 4 5 6 
#
# 1 0.015456 -0.004484 -0.002345 0.000000 -0.001212 0.000000
# 2 -0.004484 0.007921 -0.000982 0.000000 -0.000404 0.000000
# 3 -0.002345 -0.000982 0.006078 0.000000 0.001251 0.000000
# 4 0.000000 0.000000 0.000000 0.028064 0.000000 0.006382
# 5 -0.001212 -0.000404 0.001251 0.000000 0.022805 0.000000
# 6 0.000000 0.000000 0.000000 0.006382 0.000000 0.030260
#
#
# Mechanical properties :
#
#
# Convention : Reuss Voigt Hill
#
# Bulk Modulus (GPa) = 72.29459 80.74023 76.51741
# Shear Modulus (GPa) = 38.22077 43.10953 40.66515
#
# Velocity S-wave (km/s) = 4.23026 4.49267 4.36344
# Velocity P-wave (km/s) = 7.59663 8.04456 7.82380
#
# Compressibility (1/GPa) = 0.01383229
#
# Stress axis : x y z
#
# Youngs Moduli (GPa) = 64.69929 126.24066 164.51630
#
# Poissons Ratio (x) = 0.56608 0.38583
# Poissons Ratio (y) = 0.29012 0.16162
# Poissons Ratio (z) = 0.15174 0.12402
#
# Static dielectric constant tensor:
#      x y z
#    x 3.874910 0.000000 -0.134440 
#    y 0.000000 4.553680 0.000000 
#    z -0.134440 0.000000 3.831060 
# 
# 
# High freq. dielectric constant tensor:
#      x y z
#    x 1.829110 0.000000 -0.008940 
#    y 0.000000 1.849120 0.000000 
#    z -0.008940 0.000000 1.846860 
# 
# From -- ./inp_files/39096.got.cif
#   From: 2010.06.25/outbox.cif.g09.slc.cpg/sg13_20_cif.got.tgz:39096.got - 2010.06.28 04:50:58.
