data_PCOD8121529
_publ_section_title
;
Structure prediction by ZEFSAII (Michael W. Deem and Ramdas Pophale) SiO2 
 PCOD8121529
Probable space group: P 2/C
;
_chemical_formula_sum "Si O2"
_cell_formula_units_Z 22
_cell_length_a 15.716126
_cell_length_b 9.126937
_cell_length_c 25.106662
_cell_angle_alpha 90.000000
_cell_angle_beta 18.172003
_cell_angle_gamma 90.000000
_cell_volume 1123.140499
_symmetry_space_group_name_H-M "P 2/C"
_symmetry_group_IT_number 13
_symmetry_cell_setting 'monoclinic'
loop_
_space_group_symop_operation_xyz
x,y,z
-x,y,1/2-z
-x,-y,-z
x,-y,1/2+z
loop_
_atom_site_type_symbol
_atom_site_label
_atom_site_fract_x
_atom_site_fract_y
_atom_site_fract_z
Si Si1 0.526726 0.445400 0.424280
Si Si2 0.789310 0.878423 0.103158
Si Si3 0.010198 0.785696 0.864266
Si Si4 0.443672 0.274517 0.658702
Si Si5 0.000000 0.709470 0.250000
Si Si6 0.736178 0.928926 0.325822
O O1 0.500000 0.500000 0.500000
O O2 0.721030 0.306029 0.306578
O O3 0.642719 0.570754 0.316006
O O4 0.226324 0.391116 0.586560
O O5 0.500000 0.941773 0.250000
O O6 0.723543 0.760045 0.188198
O O7 0.949256 0.788529 0.963232
O O8 0.000000 0.000000 0.000000
O O9 0.044541 0.950536 0.822287
O O10 0.764197 0.711921 0.978834
O O11 0.395764 0.140040 0.647925
O O12 0.883638 0.805358 0.271680
O O13 0.500000 0.000000 0.500000
#
# Coordination Sequence:
#
# PCOD8121529 Si02
#       6
#     4   4   4   4   2   4
#     4  12  24  42  63  94 132 176 212 264 332 396
#     4  10  22  43  69  98 129 173 220 274 327 384
#     4  11  24  42  68  92 132 167 217 273 326 387
#     4  11  24  42  64  93 132 168 217 268 327 391
#     4  12  24  38  64  96 132 172 220 262 338 392
#     4  12  22  39  64  96 124 165 218 267 324 384
#
# _framework density 19.587933
#
# number of rings (size 3 to 8) (size 9 to 14) (size 15 to 20)
#    0.000    0.727    5.455    2.182    0.000    2.182 
#    0.000    0.000    0.000    0.000    0.000    0.000 
#    0.000    0.000    0.000    0.000    0.000    0.000 
#
# Total GULP energy -272823.036234 kJ/mol
# GULP energy per Si atom -12401.047102 kJ/mol
# Density = 1.954335 g / cm^3
# Si number density = 19.587933 Si / 1000 Ang^3
#
#
#
# Elastic Constant Matrix: (Units=GPa)
#
#
# Indices 1 2 3 4 5 6 
#
# 1 107.9283 35.9327 40.2232 0.0000 9.8215 0.0000
# 2 35.9327 97.1296 38.3688 0.0000 5.3203 0.0000
# 3 40.2232 38.3688 108.0198 0.0000 5.6088 0.0000
# 4 0.0000 0.0000 0.0000 31.5976 0.0000 -4.9771
# 5 9.8215 5.3203 5.6088 0.0000 37.2877 0.0000
# 6 0.0000 0.0000 0.0000 -4.9771 0.0000 36.4096
#
#
#
# Elastic Compliance Matrix: (Units=1/GPa)
#
#
# Indices 1 2 3 4 5 6 
#
# 1 0.011620 -0.002926 -0.003175 0.000000 -0.002166 0.000000
# 2 -0.002926 0.012756 -0.003414 0.000000 -0.000536 0.000000
# 3 -0.003175 -0.003414 0.011675 0.000000 -0.000433 0.000000
# 4 0.000000 0.000000 0.000000 0.032344 0.000000 0.004421
# 5 -0.002166 -0.000536 -0.000433 0.000000 0.027530 0.000000
# 6 0.000000 0.000000 0.000000 0.004421 0.000000 0.028070
#
#
# Mechanical properties :
#
#
# Convention : Reuss Voigt Hill
#
# Bulk Modulus (GPa) = 58.74963 60.23634 59.49299
# Shear Modulus (GPa) = 33.62520 34.29583 33.96051
#
# Velocity S-wave (km/s) = 4.14772 4.18887 4.16835
# Velocity P-wave (km/s) = 7.27983 7.36302 7.32154
#
# Compressibility (1/GPa) = 0.01702139
#
# Stress axis : x y z
#
# Youngs Moduli (GPa) = 86.05907 78.39622 85.65415
#
# Poissons Ratio (x) = 0.22937 0.27197
# Poissons Ratio (y) = 0.25180 0.29238
# Poissons Ratio (z) = 0.27325 0.26761
#
# Static dielectric constant tensor:
#      x y z
#    x 3.978820 0.000000 0.079460 
#    y 0.000000 3.510250 0.000000 
#    z 0.079460 0.000000 3.932640 
# 
# 
# High freq. dielectric constant tensor:
#      x y z
#    x 1.776580 0.000000 -0.001050 
#    y 0.000000 1.762040 0.000000 
#    z -0.001050 0.000000 1.772310 
# 
# From -- ./inp_files/36066.got.cif
#   From: 2010.06.25/outbox.cif.g09.slc.cpg/sg13_19_cif.got.tgz:36066.got - 2010.06.28 04:50:58.
