data_PCOD8121008
_publ_section_title
;
Structure prediction by ZEFSAII (Michael W. Deem and Ramdas Pophale) SiO2 
 PCOD8121008
Probable space group: P 2/C
;
_chemical_formula_sum "Si O2"
_cell_formula_units_Z 26
_cell_length_a 9.244417
_cell_length_b 8.472905
_cell_length_c 20.129160
_cell_angle_alpha 90.000000
_cell_angle_beta 56.054488
_cell_angle_gamma 90.000000
_cell_volume 1307.946634
_symmetry_space_group_name_H-M "P 2/C"
_symmetry_group_IT_number 13
_symmetry_cell_setting 'monoclinic'
loop_
_space_group_symop_operation_xyz
x,y,z
-x,y,1/2-z
-x,-y,-z
x,-y,1/2+z
loop_
_atom_site_type_symbol
_atom_site_label
_atom_site_fract_x
_atom_site_fract_y
_atom_site_fract_z
Si Si1 0.709623 0.467449 0.887454
Si Si2 0.964583 0.862956 0.956862
Si Si3 0.644908 0.701893 0.791524
Si Si4 0.000000 0.265223 0.750000
Si Si5 0.897372 0.965688 0.715342
Si Si6 0.266336 0.620330 0.870841
Si Si7 0.327476 0.376670 0.964645
O O1 0.707568 0.626786 0.844462
O O2 0.537530 0.361125 0.916478
O O3 0.880130 0.368495 0.827853
O O4 0.731227 0.514051 0.958677
O O5 0.990174 0.940663 0.879059
O O6 0.095820 0.717538 0.935059
O O7 0.766967 0.793997 0.010761
O O8 0.000000 0.000000 0.000000
O O9 0.711144 0.879681 0.761060
O O10 0.437329 0.720903 0.846377
O O11 0.720400 0.590313 0.712288
O O12 0.121148 0.153527 0.766143
O O13 0.000000 0.883665 0.750000
O O14 0.270000 0.456849 0.910012
#
# Coordination Sequence:
#
# PCOD8121008 Si02
#       7
#     4   4   4   2   4   4   4
#     4  10  22  38  63  87 110 152 200 248 293 333
#     4  11  23  36  57  84 119 158 187 230 298 358
#     4   9  18  37  59  81 112 148 193 237 288 351
#     4  10  24  34  58  88 112 144 194 246 284 338
#     4   9  21  38  54  84 114 151 195 233 292 346
#     4   9  20  35  58  85 110 151 191 234 290 344
#     4  10  22  40  58  88 118 148 197 246 292 349
#
# _framework density 19.878487
#
# number of rings (size 3 to 8) (size 9 to 14) (size 15 to 20)
#    0.462    1.846    0.000    1.385    7.538    2.462 
#    0.000    0.769    0.000    0.000    0.000    0.000 
#    0.000    0.000    0.000    0.000    0.000    0.000 
#
# Total GULP energy -322254.823113 kJ/mol
# GULP energy per Si atom -12394.416274 kJ/mol
# Density = 1.983324 g / cm^3
# Si number density = 19.878487 Si / 1000 Ang^3
#
#
#
# Elastic Constant Matrix: (Units=GPa)
#
#
# Indices 1 2 3 4 5 6 
#
# 1 54.2435 22.7768 30.4582 0.0000 1.8244 0.0000
# 2 22.7768 52.8848 25.7657 0.0000 -12.5505 0.0000
# 3 30.4582 25.7657 99.1733 0.0000 -0.2701 0.0000
# 4 0.0000 0.0000 0.0000 13.0787 0.0000 3.6404
# 5 1.8244 -12.5505 -0.2701 0.0000 37.2592 0.0000
# 6 0.0000 0.0000 0.0000 3.6404 0.0000 26.7266
#
#
#
# Elastic Compliance Matrix: (Units=1/GPa)
#
#
# Indices 1 2 3 4 5 6 
#
# 1 0.025595 -0.009445 -0.005419 0.000000 -0.004474 0.000000
# 2 -0.009445 0.027289 -0.004163 0.000000 0.009624 0.000000
# 3 -0.005419 -0.004163 0.012826 0.000000 -0.001044 0.000000
# 4 0.000000 0.000000 0.000000 0.079473 0.000000 -0.010825
# 5 -0.004474 0.009624 -0.001044 0.000000 0.030292 0.000000
# 6 0.000000 0.000000 0.000000 -0.010825 0.000000 0.038890
#
#
# Mechanical properties :
#
#
# Convention : Reuss Voigt Hill
#
# Bulk Modulus (GPa) = 36.15791 40.47810 38.31801
# Shear Modulus (GPa) = 19.11036 23.89964 21.50500
#
# Velocity S-wave (km/s) = 3.10394 3.47116 3.29268
# Velocity P-wave (km/s) = 5.57449 6.03923 5.81150
#
# Compressibility (1/GPa) = 0.02765646
#
# Stress axis : x y z
#
# Youngs Moduli (GPa) = 39.07083 36.64475 77.96458
#
# Poissons Ratio (x) = 0.34610 0.42249
# Poissons Ratio (y) = 0.36902 0.32456
# Poissons Ratio (z) = 0.21172 0.15255
#
# Static dielectric constant tensor:
#      x y z
#    x 3.625240 0.000000 0.024710 
#    y 0.000000 3.261960 0.000000 
#    z 0.024710 0.000000 3.810940 
# 
# 
# High freq. dielectric constant tensor:
#      x y z
#    x 1.774510 0.000000 0.003800 
#    y 0.000000 1.744250 0.000000 
#    z 0.003800 0.000000 1.791420 
# 
# From -- ./inp_files/75223.got.cif
#   From: 2010.06.25/outbox.cif.g09.slc.cpg/sg13_38_cif.got.tgz:75223.got - 2010.06.28 04:50:58.
