data_PCOD8121042
_publ_section_title
;
Structure prediction by ZEFSAII (Michael W. Deem and Ramdas Pophale) SiO2 
 PCOD8121042
Probable space group: P 2/C
;
_chemical_formula_sum "Si O2"
_cell_formula_units_Z 20
_cell_length_a 8.711960
_cell_length_b 10.740569
_cell_length_c 9.030113
_cell_angle_alpha 90.000000
_cell_angle_beta 91.295189
_cell_angle_gamma 90.000000
_cell_volume 844.744505
_symmetry_space_group_name_H-M "P 2/C"
_symmetry_group_IT_number 13
_symmetry_cell_setting 'monoclinic'
loop_
_space_group_symop_operation_xyz
x,y,z
-x,y,1/2-z
-x,-y,-z
x,-y,1/2+z
loop_
_atom_site_type_symbol
_atom_site_label
_atom_site_fract_x
_atom_site_fract_y
_atom_site_fract_z
Si Si1 0.577807 0.661295 0.503992
Si Si2 0.721995 0.502817 0.250021
Si Si3 0.901243 0.080451 0.607002
Si Si4 0.218328 0.334753 0.995489
Si Si5 0.395936 0.923429 0.888002
O O1 0.646663 0.605015 0.355849
O O2 0.596271 0.564997 0.640968
O O3 0.399271 0.686955 0.478081
O O4 0.659986 0.793342 0.540063
O O5 0.815773 0.400185 0.347047
O O6 0.837446 0.575959 0.141210
O O7 0.863103 0.202934 0.511715
O O8 0.000000 0.119922 0.750000
O O9 0.751713 0.005204 0.659342
O O10 0.000000 0.000000 0.500000
O O11 0.500000 0.889603 0.750000
O O12 0.500000 0.000000 0.000000
#
# Coordination Sequence:
#
# PCOD8121042 Si02
#       5
#     4   4   4   4   4
#     4  11  21  38  72 108 147 172 245 302 367 413
#     4  10  22  38  71 115 141 181 231 321 361 423
#     4  12  30  50  71 102 153 200 240 299 372 438
#     4  11  21  42  69 103 144 180 241 290 373 424
#     4  12  26  45  76 108 136 190 256 303 354 427
#
# _framework density 23.675796999999999
#
# number of rings (size 3 to 8) (size 9 to 14) (size 15 to 20)
#    0.000    0.800    2.000    7.200    8.400    0.000 
#    0.000    1.000    0.000    0.000    0.000    0.000 
#    0.000    0.000    0.000    0.000    0.000    0.000 
#
# Total GULP energy -248027.430400 kJ/mol
# GULP energy per Si atom -12401.371520 kJ/mol
# Density = 2.362191 g / cm^3
# Si number density = 23.675797 Si / 1000 Ang^3
#
#
#
# Elastic Constant Matrix: (Units=GPa)
#
#
# Indices 1 2 3 4 5 6 
#
# 1 68.8520 46.3454 26.8462 0.0000 9.7577 0.0000
# 2 46.3454 154.9116 52.2166 0.0000 16.1195 0.0000
# 3 26.8462 52.2166 147.5687 0.0000 10.9618 0.0000
# 4 0.0000 0.0000 0.0000 43.5616 0.0000 7.9155
# 5 9.7577 16.1195 10.9618 0.0000 24.6923 0.0000
# 6 0.0000 0.0000 0.0000 7.9155 0.0000 41.4400
#
#
#
# Elastic Compliance Matrix: (Units=1/GPa)
#
#
# Indices 1 2 3 4 5 6 
#
# 1 0.018816 -0.004751 -0.001468 0.000000 -0.003682 0.000000
# 2 -0.004751 0.008883 -0.002055 0.000000 -0.003009 0.000000
# 3 -0.001468 -0.002055 0.007888 0.000000 -0.001580 0.000000
# 4 0.000000 0.000000 0.000000 0.023781 0.000000 -0.004543
# 5 -0.003682 -0.003009 -0.001580 0.000000 0.044619 0.000000
# 6 0.000000 0.000000 0.000000 -0.004543 0.000000 0.024999
#
#
# Mechanical properties :
#
#
# Convention : Reuss Voigt Hill
#
# Bulk Modulus (GPa) = 52.52792 69.12763 60.82777
# Shear Modulus (GPa) = 32.92025 38.33374 35.62700
#
# Velocity S-wave (km/s) = 3.73293 4.02818 3.88336
# Velocity P-wave (km/s) = 6.38860 7.13414 6.77164
#
# Compressibility (1/GPa) = 0.01903750
#
# Stress axis : x y z
#
# Youngs Moduli (GPa) = 53.14502 112.58009 126.77112
#
# Poissons Ratio (x) = 0.53490 0.18615
# Poissons Ratio (y) = 0.25251 0.26054
# Poissons Ratio (z) = 0.07804 0.23137
#
# Static dielectric constant tensor:
#      x y z
#    x 4.172530 0.000000 0.229250 
#    y 0.000000 4.794190 0.000000 
#    z 0.229250 0.000000 6.347400 
# 
# 
# High freq. dielectric constant tensor:
#      x y z
#    x 1.899510 0.000000 0.012300 
#    y 0.000000 1.960820 0.000000 
#    z 0.012300 0.000000 1.958060 
# 
# From -- ./inp_files/11743.got.cif
#   From: 2010.06.25/outbox.cif.g09.slc.cpg/sg13_6_cif.got.tgz:11743.got - 2010.06.28 04:50:58.
