data_PCOD8121405
_publ_section_title
;
Structure prediction by ZEFSAII (Michael W. Deem and Ramdas Pophale) SiO2 
 PCOD8121405
Probable space group: P 2/C
;
_chemical_formula_sum "Si O2"
_cell_formula_units_Z 26
_cell_length_a 13.695135
_cell_length_b 11.336061
_cell_length_c 13.689206
_cell_angle_alpha 90.000000
_cell_angle_beta 34.250759
_cell_angle_gamma 90.000000
_cell_volume 1196.115427
_symmetry_space_group_name_H-M "P 2/C"
_symmetry_group_IT_number 13
_symmetry_cell_setting 'monoclinic'
loop_
_space_group_symop_operation_xyz
x,y,z
-x,y,1/2-z
-x,-y,-z
x,-y,1/2+z
loop_
_atom_site_type_symbol
_atom_site_label
_atom_site_fract_x
_atom_site_fract_y
_atom_site_fract_z
Si Si1 0.623697 0.653327 0.352416
Si Si2 0.756678 0.408848 0.283304
Si Si3 0.695479 0.940787 0.593707
Si Si4 0.850687 0.764989 0.312124
Si Si5 0.199670 0.193732 0.959117
Si Si6 0.000000 0.636164 0.750000
Si Si7 0.910228 0.187235 0.060789
O O1 0.715063 0.527172 0.257042
O O2 0.416683 0.641834 0.522053
O O3 0.684826 0.690143 0.412586
O O4 0.679133 0.744919 0.222856
O O5 0.825841 0.315755 0.146649
O O6 0.906264 0.437525 0.240799
O O7 0.500000 0.897420 0.750000
O O8 0.797573 0.875557 0.423167
O O9 0.765587 0.904910 0.643874
O O10 0.704455 0.081509 0.573820
O O11 0.000000 0.692734 0.250000
O O12 0.936085 0.811778 0.143695
O O13 0.159555 0.285986 0.077347
O O14 0.010461 0.148653 0.076155
#
# Coordination Sequence:
#
# PCOD8121405 Si02
#       7
#     4   4   4   4   4   2   4
#     4  10  22  42  64  91 125 162 200 255 309 367
#     4  10  22  42  65  90 127 159 205 252 307 365
#     4  11  22  37  61  91 124 160 205 258 298 361
#     4   9  20  37  61  91 119 159 210 248 295 364
#     4  10  23  40  62  90 124 162 205 249 312 362
#     4  10  24  38  64  92 124 162 202 256 294 382
#     4   9  20  41  61  88 120 165 199 249 305 367
#
# _framework density 21.737031000000002
#
# number of rings (size 3 to 8) (size 9 to 14) (size 15 to 20)
#    0.000    2.154    0.000    1.385    6.462    5.538 
#    5.538    3.846    0.000    0.000    0.000    0.000 
#    0.000    0.000    0.000    0.000    0.000    0.000 
#
# Total GULP energy -322203.311385 kJ/mol
# GULP energy per Si atom -12392.435053 kJ/mol
# Density = 2.168756 g / cm^3
# Si number density = 21.737031 Si / 1000 Ang^3
#
#
#
# Elastic Constant Matrix: (Units=GPa)
#
#
# Indices 1 2 3 4 5 6 
#
# 1 55.0218 14.2984 25.8135 0.0000 -13.1211 0.0000
# 2 14.2984 80.7738 36.8868 0.0000 0.0769 0.0000
# 3 25.8135 36.8868 89.7012 0.0000 -5.7354 0.0000
# 4 0.0000 0.0000 0.0000 32.2925 0.0000 1.4086
# 5 -13.1211 0.0769 -5.7354 0.0000 34.5034 0.0000
# 6 0.0000 0.0000 0.0000 1.4086 0.0000 31.9305
#
#
#
# Elastic Compliance Matrix: (Units=1/GPa)
#
#
# Indices 1 2 3 4 5 6 
#
# 1 0.023026 -0.001584 -0.005473 0.000000 0.007850 0.000000
# 2 -0.001584 0.015392 -0.005978 0.000000 -0.001630 0.000000
# 3 -0.005473 -0.005978 0.015211 0.000000 0.000461 0.000000
# 4 0.000000 0.000000 0.000000 0.031027 0.000000 -0.001369
# 5 0.007850 -0.001630 0.000461 0.000000 0.032048 0.000000
# 6 0.000000 0.000000 0.000000 -0.001369 0.000000 0.031378
#
#
# Mechanical properties :
#
#
# Convention : Reuss Voigt Hill
#
# Bulk Modulus (GPa) = 36.28586 42.16600 39.22593
# Shear Modulus (GPa) = 27.27200 29.64514 28.45857
#
# Velocity S-wave (km/s) = 3.54592 3.69698 3.62224
# Velocity P-wave (km/s) = 5.78741 6.13709 5.96481
#
# Compressibility (1/GPa) = 0.02755894
#
# Stress axis : x y z
#
# Youngs Moduli (GPa) = 43.42934 64.96818 65.74312
#
# Poissons Ratio (x) = 0.10292 0.35980
# Poissons Ratio (y) = 0.06880 0.39301
# Poissons Ratio (z) = 0.23768 0.38837
#
# Static dielectric constant tensor:
#      x y z
#    x 4.359240 0.000000 -0.213070 
#    y 0.000000 3.667940 0.000000 
#    z -0.213070 0.000000 3.798750 
# 
# 
# High freq. dielectric constant tensor:
#      x y z
#    x 1.864370 0.000000 -0.014870 
#    y 0.000000 1.836040 0.000000 
#    z -0.014870 0.000000 1.849810 
# 
# From -- ./inp_files/53665.got.cif
#   From: 2010.06.25/outbox.cif.g09.slc.cpg/sg13_27_cif.got.tgz:53665.got - 2010.06.28 04:50:58.
