data_PCOD8121577
_publ_section_title
;
Structure prediction by ZEFSAII (Michael W. Deem and Ramdas Pophale) SiO2 
 PCOD8121577
Probable space group: P 2/C
;
_chemical_formula_sum "Si O2"
_cell_formula_units_Z 22
_cell_length_a 7.978303
_cell_length_b 8.726408
_cell_length_c 21.370110
_cell_angle_alpha 90.000000
_cell_angle_beta 40.480111
_cell_angle_gamma 90.000000
_cell_volume 965.874364
_symmetry_space_group_name_H-M "P 2/C"
_symmetry_group_IT_number 13
_symmetry_cell_setting 'monoclinic'
loop_
_space_group_symop_operation_xyz
x,y,z
-x,y,1/2-z
-x,-y,-z
x,-y,1/2+z
loop_
_atom_site_type_symbol
_atom_site_label
_atom_site_fract_x
_atom_site_fract_y
_atom_site_fract_z
Si Si1 0.682003 0.345534 0.789882
Si Si2 0.000000 0.097475 0.250000
Si Si3 0.328559 0.894826 0.355046
Si Si4 0.806999 0.182418 0.875220
Si Si5 0.727487 0.867609 0.529491
Si Si6 0.404726 0.693633 0.707021
O O1 0.409860 0.282147 0.841254
O O2 0.693772 0.311452 0.860784
O O3 0.703551 0.522944 0.768624
O O4 0.903166 0.245992 0.691356
O O5 0.826794 0.198828 0.252120
O O6 0.816709 0.987819 0.343279
O O7 0.500000 0.969242 0.250000
O O8 0.025330 0.905703 0.431882
O O9 0.401687 0.988047 0.398035
O O10 0.625483 0.168387 0.988260
O O11 0.659041 0.718977 0.591137
O O12 0.500000 0.729585 0.750000
#
# Coordination Sequence:
#
# PCOD8121577 Si02
#       6
#     4   2   4   4   4   4
#     4  10  22  44  66  92 142 187 218 284 358 404
#     4  10  24  46  72  98 144 182 230 302 340 398
#     4  11  22  41  67  97 140 177 229 290 341 409
#     4  10  22  44  71  98 132 187 236 282 347 408
#     4  11  25  39  71 106 128 182 243 282 340 415
#     4  12  27  45  69 107 145 183 232 289 349 414
#
# _framework density 22.777287999999999
#
# number of rings (size 3 to 8) (size 9 to 14) (size 15 to 20)
#    0.000    1.455    1.818    4.364    5.091    4.364 
#    0.000    0.000    0.000    0.000    0.000    0.000 
#    0.000    0.000    0.000    0.000    0.000    0.000 
#
# Total GULP energy -272572.146684 kJ/mol
# GULP energy per Si atom -12389.643031 kJ/mol
# Density = 2.272545 g / cm^3
# Si number density = 22.777288 Si / 1000 Ang^3
#
#
#
# Elastic Constant Matrix: (Units=GPa)
#
#
# Indices 1 2 3 4 5 6 
#
# 1 108.8557 47.0167 48.9325 0.0000 17.3570 0.0000
# 2 47.0167 143.6521 35.2691 0.0000 9.9585 0.0000
# 3 48.9325 35.2691 158.8121 0.0000 40.1630 0.0000
# 4 0.0000 0.0000 0.0000 17.5173 0.0000 0.1140
# 5 17.3570 9.9585 40.1630 0.0000 52.5724 0.0000
# 6 0.0000 0.0000 0.0000 0.1140 0.0000 39.8659
#
#
#
# Elastic Compliance Matrix: (Units=1/GPa)
#
#
# Indices 1 2 3 4 5 6 
#
# 1 0.011957 -0.003172 -0.002644 0.000000 -0.001327 0.000000
# 2 -0.003172 0.008206 -0.000888 0.000000 0.000172 0.000000
# 3 -0.002644 -0.000888 0.008733 0.000000 -0.005630 0.000000
# 4 0.000000 0.000000 0.000000 0.057088 0.000000 -0.000163
# 5 -0.001327 0.000172 -0.005630 0.000000 0.023728 0.000000
# 6 0.000000 0.000000 0.000000 -0.000163 0.000000 0.025085
#
#
# Mechanical properties :
#
#
# Convention : Reuss Voigt Hill
#
# Bulk Modulus (GPa) = 64.57540 74.86186 69.71863
# Shear Modulus (GPa) = 32.60170 40.66456 36.63313
#
# Velocity S-wave (km/s) = 3.78739 4.22988 4.01474
# Velocity P-wave (km/s) = 6.89479 7.53618 7.22261
#
# Compressibility (1/GPa) = 0.01548577
#
# Stress axis : x y z
#
# Youngs Moduli (GPa) = 83.63512 121.86619 114.51455
#
# Poissons Ratio (x) = 0.38659 0.30278
# Poissons Ratio (y) = 0.26531 0.10172
# Poissons Ratio (z) = 0.22113 0.10826
#
# Static dielectric constant tensor:
#      x y z
#    x 4.329890 0.000000 0.314110 
#    y 0.000000 3.918140 0.000000 
#    z 0.314110 0.000000 4.273530 
# 
# 
# High freq. dielectric constant tensor:
#      x y z
#    x 1.917490 0.000000 0.014910 
#    y 0.000000 1.884700 0.000000 
#    z 0.014910 0.000000 1.895140 
# 
# From -- ./inp_files/55203.got.cif
#   From: 2010.06.25/outbox.cif.g09.slc.cpg/sg13_28_cif.got.tgz:55203.got - 2010.06.28 04:50:58.
