data_PCOD8121585
_publ_section_title
;
Structure prediction by ZEFSAII (Michael W. Deem and Ramdas Pophale) SiO2 
 PCOD8121585
Probable space group: P 2/C
;
_chemical_formula_sum "Si O2"
_cell_formula_units_Z 32
_cell_length_a 21.030029
_cell_length_b 14.133389
_cell_length_c 14.679307
_cell_angle_alpha 90.000000
_cell_angle_beta 20.408000
_cell_angle_gamma 90.000000
_cell_volume 1521.413666
_symmetry_space_group_name_H-M "P 2/C"
_symmetry_group_IT_number 13
_symmetry_cell_setting 'monoclinic'
loop_
_space_group_symop_operation_xyz
x,y,z
-x,y,1/2-z
-x,-y,-z
x,-y,1/2+z
loop_
_atom_site_type_symbol
_atom_site_label
_atom_site_fract_x
_atom_site_fract_y
_atom_site_fract_z
Si Si1 0.416769 0.084318 0.060226
Si Si2 0.462664 0.598505 0.002318
Si Si3 0.543730 0.733761 0.329576
Si Si4 0.824298 0.319049 0.924879
Si Si5 0.185748 0.105580 0.542120
Si Si6 0.894004 0.402230 0.639268
Si Si7 0.198233 0.257656 0.178685
Si Si8 0.177380 0.040271 0.213479
O O1 0.293985 0.129857 0.304032
O O2 0.330093 0.041360 0.085545
O O3 0.574290 0.157647 0.818764
O O4 0.500000 0.000000 0.000000
O O5 0.397092 0.667404 0.169025
O O6 0.296860 0.586387 0.155728
O O7 0.500000 0.500000 0.000000
O O8 0.640396 0.643803 0.718085
O O9 0.325188 0.731085 0.598528
O O10 0.675327 0.703924 0.071715
O O11 0.820917 0.208036 0.900479
O O12 0.844229 0.378472 0.807982
O O13 0.000000 0.340416 0.750000
O O14 0.000000 0.066211 0.750000
O O15 0.245448 0.025565 0.536546
O O16 0.000000 0.500000 0.500000
O O17 0.017864 0.320584 0.427800
O O18 0.141145 0.149335 0.233963
O O19 0.000000 0.000000 0.500000
#
# Coordination Sequence:
#
# PCOD8121585 Si02
#       8
#     4   4   4   4   4   4   4   4
#     4  11  23  40  63  96 135 178 230 286 346 408
#     4  12  26  46  72 102 137 178 228 285 349 415
#     4  10  22  44  67  94 133 179 228 281 341 408
#     4  11  24  46  74 100 138 180 231 284 347 413
#     4  11  22  41  67  97 132 185 231 283 349 415
#     4  12  27  46  70 104 138 178 228 287 351 416
#     4  10  23  43  68  95 135 181 230 280 343 407
#     4  11  22  40  64  95 134 182 229 281 345 411
#
# _framework density 21.033069000000001
#
# number of rings (size 3 to 8) (size 9 to 14) (size 15 to 20)
#    0.000    1.000    2.500    4.125    5.250    4.000 
#    4.500    0.000    0.000    0.000    0.000    0.000 
#    0.000    0.000    0.000    0.000    0.000    0.000 
#
# Total GULP energy -396566.364896 kJ/mol
# GULP energy per Si atom -12392.698903 kJ/mol
# Density = 2.098520 g / cm^3
# Si number density = 21.033069 Si / 1000 Ang^3
#
#
#
# Elastic Constant Matrix: (Units=GPa)
#
#
# Indices 1 2 3 4 5 6 
#
# 1 144.2428 76.5560 38.6132 0.0000 -0.7770 0.0000
# 2 76.5560 140.9134 37.2996 0.0000 -12.3210 0.0000
# 3 38.6132 37.2996 88.6647 0.0000 -4.2537 0.0000
# 4 0.0000 0.0000 0.0000 33.5242 0.0000 1.7444
# 5 -0.7770 -12.3210 -4.2537 0.0000 36.6717 0.0000
# 6 0.0000 0.0000 0.0000 1.7444 0.0000 42.0766
#
#
#
# Elastic Compliance Matrix: (Units=1/GPa)
#
#
# Indices 1 2 3 4 5 6 
#
# 1 0.010276 -0.005099 -0.002415 0.000000 -0.001775 0.000000
# 2 -0.005099 0.010714 -0.002131 0.000000 0.003245 0.000000
# 3 -0.002415 -0.002131 0.013264 0.000000 0.000771 0.000000
# 4 0.000000 0.000000 0.000000 0.029894 0.000000 -0.001239
# 5 -0.001775 0.003245 0.000771 0.000000 0.028411 0.000000
# 6 0.000000 0.000000 0.000000 -0.001239 0.000000 0.023818
#
#
# Mechanical properties :
#
#
# Convention : Reuss Voigt Hill
#
# Bulk Modulus (GPa) = 66.82859 75.41759 71.12309
# Shear Modulus (GPa) = 35.54807 37.21132 36.37969
#
# Velocity S-wave (km/s) = 4.11555 4.21073 4.16341
# Velocity P-wave (km/s) = 7.37738 7.71847 7.54985
#
# Compressibility (1/GPa) = 0.01496366
#
# Stress axis : x y z
#
# Youngs Moduli (GPa) = 97.31583 93.33259 75.39252
#
# Poissons Ratio (x) = 0.47586 0.18210
# Poissons Ratio (y) = 0.49617 0.16068
# Poissons Ratio (z) = 0.23506 0.19892
#
# Static dielectric constant tensor:
#      x y z
#    x 3.881950 0.000000 -0.053080 
#    y 0.000000 3.887910 0.000000 
#    z -0.053080 0.000000 3.772670 
# 
# 
# High freq. dielectric constant tensor:
#      x y z
#    x 1.833080 0.000000 0.014680 
#    y 0.000000 1.836340 0.000000 
#    z 0.014680 0.000000 1.827910 
# 
# From -- ./inp_files/57842.got.cif
#   From: 2010.06.25/outbox.cif.g09.slc.cpg/sg13_29_cif.got.tgz:57842.got - 2010.06.28 04:50:58.
