data_PCOD8121551
_publ_section_title
;
Structure prediction by ZEFSAII (Michael W. Deem and Ramdas Pophale) SiO2 
 PCOD8121551
Probable space group: P 2/C
;
_chemical_formula_sum "Si O2"
_cell_formula_units_Z 28
_cell_length_a 8.655758
_cell_length_b 15.766917
_cell_length_c 10.142618
_cell_angle_alpha 90.000000
_cell_angle_beta 112.697961
_cell_angle_gamma 90.000000
_cell_volume 1277.005381
_symmetry_space_group_name_H-M "P 2/C"
_symmetry_group_IT_number 13
_symmetry_cell_setting 'monoclinic'
loop_
_space_group_symop_operation_xyz
x,y,z
-x,y,1/2-z
-x,-y,-z
x,-y,1/2+z
loop_
_atom_site_type_symbol
_atom_site_label
_atom_site_fract_x
_atom_site_fract_y
_atom_site_fract_z
Si Si1 0.908160 0.735984 0.998621
Si Si2 0.216613 0.957252 0.216658
Si Si3 0.141318 0.920001 0.477802
Si Si4 0.293704 0.578752 0.927247
Si Si5 0.334724 0.388460 0.957387
Si Si6 0.000000 0.689270 0.750000
Si Si7 0.500000 0.833018 0.250000
Si Si8 0.734393 0.309958 0.837375
O O1 0.978849 0.747050 0.872429
O O2 0.812244 0.820745 0.015774
O O3 0.775143 0.660264 0.969915
O O4 0.075630 0.716331 0.137378
O O5 0.178135 0.974835 0.357689
O O6 0.377761 0.896539 0.287829
O O7 0.062296 0.917848 0.080387
O O8 0.243868 0.042903 0.138575
O O9 0.249437 0.479544 0.904076
O O10 0.162392 0.630284 0.798471
O O11 0.477453 0.596817 0.927568
O O12 0.275040 0.608527 0.072393
O O13 0.348977 0.334257 0.828526
O O14 0.370277 0.769277 0.132045
#
# Coordination Sequence:
#
# PCOD8121551 Si02
#       8
#     4   4   4   4   4   2   2   4
#     4  11  24  41  69  94 131 170 220 271 325 395
#     4  10  23  39  69  90 134 160 215 269 334 397
#     4  10  22  44  63 100 121 174 213 268 332 405
#     4  10  24  41  60  94 134 172 215 270 328 382
#     4  11  23  39  68  93 126 174 224 271 317 383
#     4  10  26  42  58  94 134 180 206 272 334 382
#     4  12  20  40  66  96 124 168 212 280 318 406
#     4  11  22  40  64  97 126 171 218 275 321 386
#
# _framework density 21.926299
#
# number of rings (size 3 to 8) (size 9 to 14) (size 15 to 20)
#    0.000    1.429    2.857    1.286    6.000    4.571 
#    0.000    1.429    0.000    0.000    0.000    0.000 
#    0.000    0.000    0.000    0.000    0.000    0.000 
#
# Total GULP energy -346879.225022 kJ/mol
# GULP energy per Si atom -12388.543751 kJ/mol
# Density = 2.187639 g / cm^3
# Si number density = 21.926299 Si / 1000 Ang^3
#
#
#
# Elastic Constant Matrix: (Units=GPa)
#
#
# Indices 1 2 3 4 5 6 
#
# 1 91.5585 44.1619 32.6507 0.0000 2.4865 0.0000
# 2 44.1619 116.4201 35.6607 0.0000 -1.7186 0.0000
# 3 32.6507 35.6607 70.1452 0.0000 -0.9182 0.0000
# 4 0.0000 0.0000 0.0000 15.6312 0.0000 -1.0409
# 5 2.4865 -1.7186 -0.9182 0.0000 20.4336 0.0000
# 6 0.0000 0.0000 0.0000 -1.0409 0.0000 38.3014
#
#
#
# Elastic Compliance Matrix: (Units=1/GPa)
#
#
# Indices 1 2 3 4 5 6 
#
# 1 0.014682 -0.004147 -0.004757 0.000000 -0.002349 0.000000
# 2 -0.004147 0.011353 -0.003825 0.000000 0.001288 0.000000
# 3 -0.004757 -0.003825 0.018429 0.000000 0.001085 0.000000
# 4 0.000000 0.000000 0.000000 0.064090 0.000000 0.001742
# 5 -0.002349 0.001288 0.001085 0.000000 0.049382 0.000000
# 6 0.000000 0.000000 0.000000 0.001742 0.000000 0.026156
#
#
# Mechanical properties :
#
#
# Convention : Reuss Voigt Hill
#
# Bulk Modulus (GPa) = 52.61036 55.89671 54.25353
# Shear Modulus (GPa) = 23.16042 25.91661 24.53852
#
# Velocity S-wave (km/s) = 3.25358 3.44173 3.34898
# Velocity P-wave (km/s) = 6.17743 6.42980 6.30488
#
# Compressibility (1/GPa) = 0.01900766
#
# Stress axis : x y z
#
# Youngs Moduli (GPa) = 68.10888 88.08051 54.26288
#
# Poissons Ratio (x) = 0.36528 0.25811
# Poissons Ratio (y) = 0.28246 0.20753
# Poissons Ratio (z) = 0.32397 0.33687
#
# Static dielectric constant tensor:
#      x y z
#    x 4.052100 0.000000 0.164420 
#    y 0.000000 3.943280 0.000000 
#    z 0.164420 0.000000 3.638290 
# 
# 
# High freq. dielectric constant tensor:
#      x y z
#    x 1.869530 0.000000 0.004400 
#    y 0.000000 1.858830 0.000000 
#    z 0.004400 0.000000 1.834710 
# 
# From -- ./inp_files/30199.got.cif
#   From: 2010.06.25/outbox.cif.g09.slc.cpg/sg13_16_cif.got.tgz:30199.got - 2010.06.28 04:50:58.
