data_PCOD8121214
_publ_section_title
;
Structure prediction by ZEFSAII (Michael W. Deem and Ramdas Pophale) SiO2 
 PCOD8121214
Probable space group: P 2/C
;
_chemical_formula_sum "Si O2"
_cell_formula_units_Z 18
_cell_length_a 7.688253
_cell_length_b 19.034368
_cell_length_c 5.443878
_cell_angle_alpha 90.000000
_cell_angle_beta 120.534223
_cell_angle_gamma 90.000000
_cell_volume 686.186223
_symmetry_space_group_name_H-M "P 2/C"
_symmetry_group_IT_number 13
_symmetry_cell_setting 'monoclinic'
loop_
_space_group_symop_operation_xyz
x,y,z
-x,y,1/2-z
-x,-y,-z
x,-y,1/2+z
loop_
_atom_site_type_symbol
_atom_site_label
_atom_site_fract_x
_atom_site_fract_y
_atom_site_fract_z
Si Si1 0.259540 0.034884 0.556702
Si Si2 0.500000 0.736404 0.750000
Si Si3 0.280004 0.809280 0.978460
Si Si4 0.739112 0.464804 0.932130
Si Si5 0.176430 0.681310 0.186996
O O1 0.500000 0.028541 0.750000
O O2 0.185464 0.114014 0.447734
O O3 0.172861 0.991705 0.257837
O O4 0.680481 0.786513 0.775343
O O5 0.395534 0.685874 0.476522
O O6 0.500000 0.807241 0.250000
O O7 0.133282 0.753160 0.005342
O O8 0.500000 0.473653 0.750000
O O9 0.828159 0.502121 0.748594
O O10 0.806490 0.383448 0.987493
O O11 0.000000 0.667285 0.250000
#
# Coordination Sequence:
#
# PCOD8121214 Si02
#       5
#     4   2   4   4   4
#     4   9  18  29  53  88 126 162 213 268 323 387
#     4  10  22  40  66  88 130 170 218 272 326 386
#     4   9  20  36  59  90 125 169 216 265 326 386
#     4  10  23  42  69  97 133 174 216 268 331 391
#     4  11  25  42  65  97 129 170 222 269 322 392
#
# _framework density 26.231946000000001
#
# number of rings (size 3 to 8) (size 9 to 14) (size 15 to 20)
#    0.000    2.222    0.000    2.000   18.667    1.778 
#    0.000    0.000    0.000    1.333    0.000    0.000 
#    0.000    0.000    0.000    0.000    0.000    0.000 
#
# Total GULP energy -223182.913497 kJ/mol
# GULP energy per Si atom -12399.050750 kJ/mol
# Density = 2.617224 g / cm^3
# Si number density = 26.231946 Si / 1000 Ang^3
#
#
#
# Elastic Constant Matrix: (Units=GPa)
#
#
# Indices 1 2 3 4 5 6 
#
# 1 63.1056 29.5570 45.1481 0.0000 -27.2292 0.0000
# 2 29.5570 202.0391 60.7983 0.0000 -31.5846 0.0000
# 3 45.1481 60.7983 152.5521 0.0000 -23.5922 0.0000
# 4 0.0000 0.0000 0.0000 -6.5596 0.0000 -45.9476
# 5 -27.2292 -31.5846 -23.5922 0.0000 47.9578 0.0000
# 6 0.0000 0.0000 0.0000 -45.9476 0.0000 -4.3929
#
#
#
# Elastic Compliance Matrix: (Units=1/GPa)
#
#
# Indices 1 2 3 4 5 6 
#
# 1 0.024704 -0.000212 -0.005497 0.000000 0.011182 0.000000
# 2 -0.000212 0.006000 -0.001879 0.000000 0.002907 0.000000
# 3 -0.005497 -0.001879 0.008937 0.000000 0.000037 0.000000
# 4 0.000000 0.000000 0.000000 0.002110 0.000000 -0.022065
# 5 0.011182 0.002907 0.000037 0.000000 0.029134 0.000000
# 6 0.000000 0.000000 0.000000 -0.022065 0.000000 0.003150
#
#
# Mechanical properties :
#
#
# Convention : Reuss Voigt Hill
#
# Bulk Modulus (GPa) = 40.87543 76.52262 58.69902
# Shear Modulus (GPa) = 51.35280 26.21395 38.78337
#
# Velocity S-wave (km/s) = 4.42933 3.16462 3.84927
# Velocity P-wave (km/s) = 6.46334 6.52595 6.49472
#
# Compressibility (1/GPa) = 0.02446457
#
# Stress axis : x y z
#
# Youngs Moduli (GPa) = 40.47990 166.65333 111.89635
#
# Poissons Ratio (x) = 0.03525 0.61514
# Poissons Ratio (y) = 0.00856 0.21028
# Poissons Ratio (z) = 0.22254 0.31318
#
# Static dielectric constant tensor:
#      x y z
#    x 5.134720 0.000000 -0.696590 
#    y 0.000000 4.855110 0.000000 
#    z -0.696590 0.000000 5.235090 
# 
# 
# High freq. dielectric constant tensor:
#      x y z
#    x 2.061910 0.000000 0.000140 
#    y 0.000000 2.042810 0.000000 
#    z 0.000140 0.000000 2.060210 
# 
# From -- ./inp_files/1541.got.cif
#   From: 2010.06.25/outbox.cif.g09.slc.cpg/sg13_1_cif.got.tgz:1541.got - 2010.06.28 04:50:58.
