data_PCOD8121110
_publ_section_title
;
Structure prediction by ZEFSAII (Michael W. Deem and Ramdas Pophale) SiO2 
 PCOD8121110
Probable space group: P 2/C
;
_chemical_formula_sum "Si O2"
_cell_formula_units_Z 32
_cell_length_a 19.176742
_cell_length_b 11.297655
_cell_length_c 14.939525
_cell_angle_alpha 90.000000
_cell_angle_beta 28.186830
_cell_angle_gamma 90.000000
_cell_volume 1528.840454
_symmetry_space_group_name_H-M "P 2/C"
_symmetry_group_IT_number 13
_symmetry_cell_setting 'monoclinic'
loop_
_space_group_symop_operation_xyz
x,y,z
-x,y,1/2-z
-x,-y,-z
x,-y,1/2+z
loop_
_atom_site_type_symbol
_atom_site_label
_atom_site_fract_x
_atom_site_fract_y
_atom_site_fract_z
Si Si1 0.214139 0.317268 0.810380
Si Si2 0.820981 0.924791 0.813439
Si Si3 0.658359 0.548379 0.792719
Si Si4 0.060693 0.100646 0.584266
Si Si5 0.508142 0.719320 0.636406
Si Si6 0.480912 0.014549 0.416497
Si Si7 0.107742 0.710920 0.892545
Si Si8 0.751341 0.108196 0.588377
O O1 0.251331 0.428954 0.832758
O O2 0.334593 0.304509 0.592929
O O3 0.211857 0.205445 0.879029
O O4 0.051821 0.341179 0.953897
O O5 0.840592 0.808784 0.734575
O O6 0.831918 0.873901 0.902581
O O7 0.945425 0.023117 0.656991
O O8 0.678383 0.995962 0.944487
O O9 0.626597 0.640093 0.749344
O O10 0.761035 0.613346 0.751704
O O11 0.500000 0.500000 0.000000
O O12 0.090891 0.227679 0.507732
O O13 0.000000 0.129392 0.750000
O O14 0.207240 0.020941 0.418956
O O15 0.500000 0.686091 0.750000
O O16 0.464822 0.855695 0.673758
O O17 0.500000 0.000000 0.500000
O O18 0.577836 0.907608 0.264516
#
# Coordination Sequence:
#
# PCOD8121110 Si02
#       8
#     4   4   4   4   4   4   4   4
#     4  11  24  43  67  91 133 175 226 274 333 392
#     4  11  23  37  62 102 135 172 212 263 344 404
#     4  10  25  47  65  92 127 172 225 281 327 382
#     4  10  22  39  64  99 139 167 208 270 342 406
#     4  11  23  44  69  95 131 171 226 284 331 394
#     4  12  22  37  63  98 133 171 213 269 336 408
#     4  12  23  40  70  95 131 175 219 268 333 397
#     4  11  22  40  60  96 138 171 213 272 325 410
#
# _framework density 20.930895
#
# number of rings (size 3 to 8) (size 9 to 14) (size 15 to 20)
#    0.000    1.000    2.500    4.875    1.750    3.000 
#    4.500    0.000    5.500    0.000    0.000    0.000 
#    0.000    0.000    0.000    0.000    0.000    0.000 
#
# Total GULP energy -396459.953042 kJ/mol
# GULP energy per Si atom -12389.373533 kJ/mol
# Density = 2.088326 g / cm^3
# Si number density = 20.930895 Si / 1000 Ang^3
#
#
#
# Elastic Constant Matrix: (Units=GPa)
#
#
# Indices 1 2 3 4 5 6 
#
# 1 112.4738 46.5215 42.1608 0.0000 -6.2747 0.0000
# 2 46.5215 92.8943 42.7405 0.0000 -10.3448 0.0000
# 3 42.1608 42.7405 69.6384 0.0000 -7.9191 0.0000
# 4 0.0000 0.0000 0.0000 24.1673 0.0000 -18.4621
# 5 -6.2747 -10.3448 -7.9191 0.0000 33.9518 0.0000
# 6 0.0000 0.0000 0.0000 -18.4621 0.0000 -64.2677
#
#
#
# Elastic Compliance Matrix: (Units=1/GPa)
#
#
# Indices 1 2 3 4 5 6 
#
# 1 0.012414 -0.003852 -0.005161 0.000000 -0.000083 0.000000
# 2 -0.003852 0.016404 -0.007446 0.000000 0.002549 0.000000
# 3 -0.005161 -0.007446 0.022279 0.000000 0.001974 0.000000
# 4 0.000000 0.000000 0.000000 0.033932 0.000000 -0.009748
# 5 -0.000083 0.002549 0.001974 0.000000 0.030675 0.000000
# 6 0.000000 0.000000 0.000000 -0.009748 0.000000 -0.012760
#
#
# Mechanical properties :
#
#
# Convention : Reuss Voigt Hill
#
# Bulk Modulus (GPa) = 55.00821 59.76135 57.38478
# Shear Modulus (GPa) = 35.23074 8.34255 21.78665
#
# Velocity S-wave (km/s) = 4.10712 1.99860 3.22977
# Velocity P-wave (km/s) = 6.98779 5.82577 6.43307
#
# Compressibility (1/GPa) = 0.01817910
#
# Stress axis : x y z
#
# Youngs Moduli (GPa) = 80.55330 60.96255 44.88510
#
# Poissons Ratio (x) = 0.23480 0.23167
# Poissons Ratio (y) = 0.31025 0.33421
# Poissons Ratio (z) = 0.41577 0.45392
#
# Static dielectric constant tensor:
#      x y z
#    x 4.136560 0.000000 -0.332610 
#    y 0.000000 4.100020 0.000000 
#    z -0.332610 0.000000 4.221550 
# 
# 
# High freq. dielectric constant tensor:
#      x y z
#    x 1.828220 0.000000 -0.020520 
#    y 0.000000 1.815400 0.000000 
#    z -0.020520 0.000000 1.825640 
# 
# From -- ./inp_files/55796.got.cif
#   From: 2010.06.25/outbox.cif.g09.slc.cpg/sg13_28_cif.got.tgz:55796.got - 2010.06.28 04:50:58.
