data_PCOD8121444
_publ_section_title
;
Structure prediction by ZEFSAII (Michael W. Deem and Ramdas Pophale) SiO2 
 PCOD8121444
Probable space group: P 2/C
;
_chemical_formula_sum "Si O2"
_cell_formula_units_Z 16
_cell_length_a 22.645867
_cell_length_b 5.062730
_cell_length_c 28.833501
_cell_angle_alpha 90.000000
_cell_angle_beta 10.825374
_cell_angle_gamma 90.000000
_cell_volume 620.875332
_symmetry_space_group_name_H-M "P 2/C"
_symmetry_group_IT_number 13
_symmetry_cell_setting 'monoclinic'
loop_
_space_group_symop_operation_xyz
x,y,z
-x,y,1/2-z
-x,-y,-z
x,-y,1/2+z
loop_
_atom_site_type_symbol
_atom_site_label
_atom_site_fract_x
_atom_site_fract_y
_atom_site_fract_z
Si Si1 0.725044 0.664199 0.235269
Si Si2 0.852279 0.729442 0.510077
Si Si3 0.936291 0.563464 0.248423
Si Si4 0.505940 0.205590 0.810757
O O1 0.431273 0.483684 0.476195
O O2 0.601207 0.861469 0.290730
O O3 0.859446 0.805804 0.177726
O O4 0.000000 0.500000 0.000000
O O5 0.719232 0.438461 0.623838
O O6 0.965661 0.751532 0.369587
O O7 0.568807 0.937296 0.734595
O O8 0.000000 0.699623 0.250000
O O9 0.141440 0.291696 0.089106
#
# Coordination Sequence:
#
# PCOD8121444 Si02
#       4
#     4   4   4   4
#     4   9  20  43  70 102 140 181 232 290 348 414
#     4  11  22  43  69  98 134 181 227 282 346 412
#     4  10  22  42  68 104 142 185 234 288 350 418
#     4  10  23  42  67 100 137 177 227 286 345 408
#
# _framework density 25.77007
#
# number of rings (size 3 to 8) (size 9 to 14) (size 15 to 20)
#    0.000    2.000    0.000    2.250    0.000    4.000 
#    0.000   51.250    0.000    0.000    0.000    1.750 
#    0.000    0.000    0.000    0.000    0.000    0.000 
#
# Total GULP energy -198275.805096 kJ/mol
# GULP energy per Si atom -12392.237818 kJ/mol
# Density = 2.571142 g / cm^3
# Si number density = 25.770070 Si / 1000 Ang^3
#
#
#
# Elastic Constant Matrix: (Units=GPa)
#
#
# Indices 1 2 3 4 5 6 
#
# 1 217.1041 33.8895 73.5556 -0.0273 18.7286 -0.0645
# 2 33.8895 69.0618 20.3424 0.0009 12.3626 -0.0003
# 3 73.5556 20.3424 169.1014 -0.0136 -8.9306 -0.0202
# 4 -0.0273 0.0009 -0.0136 12.2602 0.0128 -43.8039
# 5 18.7286 12.3626 -8.9306 0.0128 53.3119 0.0274
# 6 -0.0645 -0.0003 -0.0202 -43.8039 0.0274 -154.4185
#
#
#
# Elastic Compliance Matrix: (Units=1/GPa)
#
#
# Indices 1 2 3 4 5 6 
#
# 1 0.005898 -0.001800 -0.002458 0.000002 -0.002066 -0.000003
# 2 -0.001800 0.016373 -0.001366 -0.000001 -0.003393 0.000001
# 3 -0.002458 -0.001366 0.007274 0.000001 0.002399 0.000000
# 4 0.000002 -0.000001 0.000001 0.040509 -0.000004 -0.011491
# 5 -0.002066 -0.003393 0.002399 -0.000004 0.020672 0.000005
# 6 -0.000003 0.000001 0.000000 -0.011491 0.000005 -0.003216
#
#
# Mechanical properties :
#
#
# Convention : Reuss Voigt Hill
#
# Bulk Modulus (GPa) = 54.65520 78.98247 66.81884
# Shear Modulus (GPa) = 47.68411 4.06271 25.87341
#
# Velocity S-wave (km/s) = 4.30626 1.25696 3.17205
# Velocity P-wave (km/s) = 6.78085 5.72905 6.27702
#
# Compressibility (1/GPa) = 0.01829652
#
# Stress axis : x y z
#
# Youngs Moduli (GPa) = 169.54328 61.07657 137.47928
#
# Poissons Ratio (x) = 0.10996 0.33794
# Poissons Ratio (y) = 0.30524 0.18775
# Poissons Ratio (z) = 0.41676 0.08341
#
# Static dielectric constant tensor:
#      x y z
#    x 5.988900 0.000010 0.044850 
#    y 0.000010 3.898670 0.000320 
#    z 0.044850 0.000320 8.747330 
# 
# 
# High freq. dielectric constant tensor:
#      x y z
#    x 2.070810 0.000000 -0.004810 
#    y 0.000000 1.977150 0.000000 
#    z -0.004810 0.000000 2.042690 
# 
# From -- ./inp_files/97617.got.cif
#   From: 2010.06.25/outbox.cif.g09.slc.cpg/sg13_49_cif.got.tgz:97617.got - 2010.06.28 04:50:58.
