data_PCOD8121164
_publ_section_title
;
Structure prediction by ZEFSAII (Michael W. Deem and Ramdas Pophale) SiO2 
 PCOD8121164
Probable space group: P 2/C
;
_chemical_formula_sum "Si O2"
_cell_formula_units_Z 28
_cell_length_a 13.862875
_cell_length_b 11.194514
_cell_length_c 9.759087
_cell_angle_alpha 90.000000
_cell_angle_beta 71.880063
_cell_angle_gamma 90.000000
_cell_volume 1439.387170
_symmetry_space_group_name_H-M "P 2/C"
_symmetry_group_IT_number 13
_symmetry_cell_setting 'monoclinic'
loop_
_space_group_symop_operation_xyz
x,y,z
-x,y,1/2-z
-x,-y,-z
x,-y,1/2+z
loop_
_atom_site_type_symbol
_atom_site_label
_atom_site_fract_x
_atom_site_fract_y
_atom_site_fract_z
Si Si1 0.121469 0.134642 0.397346
Si Si2 0.926419 0.508324 0.405403
Si Si3 0.802893 0.263937 0.897150
Si Si4 0.613922 0.384426 0.540873
Si Si5 0.101528 0.861608 0.394905
Si Si6 0.810488 0.734693 0.900873
Si Si7 0.385077 0.617906 0.141625
O O1 0.203432 0.163481 0.480494
O O2 0.141976 0.220180 0.260807
O O3 0.012762 0.165806 0.509686
O O4 0.123030 0.998764 0.345503
O O5 0.845530 0.615802 0.448937
O O6 0.863398 0.387614 0.420728
O O7 0.000000 0.532892 0.250000
O O8 0.000000 0.500000 0.500000
O O9 0.877616 0.220348 0.744658
O O10 0.691379 0.281944 0.881874
O O11 0.689456 0.285426 0.444892
O O12 0.628789 0.501672 0.444175
O O13 0.640008 0.412743 0.688704
O O14 0.499869 0.333422 0.577351
O O15 0.174431 0.833129 0.489171
#
# Coordination Sequence:
#
# PCOD8121164 Si02
#       7
#     4   4   4   4   4   4   4
#     4  11  25  39  62  88 119 166 219 250 289 363
#     4  12  24  34  53  88 127 153 185 239 314 370
#     4  12  22  39  63  88 125 162 201 256 313 364
#     4  10  22  40  63  90 125 160 202 250 309 378
#     4  11  23  43  60  84 122 171 213 249 292 360
#     4  12  22  39  62  88 123 159 201 256 310 365
#     4  10  22  40  62  92 123 161 203 248 309 378
#
# _framework density 19.452722999999999
#
# number of rings (size 3 to 8) (size 9 to 14) (size 15 to 20)
#    0.000    0.857    2.857    6.000    2.000    2.286 
#    0.000    0.000    0.000    5.143    0.000    0.000 
#    0.000    0.000    0.000    0.000    0.000    0.000 
#
# Total GULP energy -347250.334656 kJ/mol
# GULP energy per Si atom -12401.797666 kJ/mol
# Density = 1.940845 g / cm^3
# Si number density = 19.452723 Si / 1000 Ang^3
#
#
#
# Elastic Constant Matrix: (Units=GPa)
#
#
# Indices 1 2 3 4 5 6 
#
# 1 124.0789 57.8989 47.9321 0.0000 8.6284 0.0000
# 2 57.8989 82.2158 51.7584 0.0000 -4.1952 0.0000
# 3 47.9321 51.7584 112.0749 0.0000 17.5895 0.0000
# 4 0.0000 0.0000 0.0000 23.5864 0.0000 3.0359
# 5 8.6284 -4.1952 17.5895 0.0000 31.9039 0.0000
# 6 0.0000 0.0000 0.0000 3.0359 0.0000 25.2482
#
#
#
# Elastic Compliance Matrix: (Units=1/GPa)
#
#
# Indices 1 2 3 4 5 6 
#
# 1 0.012687 -0.008656 -0.000779 0.000000 -0.004140 0.000000
# 2 -0.008656 0.024735 -0.009414 0.000000 0.010784 0.000000
# 3 -0.000779 -0.009414 0.015068 0.000000 -0.009335 0.000000
# 4 0.000000 0.000000 0.000000 0.043064 0.000000 -0.005178
# 5 -0.004140 0.010784 -0.009335 0.000000 0.039028 0.000000
# 6 0.000000 0.000000 0.000000 -0.005178 0.000000 0.040229
#
#
# Mechanical properties :
#
#
# Convention : Reuss Voigt Hill
#
# Bulk Modulus (GPa) = 67.59516 70.39426 68.99471
# Shear Modulus (GPa) = 22.99479 26.86636 24.93058
#
# Velocity S-wave (km/s) = 3.44188 3.72036 3.58383
# Velocity P-wave (km/s) = 7.11472 7.39734 7.25741
#
# Compressibility (1/GPa) = 0.01479396
#
# Stress axis : x y z
#
# Youngs Moduli (GPa) = 78.82001 40.42802 66.36437
#
# Poissons Ratio (x) = 0.34993 0.05170
# Poissons Ratio (y) = 0.68223 0.62475
# Poissons Ratio (z) = 0.06140 0.38059
#
# Static dielectric constant tensor:
#      x y z
#    x 3.853360 0.000000 0.082910 
#    y 0.000000 3.495700 0.000000 
#    z 0.082910 0.000000 3.703700 
# 
# 
# High freq. dielectric constant tensor:
#      x y z
#    x 1.757860 0.000000 0.011240 
#    y 0.000000 1.743470 0.000000 
#    z 0.011240 0.000000 1.773650 
# 
# From -- ./inp_files/18760.got.cif
#   From: 2010.06.25/outbox.cif.g09.slc.cpg/sg13_10_cif.got.tgz:18760.got - 2010.06.28 04:50:58.
