data_PCOD8121318
_publ_section_title
;
Structure prediction by ZEFSAII (Michael W. Deem and Ramdas Pophale) SiO2 
 PCOD8121318
Probable space group: P 2/C
;
_chemical_formula_sum "Si O2"
_cell_formula_units_Z 22
_cell_length_a 29.669767
_cell_length_b 5.043780
_cell_length_c 12.430235
_cell_angle_alpha 90.000000
_cell_angle_beta 31.112986
_cell_angle_gamma 90.000000
_cell_volume 961.194087
_symmetry_space_group_name_H-M "P 2/C"
_symmetry_group_IT_number 13
_symmetry_cell_setting 'monoclinic'
loop_
_space_group_symop_operation_xyz
x,y,z
-x,y,1/2-z
-x,-y,-z
x,-y,1/2+z
loop_
_atom_site_type_symbol
_atom_site_label
_atom_site_fract_x
_atom_site_fract_y
_atom_site_fract_z
Si Si1 0.909427 0.557402 0.632359
Si Si2 0.399205 0.585934 0.936025
Si Si3 0.135081 0.925916 0.149520
Si Si4 0.438900 0.750578 0.633141
Si Si5 0.000000 0.745079 0.250000
Si Si6 0.322640 0.097528 0.181927
O O1 0.851347 0.311009 0.791296
O O2 0.000000 0.500000 0.500000
O O3 0.926707 0.575167 0.466766
O O4 0.869607 0.821326 0.764271
O O5 0.500000 0.511530 0.750000
O O6 0.385969 0.739586 0.851788
O O7 0.344492 0.309878 0.042456
O O8 0.365105 0.805756 0.089780
O O9 0.051550 0.911108 0.237932
O O10 0.219469 0.938578 0.901748
O O11 0.500000 0.500000 0.500000
O O12 0.364684 0.747137 0.695627
O O13 0.500000 0.000000 0.500000
#
# Coordination Sequence:
#
# PCOD8121318 Si02
#       6
#     4   4   4   4   2   4
#     4  10  22  41  65  95 124 166 211 257 312 385
#     4  12  23  41  67  91 126 170 218 263 318 377
#     4  11  25  41  64  96 133 164 212 264 313 382
#     4  12  23  39  64  88 120 168 210 263 323 370
#     4  10  22  42  70  90 126 170 206 250 328 370
#     4  12  25  42  62  97 130 165 216 268 312 378
#
# _framework density 22.888195
#
# number of rings (size 3 to 8) (size 9 to 14) (size 15 to 20)
#    0.000    0.727    3.636    4.909    0.000    9.455 
#    0.000    0.000    0.000    0.000    0.000    0.000 
#    0.000    0.000    0.000    0.000    0.000    0.000 
#
# Total GULP energy -272630.360415 kJ/mol
# GULP energy per Si atom -12392.289110 kJ/mol
# Density = 2.283610 g / cm^3
# Si number density = 22.888195 Si / 1000 Ang^3
#
#
#
# Elastic Constant Matrix: (Units=GPa)
#
#
# Indices 1 2 3 4 5 6 
#
# 1 53.1652 6.4924 12.8654 0.0000 5.3194 0.0000
# 2 6.4924 169.6275 57.5913 0.0000 3.8507 0.0000
# 3 12.8654 57.5913 140.8151 0.0000 1.6302 0.0000
# 4 0.0000 0.0000 0.0000 35.8251 0.0000 4.7283
# 5 5.3194 3.8507 1.6302 0.0000 36.2111 0.0000
# 6 0.0000 0.0000 0.0000 4.7283 0.0000 12.4848
#
#
#
# Elastic Compliance Matrix: (Units=1/GPa)
#
#
# Indices 1 2 3 4 5 6 
#
# 1 0.019513 -0.000104 -0.001708 0.000000 -0.002779 0.000000
# 2 -0.000104 0.006860 -0.002789 0.000000 -0.000589 0.000000
# 3 -0.001708 -0.002789 0.008396 0.000000 0.000170 0.000000
# 4 0.000000 0.000000 0.000000 0.029382 0.000000 -0.011128
# 5 -0.002779 -0.000589 0.000170 0.000000 0.028079 0.000000
# 6 0.000000 0.000000 0.000000 -0.011128 0.000000 0.084311
#
#
# Mechanical properties :
#
#
# Convention : Reuss Voigt Hill
#
# Bulk Modulus (GPa) = 39.11305 57.50066 48.30685
# Shear Modulus (GPa) = 25.73786 36.01478 30.87632
#
# Velocity S-wave (km/s) = 3.35700 3.97105 3.67687
# Velocity P-wave (km/s) = 5.67025 6.79725 6.25917
#
# Compressibility (1/GPa) = 0.02556692
#
# Stress axis : x y z
#
# Youngs Moduli (GPa) = 51.24696 145.78165 119.09954
#
# Poissons Ratio (x) = 0.01514 0.20344
# Poissons Ratio (y) = 0.00532 0.33219
# Poissons Ratio (z) = 0.08754 0.40661
#
# Static dielectric constant tensor:
#      x y z
#    x 4.283180 0.000000 0.584820 
#    y 0.000000 3.969610 0.000000 
#    z 0.584820 0.000000 4.547210 
# 
# 
# High freq. dielectric constant tensor:
#      x y z
#    x 1.882340 0.000000 0.018920 
#    y 0.000000 1.915180 0.000000 
#    z 0.018920 0.000000 1.913540 
# 
# From -- ./inp_files/42520.got.cif
#   From: 2010.06.25/outbox.cif.g09.slc.cpg/sg13_22_cif.got.tgz:42520.got - 2010.06.28 04:50:58.
