data_PCOD8121777
_publ_section_title
;
Structure prediction by ZEFSAII (Michael W. Deem and Ramdas Pophale) SiO2 
 PCOD8121777
Probable space group: P 2/C
;
_chemical_formula_sum "Si O2"
_cell_formula_units_Z 20
_cell_length_a 17.716214
_cell_length_b 7.803308
_cell_length_c 8.789484
_cell_angle_alpha 90.000000
_cell_angle_beta 133.746009
_cell_angle_gamma 90.000000
_cell_volume 877.805050
_symmetry_space_group_name_H-M "P 2/C"
_symmetry_group_IT_number 13
_symmetry_cell_setting 'monoclinic'
loop_
_space_group_symop_operation_xyz
x,y,z
-x,y,1/2-z
-x,-y,-z
x,-y,1/2+z
loop_
_atom_site_type_symbol
_atom_site_label
_atom_site_fract_x
_atom_site_fract_y
_atom_site_fract_z
Si Si1 0.319999 0.881360 0.628878
Si Si2 0.899089 0.989852 0.207824
Si Si3 0.389517 0.204750 0.549114
Si Si4 0.181340 0.657426 0.884779
Si Si5 0.177414 0.684841 0.234334
O O1 0.209783 0.963296 0.538935
O O2 0.289485 0.726637 0.470963
O O3 0.384236 0.021058 0.624261
O O4 0.387547 0.816114 0.864036
O O5 0.899373 0.850797 0.347500
O O6 0.000000 0.953193 0.250000
O O7 0.894830 0.184261 0.266389
O O8 0.500000 0.289863 0.750000
O O9 0.295378 0.326580 0.468630
O O10 0.192892 0.644848 0.081104
O O11 0.129240 0.483700 0.748660
#
# Coordination Sequence:
#
# PCOD8121777 Si02
#       5
#     4   4   4   4   4
#     4   9  20  38  60  91 131 160 208 265 309 375
#     4   9  22  41  67  96 126 170 214 260 324 383
#     4  11  21  38  65  94 125 169 214 261 321 381
#     4  11  23  42  64  92 133 169 214 270 314 375
#     4  10  23  41  66  91 134 171 209 265 321 370
#
# _framework density 22.784102000000001
#
# number of rings (size 3 to 8) (size 9 to 14) (size 15 to 20)
#    1.200    0.800    0.000    4.200    0.000    1.600 
#    0.000    7.000    0.000    0.000    0.000    0.000 
#    0.000    0.000    0.000    0.000    0.000    0.000 
#
# Total GULP energy -247872.742600 kJ/mol
# GULP energy per Si atom -12393.637130 kJ/mol
# Density = 2.273224 g / cm^3
# Si number density = 22.784102 Si / 1000 Ang^3
#
#
#
# Elastic Constant Matrix: (Units=GPa)
#
#
# Indices 1 2 3 4 5 6 
#
# 1 75.4999 21.3113 22.6827 0.0000 -13.1911 0.0000
# 2 21.3113 144.5339 17.7696 0.0000 -27.8073 0.0000
# 3 22.6827 17.7696 91.1321 0.0000 -20.3476 0.0000
# 4 0.0000 0.0000 0.0000 -28.8997 0.0000 -25.3184
# 5 -13.1911 -27.8073 -20.3476 0.0000 42.5336 0.0000
# 6 0.0000 0.0000 0.0000 -25.3184 0.0000 26.2435
#
#
#
# Elastic Compliance Matrix: (Units=1/GPa)
#
#
# Indices 1 2 3 4 5 6 
#
# 1 0.014922 -0.001395 -0.002925 0.000000 0.002317 0.000000
# 2 -0.001395 0.008060 -0.000162 0.000000 0.004759 0.000000
# 3 -0.002925 -0.000162 0.012882 0.000000 0.005150 0.000000
# 4 0.000000 0.000000 0.000000 -0.018753 0.000000 -0.018092
# 5 0.002317 0.004759 0.005150 0.000000 0.029805 0.000000
# 6 0.000000 0.000000 0.000000 -0.018092 0.000000 0.020651
#
#
# Mechanical properties :
#
#
# Convention : Reuss Voigt Hill
#
# Bulk Modulus (GPa) = 37.17242 48.29923 42.73583
# Shear Modulus (GPa) = 58.48103 24.60231 41.54167
#
# Velocity S-wave (km/s) = 5.07180 3.28960 4.27461
# Velocity P-wave (km/s) = 7.11675 5.97271 6.56968
#
# Compressibility (1/GPa) = 0.02690167
#
# Stress axis : x y z
#
# Youngs Moduli (GPa) = 67.01376 124.06884 77.62477
#
# Poissons Ratio (x) = 0.17307 0.22704
# Poissons Ratio (y) = 0.09348 0.01255
# Poissons Ratio (z) = 0.19601 0.02007
#
# Static dielectric constant tensor:
#      x y z
#    x 3.786250 0.000000 -0.010190 
#    y 0.000000 4.259530 0.000000 
#    z -0.010190 0.000000 3.898360 
# 
# 
# High freq. dielectric constant tensor:
#      x y z
#    x 1.885000 0.000000 -0.011110 
#    y 0.000000 1.894360 0.000000 
#    z -0.011110 0.000000 1.891630 
# 
# From -- ./inp_files/21228.got.cif
#   From: 2010.06.25/outbox.cif.g09.slc.cpg/sg13_11_cif.got.tgz:21228.got - 2010.06.28 04:50:58.
