data_PCOD8121524
_publ_section_title
;
Structure prediction by ZEFSAII (Michael W. Deem and Ramdas Pophale) SiO2 
 PCOD8121524
Probable space group: P 2/C
;
_chemical_formula_sum "Si O2"
_cell_formula_units_Z 18
_cell_length_a 11.144343
_cell_length_b 7.841971
_cell_length_c 8.827267
_cell_angle_alpha 90.000000
_cell_angle_beta 121.380443
_cell_angle_gamma 90.000000
_cell_volume 658.606160
_symmetry_space_group_name_H-M "P 2/C"
_symmetry_group_IT_number 13
_symmetry_cell_setting 'monoclinic'
loop_
_space_group_symop_operation_xyz
x,y,z
-x,y,1/2-z
-x,-y,-z
x,-y,1/2+z
loop_
_atom_site_type_symbol
_atom_site_label
_atom_site_fract_x
_atom_site_fract_y
_atom_site_fract_z
Si Si1 0.210068 0.911975 0.658747
Si Si2 0.382977 0.717457 0.968917
Si Si3 0.500000 0.017740 0.750000
Si Si4 0.000000 0.458386 0.250000
Si Si5 0.500000 0.541541 0.750000
Si Si6 0.072075 0.737439 0.082653
O O1 0.231081 0.804624 0.830444
O O2 0.082674 0.821029 0.486078
O O3 0.358935 0.902071 0.667479
O O4 0.183396 0.111341 0.675381
O O5 0.439113 0.647295 0.847195
O O6 0.489995 0.865329 0.092928
O O7 0.374239 0.576381 0.096086
O O8 0.085683 0.340423 0.423154
O O9 0.896815 0.584709 0.278210
#
# Coordination Sequence:
#
# PCOD8121524 Si02
#       6
#     4   4   2   2   2   4
#     4  11  25  44  76 113 146 197 244 313 360 457
#     4  10  22  43  69 103 151 198 245 298 369 441
#     4  11  25  44  70 110 150 194 248 303 369 438
#     4  10  24  54  72 110 140 204 244 322 368 448
#     4   9  21  46  66 106 154 202 242 301 371 452
#     4  10  26  48  80 103 148 191 260 301 381 439
#
# _framework density 27.330448000000001
#
# number of rings (size 3 to 8) (size 9 to 14) (size 15 to 20)
#    0.000    1.778    0.000    1.333    6.222    3.556 
#   20.000    0.000    0.000    0.000    0.000    0.000 
#    0.000    0.000    0.000    0.000    0.000    0.000 
#
# Total GULP energy -223016.966104 kJ/mol
# GULP energy per Si atom -12389.831450 kJ/mol
# Density = 2.726824 g / cm^3
# Si number density = 27.330448 Si / 1000 Ang^3
#
#
#
# Elastic Constant Matrix: (Units=GPa)
#
#
# Indices 1 2 3 4 5 6 
#
# 1 107.1026 33.1107 39.4794 0.0000 3.7809 0.0000
# 2 33.1107 154.3290 63.6913 0.0000 -11.1375 0.0000
# 3 39.4794 63.6913 121.5835 0.0000 -15.7949 0.0000
# 4 0.0000 0.0000 0.0000 86.1313 0.0000 14.5341
# 5 3.7809 -11.1375 -15.7949 0.0000 48.9146 0.0000
# 6 0.0000 0.0000 0.0000 14.5341 0.0000 21.7571
#
#
#
# Elastic Compliance Matrix: (Units=1/GPa)
#
#
# Indices 1 2 3 4 5 6 
#
# 1 0.010965 -0.001178 -0.003224 0.000000 -0.002157 0.000000
# 2 -0.001178 0.008405 -0.003925 0.000000 0.000737 0.000000
# 3 -0.003224 -0.003925 0.011736 0.000000 0.003145 0.000000
# 4 0.000000 0.000000 0.000000 0.013085 0.000000 -0.008741
# 5 -0.002157 0.000737 0.003145 0.000000 0.021794 0.000000
# 6 0.000000 0.000000 0.000000 -0.008741 0.000000 0.051801
#
#
# Mechanical properties :
#
#
# Convention : Reuss Voigt Hill
#
# Bulk Modulus (GPa) = 69.18447 72.84198 71.01323
# Shear Modulus (GPa) = 35.90447 47.80951 41.85699
#
# Velocity S-wave (km/s) = 3.62846 4.18702 3.91770
# Velocity P-wave (km/s) = 6.55159 7.07707 6.81939
#
# Compressibility (1/GPa) = 0.01445411
#
# Stress axis : x y z
#
# Youngs Moduli (GPa) = 91.19577 118.97145 85.20608
#
# Poissons Ratio (x) = 0.14012 0.27469
# Poissons Ratio (y) = 0.10741 0.33443
# Poissons Ratio (z) = 0.29400 0.46695
#
# Static dielectric constant tensor:
#      x y z
#    x 4.403820 0.000000 0.047230 
#    y 0.000000 5.674900 0.000000 
#    z 0.047230 0.000000 5.360850 
# 
# 
# High freq. dielectric constant tensor:
#      x y z
#    x 2.068790 0.000000 -0.008850 
#    y 0.000000 2.134150 0.000000 
#    z -0.008850 0.000000 2.106430 
# 
# From -- ./inp_files/15089.got.cif
#   From: 2010.06.25/outbox.cif.g09.slc.cpg/sg13_8_cif.got.tgz:15089.got - 2010.06.28 04:50:58.
