data_PCOD8121085
_publ_section_title
;
Structure prediction by ZEFSAII (Michael W. Deem and Ramdas Pophale) SiO2 
 PCOD8121085
Probable space group: P 2/C
;
_chemical_formula_sum "Si O2"
_cell_formula_units_Z 20
_cell_length_a 13.543666
_cell_length_b 8.018326
_cell_length_c 22.066979
_cell_angle_alpha 90.000000
_cell_angle_beta 21.780364
_cell_angle_gamma 90.000000
_cell_volume 889.190482
_symmetry_space_group_name_H-M "P 2/C"
_symmetry_group_IT_number 13
_symmetry_cell_setting 'monoclinic'
loop_
_space_group_symop_operation_xyz
x,y,z
-x,y,1/2-z
-x,-y,-z
x,-y,1/2+z
loop_
_atom_site_type_symbol
_atom_site_label
_atom_site_fract_x
_atom_site_fract_y
_atom_site_fract_z
Si Si1 0.016085 0.207721 0.657611
Si Si2 0.427581 0.679262 0.015916
Si Si3 0.797438 0.195143 0.076580
Si Si4 0.978361 0.175408 0.193864
Si Si5 0.217099 0.199939 0.933957
O O1 0.209785 0.325929 0.586554
O O2 0.055898 0.263684 0.566322
O O3 0.706032 0.232268 0.849867
O O4 0.072684 0.015236 0.640464
O O5 0.500000 0.500000 0.000000
O O6 0.672812 0.788440 0.850449
O O7 0.500000 0.269507 0.250000
O O8 0.781202 0.996951 0.078843
O O9 0.968176 0.264239 0.035756
O O10 0.000000 0.251904 0.250000
O O11 0.163172 0.254274 0.034962
O O12 0.500000 0.275229 0.750000
#
# Coordination Sequence:
#
# PCOD8121085 Si02
#       5
#     4   4   4   4   4
#     4  10  22  39  62  92 119 165 216 258 314 371
#     4  11  24  40  58  91 131 163 208 262 319 374
#     4   9  17  33  58  82 122 159 197 261 317 370
#     4  11  22  36  65  92 125 159 211 260 308 370
#     4   9  19  32  53  93 125 154 200 258 320 366
#
# _framework density 22.492367999999999
#
# number of rings (size 3 to 8) (size 9 to 14) (size 15 to 20)
#    0.000    2.000    2.000    1.800    5.600    3.200 
#    0.000    0.000    0.000    6.000    0.000    0.000 
#    0.000    0.000    0.000    0.000    0.000    0.000 
#
# Total GULP energy -247771.458920 kJ/mol
# GULP energy per Si atom -12388.572946 kJ/mol
# Density = 2.244117 g / cm^3
# Si number density = 22.492368 Si / 1000 Ang^3
#
#
#
# Elastic Constant Matrix: (Units=GPa)
#
#
# Indices 1 2 3 4 5 6 
#
# 1 147.0828 18.9707 79.8332 0.0000 24.6057 0.0000
# 2 18.9707 39.1708 6.7812 0.0000 -5.1905 0.0000
# 3 79.8332 6.7812 197.2139 0.0000 23.3542 0.0000
# 4 0.0000 0.0000 0.0000 9.7811 0.0000 -8.6399
# 5 24.6057 -5.1905 23.3542 0.0000 51.7343 0.0000
# 6 0.0000 0.0000 0.0000 -8.6399 0.0000 15.5584
#
#
#
# Elastic Compliance Matrix: (Units=1/GPa)
#
#
# Indices 1 2 3 4 5 6 
#
# 1 0.009850 -0.004662 -0.003399 0.000000 -0.003618 0.000000
# 2 -0.004662 0.028381 0.000329 0.000000 0.004916 0.000000
# 3 -0.003399 0.000329 0.006592 0.000000 -0.001326 0.000000
# 4 0.000000 0.000000 0.000000 0.200671 0.000000 0.111436
# 5 -0.003618 0.004916 -0.001326 0.000000 0.022143 0.000000
# 6 0.000000 0.000000 0.000000 0.111436 0.000000 0.126157
#
#
# Mechanical properties :
#
#
# Convention : Reuss Voigt Hill
#
# Bulk Modulus (GPa) = 34.05855 66.07085 50.06470
# Shear Modulus (GPa) = 11.93193 33.94025 22.93609
#
# Velocity S-wave (km/s) = 2.30573 3.88876 3.19678
# Velocity P-wave (km/s) = 4.71844 7.04285 5.99439
#
# Compressibility (1/GPa) = 0.02936120
#
# Stress axis : x y z
#
# Youngs Moduli (GPa) = 101.52119 35.23443 151.69483
#
# Poissons Ratio (x) = 0.16425 0.51555
# Poissons Ratio (y) = 0.47325 -0.04990
# Poissons Ratio (z) = 0.34503 -0.01159
#
# Static dielectric constant tensor:
#      x y z
#    x 4.179770 0.000000 0.209720 
#    y 0.000000 3.405890 0.000000 
#    z 0.209720 0.000000 4.594710 
# 
# 
# High freq. dielectric constant tensor:
#      x y z
#    x 1.887960 0.000000 0.010460 
#    y 0.000000 1.829370 0.000000 
#    z 0.010460 0.000000 1.908280 
# 
# From -- ./inp_files/87129.got.cif
#   From: 2010.06.25/outbox.cif.g09.slc.cpg/sg13_44_cif.got.tgz:87129.got - 2010.06.28 04:50:58.
