data_PCOD8121480
_publ_section_title
;
Structure prediction by ZEFSAII (Michael W. Deem and Ramdas Pophale) SiO2 
 PCOD8121480
Probable space group: P 2/C
;
_chemical_formula_sum "Si O2"
_cell_formula_units_Z 20
_cell_length_a 11.321174
_cell_length_b 8.291909
_cell_length_c 9.511088
_cell_angle_alpha 90.000000
_cell_angle_beta 80.253163
_cell_angle_gamma 90.000000
_cell_volume 879.957392
_symmetry_space_group_name_H-M "P 2/C"
_symmetry_group_IT_number 13
_symmetry_cell_setting 'monoclinic'
loop_
_space_group_symop_operation_xyz
x,y,z
-x,y,1/2-z
-x,-y,-z
x,-y,1/2+z
loop_
_atom_site_type_symbol
_atom_site_label
_atom_site_fract_x
_atom_site_fract_y
_atom_site_fract_z
Si Si1 0.389118 0.589314 0.955649
Si Si2 0.250080 0.115277 0.232923
Si Si3 0.500000 0.141208 0.250000
Si Si4 0.242965 0.517046 0.726449
Si Si5 0.000000 0.634547 0.250000
Si Si6 0.892010 0.097763 0.957635
O O1 0.437418 0.756858 0.886504
O O2 0.328630 0.486836 0.842390
O O3 0.500000 0.500000 0.000000
O O4 0.288111 0.607214 0.096783
O O5 0.387162 0.042015 0.207769
O O6 0.253137 0.297229 0.170430
O O7 0.203988 0.132921 0.402205
O O8 0.167087 0.000792 0.158318
O O9 0.105420 0.477278 0.791584
O O10 0.947308 0.738102 0.388174
O O11 0.000000 0.000000 0.000000
#
# Coordination Sequence:
#
# PCOD8121480 Si02
#       6
#     4   4   2   4   2   4
#     4  11  19  41  66 103 137 167 206 283 344 385
#     4  11  25  46  69  97 135 179 224 277 335 396
#     4  10  22  42  72  98 138 170 226 276 334 402
#     4  11  26  40  72 104 134 170 228 279 335 399
#     4  12  26  42  70 102 132 174 230 276 336 398
#     4  12  26  47  67  94 141 184 223 275 334 398
#
# _framework density 22.728373999999999
#
# number of rings (size 3 to 8) (size 9 to 14) (size 15 to 20)
#    0.000    0.800    6.000    2.400    5.600    2.400 
#    0.000    0.000    0.000    0.000    0.000    0.000 
#    0.000    0.000    0.000    0.000    0.000    0.000 
#
# Total GULP energy -247940.343852 kJ/mol
# GULP energy per Si atom -12397.017193 kJ/mol
# Density = 2.267664 g / cm^3
# Si number density = 22.728374 Si / 1000 Ang^3
#
#
#
# Elastic Constant Matrix: (Units=GPa)
#
#
# Indices 1 2 3 4 5 6 
#
# 1 165.3756 20.2482 28.5138 0.0000 -0.7108 0.0000
# 2 20.2482 33.7071 1.2461 0.0000 1.3522 0.0000
# 3 28.5138 1.2461 116.7803 0.0000 -8.9769 0.0000
# 4 0.0000 0.0000 0.0000 20.5183 0.0000 -2.3637
# 5 -0.7108 1.3522 -8.9769 0.0000 44.2477 0.0000
# 6 0.0000 0.0000 0.0000 -2.3637 0.0000 29.9444
#
#
#
# Elastic Compliance Matrix: (Units=1/GPa)
#
#
# Indices 1 2 3 4 5 6 
#
# 1 0.006821 -0.004033 -0.001630 0.000000 -0.000098 0.000000
# 2 -0.004033 0.032106 0.000571 0.000000 -0.000930 0.000000
# 3 -0.001630 0.000571 0.009093 0.000000 0.001801 0.000000
# 4 0.000000 0.000000 0.000000 0.049184 0.000000 0.003882
# 5 -0.000098 -0.000930 0.001801 0.000000 0.022992 0.000000
# 6 0.000000 0.000000 0.000000 0.003882 0.000000 0.033702
#
#
# Mechanical properties :
#
#
# Convention : Reuss Voigt Hill
#
# Bulk Modulus (GPa) = 26.43001 46.20878 36.31940
# Shear Modulus (GPa) = 28.29708 36.66576 32.48142
#
# Velocity S-wave (km/s) = 3.53230 4.02084 3.78446
# Velocity P-wave (km/s) = 5.31884 6.47543 5.92542
#
# Compressibility (1/GPa) = 0.03783578
#
# Stress axis : x y z
#
# Youngs Moduli (GPa) = 146.59944 31.14640 109.96924
#
# Poissons Ratio (x) = 0.12563 0.17925
# Poissons Ratio (y) = 0.59130 -0.06276
# Poissons Ratio (z) = 0.23896 -0.01778
#
# Static dielectric constant tensor:
#      x y z
#    x 4.857190 0.000000 0.002010 
#    y 0.000000 3.870030 0.000000 
#    z 0.002010 0.000000 4.230840 
# 
# 
# High freq. dielectric constant tensor:
#      x y z
#    x 1.938370 0.000000 -0.004190 
#    y 0.000000 1.861560 0.000000 
#    z -0.004190 0.000000 1.900490 
# 
# From -- ./inp_files/14859.got.cif
#   From: 2010.06.25/outbox.cif.g09.slc.cpg/sg13_8_cif.got.tgz:14859.got - 2010.06.28 04:50:58.
