data_PCOD8121433
_publ_section_title
;
Structure prediction by ZEFSAII (Michael W. Deem and Ramdas Pophale) SiO2 
 PCOD8121433
Probable space group: P 2/C
;
_chemical_formula_sum "Si O2"
_cell_formula_units_Z 28
_cell_length_a 5.309098
_cell_length_b 10.070033
_cell_length_c 23.554398
_cell_angle_alpha 90.000000
_cell_angle_beta 76.009183
_cell_angle_gamma 90.000000
_cell_volume 1221.926581
_symmetry_space_group_name_H-M "P 2/C"
_symmetry_group_IT_number 13
_symmetry_cell_setting 'monoclinic'
loop_
_space_group_symop_operation_xyz
x,y,z
-x,y,1/2-z
-x,-y,-z
x,-y,1/2+z
loop_
_atom_site_type_symbol
_atom_site_label
_atom_site_fract_x
_atom_site_fract_y
_atom_site_fract_z
Si Si1 0.912196 0.133463 0.903084
Si Si2 0.766286 0.277247 0.013980
Si Si3 0.360038 0.882582 0.605266
Si Si4 0.144455 0.461003 0.391357
Si Si5 0.624466 0.379001 0.911558
Si Si6 0.647050 0.984369 0.188438
Si Si7 0.063736 0.744062 0.809442
O O1 0.695406 0.229552 0.884825
O O2 0.811432 0.984479 0.922725
O O3 0.975994 0.201709 0.961463
O O4 0.161302 0.125020 0.848814
O O5 0.602380 0.168476 0.056841
O O6 0.913930 0.372375 0.049597
O O7 0.578216 0.364795 0.982704
O O8 0.439175 0.972379 0.653867
O O9 0.194647 0.758594 0.637543
O O10 0.377708 0.563387 0.391963
O O11 0.233906 0.366192 0.333919
O O12 0.882301 0.533225 0.387312
O O13 0.500000 0.918715 0.250000
O O14 0.794662 0.115241 0.203120
O O15 0.000000 0.691676 0.750000
#
# Coordination Sequence:
#
# PCOD8121433 Si02
#       7
#     4   4   4   4   4   4   4
#     4   9  25  39  66 105 143 184 230 289 361 439
#     4  10  22  42  67 106 149 181 235 290 364 427
#     4  11  21  42  67 104 138 183 227 304 365 427
#     4  12  23  46  71 103 143 194 241 288 356 422
#     4  10  26  43  69 102 150 191 233 280 355 442
#     4  11  22  42  71  98 136 183 240 300 367 422
#     4  11  24  42  70 104 132 178 251 310 358 412
#
# _framework density 22.914635000000001
#
# number of rings (size 3 to 8) (size 9 to 14) (size 15 to 20)
#    0.857    0.571    2.857    2.143    2.000    1.714 
#    5.143    0.000    3.143    0.857    0.000    0.000 
#    0.000    0.000    0.000    0.000    0.000    0.000 
#
# Total GULP energy -346961.997118 kJ/mol
# GULP energy per Si atom -12391.499897 kJ/mol
# Density = 2.286248 g / cm^3
# Si number density = 22.914635 Si / 1000 Ang^3
#
#
#
# Elastic Constant Matrix: (Units=GPa)
#
#
# Indices 1 2 3 4 5 6 
#
# 1 59.1771 17.7759 25.3553 0.0000 -2.1138 0.0000
# 2 17.7759 86.4434 36.1302 0.0000 -6.5336 0.0000
# 3 25.3553 36.1302 106.7434 0.0000 -13.4414 0.0000
# 4 0.0000 0.0000 0.0000 13.8228 0.0000 -8.9515
# 5 -2.1138 -6.5336 -13.4414 0.0000 40.0070 0.0000
# 6 0.0000 0.0000 0.0000 -8.9515 0.0000 0.4968
#
#
#
# Elastic Compliance Matrix: (Units=1/GPa)
#
#
# Indices 1 2 3 4 5 6 
#
# 1 0.019242 -0.002402 -0.003842 0.000000 -0.000666 0.000000
# 2 -0.002402 0.013793 -0.004000 0.000000 0.000782 0.000000
# 3 -0.003842 -0.004000 0.012036 0.000000 0.003188 0.000000
# 4 0.000000 0.000000 0.000000 -0.006782 0.000000 -0.122185
# 5 -0.000666 0.000782 0.003188 0.000000 0.026159 0.000000
# 6 0.000000 0.000000 0.000000 -0.122185 0.000000 -0.188676
#
#
# Mechanical properties :
#
#
# Convention : Reuss Voigt Hill
#
# Bulk Modulus (GPa) = 40.67498 45.65408 43.16453
# Shear Modulus (GPa) = -52.33019 22.40548 -14.96235
#
# Velocity S-wave (km/s) = -4.78399 3.13034 -2.55808
# Velocity P-wave (km/s) = 3.56739 5.74736 3.18637
#
# Compressibility (1/GPa) = 0.02458514
#
# Stress axis : x y z
#
# Youngs Moduli (GPa) = 51.96956 72.50096 83.08404
#
# Poissons Ratio (x) = 0.17411 0.31918
# Poissons Ratio (y) = 0.12481 0.33231
# Poissons Ratio (z) = 0.19965 0.28998
#
# Static dielectric constant tensor:
#      x y z
#    x 3.908460 0.000000 0.049600 
#    y 0.000000 4.218540 0.000000 
#    z 0.049600 0.000000 4.025910 
# 
# 
# High freq. dielectric constant tensor:
#      x y z
#    x 1.890770 0.000000 0.001510 
#    y 0.000000 1.906010 0.000000 
#    z 0.001510 0.000000 1.892240 
# 
# From -- ./inp_files/73376.got.cif
#   From: 2010.06.25/outbox.cif.g09.slc.cpg/sg13_37_cif.got.tgz:73376.got - 2010.06.28 04:50:58.
