data_PCOD8121824
_publ_section_title
;
Structure prediction by ZEFSAII (Michael W. Deem and Ramdas Pophale) SiO2 
 PCOD8121824
Probable space group: P 2/C
;
_chemical_formula_sum "Si O2"
_cell_formula_units_Z 22
_cell_length_a 5.129248
_cell_length_b 15.569457
_cell_length_c 12.734311
_cell_angle_alpha 90.000000
_cell_angle_beta 80.109738
_cell_angle_gamma 90.000000
_cell_volume 1001.843588
_symmetry_space_group_name_H-M "P 2/C"
_symmetry_group_IT_number 13
_symmetry_cell_setting 'monoclinic'
loop_
_space_group_symop_operation_xyz
x,y,z
-x,y,1/2-z
-x,-y,-z
x,-y,1/2+z
loop_
_atom_site_type_symbol
_atom_site_label
_atom_site_fract_x
_atom_site_fract_y
_atom_site_fract_z
Si Si1 0.500000 0.282343 0.750000
Si Si2 0.437928 0.197543 0.532880
Si Si3 0.000000 0.833692 0.750000
Si Si4 0.024333 0.097762 0.030283
Si Si5 0.000000 0.612249 0.250000
Si Si6 0.217584 0.514830 0.570432
Si Si7 0.372988 0.313796 0.152561
O O1 0.442386 0.225340 0.652717
O O2 0.771795 0.334090 0.705797
O O3 0.157493 0.152187 0.535332
O O4 0.437750 0.281284 0.455357
O O5 0.675019 0.130590 0.496717
O O6 0.915968 0.892815 0.657430
O O7 0.766802 0.772657 0.802608
O O8 0.000000 0.000000 0.000000
O O9 0.176305 0.555337 0.161472
O O10 0.500000 0.500000 0.500000
O O11 0.187618 0.610810 0.619984
O O12 0.000000 0.500000 0.500000
O O13 0.500000 0.353038 0.250000
#
# Coordination Sequence:
#
# PCOD8121824 Si02
#       7
#     2   4   2   4   2   4   4
#     4  12  26  46  70  94 144 190 234 290 346 444
#     4  11  24  44  68 101 132 183 232 274 352 427
#     4  10  23  42  69 100 136 174 230 278 345 420
#     4  11  24  43  69 104 138 173 224 288 352 419
#     4  12  25  46  65  98 138 186 232 292 361 406
#     4  12  28  43  67 101 138 180 237 298 356 412
#     4  11  23  42  71  95 135 180 233 287 341 418
#
# _framework density 21.959513999999999
#
# number of rings (size 3 to 8) (size 9 to 14) (size 15 to 20)
#    0.000    0.727    1.818    5.455    6.364    2.909 
#    0.000    0.000    0.000    0.000    0.000    0.000 
#    0.000    0.000    0.000    0.000    0.000    0.000 
#
# Total GULP energy -272773.550704 kJ/mol
# GULP energy per Si atom -12398.797759 kJ/mol
# Density = 2.190953 g / cm^3
# Si number density = 21.959514 Si / 1000 Ang^3
#
#
#
# Elastic Constant Matrix: (Units=GPa)
#
#
# Indices 1 2 3 4 5 6 
#
# 1 113.1480 34.0036 32.9341 0.0000 12.3033 0.0000
# 2 34.0036 127.3563 64.5838 0.0000 17.1964 0.0000
# 3 32.9341 64.5838 163.7072 0.0000 19.1523 0.0000
# 4 0.0000 0.0000 0.0000 35.2990 0.0000 3.6413
# 5 12.3033 17.1964 19.1523 0.0000 43.4299 0.0000
# 6 0.0000 0.0000 0.0000 3.6413 0.0000 37.7899
#
#
#
# Elastic Compliance Matrix: (Units=1/GPa)
#
#
# Indices 1 2 3 4 5 6 
#
# 1 0.009886 -0.001889 -0.001058 0.000000 -0.001586 0.000000
# 2 -0.001889 0.010399 -0.003483 0.000000 -0.002046 0.000000
# 3 -0.001058 -0.003483 0.007907 0.000000 -0.001808 0.000000
# 4 0.000000 0.000000 0.000000 0.028614 0.000000 -0.002757
# 5 -0.001586 -0.002046 -0.001808 0.000000 0.025083 0.000000
# 6 0.000000 0.000000 0.000000 -0.002757 0.000000 0.026728
#
#
# Mechanical properties :
#
#
# Convention : Reuss Voigt Hill
#
# Bulk Modulus (GPa) = 65.22317 74.13937 69.68127
# Shear Modulus (GPa) = 39.49862 41.48310 40.49086
#
# Velocity S-wave (km/s) = 4.24571 4.35106 4.29871
# Velocity P-wave (km/s) = 7.33490 7.68618 7.51260
#
# Compressibility (1/GPa) = 0.01533198
#
# Stress axis : x y z
#
# Youngs Moduli (GPa) = 101.15241 96.16402 126.47096
#
# Poissons Ratio (x) = 0.18163 0.13383
# Poissons Ratio (y) = 0.19105 0.44051
# Poissons Ratio (z) = 0.10703 0.33494
#
# Static dielectric constant tensor:
#      x y z
#    x 3.956630 0.000000 0.031420 
#    y 0.000000 4.078880 0.000000 
#    z 0.031420 0.000000 4.475130 
# 
# 
# High freq. dielectric constant tensor:
#      x y z
#    x 1.868430 0.000000 0.007300 
#    y 0.000000 1.861130 0.000000 
#    z 0.007300 0.000000 1.882380 
# 
# From -- ./inp_files/26205.got.cif
#   From: 2010.06.25/outbox.cif.g09.slc.cpg/sg13_14_cif.got.tgz:26205.got - 2010.06.28 04:50:58.
