data_PCOD8121117
_publ_section_title
;
Structure prediction by ZEFSAII (Michael W. Deem and Ramdas Pophale) SiO2 
 PCOD8121117
Probable space group: P 2/C
;
_chemical_formula_sum "Si O2"
_cell_formula_units_Z 22
_cell_length_a 11.809801
_cell_length_b 5.368988
_cell_length_c 29.331611
_cell_angle_alpha 90.000000
_cell_angle_beta 149.557493
_cell_angle_gamma 90.000000
_cell_volume 942.321567
_symmetry_space_group_name_H-M "P 2/C"
_symmetry_group_IT_number 13
_symmetry_cell_setting 'monoclinic'
loop_
_space_group_symop_operation_xyz
x,y,z
-x,y,1/2-z
-x,-y,-z
x,-y,1/2+z
loop_
_atom_site_type_symbol
_atom_site_label
_atom_site_fract_x
_atom_site_fract_y
_atom_site_fract_z
Si Si1 0.500000 0.146761 0.250000
Si Si2 0.195962 0.561962 0.472056
Si Si3 0.428011 0.067517 0.524955
Si Si4 0.194120 0.904295 0.783352
Si Si5 0.793934 0.187726 0.798417
Si Si6 0.470172 0.448269 0.150344
O O1 0.416362 0.299767 0.177415
O O2 0.276731 0.993169 0.185163
O O3 0.304568 0.335956 0.481306
O O4 0.243340 0.516223 0.542161
O O5 0.933890 0.578317 0.367525
O O6 0.271684 0.843006 0.487039
O O7 0.500000 0.000000 0.500000
O O8 0.644198 0.091419 0.632566
O O9 0.339516 0.672566 0.816017
O O10 0.000000 0.807633 0.750000
O O11 0.083876 0.044499 0.701268
O O12 0.559477 0.283071 0.696227
#
# Coordination Sequence:
#
# PCOD8121117 Si02
#       6
#     2   4   4   4   4   4
#     4  10  24  44  70  94 128 184 228 302 344 408
#     4  11  25  42  69  98 139 182 226 285 341 408
#     4  11  23  42  63 101 142 179 232 276 330 413
#     4  10  22  39  65  97 137 183 219 277 342 410
#     4  11  23  43  68  95 134 179 233 281 352 408
#     4  10  23  45  64  98 138 170 237 286 343 414
#
# _framework density 23.346598
#
# number of rings (size 3 to 8) (size 9 to 14) (size 15 to 20)
#    0.000    1.455    1.818    2.182    7.636    1.455 
#    0.000    3.636    0.000    0.000    0.000    0.000 
#    0.000    0.000    0.000    0.000    0.000    0.000 
#
# Total GULP energy -272710.228361 kJ/mol
# GULP energy per Si atom -12395.919471 kJ/mol
# Density = 2.329346 g / cm^3
# Si number density = 23.346598 Si / 1000 Ang^3
#
#
#
# Elastic Constant Matrix: (Units=GPa)
#
#
# Indices 1 2 3 4 5 6 
#
# 1 150.3982 32.7811 28.1199 0.0000 -24.5144 0.0000
# 2 32.7811 86.6494 10.4445 0.0000 -10.2163 0.0000
# 3 28.1199 10.4445 80.5918 0.0000 -30.1833 0.0000
# 4 0.0000 0.0000 0.0000 32.3606 0.0000 -5.5175
# 5 -24.5144 -10.2163 -30.1833 0.0000 29.2272 0.0000
# 6 0.0000 0.0000 0.0000 -5.5175 0.0000 28.6230
#
#
#
# Elastic Compliance Matrix: (Units=1/GPa)
#
#
# Indices 1 2 3 4 5 6 
#
# 1 0.008155 -0.002377 -0.000468 0.000000 0.005526 0.000000
# 2 -0.002377 0.012730 0.000162 0.000000 0.002623 0.000000
# 3 -0.000468 0.000162 0.020261 0.000000 0.020588 0.000000
# 4 0.000000 0.000000 0.000000 0.031952 0.000000 0.006159
# 5 0.005526 0.002623 0.020588 0.000000 0.061029 0.000000
# 6 0.000000 0.000000 0.000000 0.006159 0.000000 0.036124
#
#
# Mechanical properties :
#
#
# Convention : Reuss Voigt Hill
#
# Bulk Modulus (GPa) = 27.94817 51.14784 39.54800
# Shear Modulus (GPa) = 26.66039 34.46175 30.56107
#
# Velocity S-wave (km/s) = 3.38293 3.84616 3.62196
# Velocity P-wave (km/s) = 5.22072 6.45597 5.87092
#
# Compressibility (1/GPa) = 0.03578052
#
# Stress axis : x y z
#
# Youngs Moduli (GPa) = 122.61781 78.55519 49.35553
#
# Poissons Ratio (x) = 0.18676 0.02309
# Poissons Ratio (y) = 0.29151 -0.00800
# Poissons Ratio (z) = 0.05735 -0.01274
#
# Static dielectric constant tensor:
#      x y z
#    x 4.175410 0.000000 -0.354730 
#    y 0.000000 4.234530 0.000000 
#    z -0.354730 0.000000 4.475040 
# 
# 
# High freq. dielectric constant tensor:
#      x y z
#    x 1.918380 0.000000 -0.025230 
#    y 0.000000 1.922750 0.000000 
#    z -0.025230 0.000000 1.925830 
# 
# From -- ./inp_files/48874.got.cif
#   From: 2010.06.25/outbox.cif.g09.slc.cpg/sg13_25_cif.got.tgz:48874.got - 2010.06.28 04:50:58.
