data_PCOD8121320
_publ_section_title
;
Structure prediction by ZEFSAII (Michael W. Deem and Ramdas Pophale) SiO2 
 PCOD8121320
Probable space group: P 2/C
;
_chemical_formula_sum "Si O2"
_cell_formula_units_Z 10
_cell_length_a 12.429844
_cell_length_b 5.114462
_cell_length_c 14.512132
_cell_angle_alpha 90.000000
_cell_angle_beta 20.905775
_cell_angle_gamma 90.000000
_cell_volume 329.200769
_symmetry_space_group_name_H-M "P 2/C"
_symmetry_group_IT_number 13
_symmetry_cell_setting 'monoclinic'
loop_
_space_group_symop_operation_xyz
x,y,z
-x,y,1/2-z
-x,-y,-z
x,-y,1/2+z
loop_
_atom_site_type_symbol
_atom_site_label
_atom_site_fract_x
_atom_site_fract_y
_atom_site_fract_z
Si Si1 0.598263 0.411138 0.820927
Si Si2 0.203252 0.915757 0.925955
Si Si3 0.000000 0.195198 0.250000
O O1 0.773161 0.127305 0.679452
O O2 0.820787 0.619755 0.592758
O O3 0.500000 0.500000 0.000000
O O4 0.291581 0.383010 0.006402
O O5 0.500000 0.947068 0.750000
O O6 0.944176 0.009141 0.204832
#
# Coordination Sequence:
#
# PCOD8121320 Si02
#       3
#     4   4   2
#     4  11  24  41  65  99 131 168 223 270 321 397
#     4  10  22  41  65  95 130 171 219 266 324 394
#     4  10  24  44  70  94 136 180 212 276 336 376
#
# _framework density 30.376601000000001
#
# number of rings (size 3 to 8) (size 9 to 14) (size 15 to 20)
#    0.000    1.600    0.000    4.800    0.000   17.600 
#    0.000    0.000    0.000    7.200    0.000    0.000 
#    0.000    0.000    0.000    0.000    0.000    0.000 
#
# Total GULP energy -124031.573698 kJ/mol
# GULP energy per Si atom -12403.157370 kJ/mol
# Density = 3.030746 g / cm^3
# Si number density = 30.376601 Si / 1000 Ang^3
#
#
#
# Elastic Constant Matrix: (Units=GPa)
#
#
# Indices 1 2 3 4 5 6 
#
# 1 112.5747 83.5045 32.7131 0.0000 26.4439 0.0000
# 2 83.5045 241.5634 78.7580 0.0000 18.1979 0.0000
# 3 32.7131 78.7580 106.6093 0.0000 34.7736 0.0000
# 4 0.0000 0.0000 0.0000 70.5308 0.0000 2.8995
# 5 26.4439 18.1979 34.7736 0.0000 69.9435 0.0000
# 6 0.0000 0.0000 0.0000 2.8995 0.0000 64.2161
#
#
#
# Elastic Compliance Matrix: (Units=1/GPa)
#
#
# Indices 1 2 3 4 5 6 
#
# 1 0.012877 -0.004331 0.000559 0.000000 -0.004020 0.000000
# 2 -0.004331 0.006938 -0.004466 0.000000 0.002053 0.000000
# 3 0.000559 -0.004466 0.014559 0.000000 -0.006288 0.000000
# 4 0.000000 0.000000 0.000000 0.014205 0.000000 -0.000641
# 5 -0.004020 0.002053 -0.006288 0.000000 0.018409 0.000000
# 6 0.000000 0.000000 0.000000 -0.000641 0.000000 0.015601
#
#
# Mechanical properties :
#
#
# Convention : Reuss Voigt Hill
#
# Bulk Modulus (GPa) = 55.87070 94.52206 75.19638
# Shear Modulus (GPa) = 47.60465 58.65620 53.13042
#
# Velocity S-wave (km/s) = 3.96302 4.39904 4.18671
# Velocity P-wave (km/s) = 6.27481 7.54893 6.94117
#
# Compressibility (1/GPa) = 0.01789847
#
# Stress axis : x y z
#
# Youngs Moduli (GPa) = 77.65579 144.12523 68.68681
#
# Poissons Ratio (x) = 0.62421 -0.03842
# Poissons Ratio (y) = 0.33633 0.30678
# Poissons Ratio (z) = -0.04343 0.64372
#
# Static dielectric constant tensor:
#      x y z
#    x 7.771510 0.000000 0.361850 
#    y 0.000000 6.048650 0.000000 
#    z 0.361850 0.000000 6.031510 
# 
# 
# High freq. dielectric constant tensor:
#      x y z
#    x 2.297510 0.000000 -0.024780 
#    y 0.000000 2.249700 0.000000 
#    z -0.024780 0.000000 2.250660 
# 
# From -- ./inp_files/25041.got.cif
#   From: 2010.06.25/outbox.cif.g09.slc.cpg/sg13_13_cif.got.tgz:25041.got - 2010.06.28 04:50:58.
