data_PCOD8121448
_publ_section_title
;
Structure prediction by ZEFSAII (Michael W. Deem and Ramdas Pophale) SiO2 
 PCOD8121448
Probable space group: P 2/C
;
_chemical_formula_sum "Si O2"
_cell_formula_units_Z 18
_cell_length_a 5.397297
_cell_length_b 5.116968
_cell_length_c 24.445926
_cell_angle_alpha 90.000000
_cell_angle_beta 112.526139
_cell_angle_gamma 90.000000
_cell_volume 623.632494
_symmetry_space_group_name_H-M "P 2/C"
_symmetry_group_IT_number 13
_symmetry_cell_setting 'monoclinic'
loop_
_space_group_symop_operation_xyz
x,y,z
-x,y,1/2-z
-x,-y,-z
x,-y,1/2+z
loop_
_atom_site_type_symbol
_atom_site_label
_atom_site_fract_x
_atom_site_fract_y
_atom_site_fract_z
Si Si1 0.001670 0.248755 0.158503
Si Si2 0.577758 0.747709 0.041033
Si Si3 0.224876 0.263440 0.814833
Si Si4 0.117811 0.927842 0.068786
Si Si5 0.500000 0.474752 0.250000
O O1 0.132517 0.179482 0.110141
O O2 0.794060 0.023129 0.160257
O O3 0.243978 0.283272 0.222462
O O4 0.822043 0.512794 0.141999
O O5 0.408764 0.779657 0.084765
O O6 0.898496 0.735878 0.077929
O O7 0.500000 0.500000 0.000000
O O8 0.500000 0.000000 0.000000
O O9 0.495414 0.334254 0.803420
O O10 0.000000 0.298332 0.750000
O O11 0.000000 0.000000 0.000000
#
# Coordination Sequence:
#
# PCOD8121448 Si02
#       5
#     4   4   4   4   2
#     4  11  25  42  72 105 141 188 244 300 371 446
#     4  10  22  42  68  93 138 184 233 288 349 421
#     4  10  23  44  67 103 138 184 241 300 366 444
#     4  10  24  46  70 106 145 190 243 301 365 443
#     4  10  24  48  76 100 152 190 246 314 386 444
#
# _framework density 28.863154000000002
#
# number of rings (size 3 to 8) (size 9 to 14) (size 15 to 20)
#    0.000    1.778    0.000    2.667    3.111   15.111 
#    4.000    0.000    0.000    0.000    0.000    0.000 
#    0.000    0.000    0.000    0.000    0.000    0.000 
#
# Total GULP energy -223028.695800 kJ/mol
# GULP energy per Si atom -12390.483100 kJ/mol
# Density = 2.879746 g / cm^3
# Si number density = 28.863154 Si / 1000 Ang^3
#
#
#
# Elastic Constant Matrix: (Units=GPa)
#
#
# Indices 1 2 3 4 5 6 
#
# 1 218.5359 54.1199 10.5575 0.0000 -34.9857 0.0000
# 2 54.1199 185.5783 39.9911 0.0000 -30.6776 0.0000
# 3 10.5575 39.9911 128.9259 0.0000 -51.1009 0.0000
# 4 0.0000 0.0000 0.0000 46.4245 0.0000 -22.0197
# 5 -34.9857 -30.6776 -51.1009 0.0000 41.5877 0.0000
# 6 0.0000 0.0000 0.0000 -22.0197 0.0000 35.0445
#
#
#
# Elastic Compliance Matrix: (Units=1/GPa)
#
#
# Indices 1 2 3 4 5 6 
#
# 1 0.005957 -0.001077 0.002958 0.000000 0.007852 0.000000
# 2 -0.001077 0.006335 -0.000748 0.000000 0.002848 0.000000
# 3 0.002958 -0.000748 0.016597 0.000000 0.022331 0.000000
# 4 0.000000 0.000000 0.000000 0.030685 0.000000 0.019281
# 5 0.007852 0.002848 0.022331 0.000000 0.060191 0.000000
# 6 0.000000 0.000000 0.000000 0.019281 0.000000 0.040650
#
#
# Mechanical properties :
#
#
# Convention : Reuss Voigt Hill
#
# Bulk Modulus (GPa) = 32.09664 82.48634 57.29149
# Shear Modulus (GPa) = 29.66795 53.16946 41.41871
#
# Velocity S-wave (km/s) = 3.20954 4.29665 3.79225
# Velocity P-wave (km/s) = 4.98791 7.29763 6.25039
#
# Compressibility (1/GPa) = 0.03115591
#
# Stress axis : x y z
#
# Youngs Moduli (GPa) = 167.87981 157.86543 60.25147
#
# Poissons Ratio (x) = 0.16997 -0.17825
# Poissons Ratio (y) = 0.18075 0.04506
# Poissons Ratio (z) = -0.49665 0.11806
#
# Static dielectric constant tensor:
#      x y z
#    x -28.080970 0.000000 11.056120 
#    y 0.000000 4.620320 0.000000 
#    z 11.056120 0.000000 2.206090 
# 
# 
# High freq. dielectric constant tensor:
#      x y z
#    x 2.187700 0.000000 -0.010980 
#    y 0.000000 2.164260 0.000000 
#    z -0.010980 0.000000 2.208150 
# 
# From -- ./inp_files/82982.got.cif
#   From: 2010.06.25/outbox.cif.g09.slc.cpg/sg13_42_cif.got.tgz:82982.got - 2010.06.28 04:50:58.
