data_PCOD8121249
_publ_section_title
;
Structure prediction by ZEFSAII (Michael W. Deem and Ramdas Pophale) SiO2 
 PCOD8121249
Probable space group: P 2/C
;
_chemical_formula_sum "Si O2"
_cell_formula_units_Z 26
_cell_length_a 16.602072
_cell_length_b 13.438347
_cell_length_c 9.637659
_cell_angle_alpha 90.000000
_cell_angle_beta 148.646011
_cell_angle_gamma 90.000000
_cell_volume 1118.802890
_symmetry_space_group_name_H-M "P 2/C"
_symmetry_group_IT_number 13
_symmetry_cell_setting 'monoclinic'
loop_
_space_group_symop_operation_xyz
x,y,z
-x,y,1/2-z
-x,-y,-z
x,-y,1/2+z
loop_
_atom_site_type_symbol
_atom_site_label
_atom_site_fract_x
_atom_site_fract_y
_atom_site_fract_z
Si Si1 0.148336 0.640141 0.374747
Si Si2 0.403375 0.797299 0.833211
Si Si3 0.876956 0.674767 0.463951
Si Si4 0.500000 0.699406 0.250000
Si Si5 0.266752 0.872144 0.213252
Si Si6 0.333854 0.985692 0.571921
Si Si7 0.345232 0.450485 0.717089
O O1 0.294311 0.714455 0.604141
O O2 0.068032 0.655716 0.109438
O O3 0.215091 0.529797 0.485891
O O4 0.000000 0.662344 0.250000
O O5 0.330711 0.904846 0.692740
O O6 0.415299 0.771002 0.014190
O O7 0.576020 0.808645 0.022374
O O8 0.868973 0.792253 0.484998
O O9 0.714945 0.617132 0.245557
O O10 0.000000 0.626889 0.750000
O O11 0.626411 0.625607 0.368275
O O12 0.232985 0.949655 0.290691
O O13 0.271133 0.918622 0.063903
O O14 0.500000 0.010638 0.750000
O O15 0.500000 0.500000 0.000000
#
# Coordination Sequence:
#
# PCOD8121249 Si02
#       7
#     4   4   4   2   4   4   4
#     4  12  28  48  68  97 143 194 235 282 351 420
#     4  11  23  41  70 103 142 178 231 289 349 412
#     4  12  28  48  70 101 144 189 236 291 344 419
#     4  12  24  38  70 112 136 182 228 294 354 420
#     4  11  23  44  72 108 138 180 233 292 359 413
#     4  10  22  40  71 108 139 176 226 296 351 412
#     4  12  25  45  75 105 141 178 235 293 355 415
#
# _framework density 23.239122999999999
#
# number of rings (size 3 to 8) (size 9 to 14) (size 15 to 20)
#    0.000    0.615    4.615    3.231    5.385    2.462 
#    0.000    1.538    0.000    0.000    0.000    0.000 
#    0.000    0.000    0.000    0.000    0.000    0.000 
#
# Total GULP energy -322163.550141 kJ/mol
# GULP energy per Si atom -12390.905775 kJ/mol
# Density = 2.318623 g / cm^3
# Si number density = 23.239123 Si / 1000 Ang^3
#
#
#
# Elastic Constant Matrix: (Units=GPa)
#
#
# Indices 1 2 3 4 5 6 
#
# 1 141.5956 59.2092 48.2169 0.0000 -22.9666 0.0000
# 2 59.2092 100.1361 24.8958 0.0000 -9.8674 0.0000
# 3 48.2169 24.8958 96.6740 0.0000 -24.1105 0.0000
# 4 0.0000 0.0000 0.0000 4.8236 0.0000 3.8009
# 5 -22.9666 -9.8674 -24.1105 0.0000 34.3163 0.0000
# 6 0.0000 0.0000 0.0000 3.8009 0.0000 20.7101
#
#
#
# Elastic Compliance Matrix: (Units=1/GPa)
#
#
# Indices 1 2 3 4 5 6 
#
# 1 0.010961 -0.005334 -0.003208 0.000000 0.003548 0.000000
# 2 -0.005334 0.013319 -0.000855 0.000000 -0.000340 0.000000
# 3 -0.003208 -0.000855 0.014025 0.000000 0.007461 0.000000
# 4 0.000000 0.000000 0.000000 0.242366 0.000000 -0.044481
# 5 0.003548 -0.000340 0.007461 0.000000 0.036659 0.000000
# 6 0.000000 0.000000 0.000000 -0.044481 0.000000 0.056449
#
#
# Mechanical properties :
#
#
# Convention : Reuss Voigt Hill
#
# Bulk Modulus (GPa) = 51.25178 67.00551 59.12864
# Shear Modulus (GPa) = 12.52894 25.70890 19.11892
#
# Velocity S-wave (km/s) = 2.32444 3.32968 2.87139
# Velocity P-wave (km/s) = 5.41350 6.60894 6.04086
#
# Compressibility (1/GPa) = 0.01951152
#
# Stress axis : x y z
#
# Youngs Moduli (GPa) = 91.23568 75.08033 71.30076
#
# Poissons Ratio (x) = 0.40045 0.22876
# Poissons Ratio (y) = 0.48662 0.06094
# Poissons Ratio (z) = 0.29272 0.06417
#
# Static dielectric constant tensor:
#      x y z
#    x 4.285260 0.000000 -0.355460 
#    y 0.000000 4.470160 0.000000 
#    z -0.355460 0.000000 4.195300 
# 
# 
# High freq. dielectric constant tensor:
#      x y z
#    x 1.916950 0.000000 -0.020020 
#    y 0.000000 1.936030 0.000000 
#    z -0.020020 0.000000 1.897570 
# 
# From -- ./inp_files/19926.got.cif
#   From: 2010.06.25/outbox.cif.g09.slc.cpg/sg13_10_cif.got.tgz:19926.got - 2010.06.28 04:50:58.
