data_PCOD8121774
_publ_section_title
;
Structure prediction by ZEFSAII (Michael W. Deem and Ramdas Pophale) SiO2 
 PCOD8121774
Probable space group: P 2/C
;
_chemical_formula_sum "Si O2"
_cell_formula_units_Z 20
_cell_length_a 8.104175
_cell_length_b 7.065305
_cell_length_c 14.280779
_cell_angle_alpha 90.000000
_cell_angle_beta 88.393523
_cell_angle_gamma 90.000000
_cell_volume 817.374136
_symmetry_space_group_name_H-M "P 2/C"
_symmetry_group_IT_number 13
_symmetry_cell_setting 'monoclinic'
loop_
_space_group_symop_operation_xyz
x,y,z
-x,y,1/2-z
-x,-y,-z
x,-y,1/2+z
loop_
_atom_site_type_symbol
_atom_site_label
_atom_site_fract_x
_atom_site_fract_y
_atom_site_fract_z
Si Si1 0.060140 0.766061 0.849993
Si Si2 0.344741 0.967291 0.310318
Si Si3 0.757814 0.597106 0.502710
Si Si4 0.405285 0.222741 0.002134
Si Si5 0.789254 0.932402 0.379663
O O1 0.101581 0.590133 0.917307
O O2 0.000000 0.692849 0.750000
O O3 0.241595 0.859419 0.851717
O O4 0.935913 0.920014 0.894070
O O5 0.500000 0.047677 0.250000
O O6 0.391664 0.814801 0.389829
O O7 0.233284 0.878094 0.228649
O O8 0.733125 0.381250 0.469351
O O9 0.579347 0.689746 0.530868
O O10 0.835888 0.731273 0.422379
O O11 0.371698 0.031632 0.064738
#
# Coordination Sequence:
#
# PCOD8121774 Si02
#       5
#     4   4   4   4   4
#     4  10  23  41  65  98 131 178 223 266 337 396
#     4  11  21  41  66  94 130 174 221 271 328 390
#     4  11  22  42  66  97 133 168 221 275 321 401
#     4  11  24  41  69 101 127 175 225 270 334 388
#     4  11  22  43  68  93 134 175 215 275 333 389
#
# _framework density 24.468599999999999
#
# number of rings (size 3 to 8) (size 9 to 14) (size 15 to 20)
#    0.000    1.200    4.000    2.400    0.000    0.800 
#    7.200    2.000    0.000    0.000    0.000    0.000 
#    0.000    0.000    0.000    0.000    0.000    0.000 
#
# Total GULP energy -247799.416714 kJ/mol
# GULP energy per Si atom -12389.970836 kJ/mol
# Density = 2.441291 g / cm^3
# Si number density = 24.468600 Si / 1000 Ang^3
#
#
#
# Elastic Constant Matrix: (Units=GPa)
#
#
# Indices 1 2 3 4 5 6 
#
# 1 65.1960 5.1490 14.7207 0.0000 21.4927 0.0000
# 2 5.1490 91.3776 46.6270 0.0000 22.2153 0.0000
# 3 14.7207 46.6270 127.1742 0.0000 33.9329 0.0000
# 4 0.0000 0.0000 0.0000 17.2954 0.0000 4.8143
# 5 21.4927 22.2153 33.9329 0.0000 50.0999 0.0000
# 6 0.0000 0.0000 0.0000 4.8143 0.0000 25.5800
#
#
#
# Elastic Compliance Matrix: (Units=1/GPa)
#
#
# Indices 1 2 3 4 5 6 
#
# 1 0.017952 0.001105 -0.000363 0.000000 -0.007946 0.000000
# 2 0.001105 0.013966 -0.004235 0.000000 -0.003799 0.000000
# 3 -0.000363 -0.004235 0.010882 0.000000 -0.005337 0.000000
# 4 0.000000 0.000000 0.000000 0.061015 0.000000 -0.011483
# 5 -0.007946 -0.003799 -0.005337 0.000000 0.028668 0.000000
# 6 0.000000 0.000000 0.000000 -0.011483 0.000000 0.041254
#
#
# Mechanical properties :
#
#
# Convention : Reuss Voigt Hill
#
# Bulk Modulus (GPa) = 27.92130 46.30458 37.11294
# Shear Modulus (GPa) = 25.95233 33.07847 29.51540
#
# Velocity S-wave (km/s) = 3.26028 3.68077 3.47689
# Velocity P-wave (km/s) = 5.06047 6.08517 5.59632
#
# Compressibility (1/GPa) = 0.03581495
#
# Stress axis : x y z
#
# Youngs Moduli (GPa) = 55.70266 71.60410 91.89615
#
# Poissons Ratio (x) = -0.07916 0.03338
# Poissons Ratio (y) = -0.06158 0.38916
# Poissons Ratio (z) = 0.02023 0.30323
#
# Static dielectric constant tensor:
#      x y z
#    x 4.659810 0.000000 0.040560 
#    y 0.000000 4.190730 0.000000 
#    z 0.040560 0.000000 4.556620 
# 
# 
# High freq. dielectric constant tensor:
#      x y z
#    x 1.998530 0.000000 0.017390 
#    y 0.000000 1.941920 0.000000 
#    z 0.017390 0.000000 1.975180 
# 
# From -- ./inp_files/45526.got.cif
#   From: 2010.06.25/outbox.cif.g09.slc.cpg/sg13_23_cif.got.tgz:45526.got - 2010.06.28 04:50:58.
