data_PCOD8121794
_publ_section_title
;
Structure prediction by ZEFSAII (Michael W. Deem and Ramdas Pophale) SiO2 
 PCOD8121794
Probable space group: P 2/C
;
_chemical_formula_sum "Si O2"
_cell_formula_units_Z 10
_cell_length_a 8.615751
_cell_length_b 6.658849
_cell_length_c 10.157585
_cell_angle_alpha 90.000000
_cell_angle_beta 132.118197
_cell_angle_gamma 90.000000
_cell_volume 432.262804
_symmetry_space_group_name_H-M "P 2/C"
_symmetry_group_IT_number 13
_symmetry_cell_setting 'monoclinic'
loop_
_space_group_symop_operation_xyz
x,y,z
-x,y,1/2-z
-x,-y,-z
x,-y,1/2+z
loop_
_atom_site_type_symbol
_atom_site_label
_atom_site_fract_x
_atom_site_fract_y
_atom_site_fract_z
Si Si1 0.219115 0.188513 0.031626
Si Si2 0.738681 0.865957 0.236183
Si Si3 0.500000 0.546034 0.250000
O O1 0.311907 0.411692 0.086296
O O2 0.315777 0.062438 0.208112
O O3 0.279497 0.078097 0.928439
O O4 0.970896 0.208810 0.904791
O O5 0.581051 0.685224 0.177618
#
# Coordination Sequence:
#
# PCOD8121794 Si02
#       3
#     4   4   2
#     4  10  23  42  62  87 121 159 198 243 296 353
#     4  10  23  42  62  87 121 159 198 243 296 353
#     4  12  22  36  64  94 118 152 200 250 294 348
#
# _framework density 23.134073999999998
#
# number of rings (size 3 to 8) (size 9 to 14) (size 15 to 20)
#    0.000    1.600    0.000    3.600    0.000    9.600 
#    0.000    8.000    0.000    0.000    0.000    0.000 
#    0.000    0.000    0.000    0.000    0.000    0.000 
#
# Total GULP energy -124067.366301 kJ/mol
# GULP energy per Si atom -12406.736630 kJ/mol
# Density = 2.308142 g / cm^3
# Si number density = 23.134074 Si / 1000 Ang^3
#
#
#
# Elastic Constant Matrix: (Units=GPa)
#
#
# Indices 1 2 3 4 5 6 
#
# 1 112.9580 58.2507 28.0694 0.0000 -26.7616 0.0000
# 2 58.2507 122.9250 32.9574 0.0000 -12.9282 0.0000
# 3 28.0694 32.9574 91.8826 0.0000 -19.6020 0.0000
# 4 0.0000 0.0000 0.0000 30.6837 0.0000 2.0529
# 5 -26.7616 -12.9282 -19.6020 0.0000 29.1161 0.0000
# 6 0.0000 0.0000 0.0000 2.0529 0.0000 48.0254
#
#
#
# Elastic Compliance Matrix: (Units=1/GPa)
#
#
# Indices 1 2 3 4 5 6 
#
# 1 0.014284 -0.005633 -0.000088 0.000000 0.010568 0.000000
# 2 -0.005633 0.011337 -0.002775 0.000000 -0.002012 0.000000
# 3 -0.000088 -0.002775 0.013575 0.000000 0.007826 0.000000
# 4 0.000000 0.000000 0.000000 0.032684 0.000000 -0.001397
# 5 0.010568 -0.002012 0.007826 0.000000 0.048434 0.000000
# 6 0.000000 0.000000 0.000000 -0.001397 0.000000 0.020882
#
#
# Mechanical properties :
#
#
# Convention : Reuss Voigt Hill
#
# Bulk Modulus (GPa) = 45.03967 62.92453 53.98210
# Shear Modulus (GPa) = 30.19514 35.46425 32.82970
#
# Velocity S-wave (km/s) = 3.61671 3.91959 3.77119
# Velocity P-wave (km/s) = 6.07882 6.90964 6.50750
#
# Compressibility (1/GPa) = 0.02220265
#
# Stress axis : x y z
#
# Youngs Moduli (GPa) = 70.01066 88.20754 73.66304
#
# Poissons Ratio (x) = 0.49691 0.00651
# Poissons Ratio (y) = 0.39440 0.20439
# Poissons Ratio (z) = 0.00619 0.24475
#
# Static dielectric constant tensor:
#      x y z
#    x 4.511000 0.000000 0.007010 
#    y 0.000000 3.871190 0.000000 
#    z 0.007010 0.000000 3.984680 
# 
# 
# High freq. dielectric constant tensor:
#      x y z
#    x 1.948360 0.000000 0.007120 
#    y 0.000000 1.897080 0.000000 
#    z 0.007120 0.000000 1.912630 
# 
# From -- ./inp_files/10382.got.cif
#   From: 2010.06.25/outbox.cif.g09.slc.cpg/sg13_6_cif.got.tgz:10382.got - 2010.06.28 04:50:58.
