data_PCOD8121605
_publ_section_title
;
Structure prediction by ZEFSAII (Michael W. Deem and Ramdas Pophale) SiO2 
 PCOD8121605
Probable space group: P 2/C
;
_chemical_formula_sum "Si O2"
_cell_formula_units_Z 26
_cell_length_a 15.260996
_cell_length_b 13.397953
_cell_length_c 9.115596
_cell_angle_alpha 90.000000
_cell_angle_beta 140.755117
_cell_angle_gamma 90.000000
_cell_volume 1179.126537
_symmetry_space_group_name_H-M "P 2/C"
_symmetry_group_IT_number 13
_symmetry_cell_setting 'monoclinic'
loop_
_space_group_symop_operation_xyz
x,y,z
-x,y,1/2-z
-x,-y,-z
x,-y,1/2+z
loop_
_atom_site_type_symbol
_atom_site_label
_atom_site_fract_x
_atom_site_fract_y
_atom_site_fract_z
Si Si1 0.787957 0.616614 0.840310
Si Si2 0.500000 0.012394 0.750000
Si Si3 0.643589 0.882873 0.180084
Si Si4 0.784126 0.416903 0.997486
Si Si5 0.000000 0.744981 0.750000
Si Si6 0.057390 0.888931 0.054107
Si Si7 0.000000 0.231120 0.750000
Si Si8 0.485842 0.312433 0.897785
O O1 0.815735 0.583738 0.710755
O O2 0.629128 0.650919 0.654062
O O3 0.828662 0.524032 0.995598
O O4 0.887085 0.706126 0.015625
O O5 0.390694 0.076539 0.701985
O O6 0.413650 0.947883 0.525608
O O7 0.807597 0.884751 0.373556
O O8 0.575956 0.773648 0.078804
O O9 0.871078 0.326388 0.038134
O O10 0.622480 0.403946 0.748107
O O11 0.044936 0.815537 0.670335
O O12 0.083121 0.840946 0.246576
O O13 0.000000 0.000000 0.000000
O O14 0.500000 0.271137 0.750000
#
# Coordination Sequence:
#
# PCOD8121605 Si02
#       8
#     4   2   4   4   2   4   2   4
#     4  11  26  44  74 101 147 186 240 300 361 441
#     4  10  26  42  70 102 136 182 242 296 362 422
#     4  11  24  45  70 102 139 188 235 302 355 431
#     4  11  24  45  70 106 139 190 239 294 369 429
#     4  12  24  46  72 100 142 192 236 300 358 432
#     4  12  29  46  73 103 146 193 245 296 360 426
#     4  12  28  48  68 112 144 192 242 298 360 432
#     4  10  22  44  71 102 142 185 233 298 367 426
#
# _framework density 22.050222000000002
#
# number of rings (size 3 to 8) (size 9 to 14) (size 15 to 20)
#    0.000    0.923    3.846    1.385    8.615    2.462 
#    0.000    0.000    0.000    0.000    0.000    0.000 
#    0.000    0.000    0.000    0.000    0.000    0.000 
#
# Total GULP energy -322414.243628 kJ/mol
# GULP energy per Si atom -12400.547832 kJ/mol
# Density = 2.200003 g / cm^3
# Si number density = 22.050222 Si / 1000 Ang^3
#
#
#
# Elastic Constant Matrix: (Units=GPa)
#
#
# Indices 1 2 3 4 5 6 
#
# 1 129.8483 67.9986 44.4870 0.0000 -5.3916 0.0000
# 2 67.9986 152.6006 52.3189 0.0000 -6.9232 0.0000
# 3 44.4870 52.3189 103.4984 0.0000 0.7287 0.0000
# 4 0.0000 0.0000 0.0000 32.4300 0.0000 -12.0818
# 5 -5.3916 -6.9232 0.7287 0.0000 38.5774 0.0000
# 6 0.0000 0.0000 0.0000 -12.0818 0.0000 54.5970
#
#
#
# Elastic Compliance Matrix: (Units=1/GPa)
#
#
# Indices 1 2 3 4 5 6 
#
# 1 0.010631 -0.003786 -0.002662 0.000000 0.000857 0.000000
# 2 -0.003786 0.009363 -0.003114 0.000000 0.001210 0.000000
# 3 -0.002662 -0.003114 0.012389 0.000000 -0.001165 0.000000
# 4 0.000000 0.000000 0.000000 0.033606 0.000000 0.007437
# 5 0.000857 0.001210 -0.001165 0.000000 0.026281 0.000000
# 6 0.000000 0.000000 0.000000 0.007437 0.000000 0.019962
#
#
# Mechanical properties :
#
#
# Convention : Reuss Voigt Hill
#
# Bulk Modulus (GPa) = 75.42178 79.50625 77.46402
# Shear Modulus (GPa) = 36.82573 39.86373 38.34473
#
# Velocity S-wave (km/s) = 4.09110 4.25651 4.17462
# Velocity P-wave (km/s) = 7.52296 7.76481 7.64484
#
# Compressibility (1/GPa) = 0.01325877
#
# Stress axis : x y z
#
# Youngs Moduli (GPa) = 94.06059 106.80849 80.71944
#
# Poissons Ratio (x) = 0.40436 0.21488
# Poissons Ratio (y) = 0.35610 0.25137
# Poissons Ratio (z) = 0.25039 0.33261
#
# Static dielectric constant tensor:
#      x y z
#    x 4.174960 0.000000 -0.052980 
#    y 0.000000 4.014560 0.000000 
#    z -0.052980 0.000000 3.996110 
# 
# 
# High freq. dielectric constant tensor:
#      x y z
#    x 1.873820 0.000000 0.000010 
#    y 0.000000 1.879890 0.000000 
#    z 0.000010 0.000000 1.865160 
# 
# From -- ./inp_files/19941.got.cif
#   From: 2010.06.25/outbox.cif.g09.slc.cpg/sg13_10_cif.got.tgz:19941.got - 2010.06.28 04:50:58.
