data_PCOD8121159
_publ_section_title
;
Structure prediction by ZEFSAII (Michael W. Deem and Ramdas Pophale) SiO2 
 PCOD8121159
Probable space group: P 2/C
;
_chemical_formula_sum "Si O2"
_cell_formula_units_Z 26
_cell_length_a 15.773651
_cell_length_b 10.531569
_cell_length_c 8.720889
_cell_angle_alpha 90.000000
_cell_angle_beta 63.797684
_cell_angle_gamma 90.000000
_cell_volume 1299.855103
_symmetry_space_group_name_H-M "P 2/C"
_symmetry_group_IT_number 13
_symmetry_cell_setting 'monoclinic'
loop_
_space_group_symop_operation_xyz
x,y,z
-x,y,1/2-z
-x,-y,-z
x,-y,1/2+z
loop_
_atom_site_type_symbol
_atom_site_label
_atom_site_fract_x
_atom_site_fract_y
_atom_site_fract_z
Si Si1 0.370809 0.909743 0.097554
Si Si2 0.500000 0.964882 0.250000
Si Si3 0.185324 0.919529 0.778304
Si Si4 0.893113 0.856453 0.325755
Si Si5 0.804726 0.513315 0.611006
Si Si6 0.107085 0.670528 0.707482
Si Si7 0.741858 0.670057 0.396610
O O1 0.420833 0.883833 0.222155
O O2 0.337414 0.774749 0.062233
O O3 0.289815 0.018422 0.179150
O O4 0.448626 0.947882 0.913675
O O5 0.171780 0.796362 0.680257
O O6 0.109495 0.022575 0.783045
O O7 0.161422 0.886119 0.972307
O O8 0.843333 0.736403 0.286667
O O9 0.000000 0.812862 0.250000
O O10 0.886058 0.587892 0.641506
O O11 0.852858 0.411359 0.463011
O O12 0.739825 0.613055 0.569822
O O13 0.731835 0.443066 0.782555
O O14 0.000000 0.709099 0.750000
#
# Coordination Sequence:
#
# PCOD8121159 Si02
#       7
#     4   2   4   4   4   4   4
#     4  10  22  41  67  98 122 149 196 253 332 380
#     4  10  22  40  70 102 116 146 184 260 330 398
#     4  11  23  38  60  89 122 163 200 260 309 374
#     4  11  23  36  56  86 124 165 210 256 306 343
#     4  10  23  39  57  87 116 182 207 256 288 344
#     4  11  23  37  58  86 124 168 221 255 290 344
#     4  10  22  40  62  85 125 162 210 253 295 367
#
# _framework density 20.002230000000001
#
# number of rings (size 3 to 8) (size 9 to 14) (size 15 to 20)
#    0.000    1.538    1.538    3.231    8.615    2.462 
#    0.000    0.000    0.000    2.769    0.000    0.000 
#    0.000    0.000    0.000    0.000    0.000    0.000 
#
# Total GULP energy -322290.291801 kJ/mol
# GULP energy per Si atom -12395.780454 kJ/mol
# Density = 1.995670 g / cm^3
# Si number density = 20.002230 Si / 1000 Ang^3
#
#
#
# Elastic Constant Matrix: (Units=GPa)
#
#
# Indices 1 2 3 4 5 6 
#
# 1 129.8440 53.1138 37.7109 0.0000 16.0992 0.0000
# 2 53.1138 112.0597 26.3310 0.0000 14.0345 0.0000
# 3 37.7109 26.3310 74.4305 0.0000 12.7748 0.0000
# 4 0.0000 0.0000 0.0000 15.3876 0.0000 -6.7351
# 5 16.0992 14.0345 12.7748 0.0000 35.1725 0.0000
# 6 0.0000 0.0000 0.0000 -6.7351 0.0000 -26.8189
#
#
#
# Elastic Compliance Matrix: (Units=1/GPa)
#
#
# Indices 1 2 3 4 5 6 
#
# 1 0.010611 -0.003926 -0.003650 0.000000 -0.001965 0.000000
# 2 -0.003926 0.011452 -0.001692 0.000000 -0.002158 0.000000
# 3 -0.003650 -0.001692 0.016510 0.000000 -0.003651 0.000000
# 4 0.000000 0.000000 0.000000 0.058551 0.000000 -0.014704
# 5 -0.001965 -0.002158 -0.003651 0.000000 0.031518 0.000000
# 6 0.000000 0.000000 0.000000 -0.014704 0.000000 -0.033594
#
#
# Mechanical properties :
#
#
# Convention : Reuss Voigt Hill
#
# Bulk Modulus (GPa) = 49.90640 61.18285 55.54463
# Shear Modulus (GPa) = 41.57549 18.02680 29.80115
#
# Velocity S-wave (km/s) = 4.56405 3.00532 3.86410
# Velocity P-wave (km/s) = 7.26489 6.53430 6.90926
#
# Compressibility (1/GPa) = 0.02003751
#
# Stress axis : x y z
#
# Youngs Moduli (GPa) = 94.24066 87.31805 60.56956
#
# Poissons Ratio (x) = 0.34278 0.22109
# Poissons Ratio (y) = 0.36996 0.10249
# Poissons Ratio (z) = 0.34400 0.14775
#
# Static dielectric constant tensor:
#      x y z
#    x 3.926400 0.000000 0.416200 
#    y 0.000000 3.801580 0.000000 
#    z 0.416200 0.000000 3.570560 
# 
# 
# High freq. dielectric constant tensor:
#      x y z
#    x 1.778670 0.000000 0.031050 
#    y 0.000000 1.786460 0.000000 
#    z 0.031050 0.000000 1.775320 
# 
# From -- ./inp_files/18675.got.cif
#   From: 2010.06.25/outbox.cif.g09.slc.cpg/sg13_10_cif.got.tgz:18675.got - 2010.06.28 04:50:58.
