data_PCOD8121338
_publ_section_title
;
Structure prediction by ZEFSAII (Michael W. Deem and Ramdas Pophale) SiO2 
 PCOD8121338
Probable space group: P 2/C
;
_chemical_formula_sum "Si O2"
_cell_formula_units_Z 20
_cell_length_a 21.772881
_cell_length_b 5.359114
_cell_length_c 14.891285
_cell_angle_alpha 90.000000
_cell_angle_beta 151.961593
_cell_angle_gamma 90.000000
_cell_volume 816.765596
_symmetry_space_group_name_H-M "P 2/C"
_symmetry_group_IT_number 13
_symmetry_cell_setting 'monoclinic'
loop_
_space_group_symop_operation_xyz
x,y,z
-x,y,1/2-z
-x,-y,-z
x,-y,1/2+z
loop_
_atom_site_type_symbol
_atom_site_label
_atom_site_fract_x
_atom_site_fract_y
_atom_site_fract_z
Si Si1 0.861080 0.087803 0.711498
Si Si2 0.265491 0.961056 0.629760
Si Si3 0.119754 0.768207 0.600524
Si Si4 0.677275 0.455284 0.549455
Si Si5 0.389684 0.552779 0.229810
O O1 0.844851 0.995229 0.588830
O O2 0.720814 0.183829 0.568958
O O3 0.908914 0.864232 0.835921
O O4 0.979703 0.294940 0.872592
O O5 0.196915 0.969887 0.638292
O O6 0.319848 0.681523 0.685937
O O7 0.370341 0.189110 0.760814
O O8 0.213046 0.532339 0.736680
O O9 0.540094 0.466044 0.423240
O O10 0.664506 0.616538 0.440465
#
# Coordination Sequence:
#
# PCOD8121338 Si02
#       5
#     4   4   4   4   4
#     4  10  23  44  63  96 130 172 217 270 322 387
#     4  11  24  44  65 100 128 173 213 271 324 384
#     4  11  23  40  69  92 131 171 220 266 323 386
#     4  10  22  41  67  92 130 176 213 267 325 385
#     4  10  24  42  68  92 136 169 216 265 326 383
#
# _framework density 24.486829
#
# number of rings (size 3 to 8) (size 9 to 14) (size 15 to 20)
#    0.000    1.600    2.000    1.200    5.600    3.200 
#    0.000    2.000    0.000    0.000    0.000    0.000 
#    0.000    0.000    0.000    0.000    0.000    0.000 
#
# Total GULP energy -247770.311755 kJ/mol
# GULP energy per Si atom -12388.515588 kJ/mol
# Density = 2.443110 g / cm^3
# Si number density = 24.486829 Si / 1000 Ang^3
#
#
#
# Elastic Constant Matrix: (Units=GPa)
#
#
# Indices 1 2 3 4 5 6 
#
# 1 77.1693 11.9022 6.1799 0.0000 7.9526 0.0000
# 2 11.9022 80.0655 -0.3630 0.0000 4.6517 0.0000
# 3 6.1799 -0.3630 78.4611 0.0000 16.9635 0.0000
# 4 0.0000 0.0000 0.0000 24.2693 0.0000 4.8604
# 5 7.9526 4.6517 16.9635 0.0000 32.4758 0.0000
# 6 0.0000 0.0000 0.0000 4.8604 0.0000 32.2102
#
#
#
# Elastic Compliance Matrix: (Units=1/GPa)
#
#
# Indices 1 2 3 4 5 6 
#
# 1 0.013572 -0.001856 -0.000470 0.000000 -0.002812 0.000000
# 2 -0.001856 0.012866 0.000570 0.000000 -0.001686 0.000000
# 3 -0.000470 0.000570 0.014404 0.000000 -0.007491 0.000000
# 4 0.000000 0.000000 0.000000 0.042488 0.000000 -0.006411
# 5 -0.002812 -0.001686 -0.007491 0.000000 0.035635 0.000000
# 6 0.000000 0.000000 0.000000 -0.006411 0.000000 0.032013
#
#
# Mechanical properties :
#
#
# Convention : Reuss Voigt Hill
#
# Bulk Modulus (GPa) = 26.78689 30.12600 28.45644
# Shear Modulus (GPa) = 29.95185 32.32287 31.13736
#
# Velocity S-wave (km/s) = 3.50120 3.63714 3.56981
# Velocity P-wave (km/s) = 5.22566 5.47430 5.35143
#
# Compressibility (1/GPa) = 0.03733170
#
# Stress axis : x y z
#
# Youngs Moduli (GPa) = 73.67975 77.72252 69.42378
#
# Poissons Ratio (x) = 0.14428 0.03260
# Poissons Ratio (y) = 0.13677 -0.03959
# Poissons Ratio (z) = 0.03460 -0.04433
#
# Static dielectric constant tensor:
#      x y z
#    x 4.460380 0.000000 -0.045800 
#    y 0.000000 3.858440 0.000000 
#    z -0.045800 0.000000 4.836470 
# 
# 
# High freq. dielectric constant tensor:
#      x y z
#    x 1.976440 0.000000 -0.004920 
#    y 0.000000 1.940460 0.000000 
#    z -0.004920 0.000000 1.981230 
# 
# From -- ./inp_files/48826.got.cif
#   From: 2010.06.25/outbox.cif.g09.slc.cpg/sg13_25_cif.got.tgz:48826.got - 2010.06.28 04:50:58.
