data_PCOD8121662
_publ_section_title
;
Structure prediction by ZEFSAII (Michael W. Deem and Ramdas Pophale) SiO2 
 PCOD8121662
Probable space group: P 2/C
;
_chemical_formula_sum "Si O2"
_cell_formula_units_Z 18
_cell_length_a 7.565589
_cell_length_b 12.933018
_cell_length_c 10.640427
_cell_angle_alpha 90.000000
_cell_angle_beta 132.190707
_cell_angle_gamma 90.000000
_cell_volume 771.381487
_symmetry_space_group_name_H-M "P 2/C"
_symmetry_group_IT_number 13
_symmetry_cell_setting 'monoclinic'
loop_
_space_group_symop_operation_xyz
x,y,z
-x,y,1/2-z
-x,-y,-z
x,-y,1/2+z
loop_
_atom_site_type_symbol
_atom_site_label
_atom_site_fract_x
_atom_site_fract_y
_atom_site_fract_z
Si Si1 0.000000 0.119027 0.250000
Si Si2 0.326214 0.695124 0.903898
Si Si3 0.187760 0.229095 0.937912
Si Si4 0.988853 0.615001 0.945722
Si Si5 0.648134 0.988469 0.941698
O O1 0.784187 0.193465 0.189939
O O2 0.101953 0.050703 0.415988
O O3 0.238889 0.615375 0.755782
O O4 0.231477 0.652691 0.992109
O O5 0.609795 0.705133 0.039054
O O6 0.000000 0.183495 0.750000
O O7 0.047663 0.305856 0.959893
O O8 0.296156 0.131006 0.062172
O O9 0.000000 0.500000 0.000000
O O10 0.500000 0.032554 0.750000
O O11 0.500000 0.000000 0.000000
#
# Coordination Sequence:
#
# PCOD8121662 Si02
#       5
#     2   4   4   4   4
#     4  10  22  46  70 108 148 196 236 304 370 438
#     4  10  24  48  71 101 149 182 246 311 361 446
#     4  12  26  46  72 109 147 196 244 301 372 450
#     4  10  24  46  75 100 135 187 245 308 377 431
#     4  12  26  44  74 110 153 201 249 301 374 453
#
# _framework density 23.334757
#
# number of rings (size 3 to 8) (size 9 to 14) (size 15 to 20)
#    0.000    1.333    3.333    2.000    6.222    6.222 
#    4.000    0.000    0.000    0.000    0.000    0.000 
#    0.000    0.000    0.000    0.000    0.000    0.000 
#
# Total GULP energy -223136.459795 kJ/mol
# GULP energy per Si atom -12396.469989 kJ/mol
# Density = 2.328165 g / cm^3
# Si number density = 23.334757 Si / 1000 Ang^3
#
#
#
# Elastic Constant Matrix: (Units=GPa)
#
#
# Indices 1 2 3 4 5 6 
#
# 1 86.2062 35.3198 53.2057 0.0000 -13.7218 0.0000
# 2 35.3198 159.5372 50.4544 0.0000 -16.6514 0.0000
# 3 53.2057 50.4544 149.7110 0.0000 -0.9347 0.0000
# 4 0.0000 0.0000 0.0000 34.7558 0.0000 -6.5338
# 5 -13.7218 -16.6514 -0.9347 0.0000 28.3089 0.0000
# 6 0.0000 0.0000 0.0000 -6.5338 0.0000 21.5028
#
#
#
# Elastic Compliance Matrix: (Units=1/GPa)
#
#
# Indices 1 2 3 4 5 6 
#
# 1 0.016594 -0.001204 -0.005447 0.000000 0.007155 0.000000
# 2 -0.001204 0.007600 -0.002110 0.000000 0.003817 0.000000
# 3 -0.005447 -0.002110 0.009304 0.000000 -0.003574 0.000000
# 4 0.000000 0.000000 0.000000 0.030515 0.000000 0.009272
# 5 0.007155 0.003817 -0.003574 0.000000 0.040920 0.000000
# 6 0.000000 0.000000 0.000000 0.009272 0.000000 0.049323
#
#
# Mechanical properties :
#
#
# Convention : Reuss Voigt Hill
#
# Bulk Modulus (GPa) = 62.59025 74.82380 68.70703
# Shear Modulus (GPa) = 28.23199 34.01180 31.12189
#
# Velocity S-wave (km/s) = 3.48209 3.82194 3.65597
# Velocity P-wave (km/s) = 6.56107 7.18410 6.87964
#
# Compressibility (1/GPa) = 0.01597693
#
# Stress axis : x y z
#
# Youngs Moduli (GPa) = 60.26189 131.57328 107.48159
#
# Poissons Ratio (x) = 0.15846 0.58544
# Poissons Ratio (y) = 0.07258 0.22674
# Poissons Ratio (z) = 0.32824 0.27756
#
# Static dielectric constant tensor:
#      x y z
#    x 4.416760 0.000000 0.193000 
#    y 0.000000 4.206480 0.000000 
#    z 0.193000 0.000000 4.430920 
# 
# 
# High freq. dielectric constant tensor:
#      x y z
#    x 1.924190 0.000000 0.003730 
#    y 0.000000 1.920770 0.000000 
#    z 0.003730 0.000000 1.919700 
# 
# From -- ./inp_files/28791.got.cif
#   From: 2010.06.25/outbox.cif.g09.slc.cpg/sg13_15_cif.got.tgz:28791.got - 2010.06.28 04:50:58.
