data_PCOD8121990
_publ_section_title
;
Structure prediction by ZEFSAII (Michael W. Deem and Ramdas Pophale) SiO2 
 PCOD8121990
Probable space group: P 2/C
;
_chemical_formula_sum "Si O2"
_cell_formula_units_Z 30
_cell_length_a 18.570944
_cell_length_b 9.283411
_cell_length_c 8.946884
_cell_angle_alpha 90.000000
_cell_angle_beta 76.212839
_cell_angle_gamma 90.000000
_cell_volume 1498.016309
_symmetry_space_group_name_H-M "P 2/C"
_symmetry_group_IT_number 13
_symmetry_cell_setting 'monoclinic'
loop_
_space_group_symop_operation_xyz
x,y,z
-x,y,1/2-z
-x,-y,-z
x,-y,1/2+z
loop_
_atom_site_type_symbol
_atom_site_label
_atom_site_fract_x
_atom_site_fract_y
_atom_site_fract_z
Si Si1 0.500000 0.023974 0.750000
Si Si2 0.767724 0.895290 0.458334
Si Si3 0.473325 0.803371 0.530930
Si Si4 0.362289 0.309178 0.529411
Si Si5 0.931489 0.184510 0.215566
Si Si6 0.769123 0.812944 0.793762
Si Si7 0.932042 0.883981 0.372992
Si Si8 0.643808 0.597181 0.804954
O O1 0.549107 0.126831 0.617874
O O2 0.449769 0.919476 0.670490
O O3 0.704593 0.801178 0.410565
O O4 0.758235 0.890104 0.640684
O O5 0.848722 0.828948 0.372697
O O6 0.757705 0.062742 0.421568
O O7 0.561277 0.776830 0.490171
O O8 0.431329 0.655678 0.581586
O O9 0.352758 0.428978 0.661764
O O10 0.357856 0.386285 0.371580
O O11 0.851154 0.259832 0.265590
O O12 0.000000 0.281629 0.250000
O O13 0.931035 0.050813 0.330183
O O14 0.947968 0.133358 0.039883
O O15 0.711866 0.683319 0.845623
O O16 0.000000 0.804782 0.250000
#
# Coordination Sequence:
#
# PCOD8121990 Si02
#       8
#     2   4   4   4   4   4   4   4
#     4  10  24  38  62  92 112 138 174 238 272 316
#     4   9  20  34  53  80 109 140 179 226 271 320
#     4  11  23  40  61  86 115 143 182 221 275 320
#     4  11  24  40  57  80 112 147 186 226 269 325
#     4   9  15  26  45  72 105 136 169 214 267 320
#     4   9  20  34  53  80 109 140 179 226 271 320
#     4   9  15  26  45  72 105 136 169 214 267 320
#     4  11  24  40  57  80 112 147 186 226 269 325
#
# _framework density 20.026485000000001
#
# number of rings (size 3 to 8) (size 9 to 14) (size 15 to 20)
#    0.000    2.133    1.333    2.000    5.600    2.133 
#    0.000    0.000    0.000    0.800    0.000    5.600 
#    0.000    0.000    0.000    0.000    0.000    0.000 
#
# Total GULP energy -371754.790867 kJ/mol
# GULP energy per Si atom -12391.826362 kJ/mol
# Density = 1.998090 g / cm^3
# Si number density = 20.026485 Si / 1000 Ang^3
#
#
#
# Elastic Constant Matrix: (Units=GPa)
#
#
# Indices 1 2 3 4 5 6 
#
# 1 145.3307 27.0864 23.4606 0.0000 -9.3565 0.0000
# 2 27.0864 49.0509 13.4326 0.0000 0.2722 0.0000
# 3 23.4606 13.4326 67.3507 0.0000 2.5592 0.0000
# 4 0.0000 0.0000 0.0000 25.7853 0.0000 3.5493
# 5 -9.3565 0.2722 2.5592 0.0000 25.4686 0.0000
# 6 0.0000 0.0000 0.0000 3.5493 0.0000 10.2548
#
#
#
# Elastic Compliance Matrix: (Units=1/GPa)
#
#
# Indices 1 2 3 4 5 6 
#
# 1 0.008178 -0.003935 -0.002188 0.000000 0.003266 0.000000
# 2 -0.003935 0.023459 -0.003256 0.000000 -0.001369 0.000000
# 3 -0.002188 -0.003256 0.016351 0.000000 -0.002412 0.000000
# 4 0.000000 0.000000 0.000000 0.040722 0.000000 -0.014094
# 5 0.003266 -0.001369 -0.002412 0.000000 0.040721 0.000000
# 6 0.000000 0.000000 0.000000 -0.014094 0.000000 0.102394
#
#
# Mechanical properties :
#
#
# Convention : Reuss Voigt Hill
#
# Bulk Modulus (GPa) = 34.21139 43.29906 38.75522
# Shear Modulus (GPa) = 19.20674 25.48524 22.34599
#
# Velocity S-wave (km/s) = 3.10024 3.57119 3.34402
# Velocity P-wave (km/s) = 5.47133 6.21871 5.85695
#
# Compressibility (1/GPa) = 0.02923003
#
# Stress axis : x y z
#
# Youngs Moduli (GPa) = 122.28396 42.62737 61.15898
#
# Poissons Ratio (x) = 0.16773 0.13381
# Poissons Ratio (y) = 0.48116 0.19914
# Poissons Ratio (z) = 0.26755 0.13880
#
# Static dielectric constant tensor:
#      x y z
#    x 4.319850 0.000000 -0.069870 
#    y 0.000000 3.179870 0.000000 
#    z -0.069870 0.000000 3.714320 
# 
# 
# High freq. dielectric constant tensor:
#      x y z
#    x 1.798270 0.000000 0.001660 
#    y 0.000000 1.730050 0.000000 
#    z 0.001660 0.000000 1.789290 
# 
# From -- ./inp_files/22767.got.cif
#   From: 2010.06.25/outbox.cif.g09.slc.cpg/sg13_12_cif.got.tgz:22767.got - 2010.06.28 04:50:58.
