data_PCOD8121981
_publ_section_title
;
Structure prediction by ZEFSAII (Michael W. Deem and Ramdas Pophale) SiO2 
 PCOD8121981
Probable space group: P 2/C
;
_chemical_formula_sum "Si O2"
_cell_formula_units_Z 22
_cell_length_a 21.646765
_cell_length_b 8.992451
_cell_length_c 9.186207
_cell_angle_alpha 90.000000
_cell_angle_beta 145.294780
_cell_angle_gamma 90.000000
_cell_volume 1018.098996
_symmetry_space_group_name_H-M "P 2/C"
_symmetry_group_IT_number 13
_symmetry_cell_setting 'monoclinic'
loop_
_space_group_symop_operation_xyz
x,y,z
-x,y,1/2-z
-x,-y,-z
x,-y,1/2+z
loop_
_atom_site_type_symbol
_atom_site_label
_atom_site_fract_x
_atom_site_fract_y
_atom_site_fract_z
Si Si1 0.243387 0.154903 0.305683
Si Si2 0.574988 0.068336 0.267680
Si Si3 0.070805 0.917344 0.018297
Si Si4 0.149494 0.405512 0.287656
Si Si5 0.000000 0.484072 0.250000
Si Si6 0.755971 0.717001 0.002732
O O1 0.217948 0.253910 0.399843
O O2 0.356179 0.071349 0.543454
O O3 0.151824 0.033033 0.100809
O O4 0.248349 0.262309 0.177741
O O5 0.500000 0.132502 0.250000
O O6 0.649280 0.206865 0.362922
O O7 0.500000 0.000000 0.000000
O O8 0.133674 0.782327 0.215750
O O9 0.000000 0.849248 0.750000
O O10 0.000000 0.000000 0.000000
O O11 0.084897 0.389524 0.315565
O O12 0.235859 0.541105 0.452825
O O13 0.065306 0.412399 0.989608
#
# Coordination Sequence:
#
# PCOD8121981 Si02
#       6
#     4   4   4   4   2   4
#     4  11  24  44  64  96 134 171 219 282 321 394
#     4  11  24  47  76  95 122 168 219 283 354 393
#     4  11  24  37  62  91 132 174 221 266 320 384
#     4  11  24  41  63  94 141 180 225 259 327 378
#     4  10  24  36  60  92 134 196 212 246 314 394
#     4  11  24  43  64  97 132 170 224 275 325 398
#
# _framework density 21.608900999999999
#
# number of rings (size 3 to 8) (size 9 to 14) (size 15 to 20)
#    0.000    1.091    5.455    0.000    7.636    1.455 
#    0.000    1.818    0.000    0.000    0.000    0.000 
#    0.000    0.000    0.000    0.000    0.000    0.000 
#
# Total GULP energy -272828.638795 kJ/mol
# GULP energy per Si atom -12401.301763 kJ/mol
# Density = 2.155972 g / cm^3
# Si number density = 21.608901 Si / 1000 Ang^3
#
#
#
# Elastic Constant Matrix: (Units=GPa)
#
#
# Indices 1 2 3 4 5 6 
#
# 1 143.3996 31.7807 37.5057 0.0000 4.3422 0.0000
# 2 31.7807 99.2098 22.9926 0.0000 11.4611 0.0000
# 3 37.5057 22.9926 109.5010 0.0000 2.3308 0.0000
# 4 0.0000 0.0000 0.0000 12.2200 0.0000 -0.6975
# 5 4.3422 11.4611 2.3308 0.0000 34.1789 0.0000
# 6 0.0000 0.0000 0.0000 -0.6975 0.0000 40.5660
#
#
#
# Elastic Compliance Matrix: (Units=1/GPa)
#
#
# Indices 1 2 3 4 5 6 
#
# 1 0.008033 -0.002013 -0.002325 0.000000 -0.000187 0.000000
# 2 -0.002013 0.011511 -0.001653 0.000000 -0.003491 0.000000
# 3 -0.002325 -0.001653 0.010273 0.000000 0.000149 0.000000
# 4 0.000000 0.000000 0.000000 0.081913 0.000000 0.001408
# 5 -0.000187 -0.003491 0.000149 0.000000 0.030442 0.000000
# 6 0.000000 0.000000 0.000000 0.001408 0.000000 0.024675
#
#
# Mechanical properties :
#
#
# Convention : Reuss Voigt Hill
#
# Bulk Modulus (GPa) = 56.07031 59.62984 57.85008
# Shear Modulus (GPa) = 27.05992 34.71506 30.88749
#
# Velocity S-wave (km/s) = 3.54256 4.01249 3.78483
# Velocity P-wave (km/s) = 6.53736 7.00869 6.77712
#
# Compressibility (1/GPa) = 0.01783475
#
# Stress axis : x y z
#
# Youngs Moduli (GPa) = 124.48070 86.87357 97.34622
#
# Poissons Ratio (x) = 0.17487 0.22632
# Poissons Ratio (y) = 0.25058 0.16094
# Poissons Ratio (z) = 0.28940 0.14362
#
# Static dielectric constant tensor:
#      x y z
#    x 3.993810 0.000000 -0.047410 
#    y 0.000000 3.833810 0.000000 
#    z -0.047410 0.000000 3.834320 
# 
# 
# High freq. dielectric constant tensor:
#      x y z
#    x 1.863390 0.000000 -0.011810 
#    y 0.000000 1.844620 0.000000 
#    z -0.011810 0.000000 1.841850 
# 
# From -- ./inp_files/21072.got.cif
#   From: 2010.06.25/outbox.cif.g09.slc.cpg/sg13_11_cif.got.tgz:21072.got - 2010.06.28 04:50:58.
