data_PCOD8121038
_publ_section_title
;
Structure prediction by ZEFSAII (Michael W. Deem and Ramdas Pophale) SiO2 
 PCOD8121038
Probable space group: P 2/C
;
_chemical_formula_sum "Si O2"
_cell_formula_units_Z 28
_cell_length_a 13.441087
_cell_length_b 9.207161
_cell_length_c 20.911464
_cell_angle_alpha 90.000000
_cell_angle_beta 149.071855
_cell_angle_gamma 90.000000
_cell_volume 1330.075099
_symmetry_space_group_name_H-M "P 2/C"
_symmetry_group_IT_number 13
_symmetry_cell_setting 'monoclinic'
loop_
_space_group_symop_operation_xyz
x,y,z
-x,y,1/2-z
-x,-y,-z
x,-y,1/2+z
loop_
_atom_site_type_symbol
_atom_site_label
_atom_site_fract_x
_atom_site_fract_y
_atom_site_fract_z
Si Si1 0.756420 0.111830 0.016914
Si Si2 0.782607 0.032950 0.397626
Si Si3 0.089259 0.443539 0.637370
Si Si4 0.324538 0.848262 0.276827
Si Si5 0.281256 0.039342 0.367689
Si Si6 0.276907 0.631408 0.631616
Si Si7 0.922582 0.315224 0.276053
O O1 0.547709 0.183208 0.917783
O O2 0.745074 0.004350 0.950929
O O3 0.826431 0.028180 0.121691
O O4 0.909749 0.239899 0.087902
O O5 0.723393 0.198271 0.354114
O O6 0.657146 0.939239 0.278934
O O7 0.000000 0.000000 0.500000
O O8 0.210415 0.297424 0.700536
O O9 0.166237 0.552231 0.626799
O O10 0.133868 0.528688 0.727144
O O11 0.858506 0.406524 0.504517
O O12 0.209856 0.931786 0.271288
O O13 0.258319 0.203901 0.328265
O O14 0.500000 0.000000 0.500000
O O15 0.500000 0.576823 0.750000
O O16 0.000000 0.353939 0.250000
#
# Coordination Sequence:
#
# PCOD8121038 Si02
#       7
#     4   4   4   4   4   4   4
#     4  10  22  38  69  91 123 168 216 261 326 381
#     4  12  22  41  64  99 126 165 218 277 322 381
#     4  11  25  42  62  96 134 171 213 267 323 400
#     4  11  22  39  66  95 126 163 218 270 323 382
#     4   9  20  42  66  92 121 165 214 266 319 379
#     4  11  25  42  63  94 133 174 213 264 335 389
#     4  10  22  43  64  88 128 171 209 261 326 389
#
# _framework density 21.051444
#
# number of rings (size 3 to 8) (size 9 to 14) (size 15 to 20)
#    0.000    1.429    1.429    3.857    4.000    1.143 
#    2.571    6.429    0.000    0.000    0.000    0.000 
#    0.000    0.000    0.000    0.000    0.000    0.000 
#
# Total GULP energy -346987.694194 kJ/mol
# GULP energy per Si atom -12392.417650 kJ/mol
# Density = 2.100353 g / cm^3
# Si number density = 21.051444 Si / 1000 Ang^3
#
#
#
# Elastic Constant Matrix: (Units=GPa)
#
#
# Indices 1 2 3 4 5 6 
#
# 1 81.8932 43.0105 37.5119 0.0000 -12.1690 0.0000
# 2 43.0105 134.1666 47.1979 0.0000 -18.6569 0.0000
# 3 37.5119 47.1979 114.3699 0.0000 2.8171 0.0000
# 4 0.0000 0.0000 0.0000 31.5099 0.0000 -9.1980
# 5 -12.1690 -18.6569 2.8171 0.0000 44.9079 0.0000
# 6 0.0000 0.0000 0.0000 -9.1980 0.0000 25.9037
#
#
#
# Elastic Compliance Matrix: (Units=1/GPa)
#
#
# Indices 1 2 3 4 5 6 
#
# 1 0.016312 -0.003348 -0.004049 0.000000 0.003283 0.000000
# 2 -0.003348 0.010128 -0.003167 0.000000 0.003499 0.000000
# 3 -0.004049 -0.003167 0.011456 0.000000 -0.003132 0.000000
# 4 0.000000 0.000000 0.000000 0.035406 0.000000 0.012572
# 5 0.003283 0.003499 -0.003132 0.000000 0.024808 0.000000
# 6 0.000000 0.000000 0.000000 0.012572 0.000000 0.043069
#
#
# Mechanical properties :
#
#
# Convention : Reuss Voigt Hill
#
# Bulk Modulus (GPa) = 59.64536 65.09670 62.37103
# Shear Modulus (GPa) = 29.78024 33.97826 31.87925
#
# Velocity S-wave (km/s) = 3.76525 4.02189 3.89569
# Velocity P-wave (km/s) = 6.87732 7.24964 7.06593
#
# Compressibility (1/GPa) = 0.01676576
#
# Stress axis : x y z
#
# Youngs Moduli (GPa) = 61.30371 98.74029 87.29087
#
# Poissons Ratio (x) = 0.33061 0.35347
# Poissons Ratio (y) = 0.20526 0.27649
# Poissons Ratio (z) = 0.24824 0.31275
#
# Static dielectric constant tensor:
#      x y z
#    x 4.098770 0.000000 -0.150860 
#    y 0.000000 3.625330 0.000000 
#    z -0.150860 0.000000 4.335170 
# 
# 
# High freq. dielectric constant tensor:
#      x y z
#    x 1.824890 0.000000 -0.003090 
#    y 0.000000 1.809770 0.000000 
#    z -0.003090 0.000000 1.844500 
# 
# From -- ./inp_files/53116.got.cif
#   From: 2010.06.25/outbox.cif.g09.slc.cpg/sg13_27_cif.got.tgz:53116.got - 2010.06.28 04:50:58.
