data_PCOD8121386
_publ_section_title
;
Structure prediction by ZEFSAII (Michael W. Deem and Ramdas Pophale) SiO2 
 PCOD8121386
Probable space group: P 2/C
;
_chemical_formula_sum "Si O2"
_cell_formula_units_Z 26
_cell_length_a 11.754082
_cell_length_b 8.636113
_cell_length_c 15.191052
_cell_angle_alpha 90.000000
_cell_angle_beta 54.975979
_cell_angle_gamma 90.000000
_cell_volume 1262.792094
_symmetry_space_group_name_H-M "P 2/C"
_symmetry_group_IT_number 13
_symmetry_cell_setting 'monoclinic'
loop_
_space_group_symop_operation_xyz
x,y,z
-x,y,1/2-z
-x,-y,-z
x,-y,1/2+z
loop_
_atom_site_type_symbol
_atom_site_label
_atom_site_fract_x
_atom_site_fract_y
_atom_site_fract_z
Si Si1 0.988286 0.769743 0.902323
Si Si2 0.750266 0.233989 0.092444
Si Si3 0.557317 0.273760 0.839116
Si Si4 0.500000 0.555083 0.750000
Si Si5 0.000000 0.479878 0.250000
Si Si6 0.702012 0.127558 0.610397
Si Si7 0.000000 0.984234 0.250000
Si Si8 0.218233 0.726769 0.122875
O O1 0.975601 0.619002 0.848041
O O2 0.104661 0.742101 0.923231
O O3 0.027218 0.915920 0.824973
O O4 0.845783 0.798979 0.016159
O O5 0.634562 0.336809 0.190610
O O6 0.706631 0.056074 0.115026
O O7 0.767135 0.297556 0.986898
O O8 0.512964 0.447461 0.830906
O O9 0.664520 0.202534 0.720717
O O10 0.418185 0.169906 0.906680
O O11 0.628863 0.270754 0.902424
O O12 0.134955 0.585939 0.204251
O O13 0.860664 0.886721 0.323913
#
# Coordination Sequence:
#
# PCOD8121386 Si02
#       8
#     4   4   4   2   2   4   2   4
#     4  11  23  43  65  93 126 166 205 262 307 378
#     4  12  24  40  69  95 125 161 212 257 316 365
#     4  10  24  44  63  88 133 165 210 256 307 375
#     4  10  24  44  60  94 124 172 204 254 310 376
#     4  10  26  40  62  94 128 164 210 250 320 364
#     4  10  22  42  67  92 122 169 209 254 316 363
#     4  10  22  42  62  96 128 156 212 256 318 362
#     4  11  24  41  63  97 123 166 205 263 308 370
#
# _framework density 20.589296000000001
#
# number of rings (size 3 to 8) (size 9 to 14) (size 15 to 20)
#    0.000    1.538    1.538    3.231    8.615    1.846 
#    5.538    0.000    0.000    0.000    0.000    0.000 
#    0.000    0.000    0.000    0.000    0.000    0.000 
#
# Total GULP energy -322513.978899 kJ/mol
# GULP energy per Si atom -12404.383804 kJ/mol
# Density = 2.054243 g / cm^3
# Si number density = 20.589296 Si / 1000 Ang^3
#
#
#
# Elastic Constant Matrix: (Units=GPa)
#
#
# Indices 1 2 3 4 5 6 
#
# 1 157.5503 21.6582 33.7132 0.0000 10.6679 0.0000
# 2 21.6582 94.9189 18.2510 0.0000 -2.0917 0.0000
# 3 33.7132 18.2510 67.2642 0.0000 -7.4583 0.0000
# 4 0.0000 0.0000 0.0000 -8.0440 0.0000 8.6501
# 5 10.6679 -2.0917 -7.4583 0.0000 35.0727 0.0000
# 6 0.0000 0.0000 0.0000 8.6501 0.0000 -0.9843
#
#
#
# Elastic Compliance Matrix: (Units=1/GPa)
#
#
# Indices 1 2 3 4 5 6 
#
# 1 0.007528 -0.001049 -0.003840 0.000000 -0.003169 0.000000
# 2 -0.001049 0.011261 -0.002478 0.000000 0.000464 0.000000
# 3 -0.003840 -0.002478 0.018001 0.000000 0.004848 0.000000
# 4 0.000000 0.000000 0.000000 0.014711 0.000000 0.129286
# 5 -0.003169 0.000464 0.004848 0.000000 0.030535 0.000000
# 6 0.000000 0.000000 0.000000 0.129286 0.000000 0.120227
#
#
# Mechanical properties :
#
#
# Convention : Reuss Voigt Hill
#
# Bulk Modulus (GPa) = 45.33895 51.88648 48.61272
# Shear Modulus (GPa) = 22.28667 21.61628 21.95147
#
# Velocity S-wave (km/s) = 3.29361 3.24370 3.26875
# Velocity P-wave (km/s) = 6.04420 6.26771 6.15697
#
# Compressibility (1/GPa) = 0.02205609
#
# Stress axis : x y z
#
# Youngs Moduli (GPa) = 132.84524 88.79844 55.55204
#
# Poissons Ratio (x) = 0.09316 0.21329
# Poissons Ratio (y) = 0.13938 0.13768
# Poissons Ratio (z) = 0.51006 0.22007
#
# Static dielectric constant tensor:
#      x y z
#    x 3.751090 0.000000 -0.076250 
#    y 0.000000 3.913240 0.000000 
#    z -0.076250 0.000000 3.636730 
# 
# 
# High freq. dielectric constant tensor:
#      x y z
#    x 1.812950 0.000000 -0.006000 
#    y 0.000000 1.821270 0.000000 
#    z -0.006000 0.000000 1.800530 
# 
# From -- ./inp_files/49932.got.cif
#   From: 2010.06.25/outbox.cif.g09.slc.cpg/sg13_25_cif.got.tgz:49932.got - 2010.06.28 04:50:58.
