data_PCOD8121949
_publ_section_title
;
Structure prediction by ZEFSAII (Michael W. Deem and Ramdas Pophale) SiO2 
 PCOD8121949
Probable space group: P 2/C
;
_chemical_formula_sum "Si O2"
_cell_formula_units_Z 26
_cell_length_a 20.074450
_cell_length_b 5.494475
_cell_length_c 29.900327
_cell_angle_alpha 90.000000
_cell_angle_beta 160.118610
_cell_angle_gamma 90.000000
_cell_volume 1121.551910
_symmetry_space_group_name_H-M "P 2/C"
_symmetry_group_IT_number 13
_symmetry_cell_setting 'monoclinic'
loop_
_space_group_symop_operation_xyz
x,y,z
-x,y,1/2-z
-x,-y,-z
x,-y,1/2+z
loop_
_atom_site_type_symbol
_atom_site_label
_atom_site_fract_x
_atom_site_fract_y
_atom_site_fract_z
Si Si1 0.500000 0.164668 0.250000
Si Si2 0.464383 0.479223 0.802710
Si Si3 0.917160 0.249577 0.927496
Si Si4 0.156922 0.899932 0.213034
Si Si5 0.615801 0.748795 0.064890
Si Si6 0.547064 0.839794 0.926064
Si Si7 0.237661 0.108077 0.517965
O O1 0.603417 0.329006 0.277475
O O2 0.673234 0.009675 0.380989
O O3 0.315886 0.250074 0.708071
O O4 0.456932 0.599182 0.846761
O O5 0.686304 0.386094 0.934177
O O6 0.941089 0.257358 0.888742
O O7 0.000000 0.500000 0.000000
O O8 0.000000 0.000000 0.000000
O O9 0.199524 0.740600 0.284529
O O10 0.359073 0.008656 0.322848
O O11 0.997408 0.103853 0.127185
O O12 0.500000 0.500000 0.000000
O O13 0.676584 0.758856 0.050888
O O14 0.500000 0.000000 0.000000
O O15 0.687302 0.978533 0.979978
#
# Coordination Sequence:
#
# PCOD8121949 Si02
#       7
#     2   4   4   4   4   4   4
#     4  10  24  42  64 100 146 192 242 298 362 430
#     4  11  23  44  67  96 146 192 237 306 362 429
#     4  12  26  41  69 101 139 187 240 294 362 433
#     4  11  24  46  72 107 145 188 249 296 372 442
#     4  10  23  45  77 105 141 188 235 300 367 429
#     4  10  23  47  70 102 144 186 240 308 369 431
#     4  11  24  43  69 101 144 191 247 301 365 440
#
# _framework density 23.182162000000002
#
# number of rings (size 3 to 8) (size 9 to 14) (size 15 to 20)
#    0.000    1.231    1.538    3.231    8.615    1.846 
#   16.615    0.000    0.000    0.000    0.000    0.000 
#    0.000    0.000    0.000    0.000    0.000    0.000 
#
# Total GULP energy -322220.791298 kJ/mol
# GULP energy per Si atom -12393.107358 kJ/mol
# Density = 2.312940 g / cm^3
# Si number density = 23.182162 Si / 1000 Ang^3
#
#
#
# Elastic Constant Matrix: (Units=GPa)
#
#
# Indices 1 2 3 4 5 6 
#
# 1 130.9343 26.7237 60.5605 0.0000 -45.5557 0.0000
# 2 26.7237 109.5181 27.7262 0.0000 -26.9578 0.0000
# 3 60.5605 27.7262 98.7763 0.0000 -32.8790 0.0000
# 4 0.0000 0.0000 0.0000 24.7006 0.0000 0.6775
# 5 -45.5557 -26.9578 -32.8790 0.0000 60.1040 0.0000
# 6 0.0000 0.0000 0.0000 0.6775 0.0000 19.3105
#
#
#
# Elastic Compliance Matrix: (Units=1/GPa)
#
#
# Indices 1 2 3 4 5 6 
#
# 1 0.012395 -0.000074 -0.005456 0.000000 0.006377 0.000000
# 2 -0.000074 0.010489 -0.001653 0.000000 0.003745 0.000000
# 3 -0.005456 -0.001653 0.015050 0.000000 0.003356 0.000000
# 4 0.000000 0.000000 0.000000 0.040524 0.000000 -0.001422
# 5 0.006377 0.003745 0.003356 0.000000 0.024987 0.000000
# 6 0.000000 0.000000 0.000000 -0.001422 0.000000 0.051835
#
#
# Mechanical properties :
#
#
# Convention : Reuss Voigt Hill
#
# Bulk Modulus (GPa) = 42.42786 63.24996 52.83891
# Shear Modulus (GPa) = 28.16895 35.77091 31.96993
#
# Velocity S-wave (km/s) = 3.48963 3.93241 3.71762
# Velocity P-wave (km/s) = 5.88034 6.92543 6.42417
#
# Compressibility (1/GPa) = 0.02356942
#
# Stress axis : x y z
#
# Youngs Moduli (GPa) = 80.67981 95.33787 66.44479
#
# Poissons Ratio (x) = 0.00701 0.36252
# Poissons Ratio (y) = 0.00593 0.10981
# Poissons Ratio (z) = 0.44019 0.15756
#
# Static dielectric constant tensor:
#      x y z
#    x 4.288470 0.000000 -0.531160 
#    y 0.000000 4.057070 0.000000 
#    z -0.531160 0.000000 4.523780 
# 
# 
# High freq. dielectric constant tensor:
#      x y z
#    x 1.930500 0.000000 -0.020750 
#    y 0.000000 1.911100 0.000000 
#    z -0.020750 0.000000 1.907410 
# 
# From -- ./inp_files/97469.got.cif
#   From: 2010.06.25/outbox.cif.g09.slc.cpg/sg13_49_cif.got.tgz:97469.got - 2010.06.28 04:50:58.
