data_PCOD8121843
_publ_section_title
;
Structure prediction by ZEFSAII (Michael W. Deem and Ramdas Pophale) SiO2 
 PCOD8121843
Probable space group: P 2/C
;
_chemical_formula_sum "Si O2"
_cell_formula_units_Z 32
_cell_length_a 23.469039
_cell_length_b 11.736353
_cell_length_c 11.951621
_cell_angle_alpha 90.000000
_cell_angle_beta 150.615282
_cell_angle_gamma 90.000000
_cell_volume 1615.273234
_symmetry_space_group_name_H-M "P 2/C"
_symmetry_group_IT_number 13
_symmetry_cell_setting 'monoclinic'
loop_
_space_group_symop_operation_xyz
x,y,z
-x,y,1/2-z
-x,-y,-z
x,-y,1/2+z
loop_
_atom_site_type_symbol
_atom_site_label
_atom_site_fract_x
_atom_site_fract_y
_atom_site_fract_z
Si Si1 0.139259 0.796986 0.365766
Si Si2 0.433464 0.112085 0.854356
Si Si3 0.679169 0.638030 0.940358
Si Si4 0.461939 0.665428 0.015533
Si Si5 0.378842 0.163599 0.001864
Si Si6 0.873119 0.212019 0.397560
Si Si7 0.228344 0.999978 0.878653
Si Si8 0.314066 0.391671 0.476691
O O1 0.214971 0.701738 0.436086
O O2 0.169130 0.794555 0.547317
O O3 0.169788 0.924305 0.375605
O O4 0.008068 0.757801 0.118122
O O5 0.531718 0.196148 0.971517
O O6 0.332402 0.081512 0.596273
O O7 0.376301 0.173824 0.864077
O O8 0.500000 0.000000 0.000000
O O9 0.577611 0.619462 0.673839
O O10 0.629243 0.711595 0.957254
O O11 0.727070 0.521285 0.075472
O O12 0.594320 0.629653 0.267161
O O13 0.374014 0.621305 0.958774
O O14 0.500000 0.106867 0.250000
O O15 0.272918 0.083961 0.858199
O O16 0.865230 0.086468 0.330916
O O17 0.796357 0.307505 0.202358
#
# Coordination Sequence:
#
# PCOD8121843 Si02
#       8
#     4   4   4   4   4   4   4   4
#     4  10  23  43  66  87 124 164 208 262 305 374
#     4  12  22  34  58  90 130 162 197 242 303 376
#     4  11  23  43  60  85 126 163 207 249 314 358
#     4  11  23  39  58  92 125 158 200 246 312 367
#     4  11  22  34  56  86 122 169 197 236 306 375
#     4  11  22  42  66  93 117 162 217 254 314 359
#     4  11  22  38  60  92 127 160 202 256 307 372
#     4  11  25  38  63  92 120 160 204 260 296 370
#
# _framework density 19.810889
#
# number of rings (size 3 to 8) (size 9 to 14) (size 15 to 20)
#    0.000    1.000    5.000    2.250    3.500    1.500 
#    0.000    0.000    0.000    0.000    0.000    0.000 
#    0.000    0.000    0.000    0.000    0.000    0.000 
#
# Total GULP energy -396818.519826 kJ/mol
# GULP energy per Si atom -12400.578745 kJ/mol
# Density = 1.976580 g / cm^3
# Si number density = 19.810889 Si / 1000 Ang^3
#
#
#
# Elastic Constant Matrix: (Units=GPa)
#
#
# Indices 1 2 3 4 5 6 
#
# 1 89.1842 52.4543 26.1431 0.0000 -3.8928 0.0000
# 2 52.4543 128.9261 42.5074 0.0000 -10.6793 0.0000
# 3 26.1431 42.5074 83.3694 0.0000 0.7466 0.0000
# 4 0.0000 0.0000 0.0000 22.8309 0.0000 -4.5420
# 5 -3.8928 -10.6793 0.7466 0.0000 22.1520 0.0000
# 6 0.0000 0.0000 0.0000 -4.5420 0.0000 25.6591
#
#
#
# Elastic Compliance Matrix: (Units=1/GPa)
#
#
# Indices 1 2 3 4 5 6 
#
# 1 0.014989 -0.005461 -0.001917 0.000000 0.000066 0.000000
# 2 -0.005461 0.011820 -0.004358 0.000000 0.004885 0.000000
# 3 -0.001917 -0.004358 0.014844 0.000000 -0.002938 0.000000
# 4 0.000000 0.000000 0.000000 0.045399 0.000000 0.008036
# 5 0.000066 0.004885 -0.002938 0.000000 0.047608 0.000000
# 6 0.000000 0.000000 0.000000 0.008036 0.000000 0.040395
#
#
# Mechanical properties :
#
#
# Convention : Reuss Voigt Hill
#
# Bulk Modulus (GPa) = 54.99861 60.40992 57.70426
# Shear Modulus (GPa) = 24.43944 26.15340 25.29642
#
# Velocity S-wave (km/s) = 3.51613 3.63733 3.57724
# Velocity P-wave (km/s) = 6.65630 6.94260 6.80096
#
# Compressibility (1/GPa) = 0.01818228
#
# Stress axis : x y z
#
# Youngs Moduli (GPa) = 66.71348 84.60429 67.36746
#
# Poissons Ratio (x) = 0.46204 0.12911
# Poissons Ratio (y) = 0.36434 0.29357
# Poissons Ratio (z) = 0.12786 0.36868
#
# Static dielectric constant tensor:
#      x y z
#    x 3.675720 0.000000 -0.312170 
#    y 0.000000 3.671940 0.000000 
#    z -0.312170 0.000000 4.329430 
# 
# 
# High freq. dielectric constant tensor:
#      x y z
#    x 1.770180 0.000000 -0.006860 
#    y 0.000000 1.777380 0.000000 
#    z -0.006860 0.000000 1.765020 
# 
# From -- ./inp_files/41863.got.cif
#   From: 2010.06.25/outbox.cif.g09.slc.cpg/sg13_21_cif.got.tgz:41863.got - 2010.06.28 04:50:58.
