data_PCOD8121460
_publ_section_title
;
Structure prediction by ZEFSAII (Michael W. Deem and Ramdas Pophale) SiO2 
 PCOD8121460
Probable space group: P 2/C
;
_chemical_formula_sum "Si O2"
_cell_formula_units_Z 32
_cell_length_a 12.360297
_cell_length_b 5.262062
_cell_length_c 22.425530
_cell_angle_alpha 90.000000
_cell_angle_beta 105.409242
_cell_angle_gamma 90.000000
_cell_volume 1406.139129
_symmetry_space_group_name_H-M "P 2/C"
_symmetry_group_IT_number 13
_symmetry_cell_setting 'monoclinic'
loop_
_space_group_symop_operation_xyz
x,y,z
-x,y,1/2-z
-x,-y,-z
x,-y,1/2+z
loop_
_atom_site_type_symbol
_atom_site_label
_atom_site_fract_x
_atom_site_fract_y
_atom_site_fract_z
Si Si1 0.231588 0.917721 0.114935
Si Si2 0.042500 0.740889 0.579937
Si Si3 0.767517 0.797251 0.257209
Si Si4 0.388646 0.335398 0.981077
Si Si5 0.425549 0.216572 0.112609
Si Si6 0.900980 0.316111 0.278398
Si Si7 0.437953 0.738513 0.357936
Si Si8 0.179550 0.588683 0.005785
O O1 0.261110 0.752388 0.177341
O O2 0.259910 0.755555 0.060277
O O3 0.097155 0.977171 0.092466
O O4 0.301759 0.186131 0.124377
O O5 0.058051 0.625601 0.648185
O O6 0.109998 0.603987 0.536716
O O7 0.910240 0.754532 0.545413
O O8 0.855532 0.585660 0.248042
O O9 0.658173 0.727758 0.204428
O O10 0.809999 0.088558 0.258577
O O11 0.383055 0.210219 0.915006
O O12 0.500000 0.500000 0.000000
O O13 0.407110 0.148723 0.039720
O O14 0.267770 0.470488 0.972242
O O15 0.484282 0.486091 0.133764
O O16 0.493132 0.984987 0.151044
O O17 0.000000 0.228549 0.250000
#
# Coordination Sequence:
#
# PCOD8121460 Si02
#       8
#     4   4   4   4   4   4   4   4
#     4  11  22  42  67  97 137 184 226 286 352 407
#     4  10  23  40  66  98 137 177 230 285 341 410
#     4  11  25  45  70  96 139 179 229 289 342 423
#     4  10  22  42  68  99 135 177 222 283 349 402
#     4  11  23  43  69  97 138 179 225 289 345 406
#     4  11  24  46  69  98 137 184 229 285 354 408
#     4  11  25  44  67 103 136 178 237 278 342 417
#     4  11  21  42  65 102 132 183 227 286 338 420
#
# _framework density 22.757352000000001
#
# number of rings (size 3 to 8) (size 9 to 14) (size 15 to 20)
#    0.000    1.250    2.500    3.375    1.750    1.500 
#    2.250    2.500    0.000    0.000    0.000    0.000 
#    0.000    0.000    0.000    0.000    0.000    0.000 
#
# Total GULP energy -396439.233657 kJ/mol
# GULP energy per Si atom -12388.726052 kJ/mol
# Density = 2.270556 g / cm^3
# Si number density = 22.757352 Si / 1000 Ang^3
#
#
#
# Elastic Constant Matrix: (Units=GPa)
#
#
# Indices 1 2 3 4 5 6 
#
# 1 111.9811 18.9285 36.6810 0.0000 10.6402 0.0000
# 2 18.9285 79.9862 20.4778 0.0000 8.5070 0.0000
# 3 36.6810 20.4778 104.3858 0.0000 29.3858 0.0000
# 4 0.0000 0.0000 0.0000 28.6161 0.0000 1.6328
# 5 10.6402 8.5070 29.3858 0.0000 30.3683 0.0000
# 6 0.0000 0.0000 0.0000 1.6328 0.0000 31.0171
#
#
#
# Elastic Compliance Matrix: (Units=1/GPa)
#
#
# Indices 1 2 3 4 5 6 
#
# 1 0.010280 -0.001589 -0.003315 0.000000 0.000051 0.000000
# 2 -0.001589 0.013468 -0.001619 0.000000 -0.001649 0.000000
# 3 -0.003315 -0.001619 0.014579 0.000000 -0.012492 0.000000
# 4 0.000000 0.000000 0.000000 0.035051 0.000000 -0.001845
# 5 0.000051 -0.001649 -0.012492 0.000000 0.045461 0.000000
# 6 0.000000 0.000000 0.000000 -0.001845 0.000000 0.032337
#
#
# Mechanical properties :
#
#
# Convention : Reuss Voigt Hill
#
# Bulk Modulus (GPa) = 39.55749 49.83641 44.69695
# Shear Modulus (GPa) = 28.96026 32.68469 30.82248
#
# Velocity S-wave (km/s) = 3.57118 3.79387 3.68421
# Velocity P-wave (km/s) = 5.86723 6.41388 6.14664
#
# Compressibility (1/GPa) = 0.02527967
#
# Stress axis : x y z
#
# Youngs Moduli (GPa) = 97.27896 74.24869 68.59131
#
# Poissons Ratio (x) = 0.11801 0.22737
# Poissons Ratio (y) = 0.15462 0.11108
# Poissons Ratio (z) = 0.32247 0.12024
#
# Static dielectric constant tensor:
#      x y z
#    x 4.378660 0.000000 -0.152820 
#    y 0.000000 3.906370 0.000000 
#    z -0.152820 0.000000 4.515380 
# 
# 
# High freq. dielectric constant tensor:
#      x y z
#    x 1.905640 0.000000 0.005040 
#    y 0.000000 1.887030 0.000000 
#    z 0.005040 0.000000 1.901760 
# 
# From -- ./inp_files/86006.got.cif
#   From: 2010.06.25/outbox.cif.g09.slc.cpg/sg13_44_cif.got.tgz:86006.got - 2010.06.28 04:50:58.
