data_PCOD8121365
_publ_section_title
;
Structure prediction by ZEFSAII (Michael W. Deem and Ramdas Pophale) SiO2 
 PCOD8121365
Probable space group: P 2/C
;
_chemical_formula_sum "Si O2"
_cell_formula_units_Z 26
_cell_length_a 9.089630
_cell_length_b 21.462425
_cell_length_c 9.356866
_cell_angle_alpha 90.000000
_cell_angle_beta 135.980691
_cell_angle_gamma 90.000000
_cell_volume 1268.464122
_symmetry_space_group_name_H-M "P 2/C"
_symmetry_group_IT_number 13
_symmetry_cell_setting 'monoclinic'
loop_
_space_group_symop_operation_xyz
x,y,z
-x,y,1/2-z
-x,-y,-z
x,-y,1/2+z
loop_
_atom_site_type_symbol
_atom_site_label
_atom_site_fract_x
_atom_site_fract_y
_atom_site_fract_z
Si Si1 0.500000 0.878755 0.250000
Si Si2 0.171341 0.176576 0.056859
Si Si3 0.651284 0.488676 0.239940
Si Si4 0.886094 0.709538 0.311840
Si Si5 0.442565 0.201398 0.988253
Si Si6 0.050933 0.062017 0.450697
Si Si7 0.954754 0.593709 0.553490
O O1 0.485103 0.836147 0.100033
O O2 0.701872 0.922537 0.368519
O O3 0.350378 0.211051 0.273267
O O4 0.097429 0.113533 0.079506
O O5 0.262164 0.165339 0.958758
O O6 0.977309 0.223893 0.922924
O O7 0.500000 0.457920 0.250000
O O8 0.749684 0.552750 0.370391
O O9 0.834601 0.438732 0.354437
O O10 0.500000 0.500000 0.000000
O O11 0.641677 0.728629 0.109773
O O12 0.911627 0.660454 0.455006
O O13 0.000000 0.682363 0.250000
O O14 0.000000 0.053261 0.250000
O O15 0.000000 0.000000 0.500000
O O16 0.000000 0.603770 0.750000
#
# Coordination Sequence:
#
# PCOD8121365 Si02
#       7
#     2   4   4   4   4   4   4
#     4  12  24  42  70  98 126 174 220 264 338 390
#     4  10  22  46  66  92 136 173 217 273 335 399
#     4  11  24  45  68  94 137 183 228 279 342 398
#     4  10  23  41  67  97 135 174 218 276 338 399
#     4  10  22  41  70  94 127 175 217 267 335 399
#     4  12  28  44  68 101 134 173 222 276 335 400
#     4  11  25  42  66 103 135 176 230 285 334 404
#
# _framework density 20.497229000000001
#
# number of rings (size 3 to 8) (size 9 to 14) (size 15 to 20)
#    0.000    1.231    4.615    0.000    4.308    4.923 
#    4.154    0.000    0.000    0.000    0.000    0.000 
#    0.000    0.000    0.000    0.000    0.000    0.000 
#
# Total GULP energy -322288.720707 kJ/mol
# GULP energy per Si atom -12395.720027 kJ/mol
# Density = 2.045058 g / cm^3
# Si number density = 20.497229 Si / 1000 Ang^3
#
#
#
# Elastic Constant Matrix: (Units=GPa)
#
#
# Indices 1 2 3 4 5 6 
#
# 1 113.5381 46.3288 48.3827 0.0000 -14.4178 0.0000
# 2 46.3288 105.9970 59.9404 0.0000 -14.7884 0.0000
# 3 48.3827 59.9404 130.7044 0.0000 -10.2738 0.0000
# 4 0.0000 0.0000 0.0000 37.1605 0.0000 -7.5514
# 5 -14.4178 -14.7884 -10.2738 0.0000 45.0799 0.0000
# 6 0.0000 0.0000 0.0000 -7.5514 0.0000 21.3047
#
#
#
# Elastic Compliance Matrix: (Units=1/GPa)
#
#
# Indices 1 2 3 4 5 6 
#
# 1 0.011509 -0.003280 -0.002598 0.000000 0.002013 0.000000
# 2 -0.003280 0.014056 -0.005042 0.000000 0.002413 0.000000
# 3 -0.002598 -0.005042 0.010925 0.000000 0.000005 0.000000
# 4 0.000000 0.000000 0.000000 0.028999 0.000000 0.010279
# 5 0.002013 0.002413 0.000005 0.000000 0.023619 0.000000
# 6 0.000000 0.000000 0.000000 0.010279 0.000000 0.050581
#
#
# Mechanical properties :
#
#
# Convention : Reuss Voigt Hill
#
# Bulk Modulus (GPa) = 68.26146 73.28260 70.77203
# Shear Modulus (GPa) = 30.04589 33.74820 31.89705
#
# Velocity S-wave (km/s) = 3.83280 4.06208 3.94910
# Velocity P-wave (km/s) = 7.27751 7.60465 7.44288
#
# Compressibility (1/GPa) = 0.01464955
#
# Stress axis : x y z
#
# Youngs Moduli (GPa) = 86.89088 71.14467 91.53313
#
# Poissons Ratio (x) = 0.23339 0.23776
# Poissons Ratio (y) = 0.28504 0.46151
# Poissons Ratio (z) = 0.22570 0.35871
#
# Static dielectric constant tensor:
#      x y z
#    x 3.926760 0.000000 0.077480 
#    y 0.000000 3.449560 0.000000 
#    z 0.077480 0.000000 3.846220 
# 
# 
# High freq. dielectric constant tensor:
#      x y z
#    x 1.815910 0.000000 -0.000210 
#    y 0.000000 1.779790 0.000000 
#    z -0.000210 0.000000 1.829650 
# 
# From -- ./inp_files/13664.got.cif
#   From: 2010.06.25/outbox.cif.g09.slc.cpg/sg13_7_cif.got.tgz:13664.got - 2010.06.28 04:50:58.
