data_PCOD8121975
_publ_section_title
;
Structure prediction by ZEFSAII (Michael W. Deem and Ramdas Pophale) SiO2 
 PCOD8121975
Probable space group: P 2/C
;
_chemical_formula_sum "Si O2"
_cell_formula_units_Z 30
_cell_length_a 13.074232
_cell_length_b 14.714404
_cell_length_c 8.829352
_cell_angle_alpha 90.000000
_cell_angle_beta 112.018746
_cell_angle_gamma 90.000000
_cell_volume 1574.693804
_symmetry_space_group_name_H-M "P 2/C"
_symmetry_group_IT_number 13
_symmetry_cell_setting 'monoclinic'
loop_
_space_group_symop_operation_xyz
x,y,z
-x,y,1/2-z
-x,-y,-z
x,-y,1/2+z
loop_
_atom_site_type_symbol
_atom_site_label
_atom_site_fract_x
_atom_site_fract_y
_atom_site_fract_z
Si Si1 0.635541 0.579528 0.977395
Si Si2 0.609236 0.399695 0.108247
Si Si3 0.728191 0.237597 0.522010
Si Si4 0.118226 0.091722 0.385601
Si Si5 0.465126 0.122072 0.014784
Si Si6 0.883806 0.097527 0.757484
Si Si7 0.299158 0.206579 0.332541
Si Si8 0.500000 0.972649 0.250000
O O1 0.521252 0.602312 0.002130
O O2 0.621451 0.580721 0.790988
O O3 0.729827 0.655367 0.066790
O O4 0.672745 0.479354 0.051316
O O5 0.663549 0.305168 0.087008
O O6 0.599627 0.211135 0.472013
O O7 0.802976 0.180814 0.677153
O O8 0.757604 0.216430 0.363996
O O9 0.105500 0.083766 0.558061
O O10 0.207184 0.168443 0.394721
O O11 0.000000 0.117999 0.250000
O O12 0.159971 0.995548 0.341692
O O13 0.431676 0.093711 0.824307
O O14 0.595554 0.139387 0.108791
O O15 0.426651 0.037735 0.100914
O O16 0.000000 0.124530 0.750000
#
# Coordination Sequence:
#
# PCOD8121975 Si02
#       8
#     4   4   4   4   4   4   4   2
#     4   9  18  34  54  80 113 150 185 227 278 333
#     4   9  18  34  54  80 113 150 185 227 278 333
#     4  11  21  36  58  81 114 150 189 230 279 337
#     4  11  24  41  60  83 111 149 193 236 282 329
#     4  11  22  36  49  78 113 150 190 221 279 331
#     4  11  24  41  60  83 111 149 193 236 282 329
#     4  11  21  36  58  81 114 150 189 230 279 337
#     4  10  24  34  48  70 116 156 184 226 270 340
#
# _framework density 19.051324000000001
#
# number of rings (size 3 to 8) (size 9 to 14) (size 15 to 20)
#    0.000    1.600    2.667    3.200    5.600    1.067 
#    0.000    0.000    0.000    0.800    0.000    5.600 
#    0.000    0.000    0.000    0.000    0.000    0.000 
#
# Total GULP energy -371877.250971 kJ/mol
# GULP energy per Si atom -12395.908366 kJ/mol
# Density = 1.900796 g / cm^3
# Si number density = 19.051324 Si / 1000 Ang^3
#
#
#
# Elastic Constant Matrix: (Units=GPa)
#
#
# Indices 1 2 3 4 5 6 
#
# 1 75.9030 44.4158 32.8402 0.0000 -6.7977 0.0000
# 2 44.4158 129.4767 42.4856 0.0000 -2.7918 0.0000
# 3 32.8402 42.4856 96.6093 0.0000 -15.3246 0.0000
# 4 0.0000 0.0000 0.0000 30.8064 0.0000 -4.0489
# 5 -6.7977 -2.7918 -15.3246 0.0000 29.6048 0.0000
# 6 0.0000 0.0000 0.0000 -4.0489 0.0000 21.4676
#
#
#
# Elastic Compliance Matrix: (Units=1/GPa)
#
#
# Indices 1 2 3 4 5 6 
#
# 1 0.017740 -0.004861 -0.003616 0.000000 0.001743 0.000000
# 2 -0.004861 0.010405 -0.003208 0.000000 -0.001796 0.000000
# 3 -0.003616 -0.003208 0.013957 0.000000 0.006092 0.000000
# 4 0.000000 0.000000 0.000000 0.033286 0.000000 0.006278
# 5 0.001743 -0.001796 0.006092 0.000000 0.037163 0.000000
# 6 0.000000 0.000000 0.000000 0.006278 0.000000 0.047766
#
#
# Mechanical properties :
#
#
# Convention : Reuss Voigt Hill
#
# Bulk Modulus (GPa) = 53.38620 60.16360 56.77490
# Shear Modulus (GPa) = 26.32525 28.52558 27.42542
#
# Velocity S-wave (km/s) = 3.72130 3.87370 3.79826
# Velocity P-wave (km/s) = 6.82255 7.18719 7.00724
#
# Compressibility (1/GPa) = 0.01873143
#
# Stress axis : x y z
#
# Youngs Moduli (GPa) = 56.36959 96.10721 71.64719
#
# Poissons Ratio (x) = 0.46722 0.25907
# Poissons Ratio (y) = 0.27404 0.22985
# Poissons Ratio (z) = 0.20383 0.30832
#
# Static dielectric constant tensor:
#      x y z
#    x 3.258590 0.000000 -0.193470 
#    y 0.000000 3.588700 0.000000 
#    z -0.193470 0.000000 3.452860 
# 
# 
# High freq. dielectric constant tensor:
#      x y z
#    x 1.709550 0.000000 -0.020920 
#    y 0.000000 1.743670 0.000000 
#    z -0.020920 0.000000 1.739300 
# 
# From -- ./inp_files/16843.got.cif
#   From: 2010.06.25/outbox.cif.g09.slc.cpg/sg13_9_cif.got.tgz:16843.got - 2010.06.28 04:50:58.
