data_PCOD8121384
_publ_section_title
;
Structure prediction by ZEFSAII (Michael W. Deem and Ramdas Pophale) SiO2 
 PCOD8121384
Probable space group: P 2/C
;
_chemical_formula_sum "Si O2"
_cell_formula_units_Z 18
_cell_length_a 15.647456
_cell_length_b 6.330745
_cell_length_c 13.970007
_cell_angle_alpha 90.000000
_cell_angle_beta 143.439440
_cell_angle_gamma 90.000000
_cell_volume 824.332549
_symmetry_space_group_name_H-M "P 2/C"
_symmetry_group_IT_number 13
_symmetry_cell_setting 'monoclinic'
loop_
_space_group_symop_operation_xyz
x,y,z
-x,y,1/2-z
-x,-y,-z
x,-y,1/2+z
loop_
_atom_site_type_symbol
_atom_site_label
_atom_site_fract_x
_atom_site_fract_y
_atom_site_fract_z
Si Si1 0.757512 0.906244 0.983594
Si Si2 0.369287 0.874389 0.831413
Si Si3 0.441834 0.583344 0.600035
Si Si4 0.799009 0.274678 0.157364
Si Si5 0.000000 0.406129 0.750000
O O1 0.688202 0.975556 0.819896
O O2 0.641617 0.801794 0.950291
O O3 0.887368 0.737250 0.090037
O O4 0.817383 0.120215 0.083872
O O5 0.430450 0.643028 0.857689
O O6 0.222987 0.857046 0.764120
O O7 0.500000 0.000000 0.000000
O O8 0.500000 0.482960 0.750000
O O9 0.350102 0.399216 0.472680
O O10 0.926589 0.445650 0.265457
#
# Coordination Sequence:
#
# PCOD8121384 Si02
#       5
#     4   4   4   4   2
#     4  10  22  42  62  93 131 166 210 268 307 376
#     4  11  22  38  66 102 132 160 207 266 331 383
#     4   9  20  36  60  95 130 161 204 256 320 387
#     4  11  22  40  68  87 127 177 205 268 314 374
#     4  10  24  46  62  86 126 176 232 244 310 378
#
# _framework density 21.835847000000001
#
# number of rings (size 3 to 8) (size 9 to 14) (size 15 to 20)
#    0.000    1.778    2.222    1.333    3.111    0.889 
#    4.000    4.444    0.000    0.000    0.000    0.000 
#    0.000    0.000    0.000    0.000    0.000    0.000 
#
# Total GULP energy -223017.964472 kJ/mol
# GULP energy per Si atom -12389.886915 kJ/mol
# Density = 2.178615 g / cm^3
# Si number density = 21.835847 Si / 1000 Ang^3
#
#
#
# Elastic Constant Matrix: (Units=GPa)
#
#
# Indices 1 2 3 4 5 6 
#
# 1 120.0294 41.8718 39.7294 0.0000 -1.2656 0.0000
# 2 41.8718 74.6984 28.3928 0.0000 -7.9991 0.0000
# 3 39.7294 28.3928 76.9971 0.0000 -2.2253 0.0000
# 4 0.0000 0.0000 0.0000 15.9065 0.0000 1.3754
# 5 -1.2656 -7.9991 -2.2253 0.0000 31.1407 0.0000
# 6 0.0000 0.0000 0.0000 1.3754 0.0000 14.4936
#
#
#
# Elastic Compliance Matrix: (Units=1/GPa)
#
#
# Indices 1 2 3 4 5 6 
#
# 1 0.011401 -0.004955 -0.004087 0.000000 -0.001102 0.000000
# 2 -0.004955 0.018136 -0.004010 0.000000 0.004171 0.000000
# 3 -0.004087 -0.004010 0.016575 0.000000 -0.000012 0.000000
# 4 0.000000 0.000000 0.000000 0.063387 0.000000 -0.006015
# 5 -0.001102 0.004171 -0.000012 0.000000 0.033138 0.000000
# 6 0.000000 0.000000 0.000000 -0.006015 0.000000 0.069567
#
#
# Mechanical properties :
#
#
# Convention : Reuss Voigt Hill
#
# Bulk Modulus (GPa) = 49.98466 54.63476 52.30971
# Shear Modulus (GPa) = 20.40994 23.09023 21.75008
#
# Velocity S-wave (km/s) = 3.06060 3.25537 3.15949
# Velocity P-wave (km/s) = 5.95235 6.26138 6.10882
#
# Compressibility (1/GPa) = 0.02000614
#
# Stress axis : x y z
#
# Youngs Moduli (GPa) = 87.70988 55.13992 60.33184
#
# Poissons Ratio (x) = 0.27323 0.24660
# Poissons Ratio (y) = 0.43462 0.24194
# Poissons Ratio (z) = 0.35851 0.22112
#
# Static dielectric constant tensor:
#      x y z
#    x 3.997600 0.000000 0.084380 
#    y 0.000000 3.751100 0.000000 
#    z 0.084380 0.000000 3.853650 
# 
# 
# High freq. dielectric constant tensor:
#      x y z
#    x 1.864060 0.000000 0.005820 
#    y 0.000000 1.853040 0.000000 
#    z 0.005820 0.000000 1.838870 
# 
# From -- ./inp_files/48581.got.cif
#   From: 2010.06.25/outbox.cif.g09.slc.cpg/sg13_25_cif.got.tgz:48581.got - 2010.06.28 04:50:58.
