data_PCOD8121167
_publ_section_title
;
Structure prediction by ZEFSAII (Michael W. Deem and Ramdas Pophale) SiO2 
 PCOD8121167
Probable space group: P 2/C
;
_chemical_formula_sum "Si O2"
_cell_formula_units_Z 30
_cell_length_a 17.046811
_cell_length_b 14.279345
_cell_length_c 11.545714
_cell_angle_alpha 90.000000
_cell_angle_beta 31.181908
_cell_angle_gamma 90.000000
_cell_volume 1455.117670
_symmetry_space_group_name_H-M "P 2/C"
_symmetry_group_IT_number 13
_symmetry_cell_setting 'monoclinic'
loop_
_space_group_symop_operation_xyz
x,y,z
-x,y,1/2-z
-x,-y,-z
x,-y,1/2+z
loop_
_atom_site_type_symbol
_atom_site_label
_atom_site_fract_x
_atom_site_fract_y
_atom_site_fract_z
Si Si1 0.820767 0.599425 0.806882
Si Si2 0.192062 0.747185 0.237408
Si Si3 0.020858 0.414563 0.849006
Si Si4 0.500000 0.655863 0.250000
Si Si5 0.553909 0.217242 0.907103
Si Si6 0.925961 0.804737 0.722386
Si Si7 0.642719 0.139945 0.153067
Si Si8 0.339399 0.930294 0.389133
O O1 0.915403 0.519034 0.752628
O O2 0.859250 0.700086 0.813069
O O3 0.860841 0.589251 0.619542
O O4 0.641753 0.586566 0.053333
O O5 0.140081 0.642071 0.276229
O O6 0.331264 0.732026 0.149725
O O7 0.054515 0.809651 0.461796
O O8 0.233220 0.795656 0.064516
O O9 0.000000 0.367587 0.750000
O O10 0.487860 0.719497 0.150226
O O11 0.642972 0.124706 0.753817
O O12 0.401715 0.185884 0.167403
O O13 0.000000 0.832009 0.750000
O O14 0.790190 0.879030 0.869125
O O15 0.500000 0.132980 0.250000
O O16 0.709612 0.035415 0.082674
O O17 0.500000 0.926350 0.250000
#
# Coordination Sequence:
#
# PCOD8121167 Si02
#       8
#     4   4   4   2   4   4   4   4
#     4  10  22  40  62  94 123 159 207 256 310 372
#     4  10  22  41  62  89 123 168 207 260 315 374
#     4  10  23  43  66  87 125 167 206 251 321 379
#     4  12  22  38  66  98 124 164 212 266 306 370
#     4  11  20  39  63  90 128 163 211 255 317 375
#     4  11  19  36  64  88 125 160 208 262 312 366
#     4   9  22  38  59  87 127 167 207 255 320 378
#     4  11  20  37  62  92 121 167 212 261 313 375
#
# _framework density 20.616887999999999
#
# number of rings (size 3 to 8) (size 9 to 14) (size 15 to 20)
#    0.000    1.600    3.333    0.800    1.867    2.667 
#    3.600    2.000    0.000    0.000    0.000    0.000 
#    0.000    0.000    0.000    0.000    0.000    0.000 
#
# Total GULP energy -371934.503434 kJ/mol
# GULP energy per Si atom -12397.816781 kJ/mol
# Density = 2.056996 g / cm^3
# Si number density = 20.616888 Si / 1000 Ang^3
#
#
#
# Elastic Constant Matrix: (Units=GPa)
#
#
# Indices 1 2 3 4 5 6 
#
# 1 82.0981 26.0456 33.3130 0.0000 11.8633 0.0000
# 2 26.0456 84.0770 51.6350 0.0000 0.8289 0.0000
# 3 33.3130 51.6350 157.3970 0.0000 6.6674 0.0000
# 4 0.0000 0.0000 0.0000 30.4080 0.0000 1.3309
# 5 11.8633 0.8289 6.6674 0.0000 32.3358 0.0000
# 6 0.0000 0.0000 0.0000 1.3309 0.0000 17.2671
#
#
#
# Elastic Compliance Matrix: (Units=1/GPa)
#
#
# Indices 1 2 3 4 5 6 
#
# 1 0.014699 -0.003410 -0.001783 0.000000 -0.004938 0.000000
# 2 -0.003410 0.015698 -0.004504 0.000000 0.001777 0.000000
# 3 -0.001783 -0.004504 0.008248 0.000000 -0.000931 0.000000
# 4 0.000000 0.000000 0.000000 0.032997 0.000000 -0.002543
# 5 -0.004938 0.001777 -0.000931 0.000000 0.032883 0.000000
# 6 0.000000 0.000000 0.000000 -0.002543 0.000000 0.058110
#
#
# Mechanical properties :
#
#
# Convention : Reuss Voigt Hill
#
# Bulk Modulus (GPa) = 51.94214 60.61771 56.27993
# Shear Modulus (GPa) = 26.53270 30.17409 28.35340
#
# Velocity S-wave (km/s) = 3.59129 3.82980 3.71246
# Velocity P-wave (km/s) = 6.51499 7.00159 6.76267
#
# Compressibility (1/GPa) = 0.01925219
#
# Stress axis : x y z
#
# Youngs Moduli (GPa) = 68.02984 63.70068 121.24639
#
# Poissons Ratio (x) = 0.21720 0.21623
# Poissons Ratio (y) = 0.23196 0.54604
# Poissons Ratio (z) = 0.12132 0.28688
#
# Static dielectric constant tensor:
#      x y z
#    x 3.489840 0.000000 0.071820 
#    y 0.000000 3.654610 0.000000 
#    z 0.071820 0.000000 4.134950 
# 
# 
# High freq. dielectric constant tensor:
#      x y z
#    x 1.790380 0.000000 0.008420 
#    y 0.000000 1.795170 0.000000 
#    z 0.008420 0.000000 1.820450 
# 
# From -- ./inp_files/39384.got.cif
#   From: 2010.06.25/outbox.cif.g09.slc.cpg/sg13_20_cif.got.tgz:39384.got - 2010.06.28 04:50:58.
