data_PCOD8121383
_publ_section_title
;
Structure prediction by ZEFSAII (Michael W. Deem and Ramdas Pophale) SiO2 
 PCOD8121383
Probable space group: P 2/C
;
_chemical_formula_sum "Si O2"
_cell_formula_units_Z 24
_cell_length_a 15.246235
_cell_length_b 6.442111
_cell_length_c 14.043536
_cell_angle_alpha 90.000000
_cell_angle_beta 122.539602
_cell_angle_gamma 90.000000
_cell_volume 1162.800197
_symmetry_space_group_name_H-M "P 2/C"
_symmetry_group_IT_number 13
_symmetry_cell_setting 'monoclinic'
loop_
_space_group_symop_operation_xyz
x,y,z
-x,y,1/2-z
-x,-y,-z
x,-y,1/2+z
loop_
_atom_site_type_symbol
_atom_site_label
_atom_site_fract_x
_atom_site_fract_y
_atom_site_fract_z
Si Si1 0.457352 0.007852 0.326010
Si Si2 0.226143 0.852141 0.709996
Si Si3 0.780780 0.494231 0.650567
Si Si4 0.132855 0.428753 0.002561
Si Si5 0.438925 0.702716 0.479979
Si Si6 0.082492 0.750172 0.126928
O O1 0.500000 0.929511 0.250000
O O2 0.333479 0.034377 0.250856
O O3 0.525080 0.208555 0.396362
O O4 0.481793 0.839065 0.419036
O O5 0.236741 0.725430 0.816068
O O6 0.213878 0.688436 0.617670
O O7 0.129987 0.016786 0.656866
O O8 0.812725 0.513893 0.559979
O O9 0.683155 0.339478 0.598121
O O10 0.871156 0.386506 0.761986
O O11 0.041475 0.261127 0.926627
O O12 0.097144 0.641106 0.032966
O O13 0.500000 0.500000 0.500000
#
# Coordination Sequence:
#
# PCOD8121383 Si02
#       6
#     4   4   4   4   4   4
#     4  11  24  41  64  93 127 166 212 258 312 372
#     4  11  22  41  65  93 128 163 212 262 306 380
#     4  11  22  41  64  91 130 167 205 259 319 370
#     4  10  23  40  65  91 123 168 207 258 318 372
#     4  11  23  42  62  92 128 164 211 258 310 380
#     4  10  22  42  62  93 128 157 214 261 307 379
#
# _framework density 20.639832999999999
#
# number of rings (size 3 to 8) (size 9 to 14) (size 15 to 20)
#    0.000    1.333    3.333    2.000    0.000    3.333 
#    0.000    5.000    0.000    0.000    0.000    0.000 
#    0.000    0.000    0.000    0.000    0.000    0.000 
#
# Total GULP energy -297532.841849 kJ/mol
# GULP energy per Si atom -12397.201744 kJ/mol
# Density = 2.059286 g / cm^3
# Si number density = 20.639833 Si / 1000 Ang^3
#
#
#
# Elastic Constant Matrix: (Units=GPa)
#
#
# Indices 1 2 3 4 5 6 
#
# 1 91.5153 32.3802 41.5549 0.0000 -19.0675 0.0000
# 2 32.3802 72.2730 14.5171 0.0000 -2.2711 0.0000
# 3 41.5549 14.5171 84.4291 0.0000 -5.7615 0.0000
# 4 0.0000 0.0000 0.0000 40.4858 0.0000 10.8266
# 5 -19.0675 -2.2711 -5.7615 0.0000 42.2052 0.0000
# 6 0.0000 0.0000 0.0000 10.8266 0.0000 26.3379
#
#
#
# Elastic Compliance Matrix: (Units=1/GPa)
#
#
# Indices 1 2 3 4 5 6 
#
# 1 0.017862 -0.006336 -0.007242 0.000000 0.006740 0.000000
# 2 -0.006336 0.016587 0.000133 0.000000 -0.001952 0.000000
# 3 -0.007242 0.000133 0.015306 0.000000 -0.001175 0.000000
# 4 0.000000 0.000000 0.000000 0.027751 0.000000 -0.011407
# 5 0.006740 -0.001952 -0.001175 0.000000 0.026473 0.000000
# 6 0.000000 0.000000 0.000000 -0.011407 0.000000 0.042657
#
#
# Mechanical properties :
#
#
# Convention : Reuss Voigt Hill
#
# Bulk Modulus (GPa) = 43.73519 47.23578 45.48548
# Shear Modulus (GPa) = 27.60202 32.45679 30.02940
#
# Velocity S-wave (km/s) = 3.66090 3.96982 3.81849
# Velocity P-wave (km/s) = 6.25342 6.62933 6.44412
#
# Compressibility (1/GPa) = 0.02286488
#
# Stress axis : x y z
#
# Youngs Moduli (GPa) = 55.98582 60.28802 65.33595
#
# Poissons Ratio (x) = 0.38199 0.47316
# Poissons Ratio (y) = 0.35473 -0.00871
# Poissons Ratio (z) = 0.40544 -0.00804
#
# Static dielectric constant tensor:
#      x y z
#    x 3.567840 0.000000 -0.037140 
#    y 0.000000 3.828290 0.000000 
#    z -0.037140 0.000000 3.829120 
# 
# 
# High freq. dielectric constant tensor:
#      x y z
#    x 1.800170 0.000000 0.009120 
#    y 0.000000 1.805210 0.000000 
#    z 0.009120 0.000000 1.826730 
# 
# From -- ./inp_files/52106.got.cif
#   From: 2010.06.25/outbox.cif.g09.slc.cpg/sg13_27_cif.got.tgz:52106.got - 2010.06.28 04:50:58.
