data_PCOD8121058
_publ_section_title
;
Structure prediction by ZEFSAII (Michael W. Deem and Ramdas Pophale) SiO2 
 PCOD8121058
Probable space group: P 2/C
;
_chemical_formula_sum "Si O2"
_cell_formula_units_Z 28
_cell_length_a 18.522851
_cell_length_b 13.734759
_cell_length_c 9.803330
_cell_angle_alpha 90.000000
_cell_angle_beta 37.560369
_cell_angle_gamma 90.000000
_cell_volume 1520.356091
_symmetry_space_group_name_H-M "P 2/C"
_symmetry_group_IT_number 13
_symmetry_cell_setting 'monoclinic'
loop_
_space_group_symop_operation_xyz
x,y,z
-x,y,1/2-z
-x,-y,-z
x,-y,1/2+z
loop_
_atom_site_type_symbol
_atom_site_label
_atom_site_fract_x
_atom_site_fract_y
_atom_site_fract_z
Si Si1 0.237120 0.100095 0.862210
Si Si2 0.135376 0.590544 0.388987
Si Si3 0.505837 0.905592 0.582757
Si Si4 0.145404 0.577459 0.679046
Si Si5 0.738272 0.128756 0.148401
Si Si6 0.839357 0.788885 0.760052
Si Si7 0.114085 0.800075 0.312812
O O1 0.368248 0.145306 0.638137
O O2 0.157945 0.113107 0.845421
O O3 0.242860 0.986729 0.890186
O O4 0.173495 0.157781 0.077293
O O5 0.191403 0.570304 0.454275
O O6 0.191845 0.514368 0.196920
O O7 0.165142 0.699221 0.296018
O O8 0.995594 0.578139 0.608098
O O9 0.500000 0.934711 0.750000
O O10 0.392327 0.840346 0.711154
O O11 0.500000 0.000000 0.500000
O O12 0.194361 0.675785 0.674172
O O13 0.749886 0.163618 0.286301
O O14 0.836089 0.183945 0.912851
O O15 0.973466 0.801207 0.509592
#
# Coordination Sequence:
#
# PCOD8121058 Si02
#       7
#     4   4   4   4   4   4   4
#     4  11  22  38  58  77 113 151 190 230 269 321
#     4   9  18  32  53  75 107 145 182 226 269 321
#     4  10  22  39  59  78 102 143 199 243 271 306
#     4   9  18  33  51  77 107 143 184 224 270 322
#     4  11  24  36  55  82 112 149 191 229 268 324
#     4  11  23  35  54  85 118 148 182 222 278 344
#     4  11  21  37  54  82 119 150 180 222 280 339
#
# _framework density 18.416737999999999
#
# number of rings (size 3 to 8) (size 9 to 14) (size 15 to 20)
#    0.000    1.714    2.857    1.714    8.000    3.429 
#    0.000    0.000    0.000    0.000    0.000    6.000 
#    0.000    0.000    0.000    0.000    0.000    0.000 
#
# Total GULP energy -347202.377466 kJ/mol
# GULP energy per Si atom -12400.084910 kJ/mol
# Density = 1.837482 g / cm^3
# Si number density = 18.416738 Si / 1000 Ang^3
#
#
#
# Elastic Constant Matrix: (Units=GPa)
#
#
# Indices 1 2 3 4 5 6 
#
# 1 88.1909 20.0334 22.8952 0.0000 4.9842 0.0000
# 2 20.0334 79.8343 25.7087 0.0000 1.1830 0.0000
# 3 22.8952 25.7087 65.6976 0.0000 7.3230 0.0000
# 4 0.0000 0.0000 0.0000 10.9778 0.0000 12.3160
# 5 4.9842 1.1830 7.3230 0.0000 23.9335 0.0000
# 6 0.0000 0.0000 0.0000 12.3160 0.0000 22.3763
#
#
#
# Elastic Compliance Matrix: (Units=1/GPa)
#
#
# Indices 1 2 3 4 5 6 
#
# 1 0.012798 -0.002067 -0.003484 0.000000 -0.001497 0.000000
# 2 -0.002067 0.014691 -0.005172 0.000000 0.001287 0.000000
# 3 -0.003484 -0.005172 0.018998 0.000000 -0.004832 0.000000
# 4 0.000000 0.000000 0.000000 0.238151 0.000000 -0.131080
# 5 -0.001497 0.001287 -0.004832 0.000000 0.043509 0.000000
# 6 0.000000 0.000000 0.000000 -0.131080 0.000000 0.116837
#
#
# Mechanical properties :
#
#
# Convention : Reuss Voigt Hill
#
# Bulk Modulus (GPa) = 39.93588 41.22193 40.57890
# Shear Modulus (GPa) = 10.53125 22.46321 16.49723
#
# Velocity S-wave (km/s) = 2.39389 3.49623 2.99619
# Velocity P-wave (km/s) = 5.41965 6.22331 5.83533
#
# Compressibility (1/GPa) = 0.02504014
#
# Stress axis : x y z
#
# Youngs Moduli (GPa) = 78.13868 68.06825 52.63737
#
# Poissons Ratio (x) = 0.14072 0.18340
# Poissons Ratio (y) = 0.16153 0.27224
# Poissons Ratio (z) = 0.27225 0.35204
#
# Static dielectric constant tensor:
#      x y z
#    x 3.548980 0.000000 0.005880 
#    y 0.000000 3.373530 0.000000 
#    z 0.005880 0.000000 3.550210 
# 
# 
# High freq. dielectric constant tensor:
#      x y z
#    x 1.714030 0.000000 0.025660 
#    y 0.000000 1.698070 0.000000 
#    z 0.025660 0.000000 1.705820 
# 
# From -- ./inp_files/16453.got.cif
#   From: 2010.06.25/outbox.cif.g09.slc.cpg/sg13_9_cif.got.tgz:16453.got - 2010.06.28 04:50:58.
