data_PCOD8121156
_publ_section_title
;
Structure prediction by ZEFSAII (Michael W. Deem and Ramdas Pophale) SiO2 
 PCOD8121156
Probable space group: P 2/C
;
_chemical_formula_sum "Si O2"
_cell_formula_units_Z 20
_cell_length_a 19.978339
_cell_length_b 5.317489
_cell_length_c 10.509453
_cell_angle_alpha 90.000000
_cell_angle_beta 50.687056
_cell_angle_gamma 90.000000
_cell_volume 863.807677
_symmetry_space_group_name_H-M "P 2/C"
_symmetry_group_IT_number 13
_symmetry_cell_setting 'monoclinic'
loop_
_space_group_symop_operation_xyz
x,y,z
-x,y,1/2-z
-x,-y,-z
x,-y,1/2+z
loop_
_atom_site_type_symbol
_atom_site_label
_atom_site_fract_x
_atom_site_fract_y
_atom_site_fract_z
Si Si1 0.413962 0.063838 0.773419
Si Si2 0.274054 0.337785 0.074172
Si Si3 0.057784 0.754422 0.558018
Si Si4 0.105369 0.253597 0.410005
Si Si5 0.646935 0.555587 0.753600
O O1 0.500000 0.037832 0.750000
O O2 0.418507 0.315973 0.679170
O O3 0.404320 0.817858 0.697526
O O4 0.332320 0.093531 0.968581
O O5 0.173636 0.259511 0.210999
O O6 0.305566 0.457987 0.168913
O O7 0.283656 0.538100 0.947012
O O8 0.116612 0.502538 0.484388
O O9 0.000000 0.770699 0.750000
O O10 0.993956 0.751417 0.514143
O O11 0.120872 0.998517 0.473151
#
# Coordination Sequence:
#
# PCOD8121156 Si02
#       5
#     4   4   4   4   4
#     4  10  24  43  66  98 131 170 217 271 325 386
#     4  10  26  42  67  98 131 172 220 265 327 384
#     4  10  22  40  61  90 123 164 207 258 315 373
#     4  10  23  38  62  90 123 164 209 257 313 375
#     4  10  25  41  66  96 130 171 217 268 325 384
#
# _framework density 23.153300999999999
#
# number of rings (size 3 to 8) (size 9 to 14) (size 15 to 20)
#    1.200    0.800    0.000    1.200    8.400    3.200 
#    0.000    0.000    0.000    0.000    0.000    0.000 
#    0.000    0.000    0.000    0.000    0.000    0.000 
#
# Total GULP energy -247837.084652 kJ/mol
# GULP energy per Si atom -12391.854233 kJ/mol
# Density = 2.310060 g / cm^3
# Si number density = 23.153301 Si / 1000 Ang^3
#
#
#
# Elastic Constant Matrix: (Units=GPa)
#
#
# Indices 1 2 3 4 5 6 
#
# 1 51.6026 7.8953 -2.2630 0.0000 8.1985 0.0000
# 2 7.8953 189.6228 18.6260 0.0000 4.9257 0.0000
# 3 -2.2630 18.6260 40.9432 0.0000 10.6663 0.0000
# 4 0.0000 0.0000 0.0000 23.5638 0.0000 -2.1921
# 5 8.1985 4.9257 10.6663 0.0000 43.2383 0.0000
# 6 0.0000 0.0000 0.0000 -2.1921 0.0000 11.5467
#
#
#
# Elastic Compliance Matrix: (Units=1/GPa)
#
#
# Indices 1 2 3 4 5 6 
#
# 1 0.020354 -0.001001 0.002732 0.000000 -0.004419 0.000000
# 2 -0.001001 0.005570 -0.002643 0.000000 0.000207 0.000000
# 3 0.002732 -0.002643 0.027608 0.000000 -0.007027 0.000000
# 4 0.000000 0.000000 0.000000 0.043201 0.000000 0.008202
# 5 -0.004419 0.000207 -0.007027 0.000000 0.025676 0.000000
# 6 0.000000 0.000000 0.000000 0.008202 0.000000 0.088162
#
#
# Mechanical properties :
#
#
# Convention : Reuss Voigt Hill
#
# Bulk Modulus (GPa) = 19.33983 36.74282 28.04133
# Shear Modulus (GPa) = 21.77410 32.86378 27.31894
#
# Velocity S-wave (km/s) = 3.06997 3.77158 3.43872
# Velocity P-wave (km/s) = 4.57574 5.90510 5.28241
#
# Compressibility (1/GPa) = 0.05170676
#
# Stress axis : x y z
#
# Youngs Moduli (GPa) = 49.13055 179.54809 36.22115
#
# Poissons Ratio (x) = 0.17973 -0.09894
# Poissons Ratio (y) = 0.04918 0.09573
# Poissons Ratio (z) = -0.13421 0.47455
#
# Static dielectric constant tensor:
#      x y z
#    x 3.917250 0.000000 -0.071940 
#    y 0.000000 4.482240 0.000000 
#    z -0.071940 0.000000 3.939500 
# 
# 
# High freq. dielectric constant tensor:
#      x y z
#    x 1.893670 0.000000 0.002740 
#    y 0.000000 1.922340 0.000000 
#    z 0.002740 0.000000 1.906970 
# 
# From -- ./inp_files/41047.got.cif
#   From: 2010.06.25/outbox.cif.g09.slc.cpg/sg13_21_cif.got.tgz:41047.got - 2010.06.28 04:50:58.
