data_PCOD8121163
_publ_section_title
;
Structure prediction by ZEFSAII (Michael W. Deem and Ramdas Pophale) SiO2 
 PCOD8121163
Probable space group: P 2/C
;
_chemical_formula_sum "Si O2"
_cell_formula_units_Z 26
_cell_length_a 8.006259
_cell_length_b 7.968652
_cell_length_c 23.237179
_cell_angle_alpha 90.000000
_cell_angle_beta 56.300891
_cell_angle_gamma 90.000000
_cell_volume 1233.393859
_symmetry_space_group_name_H-M "P 2/C"
_symmetry_group_IT_number 13
_symmetry_cell_setting 'monoclinic'
loop_
_space_group_symop_operation_xyz
x,y,z
-x,y,1/2-z
-x,-y,-z
x,-y,1/2+z
loop_
_atom_site_type_symbol
_atom_site_label
_atom_site_fract_x
_atom_site_fract_y
_atom_site_fract_z
Si Si1 0.973115 0.748040 0.012259
Si Si2 0.350702 0.923292 0.612854
Si Si3 0.763118 0.989229 0.985851
Si Si4 0.500000 0.596442 0.250000
Si Si5 0.239578 0.752664 0.200687
Si Si6 0.850819 0.419776 0.331653
Si Si7 0.140371 0.548727 0.883738
O O1 0.772389 0.807446 0.016114
O O2 0.924326 0.613471 0.069011
O O3 0.137789 0.695307 0.932185
O O4 0.043469 0.905987 0.034759
O O5 0.205499 0.969082 0.588111
O O6 0.294334 0.740619 0.648258
O O7 0.568362 0.908332 0.542330
O O8 0.338142 0.072377 0.661771
O O9 0.347819 0.709932 0.240933
O O10 0.637150 0.474398 0.184510
O O11 0.275805 0.594663 0.149970
O O12 0.000000 0.781691 0.250000
O O13 0.000000 0.415579 0.250000
O O14 0.974509 0.414662 0.366921
#
# Coordination Sequence:
#
# PCOD8121163 Si02
#       7
#     4   4   4   2   4   4   4
#     4  10  22  41  65  92 131 176 216 277 337 392
#     4  11  23  42  63  96 128 175 223 273 335 398
#     4  10  22  40  62  91 130 168 223 277 320 407
#     4  12  24  42  70 100 136 172 234 282 328 414
#     4  11  24  44  66  95 135 176 217 280 335 398
#     4  11  22  43  65  93 135 178 215 275 342 394
#     4  11  22  41  66  97 130 177 221 274 339 396
#
# _framework density 21.080048000000001
#
# number of rings (size 3 to 8) (size 9 to 14) (size 15 to 20)
#    0.000    1.231    4.615    2.308    2.154    0.000 
#    0.000    3.077    0.000    0.000    0.000    0.000 
#    0.000    0.000    0.000    0.000    0.000    0.000 
#
# Total GULP energy -322181.588620 kJ/mol
# GULP energy per Si atom -12391.599562 kJ/mol
# Density = 2.103207 g / cm^3
# Si number density = 21.080048 Si / 1000 Ang^3
#
#
#
# Elastic Constant Matrix: (Units=GPa)
#
#
# Indices 1 2 3 4 5 6 
#
# 1 72.3841 6.4218 10.9449 0.0000 9.6813 0.0000
# 2 6.4218 87.9060 17.8382 0.0000 10.3516 0.0000
# 3 10.9449 17.8382 82.7314 0.0000 4.3279 0.0000
# 4 0.0000 0.0000 0.0000 19.6679 0.0000 7.5921
# 5 9.6813 10.3516 4.3279 0.0000 24.1822 0.0000
# 6 0.0000 0.0000 0.0000 7.5921 0.0000 28.0570
#
#
#
# Elastic Compliance Matrix: (Units=1/GPa)
#
#
# Indices 1 2 3 4 5 6 
#
# 1 0.014821 -0.000089 -0.001649 0.000000 -0.005601 0.000000
# 2 -0.000089 0.012445 -0.002417 0.000000 -0.004859 0.000000
# 3 -0.001649 -0.002417 0.012858 0.000000 -0.000606 0.000000
# 4 0.000000 0.000000 0.000000 0.056775 0.000000 -0.015363
# 5 -0.005601 -0.004859 -0.000606 0.000000 0.045783 0.000000
# 6 0.000000 0.000000 0.000000 -0.015363 0.000000 0.039799
#
#
# Mechanical properties :
#
#
# Convention : Reuss Voigt Hill
#
# Bulk Modulus (GPa) = 31.43142 34.82568 33.12855
# Shear Modulus (GPa) = 24.82665 28.23587 26.53126
#
# Velocity S-wave (km/s) = 3.43553 3.66383 3.55152
# Velocity P-wave (km/s) = 5.53896 5.86982 5.70679
#
# Compressibility (1/GPa) = 0.03181529
#
# Stress axis : x y z
#
# Youngs Moduli (GPa) = 67.46989 80.35340 77.77030
#
# Poissons Ratio (x) = 0.00712 0.12822
# Poissons Ratio (y) = 0.00598 0.18800
# Poissons Ratio (z) = 0.11124 0.19425
#
# Static dielectric constant tensor:
#      x y z
#    x 4.015470 0.000000 0.352420 
#    y 0.000000 4.110360 0.000000 
#    z 0.352420 0.000000 3.870210 
# 
# 
# High freq. dielectric constant tensor:
#      x y z
#    x 1.830460 0.000000 0.017150 
#    y 0.000000 1.830230 0.000000 
#    z 0.017150 0.000000 1.820410 
# 
# From -- ./inp_files/75909.got.cif
#   From: 2010.06.25/outbox.cif.g09.slc.cpg/sg13_38_cif.got.tgz:75909.got - 2010.06.28 04:50:58.
