data_PCOD8121344
_publ_section_title
;
Structure prediction by ZEFSAII (Michael W. Deem and Ramdas Pophale) SiO2 
 PCOD8121344
Probable space group: P 2/C
;
_chemical_formula_sum "Si O2"
_cell_formula_units_Z 28
_cell_length_a 28.384611
_cell_length_b 9.489794
_cell_length_c 9.562399
_cell_angle_alpha 90.000000
_cell_angle_beta 32.250212
_cell_angle_gamma 90.000000
_cell_volume 1374.474778
_symmetry_space_group_name_H-M "P 2/C"
_symmetry_group_IT_number 13
_symmetry_cell_setting 'monoclinic'
loop_
_space_group_symop_operation_xyz
x,y,z
-x,y,1/2-z
-x,-y,-z
x,-y,1/2+z
loop_
_atom_site_type_symbol
_atom_site_label
_atom_site_fract_x
_atom_site_fract_y
_atom_site_fract_z
Si Si1 0.208029 0.490783 0.743460
Si Si2 0.908169 0.578658 0.711523
Si Si3 0.909831 0.081385 0.246890
Si Si4 0.686182 0.234108 0.952474
Si Si5 0.798775 0.994846 0.774406
Si Si6 0.691205 0.742669 0.107778
Si Si7 0.502333 0.139481 0.083910
O O1 0.125117 0.531835 0.856312
O O2 0.257195 0.342579 0.597237
O O3 0.289931 0.593405 0.509329
O O4 0.166193 0.487587 0.002028
O O5 0.918562 0.749196 0.699955
O O6 0.000000 0.500000 0.500000
O O7 0.881017 0.046480 0.476151
O O8 0.835638 0.004765 0.339396
O O9 0.000000 0.000000 0.000000
O O10 0.713428 0.088019 0.955401
O O11 0.711569 0.247971 0.723809
O O12 0.580585 0.243492 0.237910
O O13 0.760223 0.839056 0.848757
O O14 0.589969 0.774305 0.328535
O O15 0.500000 0.089892 0.250000
O O16 0.500000 0.000000 0.000000
#
# Coordination Sequence:
#
# PCOD8121344 Si02
#       7
#     4   4   4   4   4   4   4
#     4  12  23  47  68  90 138 176 222 265 331 402
#     4  12  28  46  64  97 132 172 221 280 333 391
#     4  12  28  44  64  99 128 166 223 274 331 387
#     4  11  23  44  67 101 133 173 219 270 331 392
#     4  12  21  43  68  90 136 164 216 269 321 396
#     4  11  23  44  67 101 133 173 219 270 331 392
#     4  10  22  41  68 100 140 168 214 283 328 388
#
# _framework density 20.371417000000001
#
# number of rings (size 3 to 8) (size 9 to 14) (size 15 to 20)
#    0.000    0.571    7.143    0.857    4.000    2.857 
#    2.571    0.000    0.000    0.000    0.000    0.000 
#    0.000    0.000    0.000    0.000    0.000    0.000 
#
# Total GULP energy -346908.876165 kJ/mol
# GULP energy per Si atom -12389.602720 kJ/mol
# Density = 2.032505 g / cm^3
# Si number density = 20.371417 Si / 1000 Ang^3
#
#
#
# Elastic Constant Matrix: (Units=GPa)
#
#
# Indices 1 2 3 4 5 6 
#
# 1 75.5977 45.4638 37.4983 0.0000 -18.6370 0.0000
# 2 45.4638 103.4221 48.2655 0.0000 -4.9750 0.0000
# 3 37.4983 48.2655 95.0709 0.0000 -24.7018 0.0000
# 4 0.0000 0.0000 0.0000 37.0297 0.0000 -4.3867
# 5 -18.6370 -4.9750 -24.7018 0.0000 33.3844 0.0000
# 6 0.0000 0.0000 0.0000 -4.3867 0.0000 36.5761
#
#
#
# Elastic Compliance Matrix: (Units=1/GPa)
#
#
# Indices 1 2 3 4 5 6 
#
# 1 0.021285 -0.008016 -0.001917 0.000000 0.009269 0.000000
# 2 -0.008016 0.016040 -0.006838 0.000000 -0.007144 0.000000
# 3 -0.001917 -0.006838 0.017584 0.000000 0.010921 0.000000
# 4 0.000000 0.000000 0.000000 0.027395 0.000000 0.003285
# 5 0.009269 -0.007144 0.010921 0.000000 0.042145 0.000000
# 6 0.000000 0.000000 0.000000 0.003285 0.000000 0.027734
#
#
# Mechanical properties :
#
#
# Convention : Reuss Voigt Hill
#
# Bulk Modulus (GPa) = 46.80225 59.61621 53.20923
# Shear Modulus (GPa) = 25.92728 30.92227 28.42478
#
# Velocity S-wave (km/s) = 3.57140 3.90028 3.73946
# Velocity P-wave (km/s) = 6.32700 7.04351 6.69485
#
# Compressibility (1/GPa) = 0.02136649
#
# Stress axis : x y z
#
# Youngs Moduli (GPa) = 46.98184 62.34277 56.87067
#
# Poissons Ratio (x) = 0.49974 0.10904
# Poissons Ratio (y) = 0.37661 0.38887
# Poissons Ratio (z) = 0.09008 0.42629
#
# Static dielectric constant tensor:
#      x y z
#    x 3.825700 0.000000 -0.137630 
#    y 0.000000 3.725310 0.000000 
#    z -0.137630 0.000000 3.864430 
# 
# 
# High freq. dielectric constant tensor:
#      x y z
#    x 1.803010 0.000000 -0.015160 
#    y 0.000000 1.794980 0.000000 
#    z -0.015160 0.000000 1.806290 
# 
# From -- ./inp_files/24557.got.cif
#   From: 2010.06.25/outbox.cif.g09.slc.cpg/sg13_13_cif.got.tgz:24557.got - 2010.06.28 04:50:58.
