data_PCOD8121693
_publ_section_title
;
Structure prediction by ZEFSAII (Michael W. Deem and Ramdas Pophale) SiO2 
 PCOD8121693
Probable space group: P 2/C
;
_chemical_formula_sum "Si O2"
_cell_formula_units_Z 30
_cell_length_a 11.610537
_cell_length_b 18.090691
_cell_length_c 11.684070
_cell_angle_alpha 90.000000
_cell_angle_beta 35.846637
_cell_angle_gamma 90.000000
_cell_volume 1437.195270
_symmetry_space_group_name_H-M "P 2/C"
_symmetry_group_IT_number 13
_symmetry_cell_setting 'monoclinic'
loop_
_space_group_symop_operation_xyz
x,y,z
-x,y,1/2-z
-x,-y,-z
x,-y,1/2+z
loop_
_atom_site_type_symbol
_atom_site_label
_atom_site_fract_x
_atom_site_fract_y
_atom_site_fract_z
Si Si1 0.381971 0.490643 0.969612
Si Si2 0.825364 0.660267 0.811195
Si Si3 0.043101 0.306085 0.921962
Si Si4 0.996247 0.853549 0.122619
Si Si5 0.538023 0.738550 0.345233
Si Si6 0.636709 0.942742 0.739905
Si Si7 0.596148 0.901019 0.358201
Si Si8 0.000000 0.592319 0.250000
O O1 0.282746 0.410781 0.050255
O O2 0.198647 0.546518 0.112917
O O3 0.500000 0.498881 0.750000
O O4 0.500000 0.500000 0.000000
O O5 0.000000 0.691158 0.750000
O O6 0.934393 0.645998 0.605395
O O7 0.658787 0.722434 0.924052
O O8 0.279557 0.305343 0.745824
O O9 0.972925 0.220677 0.976651
O O10 0.966139 0.351489 0.878581
O O11 0.000000 0.827972 0.250000
O O12 0.790246 0.894119 0.276628
O O13 0.146565 0.915982 0.962661
O O14 0.500000 0.706028 0.250000
O O15 0.567008 0.826069 0.311484
O O16 0.500000 0.909585 0.750000
O O17 0.621306 0.031814 0.749159
O O18 0.581730 0.914143 0.910357
#
# Coordination Sequence:
#
# PCOD8121693 Si02
#       8
#     4   4   4   4   4   4   4   2
#     4  12  28  47  72 104 140 187 234 287 355 421
#     4  12  24  42  69  99 130 176 224 277 343 410
#     4  11  25  43  69  99 135 176 225 283 346 405
#     4  11  21  41  63  92 126 171 220 272 339 402
#     4  11  22  42  65  94 133 172 224 278 337 409
#     4  11  21  38  61  89 125 167 216 270 334 401
#     4  10  23  38  61  89 124 170 215 274 331 397
#     4  12  26  46  70 102 142 176 234 292 338 424
#
# _framework density 20.873989999999999
#
# number of rings (size 3 to 8) (size 9 to 14) (size 15 to 20)
#    0.000    0.800    4.000    3.600    1.867    1.067 
#    0.000    0.667    0.000    0.000    0.000    0.000 
#    0.000    0.000    0.000    0.000    0.000    0.000 
#
# Total GULP energy -371712.436782 kJ/mol
# GULP energy per Si atom -12390.414559 kJ/mol
# Density = 2.082648 g / cm^3
# Si number density = 20.873990 Si / 1000 Ang^3
#
#
#
# Elastic Constant Matrix: (Units=GPa)
#
#
# Indices 1 2 3 4 5 6 
#
# 1 118.2934 24.2970 43.4412 0.0000 -2.7242 0.0000
# 2 24.2970 80.1869 44.7764 0.0000 -9.2220 0.0000
# 3 43.4412 44.7764 117.5799 0.0000 -4.6620 0.0000
# 4 0.0000 0.0000 0.0000 22.7116 0.0000 -3.6897
# 5 -2.7242 -9.2220 -4.6620 0.0000 38.8778 0.0000
# 6 0.0000 0.0000 0.0000 -3.6897 0.0000 31.6434
#
#
#
# Elastic Compliance Matrix: (Units=1/GPa)
#
#
# Indices 1 2 3 4 5 6 
#
# 1 0.009873 -0.001210 -0.003186 0.000000 0.000023 0.000000
# 2 -0.001210 0.016355 -0.005658 0.000000 0.003116 0.000000
# 3 -0.003186 -0.005658 0.011831 0.000000 -0.000147 0.000000
# 4 0.000000 0.000000 0.000000 0.044880 0.000000 0.005233
# 5 0.000023 0.003116 -0.000147 0.000000 0.026445 0.000000
# 6 0.000000 0.000000 0.000000 0.005233 0.000000 0.032212
#
#
# Mechanical properties :
#
#
# Convention : Reuss Voigt Hill
#
# Bulk Modulus (GPa) = 55.70595 60.12105 57.91350
# Shear Modulus (GPa) = 29.81749 32.21627 31.01688
#
# Velocity S-wave (km/s) = 3.78359 3.93284 3.85893
# Velocity P-wave (km/s) = 6.76994 7.03472 6.90360
#
# Compressibility (1/GPa) = 0.01795140
#
# Stress axis : x y z
#
# Youngs Moduli (GPa) = 101.29104 61.14279 84.52586
#
# Poissons Ratio (x) = 0.07397 0.26929
# Poissons Ratio (y) = 0.12254 0.47823
# Poissons Ratio (z) = 0.32270 0.34593
#
# Static dielectric constant tensor:
#      x y z
#    x 4.011210 0.000000 -0.165000 
#    y 0.000000 3.730300 0.000000 
#    z -0.165000 0.000000 3.912830 
# 
# 
# High freq. dielectric constant tensor:
#      x y z
#    x 1.828720 0.000000 -0.003010 
#    y 0.000000 1.820830 0.000000 
#    z -0.003010 0.000000 1.824660 
# 
# From -- ./inp_files/34881.got.cif
#   From: 2010.06.25/outbox.cif.g09.slc.cpg/sg13_18_cif.got.tgz:34881.got - 2010.06.28 04:50:58.
