data_PCOD8121231
_publ_section_title
;
Structure prediction by ZEFSAII (Michael W. Deem and Ramdas Pophale) SiO2 
 PCOD8121231
Probable space group: P 2/C
;
_chemical_formula_sum "Si O2"
_cell_formula_units_Z 24
_cell_length_a 10.776413
_cell_length_b 7.688330
_cell_length_c 24.628184
_cell_angle_alpha 90.000000
_cell_angle_beta 34.706126
_cell_angle_gamma 90.000000
_cell_volume 1161.799666
_symmetry_space_group_name_H-M "P 2/C"
_symmetry_group_IT_number 13
_symmetry_cell_setting 'monoclinic'
loop_
_space_group_symop_operation_xyz
x,y,z
-x,y,1/2-z
-x,-y,-z
x,-y,1/2+z
loop_
_atom_site_type_symbol
_atom_site_label
_atom_site_fract_x
_atom_site_fract_y
_atom_site_fract_z
Si Si1 0.801962 0.776291 0.229835
Si Si2 0.414503 0.814016 0.549197
Si Si3 0.200090 0.638141 0.026556
Si Si4 0.613518 0.290533 0.558099
Si Si5 0.000000 0.969287 0.750000
Si Si6 0.500000 0.956065 0.250000
Si Si7 0.223015 0.948684 0.943055
O O1 0.623713 0.673861 0.330127
O O2 0.914005 0.920304 0.228932
O O3 0.681365 0.844844 0.218256
O O4 0.993595 0.645270 0.141911
O O5 0.577488 0.702340 0.526382
O O6 0.386488 0.697465 0.506491
O O7 0.500000 0.000000 0.500000
O O8 0.191737 0.841700 0.662056
O O9 0.224738 0.451207 0.987663
O O10 0.164487 0.769954 0.991189
O O11 0.693801 0.100190 0.546835
O O12 0.609746 0.080525 0.166283
O O13 0.000000 0.000000 0.000000
#
# Coordination Sequence:
#
# PCOD8121231 Si02
#       7
#     4   4   4   4   2   2   4
#     4  11  21  42  65  96 133 178 212 277 335 383
#     4  12  21  41  67  99 127 172 216 264 329 399
#     4  12  24  43  69  97 134 172 220 275 330 393
#     4  11  25  42  65  99 134 167 222 272 329 397
#     4  12  22  38  78  94 130 180 220 266 338 394
#     4  10  22  40  68  94 132 174 222 262 334 394
#     4  11  22  44  66  92 128 176 217 267 327 389
#
# _framework density 20.657606000000001
#
# number of rings (size 3 to 8) (size 9 to 14) (size 15 to 20)
#    0.000    0.667    6.667    1.500    0.000    2.000 
#    3.000    0.833    0.000    0.000    0.000    0.000 
#    0.000    0.000    0.000    0.000    0.000    0.000 
#
# Total GULP energy -297371.634810 kJ/mol
# GULP energy per Si atom -12390.484784 kJ/mol
# Density = 2.061059 g / cm^3
# Si number density = 20.657606 Si / 1000 Ang^3
#
#
#
# Elastic Constant Matrix: (Units=GPa)
#
#
# Indices 1 2 3 4 5 6 
#
# 1 88.8377 -10.9846 2.3390 0.0000 1.5279 0.0000
# 2 -10.9846 58.3644 14.6782 0.0000 9.3965 0.0000
# 3 2.3390 14.6782 157.0101 0.0000 3.8320 0.0000
# 4 0.0000 0.0000 0.0000 28.1099 0.0000 -3.2019
# 5 1.5279 9.3965 3.8320 0.0000 34.5696 0.0000
# 6 0.0000 0.0000 0.0000 -3.2019 0.0000 16.2110
#
#
#
# Elastic Compliance Matrix: (Units=1/GPa)
#
#
# Indices 1 2 3 4 5 6 
#
# 1 0.011590 0.002459 -0.000375 0.000000 -0.001139 0.000000
# 2 0.002459 0.018829 -0.001674 0.000000 -0.005041 0.000000
# 3 -0.000375 -0.001674 0.006537 0.000000 -0.000253 0.000000
# 4 0.000000 0.000000 0.000000 0.036393 0.000000 0.007188
# 5 -0.001139 -0.005041 -0.000253 0.000000 0.030376 0.000000
# 6 0.000000 0.000000 0.000000 0.007188 0.000000 0.063106
#
#
# Mechanical properties :
#
#
# Convention : Reuss Voigt Hill
#
# Bulk Modulus (GPa) = 26.47108 35.14191 30.80649
# Shear Modulus (GPa) = 27.99495 35.65673 31.82584
#
# Velocity S-wave (km/s) = 3.68528 4.15912 3.92935
# Velocity P-wave (km/s) = 5.56331 6.33348 5.96085
#
# Compressibility (1/GPa) = 0.03777708
#
# Stress axis : x y z
#
# Youngs Moduli (GPa) = 86.28138 53.10936 152.96932
#
# Poissons Ratio (x) = -0.13059 0.05732
# Poissons Ratio (y) = -0.21216 0.25605
# Poissons Ratio (z) = 0.03233 0.08890
#
# Static dielectric constant tensor:
#      x y z
#    x 3.804530 0.000000 0.020670 
#    y 0.000000 2.910750 0.000000 
#    z 0.020670 0.000000 4.111440 
# 
# 
# High freq. dielectric constant tensor:
#      x y z
#    x 1.822190 0.000000 0.001830 
#    y 0.000000 1.780840 0.000000 
#    z 0.001830 0.000000 1.832350 
# 
# From -- ./inp_files/92089.got.cif
#   From: 2010.06.25/outbox.cif.g09.slc.cpg/sg13_47_cif.got.tgz:92089.got - 2010.06.28 04:50:58.
