data_PCOD8121397
_publ_section_title
;
Structure prediction by ZEFSAII (Michael W. Deem and Ramdas Pophale) SiO2 
 PCOD8121397
Probable space group: P 2/C
;
_chemical_formula_sum "Si O2"
_cell_formula_units_Z 24
_cell_length_a 20.130744
_cell_length_b 11.059296
_cell_length_c 22.097953
_cell_angle_alpha 90.000000
_cell_angle_beta 12.596719
_cell_angle_gamma 90.000000
_cell_volume 1072.926176
_symmetry_space_group_name_H-M "P 2/C"
_symmetry_group_IT_number 13
_symmetry_cell_setting 'monoclinic'
loop_
_space_group_symop_operation_xyz
x,y,z
-x,y,1/2-z
-x,-y,-z
x,-y,1/2+z
loop_
_atom_site_type_symbol
_atom_site_label
_atom_site_fract_x
_atom_site_fract_y
_atom_site_fract_z
Si Si1 0.872669 0.508183 0.503078
Si Si2 0.901595 0.269756 0.174282
Si Si3 0.504938 0.619332 0.931095
Si Si4 0.333410 0.117835 0.567948
Si Si5 0.000000 0.172445 0.750000
Si Si6 0.662221 0.119427 0.796340
Si Si7 0.500000 0.331412 0.250000
O O1 0.628715 0.521679 0.773656
O O2 0.752542 0.581392 0.553064
O O3 0.898574 0.363786 0.463105
O O4 0.188689 0.573360 0.239757
O O5 0.745256 0.370534 0.271113
O O6 0.649375 0.195545 0.435231
O O7 0.089343 0.172306 0.969501
O O8 0.477243 0.751926 0.925518
O O9 0.212568 0.120679 0.745531
O O10 0.073475 0.094628 0.746699
O O11 0.596589 0.016358 0.331675
O O12 0.307889 0.248703 0.466599
#
# Coordination Sequence:
#
# PCOD8121397 Si02
#       7
#     4   4   4   4   2   4   2
#     4  12  22  39  59  90 128 158 207 246 313 365
#     4  11  23  39  61  91 123 168 201 252 303 378
#     4  11  21  36  63  90 122 158 203 263 304 358
#     4  10  22  42  63  94 124 162 207 265 303 371
#     4  12  24  40  66  90 126 156 212 252 320 366
#     4  10  24  40  64  90 128 164 209 252 315 358
#     4  12  24  40  60  94 124 166 196 260 316 370
#
# _framework density 22.368734
#
# number of rings (size 3 to 8) (size 9 to 14) (size 15 to 20)
#    0.000    1.000    3.333    4.000    0.000    8.667 
#    0.000    1.667    0.000    0.000    0.000    0.000 
#    0.000    0.000    0.000    0.000    0.000    0.000 
#
# Total GULP energy -297398.676780 kJ/mol
# GULP energy per Si atom -12391.611532 kJ/mol
# Density = 2.231782 g / cm^3
# Si number density = 22.368734 Si / 1000 Ang^3
#
#
#
# Elastic Constant Matrix: (Units=GPa)
#
#
# Indices 1 2 3 4 5 6 
#
# 1 66.3276 24.4352 13.5601 0.0000 -12.4571 0.0000
# 2 24.4352 107.5627 27.8371 0.0000 -8.3942 0.0000
# 3 13.5601 27.8371 80.5076 0.0000 6.2086 0.0000
# 4 0.0000 0.0000 0.0000 43.9750 0.0000 4.1321
# 5 -12.4571 -8.3942 6.2086 0.0000 18.9495 0.0000
# 6 0.0000 0.0000 0.0000 4.1321 0.0000 7.6115
#
#
#
# Elastic Compliance Matrix: (Units=1/GPa)
#
#
# Indices 1 2 3 4 5 6 
#
# 1 0.019013 -0.002490 -0.003304 0.000000 0.012478 0.000000
# 2 -0.002490 0.011205 -0.003808 0.000000 0.004574 0.000000
# 3 -0.003304 -0.003808 0.014970 0.000000 -0.008763 0.000000
# 4 0.000000 0.000000 0.000000 0.023963 0.000000 -0.013009
# 5 0.012478 0.004574 -0.008763 0.000000 0.065872 0.000000
# 6 0.000000 0.000000 0.000000 -0.013009 0.000000 0.138443
#
#
# Mechanical properties :
#
#
# Convention : Reuss Voigt Hill
#
# Bulk Modulus (GPa) = 38.48411 42.89586 40.68998
# Shear Modulus (GPa) = 16.59307 26.67824 21.63565
#
# Velocity S-wave (km/s) = 2.72655 3.45723 3.11340
# Velocity P-wave (km/s) = 5.21094 5.92916 5.58161
#
# Compressibility (1/GPa) = 0.02598475
#
# Stress axis : x y z
#
# Youngs Moduli (GPa) = 52.59529 89.24569 66.80037
#
# Poissons Ratio (x) = 0.22226 0.22068
# Poissons Ratio (y) = 0.13099 0.25435
# Poissons Ratio (z) = 0.17375 0.33981
#
# Static dielectric constant tensor:
#      x y z
#    x 3.991980 0.000000 -0.187730 
#    y 0.000000 4.158260 0.000000 
#    z -0.187730 0.000000 4.068320 
# 
# 
# High freq. dielectric constant tensor:
#      x y z
#    x 1.852820 0.000000 0.002300 
#    y 0.000000 1.888150 0.000000 
#    z 0.002300 0.000000 1.884040 
# 
# From -- ./inp_files/93863.got.cif
#   From: 2010.06.25/outbox.cif.g09.slc.cpg/sg13_47_cif.got.tgz:93863.got - 2010.06.28 04:50:58.
