data_PCOD8121401
_publ_section_title
;
Structure prediction by ZEFSAII (Michael W. Deem and Ramdas Pophale) SiO2 
 PCOD8121401
Probable space group: P 2/C
;
_chemical_formula_sum "Si O2"
_cell_formula_units_Z 26
_cell_length_a 22.189847
_cell_length_b 5.328179
_cell_length_c 14.083730
_cell_angle_alpha 90.000000
_cell_angle_beta 37.842156
_cell_angle_gamma 90.000000
_cell_volume 1021.543950
_symmetry_space_group_name_H-M "P 2/C"
_symmetry_group_IT_number 13
_symmetry_cell_setting 'monoclinic'
loop_
_space_group_symop_operation_xyz
x,y,z
-x,y,1/2-z
-x,-y,-z
x,-y,1/2+z
loop_
_atom_site_type_symbol
_atom_site_label
_atom_site_fract_x
_atom_site_fract_y
_atom_site_fract_z
Si Si1 0.856274 0.302586 0.472340
Si Si2 0.459089 0.231599 0.978666
Si Si3 0.653184 0.653950 0.299650
Si Si4 0.500000 0.441412 0.250000
Si Si5 0.928023 0.802677 0.484759
Si Si6 0.123265 0.926749 0.746846
Si Si7 0.325976 0.853109 0.034802
O O1 0.738118 0.336709 0.615397
O O2 0.906111 0.550040 0.454226
O O3 0.895583 0.267436 0.316134
O O4 0.877802 0.049903 0.503872
O O5 0.564825 0.130136 0.893823
O O6 0.507034 0.408667 0.838270
O O7 0.402603 0.387488 0.130741
O O8 0.383798 0.071093 0.014438
O O9 0.705669 0.675041 0.337695
O O10 0.399793 0.277237 0.369883
O O11 0.887093 0.771053 0.642699
O O12 0.045025 0.846103 0.340279
O O13 0.230197 0.049377 0.599484
#
# Coordination Sequence:
#
# PCOD8121401 Si02
#       7
#     4   4   4   2   4   4   4
#     4  12  27  50  81 117 157 205 266 325 399 478
#     4  10  22  42  64 101 152 197 250 314 389 457
#     4  10  23  42  70 103 145 204 248 323 386 463
#     4  10  24  36  64 104 146 196 258 308 378 478
#     4  11  28  55  78 118 160 199 267 331 394 479
#     4  11  27  49  84 113 154 216 257 335 404 472
#     4  11  22  46  69 106 149 195 257 318 385 472
#
# _framework density 25.451673
#
# number of rings (size 3 to 8) (size 9 to 14) (size 15 to 20)
#    0.000    1.231    1.538    2.308    4.308    7.385 
#    8.308    0.000    0.000    0.000    0.000    0.000 
#    0.000    0.000    0.000    0.000    0.000    0.000 
#
# Total GULP energy -322292.321762 kJ/mol
# GULP energy per Si atom -12395.858529 kJ/mol
# Density = 2.539374 g / cm^3
# Si number density = 25.451673 Si / 1000 Ang^3
#
#
#
# Elastic Constant Matrix: (Units=GPa)
#
#
# Indices 1 2 3 4 5 6 
#
# 1 115.3299 42.8773 56.2433 0.0000 -1.6701 0.0000
# 2 42.8773 91.1401 34.5494 0.0000 -4.3537 0.0000
# 3 56.2433 34.5494 143.3009 0.0000 0.0399 0.0000
# 4 0.0000 0.0000 0.0000 20.2666 0.0000 -10.8884
# 5 -1.6701 -4.3537 0.0399 0.0000 54.5004 0.0000
# 6 0.0000 0.0000 0.0000 -10.8884 0.0000 35.3617
#
#
#
# Elastic Compliance Matrix: (Units=1/GPa)
#
#
# Indices 1 2 3 4 5 6 
#
# 1 0.012066 -0.004270 -0.003706 0.000000 0.000031 0.000000
# 2 -0.004270 0.013638 -0.001612 0.000000 0.000960 0.000000
# 3 -0.003706 -0.001612 0.008822 0.000000 -0.000249 0.000000
# 4 0.000000 0.000000 0.000000 0.059123 0.000000 0.018205
# 5 0.000031 0.000960 -0.000249 0.000000 0.018426 0.000000
# 6 0.000000 0.000000 0.000000 0.018205 0.000000 0.033885
#
#
# Mechanical properties :
#
#
# Convention : Reuss Voigt Hill
#
# Bulk Modulus (GPa) = 65.15314 68.56788 66.86051
# Shear Modulus (GPa) = 29.36789 36.43247 32.90018
#
# Velocity S-wave (km/s) = 3.40055 3.78754 3.59925
# Velocity P-wave (km/s) = 6.40879 6.79162 6.60298
#
# Compressibility (1/GPa) = 0.01534846
#
# Stress axis : x y z
#
# Youngs Moduli (GPa) = 82.87580 73.32391 113.35558
#
# Poissons Ratio (x) = 0.31310 0.42013
# Poissons Ratio (y) = 0.35389 0.18278
# Poissons Ratio (z) = 0.30716 0.11823
#
# Static dielectric constant tensor:
#      x y z
#    x 6.311170 0.000000 0.232250 
#    y 0.000000 4.698270 0.000000 
#    z 0.232250 0.000000 4.837450 
# 
# 
# High freq. dielectric constant tensor:
#      x y z
#    x 2.028930 0.000000 -0.003680 
#    y 0.000000 2.008510 0.000000 
#    z -0.003680 0.000000 2.032290 
# 
# From -- ./inp_files/70898.got.cif
#   From: 2010.06.25/outbox.cif.g09.slc.cpg/sg13_36_cif.got.tgz:70898.got - 2010.06.28 04:50:58.
