data_PCOD8121767
_publ_section_title
;
Structure prediction by ZEFSAII (Michael W. Deem and Ramdas Pophale) SiO2 
 PCOD8121767
Probable space group: P 2/C
;
_chemical_formula_sum "Si O2"
_cell_formula_units_Z 28
_cell_length_a 9.114821
_cell_length_b 9.849572
_cell_length_c 15.267132
_cell_angle_alpha 90.000000
_cell_angle_beta 63.739212
_cell_angle_gamma 90.000000
_cell_volume 1229.174251
_symmetry_space_group_name_H-M "P 2/C"
_symmetry_group_IT_number 13
_symmetry_cell_setting 'monoclinic'
loop_
_space_group_symop_operation_xyz
x,y,z
-x,y,1/2-z
-x,-y,-z
x,-y,1/2+z
loop_
_atom_site_type_symbol
_atom_site_label
_atom_site_fract_x
_atom_site_fract_y
_atom_site_fract_z
Si Si1 0.673241 0.410091 0.678215
Si Si2 0.466990 0.159672 0.520406
Si Si3 0.866829 0.913495 0.351410
Si Si4 0.818356 0.517583 0.810326
Si Si5 0.181296 0.789664 0.590653
Si Si6 0.021109 0.247438 0.957362
Si Si7 0.704024 0.391584 0.014840
O O1 0.500000 0.340973 0.750000
O O2 0.726604 0.511791 0.741924
O O3 0.807548 0.292775 0.630570
O O4 0.639217 0.496073 0.598905
O O5 0.304172 0.166243 0.625020
O O6 0.639871 0.221511 0.505904
O O7 0.409363 0.254130 0.452035
O O8 0.500000 0.000000 0.500000
O O9 0.000000 0.856953 0.250000
O O10 0.937320 0.879152 0.429292
O O11 0.834624 0.072636 0.349946
O O12 0.843306 0.673297 0.832113
O O13 0.000000 0.451699 0.750000
O O14 0.707068 0.445649 0.913869
O O15 0.044667 0.790235 0.552293
O O16 0.893058 0.370436 0.991022
#
# Coordination Sequence:
#
# PCOD8121767 Si02
#       7
#     4   4   4   4   4   4   4
#     4  12  26  39  62 105 133 172 224 278 339 398
#     4   9  22  41  66  90 125 175 217 263 335 396
#     4  10  23  41  64  92 125 174 223 274 328 402
#     4  12  24  40  68  98 133 175 222 272 338 413
#     4  11  22  42  65  94 129 172 220 274 339 397
#     4  11  23  40  65  90 131 168 224 269 335 399
#     4  11  23  44  64  93 137 175 211 278 342 394
#
# _framework density 22.779522
#
# number of rings (size 3 to 8) (size 9 to 14) (size 15 to 20)
#    0.000    1.143    2.857    3.000    6.000    1.143 
#    0.000    0.000    0.000    5.143    0.000    0.000 
#    0.000    0.000    0.000    0.000    0.000    0.000 
#
# Total GULP energy -346890.578347 kJ/mol
# GULP energy per Si atom -12388.949227 kJ/mol
# Density = 2.272767 g / cm^3
# Si number density = 22.779522 Si / 1000 Ang^3
#
#
#
# Elastic Constant Matrix: (Units=GPa)
#
#
# Indices 1 2 3 4 5 6 
#
# 1 74.7447 11.2683 13.1789 0.0000 -8.2403 0.0000
# 2 11.2683 77.0006 0.8929 0.0000 3.1239 0.0000
# 3 13.1789 0.8929 78.2916 0.0000 -4.7258 0.0000
# 4 0.0000 0.0000 0.0000 20.7012 0.0000 -1.3705
# 5 -8.2403 3.1239 -4.7258 0.0000 46.4672 0.0000
# 6 0.0000 0.0000 0.0000 -1.3705 0.0000 34.4935
#
#
#
# Elastic Compliance Matrix: (Units=1/GPa)
#
#
# Indices 1 2 3 4 5 6 
#
# 1 0.014375 -0.002178 -0.002246 0.000000 0.002467 0.000000
# 2 -0.002178 0.013356 0.000138 0.000000 -0.001270 0.000000
# 3 -0.002246 0.000138 0.013206 0.000000 0.000935 0.000000
# 4 0.000000 0.000000 0.000000 0.048434 0.000000 0.001924
# 5 0.002467 -0.001270 0.000935 0.000000 0.022139 0.000000
# 6 0.000000 0.000000 0.000000 0.001924 0.000000 0.029067
#
#
# Mechanical properties :
#
#
# Convention : Reuss Voigt Hill
#
# Bulk Modulus (GPa) = 30.89834 31.19075 31.04455
# Shear Modulus (GPa) = 31.26240 33.97885 32.62062
#
# Velocity S-wave (km/s) = 3.70860 3.86637 3.78830
# Velocity P-wave (km/s) = 5.65082 5.80120 5.72650
#
# Compressibility (1/GPa) = 0.03236420
#
# Stress axis : x y z
#
# Youngs Moduli (GPa) = 69.56423 74.87532 75.72463
#
# Poissons Ratio (x) = 0.16306 0.17008
# Poissons Ratio (y) = 0.15149 -0.01042
# Poissons Ratio (z) = 0.15624 -0.01030
#
# Static dielectric constant tensor:
#      x y z
#    x 4.450350 0.000000 -0.389750 
#    y 0.000000 4.027660 0.000000 
#    z -0.389750 0.000000 4.019720 
# 
# 
# High freq. dielectric constant tensor:
#      x y z
#    x 1.912770 0.000000 -0.024020 
#    y 0.000000 1.898370 0.000000 
#    z -0.024020 0.000000 1.880910 
# 
# From -- ./inp_files/46803.got.cif
#   From: 2010.06.25/outbox.cif.g09.slc.cpg/sg13_24_cif.got.tgz:46803.got - 2010.06.28 04:50:58.
