data_PCOD8121960
_publ_section_title
;
Structure prediction by ZEFSAII (Michael W. Deem and Ramdas Pophale) SiO2 
 PCOD8121960
Probable space group: P 2/C
;
_chemical_formula_sum "Si O2"
_cell_formula_units_Z 30
_cell_length_a 19.230048
_cell_length_b 11.930061
_cell_length_c 11.860221
_cell_angle_alpha 90.000000
_cell_angle_beta 29.828701
_cell_angle_gamma 90.000000
_cell_volume 1353.409098
_symmetry_space_group_name_H-M "P 2/C"
_symmetry_group_IT_number 13
_symmetry_cell_setting 'monoclinic'
loop_
_space_group_symop_operation_xyz
x,y,z
-x,y,1/2-z
-x,-y,-z
x,-y,1/2+z
loop_
_atom_site_type_symbol
_atom_site_label
_atom_site_fract_x
_atom_site_fract_y
_atom_site_fract_z
Si Si1 0.366435 0.726796 0.507173
Si Si2 0.280455 0.820308 0.204077
Si Si3 0.935469 0.649174 0.005424
Si Si4 0.832520 0.927397 0.347451
Si Si5 0.565161 0.881129 0.876565
Si Si6 0.842198 0.173858 0.375966
Si Si7 0.000000 0.763724 0.250000
Si Si8 0.135130 0.590124 0.924115
O O1 0.405869 0.807039 0.554509
O O2 0.269491 0.798100 0.561564
O O3 0.287411 0.612030 0.655334
O O4 0.500000 0.685277 0.250000
O O5 0.213493 0.704672 0.253455
O O6 0.219659 0.917083 0.207906
O O7 0.232737 0.836519 0.399367
O O8 0.449167 0.817385 0.962784
O O9 0.890329 0.537419 0.998170
O O10 0.031742 0.735619 0.798352
O O11 0.009217 0.615804 0.016253
O O12 0.705165 0.902685 0.610946
O O13 0.954765 0.839357 0.206788
O O14 0.900526 0.050317 0.265241
O O15 0.500000 0.000000 0.000000
O O16 0.873671 0.680741 0.462917
#
# Coordination Sequence:
#
# PCOD8121960 Si02
#       8
#     4   4   4   4   4   4   2   4
#     4  11  21  44  69 100 134 184 239 272 347 414
#     4  12  24  42  64 100 136 175 228 276 337 412
#     4  10  24  45  68 102 126 176 232 283 349 392
#     4  12  26  42  64 101 142 178 224 280 347 418
#     4  12  23  42  66  95 141 186 226 274 344 413
#     4  11  25  40  70 100 137 179 224 284 340 416
#     4  12  24  42  66 100 136 182 222 284 350 406
#     4  10  23  46  72  94 137 179 230 295 335 413
#
# _framework density 22.166246000000001
#
# number of rings (size 3 to 8) (size 9 to 14) (size 15 to 20)
#    0.000    0.800    5.333    1.600    3.733    0.533 
#    0.000    2.000    0.000    0.000    0.000    0.000 
#    0.000    0.000    0.000    0.000    0.000    0.000 
#
# Total GULP energy -371862.570892 kJ/mol
# GULP energy per Si atom -12395.419030 kJ/mol
# Density = 2.211579 g / cm^3
# Si number density = 22.166246 Si / 1000 Ang^3
#
#
#
# Elastic Constant Matrix: (Units=GPa)
#
#
# Indices 1 2 3 4 5 6 
#
# 1 101.2435 38.8225 18.3212 0.0000 -8.0577 0.0000
# 2 38.8225 168.6416 63.6919 0.0000 -9.7306 0.0000
# 3 18.3212 63.6919 97.6262 0.0000 -9.4545 0.0000
# 4 0.0000 0.0000 0.0000 -6.9692 0.0000 -20.4522
# 5 -8.0577 -9.7306 -9.4545 0.0000 37.3319 0.0000
# 6 0.0000 0.0000 0.0000 -20.4522 0.0000 5.8901
#
#
#
# Elastic Compliance Matrix: (Units=1/GPa)
#
#
# Indices 1 2 3 4 5 6 
#
# 1 0.010955 -0.002269 -0.000414 0.000000 0.001668 0.000000
# 2 -0.002269 0.008360 -0.004987 0.000000 0.000426 0.000000
# 3 -0.000414 -0.004987 0.013778 0.000000 0.002100 0.000000
# 4 0.000000 0.000000 0.000000 -0.012823 0.000000 -0.044525
# 5 0.001668 0.000426 0.002100 0.000000 0.027790 0.000000
# 6 0.000000 0.000000 0.000000 -0.044525 0.000000 0.015172
#
#
# Mechanical properties :
#
#
# Convention : Reuss Voigt Hill
#
# Bulk Modulus (GPa) = 56.32996 67.68694 62.00845
# Shear Modulus (GPa) = 59.17836 23.69560 41.43698
#
# Velocity S-wave (km/s) = 5.17257 3.27310 4.32832
# Velocity P-wave (km/s) = 7.81931 6.69974 7.28108
#
# Compressibility (1/GPa) = 0.01775254
#
# Stress axis : x y z
#
# Youngs Moduli (GPa) = 91.28217 119.61329 72.58049
#
# Poissons Ratio (x) = 0.27145 0.03003
# Poissons Ratio (y) = 0.20716 0.36197
# Poissons Ratio (z) = 0.03777 0.59653
#
# Static dielectric constant tensor:
#      x y z
#    x 4.250390 0.000000 -0.207260 
#    y 0.000000 4.259650 0.000000 
#    z -0.207260 0.000000 4.175210 
# 
# 
# High freq. dielectric constant tensor:
#      x y z
#    x 1.883290 0.000000 0.001030 
#    y 0.000000 1.867950 0.000000 
#    z 0.001030 0.000000 1.869430 
# 
# From -- ./inp_files/40886.got.cif
#   From: 2010.06.25/outbox.cif.g09.slc.cpg/sg13_21_cif.got.tgz:40886.got - 2010.06.28 04:50:58.
