data_PCOD8121911
_publ_section_title
;
Structure prediction by ZEFSAII (Michael W. Deem and Ramdas Pophale) SiO2 
 PCOD8121911
Probable space group: P 2/C
;
_chemical_formula_sum "Si O2"
_cell_formula_units_Z 24
_cell_length_a 8.421954
_cell_length_b 12.307462
_cell_length_c 12.073789
_cell_angle_alpha 90.000000
_cell_angle_beta 109.522676
_cell_angle_gamma 90.000000
_cell_volume 1179.534363
_symmetry_space_group_name_H-M "P 2/C"
_symmetry_group_IT_number 13
_symmetry_cell_setting 'monoclinic'
loop_
_space_group_symop_operation_xyz
x,y,z
-x,y,1/2-z
-x,-y,-z
x,-y,1/2+z
loop_
_atom_site_type_symbol
_atom_site_label
_atom_site_fract_x
_atom_site_fract_y
_atom_site_fract_z
Si Si1 0.916586 0.113837 0.506869
Si Si2 0.357961 0.047466 0.889568
Si Si3 0.500000 0.785866 0.250000
Si Si4 0.311888 0.837771 0.748946
Si Si5 0.162609 0.343448 0.345617
Si Si6 0.155370 0.303353 0.599857
Si Si7 0.000000 0.549675 0.250000
O O1 0.786289 0.106719 0.576061
O O2 0.822574 0.170477 0.381606
O O3 0.071793 0.185624 0.583722
O O4 0.000000 0.000000 0.500000
O O5 0.449391 0.137816 0.838848
O O6 0.270397 0.949742 0.802271
O O7 0.500000 0.000000 0.000000
O O8 0.653197 0.706128 0.315322
O O9 0.500000 0.846795 0.750000
O O10 0.311121 0.731874 0.830225
O O11 0.156214 0.347349 0.475855
O O12 0.163321 0.471157 0.310214
O O13 0.000000 0.286739 0.250000
O O14 0.044547 0.380388 0.652805
#
# Coordination Sequence:
#
# PCOD8121911 Si02
#       7
#     4   4   2   4   4   4   2
#     4  12  24  38  65  97 136 185 226 270 338 417
#     4  12  22  39  61  96 143 182 224 276 334 413
#     4  12  26  42  62 102 138 184 220 290 342 422
#     4  12  23  40  62  98 133 177 229 278 341 399
#     4  10  23  44  73  94 127 172 230 286 343 403
#     4  12  24  46  70 100 139 178 230 284 349 412
#     4  10  24  48  72 102 128 176 230 292 348 406
#
# _framework density 20.347013
#
# number of rings (size 3 to 8) (size 9 to 14) (size 15 to 20)
#    0.500    0.000    4.167    5.500    0.000    1.333 
#    1.500    0.833    0.000    0.000    0.000    0.000 
#    0.000    0.000    0.000    0.000    0.000    0.000 
#
# Total GULP energy -297547.857367 kJ/mol
# GULP energy per Si atom -12397.827390 kJ/mol
# Density = 2.030070 g / cm^3
# Si number density = 20.347013 Si / 1000 Ang^3
#
#
#
# Elastic Constant Matrix: (Units=GPa)
#
#
# Indices 1 2 3 4 5 6 
#
# 1 77.0747 28.3070 42.9806 0.0000 -4.8212 0.0000
# 2 28.3070 113.3933 33.8137 0.0000 -13.5544 0.0000
# 3 42.9806 33.8137 113.8267 0.0000 -13.6832 0.0000
# 4 0.0000 0.0000 0.0000 31.4540 0.0000 -7.1979
# 5 -4.8212 -13.5544 -13.6832 0.0000 44.5797 0.0000
# 6 0.0000 0.0000 0.0000 -7.1979 0.0000 16.8268
#
#
#
# Elastic Compliance Matrix: (Units=1/GPa)
#
#
# Indices 1 2 3 4 5 6 
#
# 1 0.017113 -0.002639 -0.005765 0.000000 -0.000721 0.000000
# 2 -0.002639 0.010283 -0.001782 0.000000 0.002294 0.000000
# 3 -0.005765 -0.001782 0.011786 0.000000 0.002452 0.000000
# 4 0.000000 0.000000 0.000000 0.035242 0.000000 0.015075
# 5 -0.000721 0.002294 0.002452 0.000000 0.023804 0.000000
# 6 0.000000 0.000000 0.000000 0.015075 0.000000 0.065878
#
#
# Mechanical properties :
#
#
# Convention : Reuss Voigt Hill
#
# Bulk Modulus (GPa) = 53.16222 57.16637 55.16430
# Shear Modulus (GPa) = 26.21239 31.85168 29.03203
#
# Velocity S-wave (km/s) = 3.59314 3.96083 3.78146
# Velocity P-wave (km/s) = 6.58777 7.00531 6.79974
#
# Compressibility (1/GPa) = 0.01881035
#
# Stress axis : x y z
#
# Youngs Moduli (GPa) = 58.43436 97.24329 84.84462
#
# Poissons Ratio (x) = 0.25665 0.48909
# Poissons Ratio (y) = 0.15422 0.15123
# Poissons Ratio (z) = 0.33685 0.17333
#
# Static dielectric constant tensor:
#      x y z
#    x 10.736380 0.000000 3.818020 
#    y 0.000000 3.729830 0.000000 
#    z 3.818020 0.000000 5.993250 
# 
# 
# High freq. dielectric constant tensor:
#      x y z
#    x 1.794090 0.000000 -0.010230 
#    y 0.000000 1.790420 0.000000 
#    z -0.010230 0.000000 1.811670 
# 
# From -- ./inp_files/29401.got.cif
#   From: 2010.06.25/outbox.cif.g09.slc.cpg/sg13_15_cif.got.tgz:29401.got - 2010.06.28 04:50:58.
