data_PCOD8121235
_publ_section_title
;
Structure prediction by ZEFSAII (Michael W. Deem and Ramdas Pophale) SiO2 
 PCOD8121235
Probable space group: P 2/C
;
_chemical_formula_sum "Si O2"
_cell_formula_units_Z 32
_cell_length_a 14.024918
_cell_length_b 19.805841
_cell_length_c 11.385753
_cell_angle_alpha 90.000000
_cell_angle_beta 150.564966
_cell_angle_gamma 90.000000
_cell_volume 1554.256435
_symmetry_space_group_name_H-M "P 2/C"
_symmetry_group_IT_number 13
_symmetry_cell_setting 'monoclinic'
loop_
_space_group_symop_operation_xyz
x,y,z
-x,y,1/2-z
-x,-y,-z
x,-y,1/2+z
loop_
_atom_site_type_symbol
_atom_site_label
_atom_site_fract_x
_atom_site_fract_y
_atom_site_fract_z
Si Si1 0.486819 0.075151 0.606621
Si Si2 0.309431 0.793559 0.812611
Si Si3 0.247032 0.331147 0.396506
Si Si4 0.204284 0.963757 0.232649
Si Si5 0.474815 0.542023 0.352647
Si Si6 0.596879 0.281567 0.466731
Si Si7 0.085728 0.827799 0.218760
Si Si8 0.192208 0.645382 0.096945
O O1 0.500000 0.105251 0.750000
O O2 0.405573 0.134680 0.439842
O O3 0.697586 0.050172 0.788628
O O4 0.343053 0.011655 0.456836
O O5 0.330571 0.738669 0.937734
O O6 0.420336 0.764862 0.819652
O O7 0.082072 0.804306 0.549102
O O8 0.384212 0.392687 0.502890
O O9 0.241292 0.314726 0.529390
O O10 0.034603 0.349626 0.116914
O O11 0.194006 0.892604 0.285653
O O12 0.000000 0.000000 0.000000
O O13 0.500000 0.504398 0.250000
O O14 0.500000 0.500000 0.500000
O O15 0.253435 0.568398 0.130567
O O16 0.500000 0.320520 0.250000
O O17 0.771052 0.234519 0.611102
O O18 0.677090 0.331603 0.652388
O O19 0.000000 0.850261 0.250000
#
# Coordination Sequence:
#
# PCOD8121235 Si02
#       8
#     4   4   4   4   4   4   4   4
#     4  11  27  41  64  94 122 158 213 273 328 392
#     4  12  23  41  62  95 128 157 210 272 326 384
#     4  10  22  40  68  96 129 170 215 268 326 380
#     4  11  25  45  61  86 123 163 214 263 327 396
#     4  10  22  41  66  97 136 178 220 262 326 388
#     4  12  24  39  62  95 130 165 212 263 327 392
#     4  12  25  41  64  88 124 173 212 262 327 395
#     4  10  22  41  66  96 130 171 213 268 320 376
#
# _framework density 20.588622999999998
#
# number of rings (size 3 to 8) (size 9 to 14) (size 15 to 20)
#    0.000    1.000    6.250    0.000    3.500    1.500 
#    0.000    0.000    0.000    0.000    0.000    0.000 
#    0.000    0.000    0.000    0.000    0.000    0.000 
#
# Total GULP energy -396537.470617 kJ/mol
# GULP energy per Si atom -12391.795957 kJ/mol
# Density = 2.054176 g / cm^3
# Si number density = 20.588623 Si / 1000 Ang^3
#
#
#
# Elastic Constant Matrix: (Units=GPa)
#
#
# Indices 1 2 3 4 5 6 
#
# 1 104.2902 24.6576 57.0089 0.0000 -6.5488 0.0000
# 2 24.6576 54.0633 30.4271 0.0000 -1.3651 0.0000
# 3 57.0089 30.4271 102.4735 0.0000 -6.6243 0.0000
# 4 0.0000 0.0000 0.0000 26.3629 0.0000 -1.7923
# 5 -6.5488 -1.3651 -6.6243 0.0000 45.8343 0.0000
# 6 0.0000 0.0000 0.0000 -1.7923 0.0000 24.5644
#
#
#
# Elastic Compliance Matrix: (Units=1/GPa)
#
#
# Indices 1 2 3 4 5 6 
#
# 1 0.014074 -0.002428 -0.007049 0.000000 0.000920 0.000000
# 2 -0.002428 0.022631 -0.005398 0.000000 -0.000453 0.000000
# 3 -0.007049 -0.005398 0.015351 0.000000 0.001051 0.000000
# 4 0.000000 0.000000 0.000000 0.038121 0.000000 0.002781
# 5 0.000920 -0.000453 0.001051 0.000000 0.022087 0.000000
# 6 0.000000 0.000000 0.000000 0.002781 0.000000 0.040912
#
#
# Mechanical properties :
#
#
# Convention : Reuss Voigt Hill
#
# Bulk Modulus (GPa) = 44.83367 53.89045 49.36206
# Shear Modulus (GPa) = 26.26563 29.26789 27.76676
#
# Velocity S-wave (km/s) = 3.57562 3.77444 3.67638
# Velocity P-wave (km/s) = 6.23458 6.72510 6.48448
#
# Compressibility (1/GPa) = 0.02230467
#
# Stress axis : x y z
#
# Youngs Moduli (GPa) = 71.05369 44.18718 65.14229
#
# Poissons Ratio (x) = 0.10730 0.45920
# Poissons Ratio (y) = 0.17254 0.35164
# Poissons Ratio (z) = 0.50087 0.23852
#
# Static dielectric constant tensor:
#      x y z
#    x 3.977600 0.000000 0.145160 
#    y 0.000000 3.530540 0.000000 
#    z 0.145160 0.000000 3.972810 
# 
# 
# High freq. dielectric constant tensor:
#      x y z
#    x 1.821720 0.000000 0.008150 
#    y 0.000000 1.786620 0.000000 
#    z 0.008150 0.000000 1.812980 
# 
# From -- ./inp_files/37722.got.cif
#   From: 2010.06.25/outbox.cif.g09.slc.cpg/sg13_19_cif.got.tgz:37722.got - 2010.06.28 04:50:58.
