data_PCOD8121880
_publ_section_title
;
Structure prediction by ZEFSAII (Michael W. Deem and Ramdas Pophale) SiO2 
 PCOD8121880
Probable space group: P 2/C
;
_chemical_formula_sum "Si O2"
_cell_formula_units_Z 20
_cell_length_a 5.328353
_cell_length_b 7.240989
_cell_length_c 25.342589
_cell_angle_alpha 90.000000
_cell_angle_beta 55.432396
_cell_angle_gamma 90.000000
_cell_volume 805.161395
_symmetry_space_group_name_H-M "P 2/C"
_symmetry_group_IT_number 13
_symmetry_cell_setting 'monoclinic'
loop_
_space_group_symop_operation_xyz
x,y,z
-x,y,1/2-z
-x,-y,-z
x,-y,1/2+z
loop_
_atom_site_type_symbol
_atom_site_label
_atom_site_fract_x
_atom_site_fract_y
_atom_site_fract_z
Si Si1 0.391614 0.179501 0.817017
Si Si2 0.677071 0.462697 0.311491
Si Si3 0.238265 0.256874 0.044844
Si Si4 0.768669 0.646079 0.410502
Si Si5 0.584626 0.870483 0.608377
O O1 0.500000 0.075299 0.750000
O O2 0.537143 0.381141 0.791359
O O3 0.031312 0.205877 0.867423
O O4 0.507888 0.067765 0.854838
O O5 0.663733 0.550210 0.370380
O O6 0.478126 0.277692 0.337420
O O7 0.000000 0.404716 0.250000
O O8 0.139574 0.473139 0.062334
O O9 0.377649 0.168194 0.081888
O O10 0.950459 0.142405 0.056331
O O11 0.493870 0.237667 0.969193
#
# Coordination Sequence:
#
# PCOD8121880 Si02
#       5
#     4   4   4   4   4
#     4  12  26  43  70 103 139 185 239 290 351 423
#     4  11  24  45  70  99 141 188 232 294 354 419
#     4  10  24  46  72 104 138 188 228 291 348 424
#     4  10  23  43  73  99 141 182 237 282 355 417
#     4  11  27  45  71 103 141 181 237 285 356 413
#
# _framework density 24.839741
#
# number of rings (size 3 to 8) (size 9 to 14) (size 15 to 20)
#    0.000    1.200    4.000    0.000    5.600    8.800 
#    0.000    0.000    0.000    0.000    0.000    0.000 
#    0.000    0.000    0.000    0.000    0.000    0.000 
#
# Total GULP energy -247912.976222 kJ/mol
# GULP energy per Si atom -12395.648811 kJ/mol
# Density = 2.478320 g / cm^3
# Si number density = 24.839741 Si / 1000 Ang^3
#
#
#
# Elastic Constant Matrix: (Units=GPa)
#
#
# Indices 1 2 3 4 5 6 
#
# 1 80.2728 7.8834 25.6156 0.0000 -16.5367 0.0000
# 2 7.8834 65.5363 26.4956 0.0000 -14.2855 0.0000
# 3 25.6156 26.4956 160.7565 0.0000 -17.0270 0.0000
# 4 0.0000 0.0000 0.0000 28.4605 0.0000 2.7490
# 5 -16.5367 -14.2855 -17.0270 0.0000 41.2366 0.0000
# 6 0.0000 0.0000 0.0000 2.7490 0.0000 31.3711
#
#
#
# Elastic Compliance Matrix: (Units=1/GPa)
#
#
# Indices 1 2 3 4 5 6 
#
# 1 0.014017 0.000088 -0.001725 0.000000 0.004939 0.000000
# 2 0.000088 0.017293 -0.002328 0.000000 0.005065 0.000000
# 3 -0.001725 -0.002328 0.007028 0.000000 0.001404 0.000000
# 4 0.000000 0.000000 0.000000 0.035436 0.000000 -0.003105
# 5 0.004939 0.005065 0.001404 0.000000 0.028565 0.000000
# 6 0.000000 0.000000 0.000000 -0.003105 0.000000 0.032149
#
#
# Mechanical properties :
#
#
# Convention : Reuss Voigt Hill
#
# Bulk Modulus (GPa) = 32.88563 47.39497 40.14030
# Shear Modulus (GPa) = 32.77534 36.65170 34.71352
#
# Velocity S-wave (km/s) = 3.63639 3.84543 3.74237
# Velocity P-wave (km/s) = 5.55869 6.23202 5.90496
#
# Compressibility (1/GPa) = 0.03040842
#
# Stress axis : x y z
#
# Youngs Moduli (GPa) = 71.34291 57.82589 142.29259
#
# Poissons Ratio (x) = -0.00508 0.24543
# Poissons Ratio (y) = -0.00627 0.33123
# Poissons Ratio (z) = 0.12305 0.13461
#
# Static dielectric constant tensor:
#      x y z
#    x 4.265930 0.000000 -0.068180 
#    y 0.000000 5.013070 0.000000 
#    z -0.068180 0.000000 4.613090 
# 
# 
# High freq. dielectric constant tensor:
#      x y z
#    x 1.971060 0.000000 -0.001340 
#    y 0.000000 1.992490 0.000000 
#    z -0.001340 0.000000 2.006910 
# 
# From -- ./inp_files/90101.got.cif
#   From: 2010.06.25/outbox.cif.g09.slc.cpg/sg13_46_cif.got.tgz:90101.got - 2010.06.28 04:50:58.
