data_PCOD8121770
_publ_section_title
;
Structure prediction by ZEFSAII (Michael W. Deem and Ramdas Pophale) SiO2 
 PCOD8121770
Probable space group: P 2/C
;
_chemical_formula_sum "Si O2"
_cell_formula_units_Z 28
_cell_length_a 18.284653
_cell_length_b 10.300134
_cell_length_c 20.932894
_cell_angle_alpha 90.000000
_cell_angle_beta 19.636221
_cell_angle_gamma 90.000000
_cell_volume 1324.826349
_symmetry_space_group_name_H-M "P 2/C"
_symmetry_group_IT_number 13
_symmetry_cell_setting 'monoclinic'
loop_
_space_group_symop_operation_xyz
x,y,z
-x,y,1/2-z
-x,-y,-z
x,-y,1/2+z
loop_
_atom_site_type_symbol
_atom_site_label
_atom_site_fract_x
_atom_site_fract_y
_atom_site_fract_z
Si Si1 0.484606 0.293533 0.127323
Si Si2 0.094492 0.549397 0.234527
Si Si3 0.254365 0.068056 0.537564
Si Si4 0.149585 0.960244 0.317771
Si Si5 0.167546 0.778505 0.994742
Si Si6 0.328083 0.612726 0.629871
Si Si7 0.618560 0.870879 0.973924
O O1 0.338185 0.297587 0.310555
O O2 0.319057 0.304123 0.202941
O O3 0.656458 0.410323 0.985845
O O4 0.615384 0.156666 0.017515
O O5 0.104197 0.456535 0.289687
O O6 0.000000 0.474680 0.250000
O O7 0.937280 0.671518 0.373150
O O8 0.304432 0.114004 0.423640
O O9 0.000000 0.093177 0.750000
O O10 0.318570 0.921284 0.505735
O O11 0.026449 0.842419 0.385114
O O12 0.197904 0.073479 0.226268
O O13 0.376311 0.913421 0.158439
O O14 0.000000 0.000000 0.500000
O O15 0.500000 0.500000 0.500000
O O16 0.383731 0.714434 0.527245
#
# Coordination Sequence:
#
# PCOD8121770 Si02
#       7
#     4   4   4   4   4   4   4
#     4  11  21  39  65  97 124 164 212 268 324 380
#     4  11  22  41  62  93 125 169 225 261 310 383
#     4  12  21  38  64  95 125 162 205 260 335 383
#     4  11  22  37  62  95 124 160 202 261 328 383
#     4  12  22  38  69  92 126 163 214 263 319 389
#     4  10  23  41  65  89 124 174 216 255 311 372
#     4  11  22  40  59  89 134 157 202 267 318 378
#
# _framework density 21.134846
#
# number of rings (size 3 to 8) (size 9 to 14) (size 15 to 20)
#    0.000    0.857    4.286    5.571    0.000    1.143 
#    0.000    2.857    0.000    0.000    7.429    0.000 
#    0.000    0.000    0.000    0.000    0.000    0.000 
#
# Total GULP energy -346867.712789 kJ/mol
# GULP energy per Si atom -12388.132600 kJ/mol
# Density = 2.108674 g / cm^3
# Si number density = 21.134846 Si / 1000 Ang^3
#
#
#
# Elastic Constant Matrix: (Units=GPa)
#
#
# Indices 1 2 3 4 5 6 
#
# 1 159.8143 49.2026 37.0482 0.0000 -11.4752 0.0000
# 2 49.2026 79.2713 26.6353 0.0000 -8.8528 0.0000
# 3 37.0482 26.6353 90.3115 0.0000 4.9183 0.0000
# 4 0.0000 0.0000 0.0000 14.5129 0.0000 -8.3244
# 5 -11.4752 -8.8528 4.9183 0.0000 24.5955 0.0000
# 6 0.0000 0.0000 0.0000 -8.3244 0.0000 53.2804
#
#
#
# Elastic Compliance Matrix: (Units=1/GPa)
#
#
# Indices 1 2 3 4 5 6 
#
# 1 0.008243 -0.004003 -0.002357 0.000000 0.002876 0.000000
# 2 -0.004003 0.016858 -0.003598 0.000000 0.004920 0.000000
# 3 -0.002357 -0.003598 0.013377 0.000000 -0.005070 0.000000
# 4 0.000000 0.000000 0.000000 0.075687 0.000000 0.011825
# 5 0.002876 0.004920 -0.005070 0.000000 0.044784 0.000000
# 6 0.000000 0.000000 0.000000 0.011825 0.000000 0.020616
#
#
# Mechanical properties :
#
#
# Convention : Reuss Voigt Hill
#
# Bulk Modulus (GPa) = 53.87492 61.68550 57.78021
# Shear Modulus (GPa) = 24.31106 32.91181 28.61144
#
# Velocity S-wave (km/s) = 3.39526 3.95046 3.68333
# Velocity P-wave (km/s) = 6.39662 7.07518 6.74444
#
# Compressibility (1/GPa) = 0.01856151
#
# Stress axis : x y z
#
# Youngs Moduli (GPa) = 121.32020 59.32053 74.75509
#
# Poissons Ratio (x) = 0.23745 0.17623
# Poissons Ratio (y) = 0.48562 0.26894
# Poissons Ratio (z) = 0.28601 0.21341
#
# Static dielectric constant tensor:
#      x y z
#    x 4.882800 0.000000 -0.155790 
#    y 0.000000 3.927140 0.000000 
#    z -0.155790 0.000000 3.802840 
# 
# 
# High freq. dielectric constant tensor:
#      x y z
#    x 1.846150 0.000000 -0.016950 
#    y 0.000000 1.806060 0.000000 
#    z -0.016950 0.000000 1.814270 
# 
# From -- ./inp_files/81029.got.cif
#   From: 2010.06.25/outbox.cif.g09.slc.cpg/sg13_41_cif.got.tgz:81029.got - 2010.06.28 04:50:58.
