data_PCOD8121075
_publ_section_title
;
Structure prediction by ZEFSAII (Michael W. Deem and Ramdas Pophale) SiO2 
 PCOD8121075
Probable space group: P 2/C
;
_chemical_formula_sum "Si O2"
_cell_formula_units_Z 32
_cell_length_a 16.112053
_cell_length_b 9.204049
_cell_length_c 24.454622
_cell_angle_alpha 90.000000
_cell_angle_beta 25.079395
_cell_angle_gamma 90.000000
_cell_volume 1537.188971
_symmetry_space_group_name_H-M "P 2/C"
_symmetry_group_IT_number 13
_symmetry_cell_setting 'monoclinic'
loop_
_space_group_symop_operation_xyz
x,y,z
-x,y,1/2-z
-x,-y,-z
x,-y,1/2+z
loop_
_atom_site_type_symbol
_atom_site_label
_atom_site_fract_x
_atom_site_fract_y
_atom_site_fract_z
Si Si1 0.650920 0.973386 0.208042
Si Si2 0.121055 0.366894 0.290505
Si Si3 0.982319 0.128913 0.067667
Si Si4 0.110530 0.617738 0.128302
Si Si5 0.506042 0.495896 0.562370
Si Si6 0.933735 0.113888 0.682973
Si Si7 0.184922 0.129718 0.169014
Si Si8 0.486540 0.820084 0.105140
O O1 0.500000 0.020805 0.250000
O O2 0.515058 0.889798 0.333455
O O3 0.771859 0.110580 0.161715
O O4 0.826406 0.864650 0.084967
O O5 0.012880 0.280493 0.403220
O O6 0.292230 0.466185 0.213321
O O7 0.238138 0.248688 0.183236
O O8 0.964957 0.467274 0.352863
O O9 0.016741 0.989318 0.086002
O O10 0.000000 0.650419 0.250000
O O11 0.084757 0.755016 0.103295
O O12 0.338712 0.609629 0.006583
O O13 0.500000 0.500000 0.500000
O O14 0.570053 0.342663 0.550683
O O15 0.729835 0.185533 0.788830
O O16 0.894818 0.021247 0.760152
O O17 0.000000 0.204608 0.250000
O O18 0.366051 0.088064 0.021415
#
# Coordination Sequence:
#
# PCOD8121075 Si02
#       8
#     4   4   4   4   4   4   4   4
#     4  10  23  42  69  89 124 166 218 272 313 369
#     4  11  22  40  63  92 130 169 205 259 316 389
#     4   9  23  45  65  95 121 167 218 267 324 367
#     4  12  22  37  60  93 132 176 198 250 319 386
#     4  12  22  37  61  93 136 167 210 250 319 393
#     4  10  22  39  61  92 133 161 208 261 319 379
#     4  11  22  35  58  95 128 160 206 254 314 386
#     4  11  21  40  63  94 123 170 210 261 313 380
#
# _framework density 20.817219000000001
#
# number of rings (size 3 to 8) (size 9 to 14) (size 15 to 20)
#    0.000    1.250    3.750    1.875    5.250    1.000 
#    4.500    0.625    0.000    0.750    0.000    0.000 
#    0.000    0.000    0.000    0.000    0.000    0.000 
#
# Total GULP energy -396676.612088 kJ/mol
# GULP energy per Si atom -12396.144128 kJ/mol
# Density = 2.076984 g / cm^3
# Si number density = 20.817219 Si / 1000 Ang^3
#
#
#
# Elastic Constant Matrix: (Units=GPa)
#
#
# Indices 1 2 3 4 5 6 
#
# 1 103.9637 30.6805 23.6910 0.0000 -11.7329 0.0000
# 2 30.6805 82.2296 9.7198 0.0000 2.5808 0.0000
# 3 23.6910 9.7198 72.5280 0.0000 6.5074 0.0000
# 4 0.0000 0.0000 0.0000 9.6836 0.0000 23.2200
# 5 -11.7329 2.5808 6.5074 0.0000 41.9281 0.0000
# 6 0.0000 0.0000 0.0000 23.2200 0.0000 -31.9902
#
#
#
# Elastic Compliance Matrix: (Units=1/GPa)
#
#
# Indices 1 2 3 4 5 6 
#
# 1 0.012221 -0.004244 -0.003806 0.000000 0.004272 0.000000
# 2 -0.004244 0.013841 -0.000290 0.000000 -0.001995 0.000000
# 3 -0.003806 -0.000290 0.015378 0.000000 -0.003434 0.000000
# 4 0.000000 0.000000 0.000000 0.037682 0.000000 0.027351
# 5 0.004272 -0.001995 -0.003434 0.000000 0.025701 0.000000
# 6 0.000000 0.000000 0.000000 0.027351 0.000000 -0.011407
#
#
# Mechanical properties :
#
#
# Convention : Reuss Voigt Hill
#
# Bulk Modulus (GPa) = 40.38741 42.98932 41.68837
# Shear Modulus (GPa) = 42.24755 16.89963 29.57359
#
# Velocity S-wave (km/s) = 4.50983 2.85232 3.77322
# Velocity P-wave (km/s) = 6.82358 5.61634 6.24918
#
# Compressibility (1/GPa) = 0.02476019
#
# Stress axis : x y z
#
# Youngs Moduli (GPa) = 81.82931 72.24758 65.02777
#
# Poissons Ratio (x) = 0.30660 0.24752
# Poissons Ratio (y) = 0.34726 0.01884
# Poissons Ratio (z) = 0.31147 0.02094
#
# Static dielectric constant tensor:
#      x y z
#    x 4.055930 0.000000 -0.136450 
#    y 0.000000 3.675710 0.000000 
#    z -0.136450 0.000000 3.757610 
# 
# 
# High freq. dielectric constant tensor:
#      x y z
#    x 1.813370 0.000000 -0.014160 
#    y 0.000000 1.803310 0.000000 
#    z -0.014160 0.000000 1.811060 
# 
# From -- ./inp_files/87412.got.cif
#   From: 2010.06.25/outbox.cif.g09.slc.cpg/sg13_44_cif.got.tgz:87412.got - 2010.06.28 04:50:58.
