data_PCOD8121402
_publ_section_title
;
Structure prediction by ZEFSAII (Michael W. Deem and Ramdas Pophale) SiO2 
 PCOD8121402
Probable space group: P 2/C
;
_chemical_formula_sum "Si O2"
_cell_formula_units_Z 22
_cell_length_a 12.639262
_cell_length_b 5.472333
_cell_length_c 15.268856
_cell_angle_alpha 90.000000
_cell_angle_beta 106.197527
_cell_angle_gamma 90.000000
_cell_volume 1014.168813
_symmetry_space_group_name_H-M "P 2/C"
_symmetry_group_IT_number 13
_symmetry_cell_setting 'monoclinic'
loop_
_space_group_symop_operation_xyz
x,y,z
-x,y,1/2-z
-x,-y,-z
x,-y,1/2+z
loop_
_atom_site_type_symbol
_atom_site_label
_atom_site_fract_x
_atom_site_fract_y
_atom_site_fract_z
Si Si1 0.266429 0.585167 0.588184
Si Si2 0.823075 0.396783 0.614989
Si Si3 0.812019 0.228308 0.256548
Si Si4 0.636470 0.046177 0.622435
Si Si5 0.386611 0.905289 0.074781
Si Si6 0.000000 0.086990 0.750000
O O1 0.177718 0.563496 0.489547
O O2 0.199245 0.591199 0.663801
O O3 0.336365 0.335518 0.608389
O O4 0.336846 0.836326 0.596367
O O5 0.838446 0.646788 0.669959
O O6 0.927333 0.233449 0.663556
O O7 0.704266 0.289553 0.615299
O O8 0.697134 0.085521 0.217225
O O9 0.917992 0.058576 0.295662
O O10 0.630152 0.877635 0.533767
O O11 0.515210 0.108793 0.628254
#
# Coordination Sequence:
#
# PCOD8121402 Si02
#       6
#     4   4   4   4   4   2
#     4  11  25  41  69  99 139 171 227 269 337 396
#     4  10  22  44  66  93 132 175 220 286 330 404
#     4  11  23  43  65  98 130 179 225 283 333 403
#     4   9  21  39  68  90 139 175 223 264 337 389
#     4  10  22  42  64 102 132 181 216 272 328 401
#     4  10  24  44  68  94 126 176 230 282 352 388
#
# _framework density 21.692637999999999
#
# number of rings (size 3 to 8) (size 9 to 14) (size 15 to 20)
#    0.000    1.818    1.818    0.545    7.636    3.636 
#    0.000    3.636    0.000    0.000    0.000    0.000 
#    0.000    0.000    0.000    0.000    0.000    0.000 
#
# Total GULP energy -272736.931846 kJ/mol
# GULP energy per Si atom -12397.133266 kJ/mol
# Density = 2.164326 g / cm^3
# Si number density = 21.692638 Si / 1000 Ang^3
#
#
#
# Elastic Constant Matrix: (Units=GPa)
#
#
# Indices 1 2 3 4 5 6 
#
# 1 118.1972 39.9667 42.4251 0.0000 27.2286 0.0000
# 2 39.9667 110.4252 20.3256 0.0000 8.4558 0.0000
# 3 42.4251 20.3256 96.5100 0.0000 3.4646 0.0000
# 4 0.0000 0.0000 0.0000 14.1730 0.0000 -6.5627
# 5 27.2286 8.4558 3.4646 0.0000 26.9228 0.0000
# 6 0.0000 0.0000 0.0000 -6.5627 0.0000 15.0557
#
#
#
# Elastic Compliance Matrix: (Units=1/GPa)
#
#
# Indices 1 2 3 4 5 6 
#
# 1 0.014384 -0.003270 -0.005173 0.000000 -0.012855 0.000000
# 2 -0.003270 0.010366 -0.000751 0.000000 0.000148 0.000000
# 3 -0.005173 -0.000751 0.012656 0.000000 0.003839 0.000000
# 4 0.000000 0.000000 0.000000 0.088399 0.000000 0.038532
# 5 -0.012855 0.000148 0.003839 0.000000 0.049604 0.000000
# 6 0.000000 0.000000 0.000000 0.038532 0.000000 0.083216
#
#
# Mechanical properties :
#
#
# Convention : Reuss Voigt Hill
#
# Bulk Modulus (GPa) = 52.57982 58.95190 55.76586
# Shear Modulus (GPa) = 17.64587 26.05796 21.85192
#
# Velocity S-wave (km/s) = 2.85520 3.46964 3.17731
# Velocity P-wave (km/s) = 5.92965 6.57923 6.26286
#
# Compressibility (1/GPa) = 0.01901870
#
# Stress axis : x y z
#
# Youngs Moduli (GPa) = 69.52102 96.46694 79.01346
#
# Poissons Ratio (x) = 0.31540 0.40874
# Poissons Ratio (y) = 0.22730 0.05936
# Poissons Ratio (z) = 0.35964 0.07247
#
# Static dielectric constant tensor:
#      x y z
#    x 3.857370 0.000000 0.257500 
#    y 0.000000 3.881390 0.000000 
#    z 0.257500 0.000000 3.985210 
# 
# 
# High freq. dielectric constant tensor:
#      x y z
#    x 1.845460 0.000000 0.015390 
#    y 0.000000 1.852700 0.000000 
#    z 0.015390 0.000000 1.852470 
# 
# From -- ./inp_files/48857.got.cif
#   From: 2010.06.25/outbox.cif.g09.slc.cpg/sg13_25_cif.got.tgz:48857.got - 2010.06.28 04:50:58.
