data_PCOD8121316
_publ_section_title
;
Structure prediction by ZEFSAII (Michael W. Deem and Ramdas Pophale) SiO2 
 PCOD8121316
Probable space group: P 2/C
;
_chemical_formula_sum "Si O2"
_cell_formula_units_Z 16
_cell_length_a 10.078527
_cell_length_b 4.934507
_cell_length_c 15.834046
_cell_angle_alpha 90.000000
_cell_angle_beta 114.815156
_cell_angle_gamma 90.000000
_cell_volume 714.758022
_symmetry_space_group_name_H-M "P 2/C"
_symmetry_group_IT_number 13
_symmetry_cell_setting 'monoclinic'
loop_
_space_group_symop_operation_xyz
x,y,z
-x,y,1/2-z
-x,-y,-z
x,-y,1/2+z
loop_
_atom_site_type_symbol
_atom_site_label
_atom_site_fract_x
_atom_site_fract_y
_atom_site_fract_z
Si Si1 0.120240 0.597891 0.098462
Si Si2 0.591113 0.244577 0.117234
Si Si3 0.876436 0.901229 0.784203
Si Si4 0.594515 0.267391 0.926808
O O1 0.157289 0.337464 0.161327
O O2 0.261404 0.711276 0.089802
O O3 0.070482 0.832747 0.150603
O O4 0.000000 0.500000 0.000000
O O5 0.722841 0.079226 0.194818
O O6 0.531745 0.526699 0.142034
O O7 0.454473 0.043232 0.088124
O O8 0.636693 0.331239 0.034798
O O9 0.000000 0.823807 0.750000
#
# Coordination Sequence:
#
# PCOD8121316 Si02
#       4
#     4   4   4   4
#     4  12  26  43  66  94 129 171 217 268 320 383
#     4  10  22  41  65  94 128 166 207 258 320 381
#     4  12  26  43  66  94 130 171 216 268 321 384
#     4  10  22  41  66  94 128 166 207 259 320 383
#
# _framework density 22.385197999999999
#
# number of rings (size 3 to 8) (size 9 to 14) (size 15 to 20)
#    0.000    1.000    0.000    6.000    0.000   12.000 
#    0.000    0.000    0.000    0.000    0.000    0.000 
#    0.000    0.000    0.000    0.000    0.000    0.000 
#
# Total GULP energy -198335.064192 kJ/mol
# GULP energy per Si atom -12395.941512 kJ/mol
# Density = 2.233425 g / cm^3
# Si number density = 22.385198 Si / 1000 Ang^3
#
#
#
# Elastic Constant Matrix: (Units=GPa)
#
#
# Indices 1 2 3 4 5 6 
#
# 1 -164.3654 -186.6430 113.3273 0.0000 200.1144 0.0000
# 2 -186.6430 -30.2808 76.2107 0.0000 142.0208 0.0000
# 3 113.3273 76.2107 81.2541 0.0000 -46.6086 0.0000
# 4 0.0000 0.0000 0.0000 47.7707 0.0000 -4.0390
# 5 200.1144 142.0208 -46.6086 0.0000 -130.9883 0.0000
# 6 0.0000 0.0000 0.0000 -4.0390 0.0000 35.2846
#
#
#
# Elastic Compliance Matrix: (Units=1/GPa)
#
#
# Indices 1 2 3 4 5 6 
#
# 1 0.008330 -0.001373 -0.003226 0.000000 0.012386 0.000000
# 2 -0.001373 0.008776 -0.001712 0.000000 0.008027 0.000000
# 3 -0.003226 -0.001712 0.012059 0.000000 -0.011076 0.000000
# 4 0.000000 0.000000 0.000000 0.021138 0.000000 0.002420
# 5 0.012386 0.008027 -0.011076 0.000000 0.023933 0.000000
# 6 0.000000 0.000000 0.000000 0.002420 0.000000 0.028618
#
#
# Mechanical properties :
#
#
# Convention : Reuss Voigt Hill
#
# Bulk Modulus (GPa) = 60.44681 -11.95578 24.24551
# Shear Modulus (GPa) = 41.32562 -17.33907 11.99327
#
# Velocity S-wave (km/s) = 4.30130 -2.78614 2.31718
# Velocity P-wave (km/s) = 7.19235 3.96266 4.24425
#
# Compressibility (1/GPa) = 0.01654347
#
# Stress axis : x y z
#
# Youngs Moduli (GPa) = 120.04476 113.94920 82.92419
#
# Poissons Ratio (x) = 0.15640 0.26753
# Poissons Ratio (y) = 0.16477 0.14198
# Poissons Ratio (z) = 0.38728 0.19510
#
# Static dielectric constant tensor:
#      x y z
#    x 3.881520 0.000000 -0.170490 
#    y 0.000000 4.285450 0.000000 
#    z -0.170490 0.000000 3.993860 
# 
# 
# High freq. dielectric constant tensor:
#      x y z
#    x 1.884340 0.000000 -0.008700 
#    y 0.000000 1.899070 0.000000 
#    z -0.008700 0.000000 1.884090 
# 
# From -- ./inp_files/44853.got.cif
#   From: 2010.06.25/outbox.cif.g09.slc.cpg/sg13_23_cif.got.tgz:44853.got - 2010.06.28 04:50:58.
