data_PCOD8121406
_publ_section_title
;
Structure prediction by ZEFSAII (Michael W. Deem and Ramdas Pophale) SiO2 
 PCOD8121406
Probable space group: P 2/C
;
_chemical_formula_sum "Si O2"
_cell_formula_units_Z 16
_cell_length_a 8.064094
_cell_length_b 8.636463
_cell_length_c 16.348202
_cell_angle_alpha 90.000000
_cell_angle_beta 135.580953
_cell_angle_gamma 90.000000
_cell_volume 796.889296
_symmetry_space_group_name_H-M "P 2/C"
_symmetry_group_IT_number 13
_symmetry_cell_setting 'monoclinic'
loop_
_space_group_symop_operation_xyz
x,y,z
-x,y,1/2-z
-x,-y,-z
x,-y,1/2+z
loop_
_atom_site_type_symbol
_atom_site_label
_atom_site_fract_x
_atom_site_fract_y
_atom_site_fract_z
Si Si1 0.500000 0.925120 0.250000
Si Si2 0.000000 0.471210 0.250000
Si Si3 0.229101 0.824696 0.874926
Si Si4 0.095979 0.766202 0.198128
Si Si5 0.289998 0.936404 0.530039
O O1 0.358951 0.823594 0.267607
O O2 0.693161 0.029681 0.366785
O O3 0.801831 0.362855 0.135924
O O4 0.889928 0.580073 0.283090
O O5 0.244237 0.898393 0.970143
O O6 0.000000 0.899906 0.750000
O O7 0.461637 0.862891 0.906655
O O8 0.000000 0.841310 0.250000
O O9 0.914799 0.812264 0.061776
#
# Coordination Sequence:
#
# PCOD8121406 Si02
#       5
#     2   2   4   4   4
#     4  12  24  38  62 100 128 156 216 256 296 372
#     4   8  22  40  64  90 128 160 204 258 310 376
#     4   9  19  39  65  93 117 163 211 255 308 358
#     4  10  22  42  64  92 122 169 202 255 316 358
#     4  11  20  36  67  90 124 162 211 258 297 368
#
# _framework density 20.078071999999999
#
# number of rings (size 3 to 8) (size 9 to 14) (size 15 to 20)
#    1.500    0.500    0.000    6.000    0.000    1.000 
#    0.000    2.500    0.000    0.000    0.000    0.000 
#    0.000    0.000    0.000    0.000    0.000    0.000 
#
# Total GULP energy -198216.848226 kJ/mol
# GULP energy per Si atom -12388.553014 kJ/mol
# Density = 2.003237 g / cm^3
# Si number density = 20.078072 Si / 1000 Ang^3
#
#
#
# Elastic Constant Matrix: (Units=GPa)
#
#
# Indices 1 2 3 4 5 6 
#
# 1 79.1142 22.0283 18.5752 0.0000 3.5638 0.0000
# 2 22.0283 135.6953 48.6138 0.0000 -8.1747 0.0000
# 3 18.5752 48.6138 121.1799 0.0000 -6.5673 0.0000
# 4 0.0000 0.0000 0.0000 24.8155 0.0000 6.6649
# 5 3.5638 -8.1747 -6.5673 0.0000 36.3323 0.0000
# 6 0.0000 0.0000 0.0000 6.6649 0.0000 16.7365
#
#
#
# Elastic Compliance Matrix: (Units=1/GPa)
#
#
# Indices 1 2 3 4 5 6 
#
# 1 0.013576 -0.001798 -0.001468 0.000000 -0.002002 0.000000
# 2 -0.001798 0.008908 -0.003211 0.000000 0.001600 0.000000
# 3 -0.001468 -0.003211 0.009830 0.000000 0.001198 0.000000
# 4 0.000000 0.000000 0.000000 0.045124 0.000000 -0.017969
# 5 -0.002002 0.001600 0.001198 0.000000 0.028297 0.000000
# 6 0.000000 0.000000 0.000000 -0.017969 0.000000 0.066905
#
#
# Mechanical properties :
#
#
# Convention : Reuss Voigt Hill
#
# Bulk Modulus (GPa) = 51.65613 57.15823 54.40718
# Shear Modulus (GPa) = 26.03510 32.02835 29.03173
#
# Velocity S-wave (km/s) = 3.60487 3.99832 3.80668
# Velocity P-wave (km/s) = 6.56584 7.06011 6.81746
#
# Compressibility (1/GPa) = 0.01935879
#
# Stress axis : x y z
#
# Youngs Moduli (GPa) = 73.66195 112.25482 101.72484
#
# Poissons Ratio (x) = 0.20189 0.14932
# Poissons Ratio (y) = 0.13248 0.32667
# Poissons Ratio (z) = 0.10813 0.36049
#
# Static dielectric constant tensor:
#      x y z
#    x 3.371660 0.000000 0.072670 
#    y 0.000000 3.504270 0.000000 
#    z 0.072670 0.000000 3.712960 
# 
# 
# High freq. dielectric constant tensor:
#      x y z
#    x 1.764390 0.000000 0.011200 
#    y 0.000000 1.770110 0.000000 
#    z 0.011200 0.000000 1.790830 
# 
# From -- ./inp_files/63139.got.cif
#   From: 2010.06.25/outbox.cif.g09.slc.cpg/sg13_32_cif.got.tgz:63139.got - 2010.06.28 04:50:58.
