data_PCOD8121248
_publ_section_title
;
Structure prediction by ZEFSAII (Michael W. Deem and Ramdas Pophale) SiO2 
 PCOD8121248
Probable space group: P 2/C
;
_chemical_formula_sum "Si O2"
_cell_formula_units_Z 20
_cell_length_a 5.269721
_cell_length_b 10.777343
_cell_length_c 14.277839
_cell_angle_alpha 90.000000
_cell_angle_beta 113.496272
_cell_angle_gamma 90.000000
_cell_volume 743.655647
_symmetry_space_group_name_H-M "P 2/C"
_symmetry_group_IT_number 13
_symmetry_cell_setting 'monoclinic'
loop_
_space_group_symop_operation_xyz
x,y,z
-x,y,1/2-z
-x,-y,-z
x,-y,1/2+z
loop_
_atom_site_type_symbol
_atom_site_label
_atom_site_fract_x
_atom_site_fract_y
_atom_site_fract_z
Si Si1 0.000000 0.022690 0.250000
Si Si2 0.317285 0.148411 0.912546
Si Si3 0.547474 0.196127 0.135750
Si Si4 0.965543 0.369164 0.885575
Si Si5 0.994876 0.347597 0.397061
Si Si6 0.500000 0.786333 0.250000
O O1 0.279048 0.102980 0.271112
O O2 0.043066 0.936143 0.349850
O O3 0.256454 0.296453 0.917672
O O4 0.504685 0.131940 0.846337
O O5 0.458366 0.110914 0.032279
O O6 0.293104 0.267564 0.149497
O O7 0.777551 0.294518 0.138564
O O8 0.957318 0.512335 0.856455
O O9 0.763647 0.302544 0.783604
O O10 0.874888 0.349756 0.980187
#
# Coordination Sequence:
#
# PCOD8121248 Si02
#       6
#     2   4   4   4   4   2
#     4  12  26  48  70 102 142 196 242 294 352 418
#     4  11  24  45  67 108 138 186 245 294 351 419
#     4  11  26  47  71 103 146 187 234 296 351 427
#     4  10  22  40  71 101 140 179 233 299 352 426
#     4  10  24  45  71 102 141 183 229 291 369 417
#     4  12  20  38  70 102 138 184 234 286 356 414
#
# _framework density 26.894168000000001
#
# number of rings (size 3 to 8) (size 9 to 14) (size 15 to 20)
#    0.000    1.200    4.000    0.600    2.800    6.400 
#    0.000    4.000    0.000    0.000    0.000    0.000 
#    0.000    0.000    0.000    0.000    0.000    0.000 
#
# Total GULP energy -247811.692960 kJ/mol
# GULP energy per Si atom -12390.584648 kJ/mol
# Density = 2.683296 g / cm^3
# Si number density = 26.894168 Si / 1000 Ang^3
#
#
#
# Elastic Constant Matrix: (Units=GPa)
#
#
# Indices 1 2 3 4 5 6 
#
# 1 121.0061 38.0338 29.8018 0.0000 0.3859 0.0000
# 2 38.0338 126.8948 44.2840 0.0000 13.2154 0.0000
# 3 29.8018 44.2840 115.1803 0.0000 14.6342 0.0000
# 4 0.0000 0.0000 0.0000 19.9627 0.0000 -5.8274
# 5 0.3859 13.2154 14.6342 0.0000 46.6209 0.0000
# 6 0.0000 0.0000 0.0000 -5.8274 0.0000 24.8437
#
#
#
# Elastic Compliance Matrix: (Units=1/GPa)
#
#
# Indices 1 2 3 4 5 6 
#
# 1 0.009412 -0.002354 -0.001672 0.000000 0.001114 0.000000
# 2 -0.002354 0.009798 -0.002924 0.000000 -0.001840 0.000000
# 3 -0.001672 -0.002924 0.010553 0.000000 -0.002470 0.000000
# 4 0.000000 0.000000 0.000000 0.053775 0.000000 0.012614
# 5 0.001114 -0.001840 -0.002470 0.000000 0.022737 0.000000
# 6 0.000000 0.000000 0.000000 0.012614 0.000000 0.043210
#
#
# Mechanical properties :
#
#
# Convention : Reuss Voigt Hill
#
# Bulk Modulus (GPa) = 63.03925 65.25784 64.14854
# Shear Modulus (GPa) = 29.64306 35.01623 32.32964
#
# Velocity S-wave (km/s) = 3.32356 3.61224 3.47090
# Velocity P-wave (km/s) = 6.18213 6.45872 6.32194
#
# Compressibility (1/GPa) = 0.01586313
#
# Stress axis : x y z
#
# Youngs Moduli (GPa) = 106.24708 102.05985 94.76173
#
# Poissons Ratio (x) = 0.24021 0.15843
# Poissons Ratio (y) = 0.25006 0.27712
# Poissons Ratio (z) = 0.17764 0.29846
#
# Static dielectric constant tensor:
#      x y z
#    x 4.492840 0.000000 0.225820 
#    y 0.000000 5.111340 0.000000 
#    z 0.225820 0.000000 5.403040 
# 
# 
# High freq. dielectric constant tensor:
#      x y z
#    x 2.062470 0.000000 0.001610 
#    y 0.000000 2.089260 0.000000 
#    z 0.001610 0.000000 2.100910 
# 
# From -- ./inp_files/60980.got.cif
#   From: 2010.06.25/outbox.cif.g09.slc.cpg/sg13_31_cif.got.tgz:60980.got - 2010.06.28 04:50:58.
