data_PCOD8121986
_publ_section_title
;
Structure prediction by ZEFSAII (Michael W. Deem and Ramdas Pophale) SiO2 
 PCOD8121986
Probable space group: P 2/C
;
_chemical_formula_sum "Si O2"
_cell_formula_units_Z 20
_cell_length_a 23.930346
_cell_length_b 7.465825
_cell_length_c 8.766844
_cell_angle_alpha 90.000000
_cell_angle_beta 33.817096
_cell_angle_gamma 90.000000
_cell_volume 871.704342
_symmetry_space_group_name_H-M "P 2/C"
_symmetry_group_IT_number 13
_symmetry_cell_setting 'monoclinic'
loop_
_space_group_symop_operation_xyz
x,y,z
-x,y,1/2-z
-x,-y,-z
x,-y,1/2+z
loop_
_atom_site_type_symbol
_atom_site_label
_atom_site_fract_x
_atom_site_fract_y
_atom_site_fract_z
Si Si1 0.138803 0.573971 0.187173
Si Si2 0.000000 0.011394 0.250000
Si Si3 0.000000 0.477307 0.250000
Si Si4 0.700548 0.134059 0.182568
Si Si5 0.865563 0.837994 0.794425
Si Si6 0.572157 0.935039 0.705367
O O1 0.052628 0.605582 0.255563
O O2 0.170941 0.367049 0.125772
O O3 0.087301 0.637701 0.464320
O O4 0.234406 0.691605 0.926445
O O5 0.917255 0.887206 0.517631
O O6 0.055325 0.138051 0.247711
O O7 0.657368 0.170404 0.108153
O O8 0.618010 0.101831 0.502594
O O9 0.766345 0.955075 0.037011
O O10 0.500000 0.822442 0.750000
O O11 0.500000 0.000000 0.000000
#
# Coordination Sequence:
#
# PCOD8121986 Si02
#       6
#     4   2   2   4   4   4
#     4  11  26  41  64  90 144 182 237 264 325 377
#     4  10  24  38  60  92 140 196 232 264 328 366
#     4  10  26  42  58  96 142 202 214 278 312 370
#     4  11  24  40  71 102 120 176 222 275 340 412
#     4  11  24  39  61  94 134 177 231 274 308 394
#     4   9  21  46  73  97 129 161 211 286 368 421
#
# _framework density 22.943556999999998
#
# number of rings (size 3 to 8) (size 9 to 14) (size 15 to 20)
#    0.000    1.600    0.000    2.400   22.400    0.000 
#    0.000    0.000    0.000   24.000    0.000    0.000 
#    0.000    0.000    0.000    0.000    0.000    0.000 
#
# Total GULP energy -247823.455797 kJ/mol
# GULP energy per Si atom -12391.172790 kJ/mol
# Density = 2.289134 g / cm^3
# Si number density = 22.943557 Si / 1000 Ang^3
#
#
#
# Elastic Constant Matrix: (Units=GPa)
#
#
# Indices 1 2 3 4 5 6 
#
# 1 110.7610 17.8346 41.2835 0.0000 5.0025 0.0000
# 2 17.8346 129.2262 47.0863 0.0000 -4.9914 0.0000
# 3 41.2835 47.0863 141.9984 0.0000 16.7622 0.0000
# 4 0.0000 0.0000 0.0000 23.7375 0.0000 4.2039
# 5 5.0025 -4.9914 16.7622 0.0000 45.1060 0.0000
# 6 0.0000 0.0000 0.0000 4.2039 0.0000 19.9812
#
#
#
# Elastic Compliance Matrix: (Units=1/GPa)
#
#
# Indices 1 2 3 4 5 6 
#
# 1 0.010142 -0.000382 -0.002807 0.000000 -0.000124 0.000000
# 2 -0.000382 0.009021 -0.003141 0.000000 0.002208 0.000000
# 3 -0.002807 -0.003141 0.009313 0.000000 -0.003497 0.000000
# 4 0.000000 0.000000 0.000000 0.043758 0.000000 -0.009206
# 5 -0.000124 0.002208 -0.003497 0.000000 0.023728 0.000000
# 6 0.000000 0.000000 0.000000 -0.009206 0.000000 0.051984
#
#
# Mechanical properties :
#
#
# Convention : Reuss Voigt Hill
#
# Bulk Modulus (GPa) = 63.22838 66.04381 64.63610
# Shear Modulus (GPa) = 30.14285 36.15035 33.14660
#
# Velocity S-wave (km/s) = 3.62855 3.97372 3.80505
# Velocity P-wave (km/s) = 6.72110 7.06412 6.89474
#
# Compressibility (1/GPa) = 0.01581568
#
# Stress axis : x y z
#
# Youngs Moduli (GPa) = 98.60100 110.85520 107.37795
#
# Poissons Ratio (x) = 0.04229 0.30146
# Poissons Ratio (y) = 0.03762 0.33727
# Poissons Ratio (z) = 0.27682 0.34819
#
# Static dielectric constant tensor:
#      x y z
#    x 5.860340 0.000000 -0.159280 
#    y 0.000000 3.678650 0.000000 
#    z -0.159280 0.000000 4.449530 
# 
# 
# High freq. dielectric constant tensor:
#      x y z
#    x 1.935480 0.000000 0.018830 
#    y 0.000000 1.868390 0.000000 
#    z 0.018830 0.000000 1.915220 
# 
# From -- ./inp_files/20840.got.cif
#   From: 2010.06.25/outbox.cif.g09.slc.cpg/sg13_11_cif.got.tgz:20840.got - 2010.06.28 04:50:58.
