data_PCOD8121727
_publ_section_title
;
Structure prediction by ZEFSAII (Michael W. Deem and Ramdas Pophale) SiO2 
 PCOD8121727
Probable space group: P 2/C
;
_chemical_formula_sum "Si O2"
_cell_formula_units_Z 20
_cell_length_a 12.813466
_cell_length_b 5.076887
_cell_length_c 12.849141
_cell_angle_alpha 90.000000
_cell_angle_beta 94.502785
_cell_angle_gamma 90.000000
_cell_volume 833.289095
_symmetry_space_group_name_H-M "P 2/C"
_symmetry_group_IT_number 13
_symmetry_cell_setting 'monoclinic'
loop_
_space_group_symop_operation_xyz
x,y,z
-x,y,1/2-z
-x,-y,-z
x,-y,1/2+z
loop_
_atom_site_type_symbol
_atom_site_label
_atom_site_fract_x
_atom_site_fract_y
_atom_site_fract_z
Si Si1 0.323383 0.016201 0.822259
Si Si2 0.890655 0.950514 0.295886
Si Si3 0.597109 0.401895 0.819778
Si Si4 0.654511 0.516555 0.543408
Si Si5 0.812298 0.447453 0.388343
O O1 0.198152 0.032371 0.799709
O O2 0.380390 0.098337 0.716986
O O3 0.366175 0.234759 0.907024
O O4 0.358004 0.735372 0.868824
O O5 0.891075 0.671809 0.354590
O O6 0.000000 0.001966 0.250000
O O7 0.871091 0.170719 0.383327
O O8 0.500000 0.528672 0.750000
O O9 0.706345 0.563243 0.806445
O O10 0.573268 0.416384 0.941956
O O11 0.772677 0.511778 0.502402
#
# Coordination Sequence:
#
# PCOD8121727 Si02
#       5
#     4   4   4   4   4
#     4  11  22  41  64  91 127 169 203 263 311 364
#     4  11  21  40  66  89 121 171 208 254 320 369
#     4   9  22  41  66  92 130 170 203 261 308 371
#     4  10  23  40  64  93 131 160 212 254 311 372
#     4   9  21  40  59  88 132 153 206 264 298 365
#
# _framework density 24.001272
#
# number of rings (size 3 to 8) (size 9 to 14) (size 15 to 20)
#    1.200    0.800    0.000    4.200    0.000    1.600 
#    0.000   20.000    0.000    0.000    0.000    0.000 
#    0.000    0.000    0.000    0.000    0.000    0.000 
#
# Total GULP energy -247826.727650 kJ/mol
# GULP energy per Si atom -12391.336382 kJ/mol
# Density = 2.394664 g / cm^3
# Si number density = 24.001272 Si / 1000 Ang^3
#
#
#
# Elastic Constant Matrix: (Units=GPa)
#
#
# Indices 1 2 3 4 5 6 
#
# 1 66.2627 15.2832 -0.3675 0.0000 -1.0209 0.0000
# 2 15.2832 105.9076 29.1385 0.0000 -7.6151 0.0000
# 3 -0.3675 29.1385 96.3010 0.0000 -1.6261 0.0000
# 4 0.0000 0.0000 0.0000 38.9969 0.0000 -13.6149
# 5 -1.0209 -7.6151 -1.6261 0.0000 28.3860 0.0000
# 6 0.0000 0.0000 0.0000 -13.6149 0.0000 39.1470
#
#
#
# Elastic Compliance Matrix: (Units=1/GPa)
#
#
# Indices 1 2 3 4 5 6 
#
# 1 0.015669 -0.002489 0.000812 0.000000 -0.000058 0.000000
# 2 -0.002489 0.010888 -0.003259 0.000000 0.002645 0.000000
# 3 0.000812 -0.003259 0.011370 0.000000 -0.000194 0.000000
# 4 0.000000 0.000000 0.000000 0.029187 0.000000 0.010151
# 5 -0.000058 0.002645 -0.000194 0.000000 0.035925 0.000000
# 6 0.000000 0.000000 0.000000 0.010151 0.000000 0.029075
#
#
# Mechanical properties :
#
#
# Convention : Reuss Voigt Hill
#
# Bulk Modulus (GPa) = 35.64418 39.61995 37.63206
# Shear Modulus (GPa) = 33.03848 36.26712 34.65280
#
# Velocity S-wave (km/s) = 3.71419 3.89144 3.80385
# Velocity P-wave (km/s) = 5.76860 6.06089 5.91655
#
# Compressibility (1/GPa) = 0.02805507
#
# Stress axis : x y z
#
# Youngs Moduli (GPa) = 63.82004 91.84216 87.94965
#
# Poissons Ratio (x) = 0.22856 -0.07140
# Poissons Ratio (y) = 0.15883 0.28666
# Poissons Ratio (z) = -0.05181 0.29935
#
# Static dielectric constant tensor:
#      x y z
#    x 4.119280 0.000000 -0.107240 
#    y 0.000000 4.136080 0.000000 
#    z -0.107240 0.000000 4.356760 
# 
# 
# High freq. dielectric constant tensor:
#      x y z
#    x 1.936810 0.000000 -0.016240 
#    y 0.000000 1.950640 0.000000 
#    z -0.016240 0.000000 1.947780 
# 
# From -- ./inp_files/35412.got.cif
#   From: 2010.06.25/outbox.cif.g09.slc.cpg/sg13_18_cif.got.tgz:35412.got - 2010.06.28 04:50:58.
