data_PCOD8121362
_publ_section_title
;
Structure prediction by ZEFSAII (Michael W. Deem and Ramdas Pophale) SiO2 
 PCOD8121362
Probable space group: P 2/C
;
_chemical_formula_sum "Si O2"
_cell_formula_units_Z 30
_cell_length_a 24.535396
_cell_length_b 5.523312
_cell_length_c 20.077187
_cell_angle_alpha 90.000000
_cell_angle_beta 149.684270
_cell_angle_gamma 90.000000
_cell_volume 1373.360137
_symmetry_space_group_name_H-M "P 2/C"
_symmetry_group_IT_number 13
_symmetry_cell_setting 'monoclinic'
loop_
_space_group_symop_operation_xyz
x,y,z
-x,y,1/2-z
-x,-y,-z
x,-y,1/2+z
loop_
_atom_site_type_symbol
_atom_site_label
_atom_site_fract_x
_atom_site_fract_y
_atom_site_fract_z
Si Si1 0.202239 0.107038 0.955229
Si Si2 0.734448 0.136725 0.107115
Si Si3 0.892930 0.484617 0.740197
Si Si4 0.557004 0.107410 0.496313
Si Si5 0.092557 0.162624 0.628462
Si Si6 0.330785 0.194456 0.220031
Si Si7 0.000000 0.195989 0.250000
Si Si8 0.722873 0.310403 0.761290
O O1 0.138193 0.324388 0.855009
O O2 0.274438 0.968685 0.976808
O O3 0.107056 0.945138 0.885732
O O4 0.281502 0.206034 0.094928
O O5 0.779263 0.409655 0.149338
O O6 0.823613 0.001570 0.244191
O O7 0.618708 0.106870 0.020777
O O8 0.954399 0.350355 0.865945
O O9 0.975302 0.673053 0.794229
O O10 0.461144 0.218557 0.350101
O O11 0.641474 0.310463 0.611388
O O12 0.500000 0.000000 0.500000
O O13 0.153759 0.303969 0.633928
O O14 0.000000 0.000000 0.500000
O O15 0.289699 0.433939 0.214919
O O16 0.299046 0.936460 0.219779
#
# Coordination Sequence:
#
# PCOD8121362 Si02
#       8
#     4   4   4   4   4   4   2   4
#     4  10  23  42  63  97 132 176 234 282 345 410
#     4   9  21  42  65  95 134 175 223 281 346 418
#     4  10  22  41  70  90 134 185 225 289 352 423
#     4   9  20  42  71  98 134 176 225 279 358 415
#     4  10  23  42  62  99 135 177 228 286 351 417
#     4  11  24  43  69 101 134 179 230 292 338 421
#     4  10  22  42  66  92 130 182 236 274 354 424
#     4  10  24  42  68 100 140 175 227 286 352 420
#
# _framework density 21.844232999999999
#
# number of rings (size 3 to 8) (size 9 to 14) (size 15 to 20)
#    0.000    2.133    0.000    0.800    9.333    5.333 
#    9.600    0.000    0.000    0.000    0.000    0.000 
#    0.000    0.000    0.000    0.000    0.000    0.000 
#
# Total GULP energy -371733.649965 kJ/mol
# GULP energy per Si atom -12391.121666 kJ/mol
# Density = 2.179451 g / cm^3
# Si number density = 21.844233 Si / 1000 Ang^3
#
#
#
# Elastic Constant Matrix: (Units=GPa)
#
#
# Indices 1 2 3 4 5 6 
#
# 1 137.6645 57.4838 82.3703 0.0000 12.3355 0.0000
# 2 57.4838 122.2970 47.7480 0.0000 -1.5990 0.0000
# 3 82.3703 47.7480 123.6213 0.0000 -3.5498 0.0000
# 4 0.0000 0.0000 0.0000 23.6490 0.0000 -3.2530
# 5 12.3355 -1.5990 -3.5498 0.0000 36.7788 0.0000
# 6 0.0000 0.0000 0.0000 -3.2530 0.0000 13.2650
#
#
#
# Elastic Compliance Matrix: (Units=1/GPa)
#
#
# Indices 1 2 3 4 5 6 
#
# 1 0.014185 -0.003518 -0.008256 0.000000 -0.005707 0.000000
# 2 -0.003518 0.010502 -0.001669 0.000000 0.001476 0.000000
# 3 -0.008256 -0.001669 0.014353 0.000000 0.004082 0.000000
# 4 0.000000 0.000000 0.000000 0.043761 0.000000 0.010732
# 5 -0.005707 0.001476 0.004082 0.000000 0.029562 0.000000
# 6 0.000000 0.000000 0.000000 0.010732 0.000000 0.078018
#
#
# Mechanical properties :
#
#
# Convention : Reuss Voigt Hill
#
# Bulk Modulus (GPa) = 82.30144 84.30963 83.30554
# Shear Modulus (GPa) = 22.59180 27.80394 25.19787
#
# Velocity S-wave (km/s) = 3.21942 3.57154 3.40004
# Velocity P-wave (km/s) = 7.18177 7.46241 7.32343
#
# Compressibility (1/GPa) = 0.01215046
#
# Stress axis : x y z
#
# Youngs Moduli (GPa) = 70.49826 95.22265 69.67391
#
# Poissons Ratio (x) = 0.33503 0.57525
# Poissons Ratio (y) = 0.24804 0.11632
# Poissons Ratio (z) = 0.58206 0.15897
#
# Static dielectric constant tensor:
#      x y z
#    x 4.330170 0.000000 0.410140 
#    y 0.000000 4.076070 0.000000 
#    z 0.410140 0.000000 5.483890 
# 
# 
# High freq. dielectric constant tensor:
#      x y z
#    x 1.866680 0.000000 0.002010 
#    y 0.000000 1.858010 0.000000 
#    z 0.002010 0.000000 1.849030 
# 
# From -- ./inp_files/82028.got.cif
#   From: 2010.06.25/outbox.cif.g09.slc.cpg/sg13_42_cif.got.tgz:82028.got - 2010.06.28 04:50:58.
