data_PCOD8121472
_publ_section_title
;
Structure prediction by ZEFSAII (Michael W. Deem and Ramdas Pophale) SiO2 
 PCOD8121472
Probable space group: P 2/C
;
_chemical_formula_sum "Si O2"
_cell_formula_units_Z 32
_cell_length_a 15.219295
_cell_length_b 12.085284
_cell_length_c 18.042376
_cell_angle_alpha 90.000000
_cell_angle_beta 26.497904
_cell_angle_gamma 90.000000
_cell_volume 1480.610060
_symmetry_space_group_name_H-M "P 2/C"
_symmetry_group_IT_number 13
_symmetry_cell_setting 'monoclinic'
loop_
_space_group_symop_operation_xyz
x,y,z
-x,y,1/2-z
-x,-y,-z
x,-y,1/2+z
loop_
_atom_site_type_symbol
_atom_site_label
_atom_site_fract_x
_atom_site_fract_y
_atom_site_fract_z
Si Si1 0.190821 0.355259 0.653290
Si Si2 0.441788 0.450705 0.965095
Si Si3 0.772662 0.987655 0.932632
Si Si4 0.842797 0.161534 0.636434
Si Si5 0.498974 0.157863 0.413270
Si Si6 0.402939 0.794150 0.509107
Si Si7 0.211763 0.052257 0.417285
Si Si8 0.863274 0.400717 0.630912
O O1 0.282757 0.467467 0.548070
O O2 0.365775 0.267325 0.508582
O O3 0.131565 0.377433 0.783831
O O4 0.000000 0.319368 0.750000
O O5 0.645981 0.436521 0.766209
O O6 0.500000 0.500000 0.000000
O O7 0.337404 0.332059 0.050239
O O8 0.712248 0.859800 0.968049
O O9 0.000000 0.004470 0.750000
O O10 0.649809 0.054809 0.963971
O O11 0.709682 0.037008 0.059157
O O12 0.921807 0.282499 0.548229
O O13 0.996627 0.108973 0.578685
O O14 0.803390 0.073191 0.601749
O O15 0.638750 0.189825 0.830867
O O16 0.651724 0.164302 0.366866
O O17 0.637880 0.133570 0.237980
O O18 0.000000 0.500000 0.500000
#
# Coordination Sequence:
#
# PCOD8121472 Si02
#       8
#     4   4   4   4   4   4   4   4
#     4  11  24  43  69 102 136 173 225 289 341 404
#     4   9  19  43  66  91 129 171 227 268 340 406
#     4  12  27  42  62  98 140 173 230 283 352 405
#     4  10  22  43  66  94 136 171 235 269 345 412
#     4  12  23  41  71  95 133 183 225 279 345 417
#     4  11  22  42  70  93 130 187 220 278 346 416
#     4  11  26  41  64  99 134 179 224 287 337 412
#     4  10  22  42  70  97 130 180 226 278 337 408
#
# _framework density 21.612711000000001
#
# number of rings (size 3 to 8) (size 9 to 14) (size 15 to 20)
#    0.000    1.250    5.000    1.875    7.000    0.500 
#    2.250    0.625    0.000    0.000    0.000    0.000 
#    0.000    0.000    0.000    0.000    0.000    0.000 
#
# Total GULP energy -396529.161583 kJ/mol
# GULP energy per Si atom -12391.536299 kJ/mol
# Density = 2.156352 g / cm^3
# Si number density = 21.612711 Si / 1000 Ang^3
#
#
#
# Elastic Constant Matrix: (Units=GPa)
#
#
# Indices 1 2 3 4 5 6 
#
# 1 62.9188 21.3144 26.7178 0.0000 4.9174 0.0000
# 2 21.3144 148.1202 38.6478 0.0000 19.2824 0.0000
# 3 26.7178 38.6478 78.8728 0.0000 10.4409 0.0000
# 4 0.0000 0.0000 0.0000 36.6362 0.0000 -3.3640
# 5 4.9174 19.2824 10.4409 0.0000 18.2314 0.0000
# 6 0.0000 0.0000 0.0000 -3.3640 0.0000 26.6135
#
#
#
# Elastic Compliance Matrix: (Units=1/GPa)
#
#
# Indices 1 2 3 4 5 6 
#
# 1 0.018751 -0.001129 -0.005721 0.000000 -0.000587 0.000000
# 2 -0.001129 0.008595 -0.002885 0.000000 -0.007134 0.000000
# 3 -0.005721 -0.002885 0.016687 0.000000 -0.004962 0.000000
# 4 0.000000 0.000000 0.000000 0.027616 0.000000 0.003491
# 5 -0.000587 -0.007134 -0.004962 0.000000 0.065396 0.000000
# 6 0.000000 0.000000 0.000000 0.003491 0.000000 0.038016
#
#
# Mechanical properties :
#
#
# Convention : Reuss Voigt Hill
#
# Bulk Modulus (GPa) = 40.71037 51.47464 46.09250
# Shear Modulus (GPa) = 24.66469 29.84501 27.25485
#
# Velocity S-wave (km/s) = 3.38185 3.72008 3.55499
# Velocity P-wave (km/s) = 5.84178 6.50542 6.18251
#
# Compressibility (1/GPa) = 0.02456377
#
# Stress axis : x y z
#
# Youngs Moduli (GPa) = 53.32986 116.34442 59.92692
#
# Poissons Ratio (x) = 0.13137 0.34283
# Poissons Ratio (y) = 0.06022 0.17288
# Poissons Ratio (z) = 0.30509 0.33563
#
# Static dielectric constant tensor:
#      x y z
#    x 3.789600 0.000000 -0.193370 
#    y 0.000000 4.432910 0.000000 
#    z -0.193370 0.000000 3.945380 
# 
# 
# High freq. dielectric constant tensor:
#      x y z
#    x 1.822800 0.000000 -0.016690 
#    y 0.000000 1.870540 0.000000 
#    z -0.016690 0.000000 1.843690 
# 
# From -- ./inp_files/68671.got.cif
#   From: 2010.06.25/outbox.cif.g09.slc.cpg/sg13_35_cif.got.tgz:68671.got - 2010.06.28 04:50:58.
