data_PCOD8121199
_publ_section_title
;
Structure prediction by ZEFSAII (Michael W. Deem and Ramdas Pophale) SiO2 
 PCOD8121199
Probable space group: P 2/C
;
_chemical_formula_sum "Si O2"
_cell_formula_units_Z 32
_cell_length_a 10.799917
_cell_length_b 6.514813
_cell_length_c 21.461355
_cell_angle_alpha 90.000000
_cell_angle_beta 75.253401
_cell_angle_gamma 90.000000
_cell_volume 1460.270804
_symmetry_space_group_name_H-M "P 2/C"
_symmetry_group_IT_number 13
_symmetry_cell_setting 'monoclinic'
loop_
_space_group_symop_operation_xyz
x,y,z
-x,y,1/2-z
-x,-y,-z
x,-y,1/2+z
loop_
_atom_site_type_symbol
_atom_site_label
_atom_site_fract_x
_atom_site_fract_y
_atom_site_fract_z
Si Si1 0.728417 0.240887 0.052250
Si Si2 0.555672 0.562566 0.137680
Si Si3 0.401312 0.141961 0.976177
Si Si4 0.885068 0.126778 0.222363
Si Si5 0.946218 0.602046 0.602201
Si Si6 0.218096 0.276678 0.817207
Si Si7 0.272799 0.462185 0.196905
Si Si8 0.768429 0.533229 0.939491
O O1 0.632155 0.356219 0.111186
O O2 0.870537 0.261154 0.061567
O O3 0.716628 0.340160 0.985099
O O4 0.693140 0.001480 0.052334
O O5 0.636800 0.696626 0.176591
O O6 0.425193 0.483917 0.185149
O O7 0.528129 0.700437 0.079685
O O8 0.319683 0.268051 0.037224
O O9 0.500000 0.000000 0.000000
O O10 0.951890 0.290199 0.168593
O O11 0.774439 0.233426 0.278590
O O12 0.000000 0.035090 0.250000
O O13 0.817583 0.959787 0.187058
O O14 0.878009 0.380661 0.620433
O O15 0.087475 0.577545 0.556439
O O16 0.203796 0.377527 0.751060
O O17 0.231465 0.522386 0.132843
#
# Coordination Sequence:
#
# PCOD8121199 Si02
#       8
#     4   4   4   4   4   4   4   4
#     4  10  22  40  65  87 124 168 200 267 314 371
#     4  10  22  44  62  91 127 162 216 253 316 381
#     4  11  23  39  62  92 126 166 212 261 318 374
#     4  11  23  40  63  95 127 163 212 264 317 375
#     4  10  22  42  62  91 127 161 211 258 319 380
#     4  10  24  40  67  92 122 170 206 261 317 374
#     4  11  23  40  63  90 129 164 207 264 314 376
#     4  11  23  38  60  93 123 162 213 255 316 381
#
# _framework density 21.913744000000001
#
# number of rings (size 3 to 8) (size 9 to 14) (size 15 to 20)
#    0.000    1.500    1.250    3.000    1.750    6.500 
#    0.000    5.000    0.000    0.000    0.000    0.000 
#    0.000    0.000    0.000    0.000    0.000    0.000 
#
# Total GULP energy -396919.593325 kJ/mol
# GULP energy per Si atom -12403.737291 kJ/mol
# Density = 2.186387 g / cm^3
# Si number density = 21.913744 Si / 1000 Ang^3
#
#
#
# Elastic Constant Matrix: (Units=GPa)
#
#
# Indices 1 2 3 4 5 6 
#
# 1 104.9859 17.7775 9.7256 0.0000 -8.9012 0.0000
# 2 17.7775 58.3018 14.1311 0.0000 -9.1866 0.0000
# 3 9.7256 14.1311 68.3260 0.0000 -3.3848 0.0000
# 4 0.0000 0.0000 0.0000 22.9916 0.0000 6.7029
# 5 -8.9012 -9.1866 -3.3848 0.0000 39.5184 0.0000
# 6 0.0000 0.0000 0.0000 6.7029 0.0000 34.0600
#
#
#
# Elastic Compliance Matrix: (Units=1/GPa)
#
#
# Indices 1 2 3 4 5 6 
#
# 1 0.010187 -0.002654 -0.000822 0.000000 0.001607 0.000000
# 2 -0.002654 0.019366 -0.003449 0.000000 0.003609 0.000000
# 3 -0.000822 -0.003449 0.015483 0.000000 0.000339 0.000000
# 4 0.000000 0.000000 0.000000 0.046141 0.000000 -0.009081
# 5 0.001607 0.003609 0.000339 0.000000 0.026535 0.000000
# 6 0.000000 0.000000 0.000000 -0.009081 0.000000 0.031147
#
#
# Mechanical properties :
#
#
# Convention : Reuss Voigt Hill
#
# Bulk Modulus (GPa) = 32.06431 34.98689 33.52560
# Shear Modulus (GPa) = 28.88463 31.97929 30.43196
#
# Velocity S-wave (km/s) = 3.63451 3.82426 3.73059
# Velocity P-wave (km/s) = 5.68126 5.95821 5.82138
#
# Compressibility (1/GPa) = 0.03118732
#
# Stress axis : x y z
#
# Youngs Moduli (GPa) = 98.16598 51.63723 64.58808
#
# Poissons Ratio (x) = 0.13704 0.05306
# Poissons Ratio (y) = 0.26051 0.22275
# Poissons Ratio (z) = 0.08065 0.17808
#
# Static dielectric constant tensor:
#      x y z
#    x 3.928070 0.000000 0.028590 
#    y 0.000000 3.784520 0.000000 
#    z 0.028590 0.000000 3.908830 
# 
# 
# High freq. dielectric constant tensor:
#      x y z
#    x 1.869550 0.000000 0.009050 
#    y 0.000000 1.848020 0.000000 
#    z 0.009050 0.000000 1.866570 
# 
# From -- ./inp_files/85988.got.cif
#   From: 2010.06.25/outbox.cif.g09.slc.cpg/sg13_43_cif.got.tgz:85988.got - 2010.06.28 04:50:58.
