data_PCOD8121630
_publ_section_title
;
Structure prediction by ZEFSAII (Michael W. Deem and Ramdas Pophale) SiO2 
 PCOD8121630
Probable space group: P 2/C
;
_chemical_formula_sum "Si O2"
_cell_formula_units_Z 24
_cell_length_a 11.713200
_cell_length_b 11.451638
_cell_length_c 11.104975
_cell_angle_alpha 90.000000
_cell_angle_beta 130.015765
_cell_angle_gamma 90.000000
_cell_volume 1140.812901
_symmetry_space_group_name_H-M "P 2/C"
_symmetry_group_IT_number 13
_symmetry_cell_setting 'monoclinic'
loop_
_space_group_symop_operation_xyz
x,y,z
-x,y,1/2-z
-x,-y,-z
x,-y,1/2+z
loop_
_atom_site_type_symbol
_atom_site_label
_atom_site_fract_x
_atom_site_fract_y
_atom_site_fract_z
Si Si1 0.871564 0.838095 0.393063
Si Si2 0.811458 0.915480 0.936357
Si Si3 0.141317 0.350578 0.422364
Si Si4 0.669277 0.562460 0.868544
Si Si5 0.664984 0.228098 0.539574
Si Si6 0.677526 0.744577 0.667892
O O1 0.919884 0.741482 0.522521
O O2 0.758787 0.779133 0.224079
O O3 0.016759 0.882592 0.419342
O O4 0.793068 0.945931 0.408407
O O5 0.766231 0.854926 0.780262
O O6 0.706956 0.875021 0.975115
O O7 0.214854 0.457665 0.543074
O O8 0.265408 0.287751 0.425208
O O9 0.000000 0.395088 0.250000
O O10 0.500000 0.514339 0.750000
O O11 0.702130 0.631882 0.768656
O O12 0.694603 0.646693 0.999575
O O13 0.493045 0.216129 0.456453
#
# Coordination Sequence:
#
# PCOD8121630 Si02
#       6
#     4   4   4   4   4   4
#     4  11  25  39  69  96 128 170 213 259 323 377
#     4  10  22  45  65  91 132 171 209 263 318 378
#     4  12  26  41  63  97 133 163 215 266 316 387
#     4   9  23  43  67  91 127 173 206 262 324 379
#     4  10  23  44  67  94 125 169 218 261 314 385
#     4  10  23  45  65  92 131 167 212 264 322 378
#
# _framework density 21.037628999999999
#
# number of rings (size 3 to 8) (size 9 to 14) (size 15 to 20)
#    0.000    1.667    1.667    2.000    7.000    5.333 
#    3.000    0.000    0.000    0.000    0.000    0.000 
#    0.000    0.000    0.000    0.000    0.000    0.000 
#
# Total GULP energy -297738.118494 kJ/mol
# GULP energy per Si atom -12405.754937 kJ/mol
# Density = 2.098975 g / cm^3
# Si number density = 21.037629 Si / 1000 Ang^3
#
#
#
# Elastic Constant Matrix: (Units=GPa)
#
#
# Indices 1 2 3 4 5 6 
#
# 1 84.9574 13.7131 25.1951 0.0000 9.2137 0.0000
# 2 13.7131 93.2270 41.1799 0.0000 7.3477 0.0000
# 3 25.1951 41.1799 120.5999 0.0000 5.4352 0.0000
# 4 0.0000 0.0000 0.0000 20.5567 0.0000 6.2932
# 5 9.2137 7.3477 5.4352 0.0000 25.2948 0.0000
# 6 0.0000 0.0000 0.0000 6.2932 0.0000 22.5481
#
#
#
# Elastic Compliance Matrix: (Units=1/GPa)
#
#
# Indices 1 2 3 4 5 6 
#
# 1 0.012996 -0.000557 -0.002342 0.000000 -0.004069 0.000000
# 2 -0.000557 0.012851 -0.004153 0.000000 -0.002638 0.000000
# 3 -0.002342 -0.004153 0.010205 0.000000 -0.000134 0.000000
# 4 0.000000 0.000000 0.000000 0.053191 0.000000 -0.014846
# 5 -0.004069 -0.002638 -0.000134 0.000000 0.041811 0.000000
# 6 0.000000 0.000000 0.000000 -0.014846 0.000000 0.048493
#
#
# Mechanical properties :
#
#
# Convention : Reuss Voigt Hill
#
# Bulk Modulus (GPa) = 45.55845 50.99561 48.27703
# Shear Modulus (GPa) = 24.87992 28.25967 26.56979
#
# Velocity S-wave (km/s) = 3.44268 3.66907 3.55768
# Velocity P-wave (km/s) = 6.12417 6.49940 6.31457
#
# Compressibility (1/GPa) = 0.02194983
#
# Stress axis : x y z
#
# Youngs Moduli (GPa) = 76.94567 77.81714 97.99006
#
# Poissons Ratio (x) = 0.04331 0.22946
# Poissons Ratio (y) = 0.04283 0.40693
# Poissons Ratio (z) = 0.18018 0.32316
#
# Static dielectric constant tensor:
#      x y z
#    x 3.745090 0.000000 0.099350 
#    y 0.000000 3.721620 0.000000 
#    z 0.099350 0.000000 3.767370 
# 
# 
# High freq. dielectric constant tensor:
#      x y z
#    x 1.824740 0.000000 0.007810 
#    y 0.000000 1.820780 0.000000 
#    z 0.007810 0.000000 1.830370 
# 
# From -- ./inp_files/33938.got.cif
#   From: 2010.06.25/outbox.cif.g09.slc.cpg/sg13_17_cif.got.tgz:33938.got - 2010.06.28 04:50:58.
