data_PCOD8121200
_publ_section_title
;
Structure prediction by ZEFSAII (Michael W. Deem and Ramdas Pophale) SiO2 
 PCOD8121200
Probable space group: P 2/C
;
_chemical_formula_sum "Si O2"
_cell_formula_units_Z 24
_cell_length_a 11.421824
_cell_length_b 11.307079
_cell_length_c 9.235563
_cell_angle_alpha 90.000000
_cell_angle_beta 64.079054
_cell_angle_gamma 90.000000
_cell_volume 1072.756611
_symmetry_space_group_name_H-M "P 2/C"
_symmetry_group_IT_number 13
_symmetry_cell_setting 'monoclinic'
loop_
_space_group_symop_operation_xyz
x,y,z
-x,y,1/2-z
-x,-y,-z
x,-y,1/2+z
loop_
_atom_site_type_symbol
_atom_site_label
_atom_site_fract_x
_atom_site_fract_y
_atom_site_fract_z
Si Si1 0.352964 0.549836 0.801011
Si Si2 0.500000 0.989887 0.250000
Si Si3 0.180474 0.747244 0.005390
Si Si4 0.000000 0.424081 0.750000
Si Si5 0.141423 0.850005 0.722807
Si Si6 0.676679 0.070306 0.906292
Si Si7 0.221825 0.595479 0.595613
O O1 0.500000 0.516940 0.750000
O O2 0.343949 0.571755 0.634315
O O3 0.308445 0.670239 0.903346
O O4 0.261713 0.443082 0.912144
O O5 0.401299 0.911072 0.203541
O O6 0.421672 0.073593 0.403628
O O7 0.055396 0.662437 0.095522
O O8 0.217715 0.825136 0.127168
O O9 0.141664 0.831921 0.894751
O O10 0.885368 0.512819 0.765711
O O11 0.174774 0.730295 0.617823
O O12 0.000000 0.896417 0.750000
O O13 0.251039 0.945040 0.627473
#
# Coordination Sequence:
#
# PCOD8121200 Si02
#       7
#     4   2   4   2   4   4   4
#     4  10  22  40  65  92 129 167 215 265 317 382
#     4  10  24  44  70  86 138 164 220 264 306 410
#     4  10  24  40  67  95 131 173 209 273 327 377
#     4  10  22  42  68  94 128 164 216 262 324 392
#     4  11  24  40  66  95 135 167 216 270 320 386
#     4  11  23  45  66 101 123 176 215 263 333 371
#     4  10  22  41  65  94 125 172 209 263 327 376
#
# _framework density 22.37227
#
# number of rings (size 3 to 8) (size 9 to 14) (size 15 to 20)
#    0.000    1.667    2.500    0.500    4.667    5.333 
#    4.500    0.000    0.000    0.000    0.000    0.000 
#    0.000    0.000    0.000    0.000    0.000    0.000 
#
# Total GULP energy -297471.516220 kJ/mol
# GULP energy per Si atom -12394.646509 kJ/mol
# Density = 2.232135 g / cm^3
# Si number density = 22.372270 Si / 1000 Ang^3
#
#
#
# Elastic Constant Matrix: (Units=GPa)
#
#
# Indices 1 2 3 4 5 6 
#
# 1 105.4533 27.5499 18.2512 0.0000 -2.7958 0.0000
# 2 27.5499 97.3508 18.6973 0.0000 -3.5319 0.0000
# 3 18.2512 18.6973 69.5365 0.0000 0.1667 0.0000
# 4 0.0000 0.0000 0.0000 21.2953 0.0000 5.8201
# 5 -2.7958 -3.5319 0.1667 0.0000 36.7517 0.0000
# 6 0.0000 0.0000 0.0000 5.8201 0.0000 15.5947
#
#
#
# Elastic Compliance Matrix: (Units=1/GPa)
#
#
# Indices 1 2 3 4 5 6 
#
# 1 0.010526 -0.002560 -0.002076 0.000000 0.000564 0.000000
# 2 -0.002560 0.011495 -0.002421 0.000000 0.000921 0.000000
# 3 -0.002076 -0.002421 0.015578 0.000000 -0.000461 0.000000
# 4 0.000000 0.000000 0.000000 0.052293 0.000000 -0.019516
# 5 0.000564 0.000921 -0.000461 0.000000 0.027343 0.000000
# 6 0.000000 0.000000 0.000000 -0.019516 0.000000 0.071408
#
#
# Mechanical properties :
#
#
# Convention : Reuss Voigt Hill
#
# Bulk Modulus (GPa) = 42.57968 44.59304 43.58636
# Shear Modulus (GPa) = 23.74345 28.58448 26.16397
#
# Velocity S-wave (km/s) = 3.26128 3.57834 3.42348
# Velocity P-wave (km/s) = 5.76671 6.08672 5.92887
#
# Compressibility (1/GPa) = 0.02348538
#
# Stress axis : x y z
#
# Youngs Moduli (GPa) = 95.00463 86.99501 64.19352
#
# Poissons Ratio (x) = 0.22267 0.13325
# Poissons Ratio (y) = 0.24317 0.15542
# Poissons Ratio (z) = 0.19721 0.21063
#
# Static dielectric constant tensor:
#      x y z
#    x 4.086080 0.000000 0.018280 
#    y 0.000000 3.857350 0.000000 
#    z 0.018280 0.000000 3.978260 
# 
# 
# High freq. dielectric constant tensor:
#      x y z
#    x 1.888510 0.000000 -0.001160 
#    y 0.000000 1.869750 0.000000 
#    z -0.001160 0.000000 1.873180 
# 
# From -- ./inp_files/15814.got.cif
#   From: 2010.06.25/outbox.cif.g09.slc.cpg/sg13_8_cif.got.tgz:15814.got - 2010.06.28 04:50:58.
