data_PCOD8121183
_publ_section_title
;
Structure prediction by ZEFSAII (Michael W. Deem and Ramdas Pophale) SiO2 
 PCOD8121183
Probable space group: P 2/C
;
_chemical_formula_sum "Si O2"
_cell_formula_units_Z 24
_cell_length_a 11.730570
_cell_length_b 16.374112
_cell_length_c 17.045401
_cell_angle_alpha 90.000000
_cell_angle_beta 21.718919
_cell_angle_gamma 90.000000
_cell_volume 1211.570395
_symmetry_space_group_name_H-M "P 2/C"
_symmetry_group_IT_number 13
_symmetry_cell_setting 'monoclinic'
loop_
_space_group_symop_operation_xyz
x,y,z
-x,y,1/2-z
-x,-y,-z
x,-y,1/2+z
loop_
_atom_site_type_symbol
_atom_site_label
_atom_site_fract_x
_atom_site_fract_y
_atom_site_fract_z
Si Si1 0.141830 0.374929 0.241522
Si Si2 0.183828 0.339518 0.712084
Si Si3 0.499005 0.182533 0.573722
Si Si4 0.217412 0.923669 0.373023
Si Si5 0.859254 0.523165 0.508372
Si Si6 0.986028 0.204598 0.135651
O O1 0.108294 0.298579 0.323553
O O2 0.000000 0.343405 0.250000
O O3 0.955137 0.454894 0.384217
O O4 0.506299 0.392707 0.001394
O O5 0.259379 0.252533 0.702253
O O6 0.000000 0.324606 0.750000
O O7 0.972615 0.388979 0.907556
O O8 0.322010 0.102006 0.717976
O O9 0.723983 0.161696 0.357322
O O10 0.688634 0.211607 0.528412
O O11 0.500000 0.947379 0.250000
O O12 0.020936 0.848409 0.534941
O O13 0.000000 0.000000 0.500000
O O14 0.000000 0.500000 0.500000
O O15 0.500000 0.526164 0.750000
#
# Coordination Sequence:
#
# PCOD8121183 Si02
#       6
#     4   4   4   4   4   4
#     4  11  20  40  66  83 111 166 215 245 297 361
#     4  11  22  41  58  84 124 162 201 257 308 351
#     4   9  19  39  63  88 115 159 203 242 297 359
#     4  10  22  40  63  93 124 153 191 248 303 364
#     4  12  26  37  56  92 125 160 203 256 310 356
#     4   9  18  37  67  89 110 154 213 245 282 361
#
# _framework density 19.809002
#
# number of rings (size 3 to 8) (size 9 to 14) (size 15 to 20)
#    0.000    1.667    3.333    3.000    2.333    1.333 
#    6.000    0.000    0.000    0.000    0.000    0.000 
#    0.000    0.000    0.000    0.000    0.000    0.000 
#
# Total GULP energy -297564.908347 kJ/mol
# GULP energy per Si atom -12398.537848 kJ/mol
# Density = 1.976392 g / cm^3
# Si number density = 19.809002 Si / 1000 Ang^3
#
#
#
# Elastic Constant Matrix: (Units=GPa)
#
#
# Indices 1 2 3 4 5 6 
#
# 1 89.8909 41.6761 43.0450 0.0000 -10.4637 0.0000
# 2 41.6761 93.4030 55.9735 0.0000 -7.5262 0.0000
# 3 43.0450 55.9735 134.8921 0.0000 -15.9495 0.0000
# 4 0.0000 0.0000 0.0000 42.6547 0.0000 1.5274
# 5 -10.4637 -7.5262 -15.9495 0.0000 24.2080 0.0000
# 6 0.0000 0.0000 0.0000 1.5274 0.0000 26.0669
#
#
#
# Elastic Compliance Matrix: (Units=1/GPa)
#
#
# Indices 1 2 3 4 5 6 
#
# 1 0.014943 -0.005027 -0.002281 0.000000 0.003393 0.000000
# 2 -0.005027 0.015948 -0.005080 0.000000 -0.000562 0.000000
# 3 -0.002281 -0.005080 0.010786 0.000000 0.004541 0.000000
# 4 0.000000 0.000000 0.000000 0.023493 0.000000 -0.001377
# 5 0.003393 -0.000562 0.004541 0.000000 0.045593 0.000000
# 6 0.000000 0.000000 0.000000 -0.001377 0.000000 0.038443
#
#
# Mechanical properties :
#
#
# Convention : Reuss Voigt Hill
#
# Bulk Modulus (GPa) = 59.16865 66.61945 62.89405
# Shear Modulus (GPa) = 27.83713 30.41868 29.12790
#
# Velocity S-wave (km/s) = 3.75277 3.92292 3.83879
# Velocity P-wave (km/s) = 6.97941 7.36363 7.17409
#
# Compressibility (1/GPa) = 0.01690084
#
# Stress axis : x y z
#
# Youngs Moduli (GPa) = 66.92312 62.70253 92.71127
#
# Poissons Ratio (x) = 0.31520 0.21149
# Poissons Ratio (y) = 0.33641 0.47098
# Poissons Ratio (z) = 0.15266 0.31853
#
# Static dielectric constant tensor:
#      x y z
#    x 3.506180 0.000000 0.160740 
#    y 0.000000 3.740260 0.000000 
#    z 0.160740 0.000000 3.960340 
# 
# 
# High freq. dielectric constant tensor:
#      x y z
#    x 1.758160 0.000000 0.003550 
#    y 0.000000 1.761280 0.000000 
#    z 0.003550 0.000000 1.786590 
# 
# From -- ./inp_files/66987.got.cif
#   From: 2010.06.25/outbox.cif.g09.slc.cpg/sg13_34_cif.got.tgz:66987.got - 2010.06.28 04:50:58.
