data_PCOD8121148
_publ_section_title
;
Structure prediction by ZEFSAII (Michael W. Deem and Ramdas Pophale) SiO2 
 PCOD8121148
Probable space group: P 2/C
;
_chemical_formula_sum "Si O2"
_cell_formula_units_Z 28
_cell_length_a 13.862322
_cell_length_b 12.758061
_cell_length_c 7.989756
_cell_angle_alpha 90.000000
_cell_angle_beta 68.081570
_cell_angle_gamma 90.000000
_cell_volume 1310.899288
_symmetry_space_group_name_H-M "P 2/C"
_symmetry_group_IT_number 13
_symmetry_cell_setting 'monoclinic'
loop_
_space_group_symop_operation_xyz
x,y,z
-x,y,1/2-z
-x,-y,-z
x,-y,1/2+z
loop_
_atom_site_type_symbol
_atom_site_label
_atom_site_fract_x
_atom_site_fract_y
_atom_site_fract_z
Si Si1 0.387289 0.730072 0.051361
Si Si2 0.462023 0.889834 0.587367
Si Si3 0.738211 0.178094 0.145433
Si Si4 0.795741 0.613119 0.782120
Si Si5 0.000000 0.271172 0.250000
Si Si6 0.967787 0.884574 0.465256
Si Si7 0.500000 0.564706 0.750000
Si Si8 0.695479 0.564647 0.177751
O O1 0.310140 0.679575 0.236082
O O2 0.483553 0.799612 0.062564
O O3 0.316688 0.814034 0.997771
O O4 0.435135 0.635617 0.916635
O O5 0.500000 0.866520 0.750000
O O6 0.336304 0.880109 0.669465
O O7 0.500000 0.000000 0.500000
O O8 0.756235 0.297040 0.186515
O O9 0.843569 0.113619 0.059836
O O10 0.795533 0.504597 0.675097
O O11 0.904020 0.648760 0.794488
O O12 0.708945 0.589302 0.975617
O O13 0.987314 0.199863 0.427427
O O14 0.000000 0.858980 0.250000
O O15 0.000000 0.000000 0.500000
O O16 0.414130 0.492886 0.713895
#
# Coordination Sequence:
#
# PCOD8121148 Si02
#       8
#     4   4   4   4   2   4   2   4
#     4  11  21  40  61  92 130 170 215 262 324 393
#     4  10  22  40  60  90 132 168 206 260 327 397
#     4  10  22  42  65  90 132 167 210 277 328 400
#     4  11  23  43  63  94 129 167 223 274 332 397
#     4  10  26  48  66 100 134 172 230 294 342 406
#     4  11  24  45  73  98 129 172 232 292 348 400
#     4  12  20  38  64  90 134 172 214 266 324 394
#     4  12  24  36  66  97 128 177 219 261 330 403
#
# _framework density 21.359383000000001
#
# number of rings (size 3 to 8) (size 9 to 14) (size 15 to 20)
#    0.000    1.143    5.714    0.429    4.000    4.000 
#    0.000    0.000    0.000    0.000    0.000    0.000 
#    0.000    0.000    0.000    0.000    0.000    0.000 
#
# Total GULP energy -346938.373416 kJ/mol
# GULP energy per Si atom -12390.656193 kJ/mol
# Density = 2.131077 g / cm^3
# Si number density = 21.359383 Si / 1000 Ang^3
#
#
#
# Elastic Constant Matrix: (Units=GPa)
#
#
# Indices 1 2 3 4 5 6 
#
# 1 111.8478 43.1351 30.8482 0.0000 -22.1674 0.0000
# 2 43.1351 110.3083 39.6023 0.0000 -18.0955 0.0000
# 3 30.8482 39.6023 82.5593 0.0000 -3.0879 0.0000
# 4 0.0000 0.0000 0.0000 35.7103 0.0000 -2.6351
# 5 -22.1674 -18.0955 -3.0879 0.0000 31.3242 0.0000
# 6 0.0000 0.0000 0.0000 -2.6351 0.0000 18.4899
#
#
#
# Elastic Compliance Matrix: (Units=1/GPa)
#
#
# Indices 1 2 3 4 5 6 
#
# 1 0.012106 -0.002518 -0.003061 0.000000 0.006811 0.000000
# 2 -0.002518 0.012650 -0.004939 0.000000 0.005039 0.000000
# 3 -0.003061 -0.004939 0.015495 0.000000 -0.003492 0.000000
# 4 0.000000 0.000000 0.000000 0.028301 0.000000 0.004033
# 5 0.006811 0.005039 -0.003492 0.000000 0.039311 0.000000
# 6 0.000000 0.000000 0.000000 0.004033 0.000000 0.054659
#
#
# Mechanical properties :
#
#
# Convention : Reuss Voigt Hill
#
# Bulk Modulus (GPa) = 52.04098 59.09853 55.56975
# Shear Modulus (GPa) = 26.32139 29.84686 28.08413
#
# Velocity S-wave (km/s) = 3.51424 3.74219 3.63000
# Velocity P-wave (km/s) = 6.39405 6.81181 6.60623
#
# Compressibility (1/GPa) = 0.01921562
#
# Stress axis : x y z
#
# Youngs Moduli (GPa) = 82.60547 79.05349 64.53868
#
# Poissons Ratio (x) = 0.19903 0.19755
# Poissons Ratio (y) = 0.20797 0.31873
# Poissons Ratio (z) = 0.25285 0.39042
#
# Static dielectric constant tensor:
#      x y z
#    x 4.116940 0.000000 -0.048520 
#    y 0.000000 3.935770 0.000000 
#    z -0.048520 0.000000 3.989140 
# 
# 
# High freq. dielectric constant tensor:
#      x y z
#    x 1.834750 0.000000 -0.002200 
#    y 0.000000 1.843930 0.000000 
#    z -0.002200 0.000000 1.830620 
# 
# From -- ./inp_files/18969.got.cif
#   From: 2010.06.25/outbox.cif.g09.slc.cpg/sg13_10_cif.got.tgz:18969.got - 2010.06.28 04:50:58.
