data_PCOD8121016
_publ_section_title
;
Structure prediction by ZEFSAII (Michael W. Deem and Ramdas Pophale) SiO2 
 PCOD8121016
Probable space group: P 2/C
;
_chemical_formula_sum "Si O2"
_cell_formula_units_Z 24
_cell_length_a 14.386957
_cell_length_b 8.888822
_cell_length_c 9.530574
_cell_angle_alpha 90.000000
_cell_angle_beta 70.682531
_cell_angle_gamma 90.000000
_cell_volume 1150.181110
_symmetry_space_group_name_H-M "P 2/C"
_symmetry_group_IT_number 13
_symmetry_cell_setting 'monoclinic'
loop_
_space_group_symop_operation_xyz
x,y,z
-x,y,1/2-z
-x,-y,-z
x,-y,1/2+z
loop_
_atom_site_type_symbol
_atom_site_label
_atom_site_fract_x
_atom_site_fract_y
_atom_site_fract_z
Si Si1 0.000000 0.999947 0.750000
Si Si2 0.137322 0.749361 0.082563
Si Si3 0.862370 0.749399 0.720193
Si Si4 0.499871 0.150382 0.588788
Si Si5 0.309114 0.654452 0.180125
Si Si6 0.000000 0.499979 0.750000
Si Si7 0.309384 0.654393 0.510747
O O1 0.069877 0.896606 0.809671
O O2 0.069691 0.103276 0.620321
O O3 0.215427 0.748067 0.170605
O O4 0.068662 0.602422 0.118407
O O5 0.192099 0.749733 0.904022
O O6 0.930772 0.602229 0.688008
O O7 0.784018 0.748521 0.886051
O O8 0.500000 0.101552 0.750000
O O9 0.405028 0.248698 0.599162
O O10 0.594403 0.249359 0.504470
O O11 0.500000 0.000000 0.500000
O O12 0.296328 0.622431 0.351906
O O13 0.317465 0.500040 0.091340
#
# Coordination Sequence:
#
# PCOD8121016 Si02
#       7
#     2   4   4   4   4   2   4
#     4  10  26  42  60  94 134 170 224 260 326 376
#     4  11  23  41  65  94 130 172 215 265 319 377
#     4  11  23  41  65  94 130 172 215 265 319 377
#     4  10  25  46  68  98 132 168 209 260 320 387
#     4  11  24  43  68  98 130 166 215 266 319 384
#     4  10  22  38  64  94 130 162 222 258 318 372
#     4  11  24  43  68  98 130 166 215 266 319 384
#
# _framework density 20.866278999999999
#
# number of rings (size 3 to 8) (size 9 to 14) (size 15 to 20)
#    0.000    1.333    1.667    2.500    2.333    9.333 
#    0.000    0.000    0.000    0.000    0.000    0.000 
#    0.000    0.000    0.000    0.000    0.000    0.000 
#
# Total GULP energy -297615.417286 kJ/mol
# GULP energy per Si atom -12400.642387 kJ/mol
# Density = 2.081879 g / cm^3
# Si number density = 20.866279 Si / 1000 Ang^3
#
#
#
# Elastic Constant Matrix: (Units=GPa)
#
#
# Indices 1 2 3 4 5 6 
#
# 1 141.3733 66.9031 77.6989 0.0000 -16.0299 0.0000
# 2 66.9031 142.8245 67.7921 0.0000 -0.4949 0.0000
# 3 77.6989 67.7921 147.5425 0.0000 15.3698 0.0000
# 4 0.0000 0.0000 0.0000 27.4851 0.0000 -12.4882
# 5 -16.0299 -0.4949 15.3698 0.0000 12.3959 0.0000
# 6 0.0000 0.0000 0.0000 -12.4882 0.0000 73.6207
#
#
#
# Elastic Compliance Matrix: (Units=1/GPa)
#
#
# Indices 1 2 3 4 5 6 
#
# 1 0.022413 -0.003016 -0.015415 0.000000 0.047976 0.000000
# 2 -0.003016 0.009806 -0.002930 0.000000 0.000125 0.000000
# 3 -0.015415 -0.002930 0.021050 0.000000 -0.046151 0.000000
# 4 0.000000 0.000000 0.000000 0.039422 0.000000 0.006687
# 5 0.047976 0.000125 -0.046151 0.000000 0.199942 0.000000
# 6 0.000000 0.000000 0.000000 0.006687 0.000000 0.014717
#
#
# Mechanical properties :
#
#
# Convention : Reuss Voigt Hill
#
# Bulk Modulus (GPa) = 94.82566 95.16983 94.99774
# Shear Modulus (GPa) = 14.14080 37.32341 25.73211
#
# Velocity S-wave (km/s) = 2.60607 4.23389 3.51549
# Velocity P-wave (km/s) = 7.38908 8.34323 7.88061
#
# Compressibility (1/GPa) = 0.01054567
#
# Stress axis : x y z
#
# Youngs Moduli (GPa) = 44.61769 101.98314 47.50652
#
# Poissons Ratio (x) = 0.30754 0.73232
# Poissons Ratio (y) = 0.13455 0.13921
# Poissons Ratio (z) = 0.68779 0.29885
#
# Static dielectric constant tensor:
#      x y z
#    x 4.021450 0.000000 -0.084030 
#    y 0.000000 3.960600 0.000000 
#    z -0.084030 0.000000 3.701860 
# 
# 
# High freq. dielectric constant tensor:
#      x y z
#    x 1.822330 0.000000 -0.000250 
#    y 0.000000 1.827600 0.000000 
#    z -0.000250 0.000000 1.821740 
# 
# From -- ./inp_files/18066.got.cif
#   From: 2010.06.25/outbox.cif.g09.slc.cpg/sg13_10_cif.got.tgz:18066.got - 2010.06.28 04:50:58.
