data_PCOD8121830
_publ_section_title
;
Structure prediction by ZEFSAII (Michael W. Deem and Ramdas Pophale) SiO2 
 PCOD8121830
Probable space group: P 2/C
;
_chemical_formula_sum "Si O2"
_cell_formula_units_Z 18
_cell_length_a 8.833775
_cell_length_b 8.320617
_cell_length_c 20.595670
_cell_angle_alpha 90.000000
_cell_angle_beta 151.039576
_cell_angle_gamma 90.000000
_cell_volume 733.005778
_symmetry_space_group_name_H-M "P 2/C"
_symmetry_group_IT_number 13
_symmetry_cell_setting 'monoclinic'
loop_
_space_group_symop_operation_xyz
x,y,z
-x,y,1/2-z
-x,-y,-z
x,-y,1/2+z
loop_
_atom_site_type_symbol
_atom_site_label
_atom_site_fract_x
_atom_site_fract_y
_atom_site_fract_z
Si Si1 0.757941 0.905518 0.556612
Si Si2 0.847216 0.823263 0.357182
Si Si3 0.000000 0.661378 0.750000
Si Si4 0.669931 0.497394 0.733319
Si Si5 0.072763 0.682524 0.984734
O O1 0.857941 0.769037 0.642216
O O2 0.684970 0.802427 0.463867
O O3 0.500000 0.000000 0.500000
O O4 0.025378 0.030441 0.637113
O O5 0.500000 0.866189 0.250000
O O6 0.856120 0.666890 0.315082
O O7 0.053078 0.783306 0.499836
O O8 0.736085 0.551756 0.684645
O O9 0.291980 0.464701 0.595874
O O10 0.785975 0.627371 0.830931
#
# Coordination Sequence:
#
# PCOD8121830 Si02
#       5
#     4   4   2   4   4
#     4  11  26  43  70 105 143 191 238 291 358 429
#     4  10  23  44  72 103 141 188 235 298 357 423
#     4  10  26  42  62 108 142 190 228 302 354 422
#     4  10  23  42  72 100 145 182 244 286 361 416
#     4  10  23  46  68 106 138 192 234 298 354 423
#
# _framework density 24.556424
#
# number of rings (size 3 to 8) (size 9 to 14) (size 15 to 20)
#    0.000    1.778    0.000    1.333   12.444    1.778 
#    0.000    6.667    0.000    0.000    0.000    0.000 
#    0.000    0.000    0.000    0.000    0.000    0.000 
#
# Total GULP energy -222986.851906 kJ/mol
# GULP energy per Si atom -12388.158439 kJ/mol
# Density = 2.450053 g / cm^3
# Si number density = 24.556424 Si / 1000 Ang^3
#
#
#
# Elastic Constant Matrix: (Units=GPa)
#
#
# Indices 1 2 3 4 5 6 
#
# 1 165.9935 75.1009 32.6210 0.0000 -6.7568 0.0000
# 2 75.1009 105.9117 28.6841 0.0000 -2.0931 0.0000
# 3 32.6210 28.6841 81.8930 0.0000 -3.2282 0.0000
# 4 0.0000 0.0000 0.0000 32.6225 0.0000 -16.0825
# 5 -6.7568 -2.0931 -3.2282 0.0000 38.6939 0.0000
# 6 0.0000 0.0000 0.0000 -16.0825 0.0000 72.7647
#
#
#
# Elastic Compliance Matrix: (Units=1/GPa)
#
#
# Indices 1 2 3 4 5 6 
#
# 1 0.009083 -0.006021 -0.001464 0.000000 0.001138 0.000000
# 2 -0.006021 0.014426 -0.002674 0.000000 -0.000494 0.000000
# 3 -0.001464 -0.002674 0.013760 0.000000 0.000748 0.000000
# 4 0.000000 0.000000 0.000000 0.034402 0.000000 0.007604
# 5 0.001138 -0.000494 0.000748 0.000000 0.026078 0.000000
# 6 0.000000 0.000000 0.000000 0.007604 0.000000 0.015423
#
#
# Mechanical properties :
#
#
# Convention : Reuss Voigt Hill
#
# Bulk Modulus (GPa) = 58.99580 69.62336 64.30958
# Shear Modulus (GPa) = 35.93467 43.30902 39.62184
#
# Velocity S-wave (km/s) = 3.82953 4.20414 4.02120
# Velocity P-wave (km/s) = 6.60533 7.20974 6.91415
#
# Compressibility (1/GPa) = 0.01695036
#
# Stress axis : x y z
#
# Youngs Moduli (GPa) = 110.09986 69.31956 72.67323
#
# Poissons Ratio (x) = 0.41740 0.10639
# Poissons Ratio (y) = 0.66296 0.19431
# Poissons Ratio (z) = 0.16119 0.18535
#
# Static dielectric constant tensor:
#      x y z
#    x 3.808100 0.000000 -0.054280 
#    y 0.000000 3.765730 0.000000 
#    z -0.054280 0.000000 4.063200 
# 
# 
# High freq. dielectric constant tensor:
#      x y z
#    x 2.000500 0.000000 -0.025690 
#    y 0.000000 1.993300 0.000000 
#    z -0.025690 0.000000 1.951400 
# 
# From -- ./inp_files/75502.got.cif
#   From: 2010.06.25/outbox.cif.g09.slc.cpg/sg13_38_cif.got.tgz:75502.got - 2010.06.28 04:50:58.
