data_PCOD8121477
_publ_section_title
;
Structure prediction by ZEFSAII (Michael W. Deem and Ramdas Pophale) SiO2 
 PCOD8121477
Probable space group: P 2/C
;
_chemical_formula_sum "Si O2"
_cell_formula_units_Z 22
_cell_length_a 18.635513
_cell_length_b 7.220609
_cell_length_c 15.832821
_cell_angle_alpha 90.000000
_cell_angle_beta 151.458150
_cell_angle_gamma 90.000000
_cell_volume 1017.935166
_symmetry_space_group_name_H-M "P 2/C"
_symmetry_group_IT_number 13
_symmetry_cell_setting 'monoclinic'
loop_
_space_group_symop_operation_xyz
x,y,z
-x,y,1/2-z
-x,-y,-z
x,-y,1/2+z
loop_
_atom_site_type_symbol
_atom_site_label
_atom_site_fract_x
_atom_site_fract_y
_atom_site_fract_z
Si Si1 0.744972 0.704123 0.064502
Si Si2 0.500000 0.433685 0.750000
Si Si3 0.551049 0.183947 0.505001
Si Si4 0.960907 0.437800 0.552819
Si Si5 0.249255 0.143122 0.112714
Si Si6 0.296183 0.716942 0.179231
O O1 0.689617 0.843495 0.082088
O O2 0.890346 0.582993 0.237758
O O3 0.612062 0.557320 0.919881
O O4 0.774872 0.822837 0.011748
O O5 0.592713 0.300796 0.784253
O O6 0.403642 0.247331 0.300259
O O7 0.611199 0.327211 0.638501
O O8 0.500000 0.000000 0.500000
O O9 0.883155 0.236661 0.470318
O O10 0.846798 0.582619 0.478899
O O11 0.000000 0.500000 0.500000
O O12 0.239229 0.927576 0.123006
#
# Coordination Sequence:
#
# PCOD8121477 Si02
#       6
#     4   2   4   4   4   4
#     4  12  23  46  71 101 144 187 228 300 350 415
#     4  12  26  42  78  98 136 184 244 288 360 414
#     4  10  22  42  72 104 136 182 240 286 346 416
#     4  12  26  47  71 101 144 186 234 285 360 423
#     4  11  25  46  70 102 146 180 237 294 352 416
#     4  11  26  47  70 107 136 186 239 287 356 426
#
# _framework density 21.612378
#
# number of rings (size 3 to 8) (size 9 to 14) (size 15 to 20)
#    0.000    0.727    5.455    0.545    7.636    2.182 
#    6.545    0.000    0.000    0.000    0.000    0.000 
#    0.000    0.000    0.000    0.000    0.000    0.000 
#
# Total GULP energy -272779.520506 kJ/mol
# GULP energy per Si atom -12399.069114 kJ/mol
# Density = 2.156319 g / cm^3
# Si number density = 21.612378 Si / 1000 Ang^3
#
#
#
# Elastic Constant Matrix: (Units=GPa)
#
#
# Indices 1 2 3 4 5 6 
#
# 1 157.3570 37.3561 47.4917 0.0000 0.9289 0.0000
# 2 37.3561 97.7987 44.8836 0.0000 11.7403 0.0000
# 3 47.4917 44.8836 163.8195 0.0000 5.5415 0.0000
# 4 0.0000 0.0000 0.0000 33.2060 0.0000 7.4689
# 5 0.9289 11.7403 5.5415 0.0000 39.7560 0.0000
# 6 0.0000 0.0000 0.0000 7.4689 0.0000 40.8955
#
#
#
# Elastic Compliance Matrix: (Units=1/GPa)
#
#
# Indices 1 2 3 4 5 6 
#
# 1 0.007336 -0.002171 -0.001555 0.000000 0.000686 0.000000
# 2 -0.002171 0.012711 -0.002741 0.000000 -0.003321 0.000000
# 3 -0.001555 -0.002741 0.007312 0.000000 -0.000173 0.000000
# 4 0.000000 0.000000 0.000000 0.031405 0.000000 -0.005736
# 5 0.000686 -0.003321 -0.000173 0.000000 0.026142 0.000000
# 6 0.000000 0.000000 0.000000 -0.005736 0.000000 0.025500
#
#
# Mechanical properties :
#
#
# Convention : Reuss Voigt Hill
#
# Bulk Modulus (GPa) = 69.32440 75.38201 72.35320
# Shear Modulus (GPa) = 39.01756 42.05442 40.53599
#
# Velocity S-wave (km/s) = 4.25353 4.41596 4.33551
# Velocity P-wave (km/s) = 7.50128 7.80742 7.65588
#
# Compressibility (1/GPa) = 0.01442494
#
# Stress axis : x y z
#
# Youngs Moduli (GPa) = 136.32197 78.67341 136.76273
#
# Poissons Ratio (x) = 0.17077 0.21268
# Poissons Ratio (y) = 0.29591 0.37485
# Poissons Ratio (z) = 0.21199 0.21564
#
# Static dielectric constant tensor:
#      x y z
#    x 4.193740 0.000000 -0.153420 
#    y 0.000000 3.663100 0.000000 
#    z -0.153420 0.000000 4.563930 
# 
# 
# High freq. dielectric constant tensor:
#      x y z
#    x 1.866810 0.000000 -0.002240 
#    y 0.000000 1.831440 0.000000 
#    z -0.002240 0.000000 1.862410 
# 
# From -- ./inp_files/55358.got.cif
#   From: 2010.06.25/outbox.cif.g09.slc.cpg/sg13_28_cif.got.tgz:55358.got - 2010.06.28 04:50:58.
