data_PCOD8121810
_publ_section_title
;
Structure prediction by ZEFSAII (Michael W. Deem and Ramdas Pophale) SiO2 
 PCOD8121810
Probable space group: P 2/C
;
_chemical_formula_sum "Si O2"
_cell_formula_units_Z 22
_cell_length_a 13.249335
_cell_length_b 13.303904
_cell_length_c 11.103631
_cell_angle_alpha 90.000000
_cell_angle_beta 148.509609
_cell_angle_gamma 90.000000
_cell_volume 1022.361362
_symmetry_space_group_name_H-M "P 2/C"
_symmetry_group_IT_number 13
_symmetry_cell_setting 'monoclinic'
loop_
_space_group_symop_operation_xyz
x,y,z
-x,y,1/2-z
-x,-y,-z
x,-y,1/2+z
loop_
_atom_site_type_symbol
_atom_site_label
_atom_site_fract_x
_atom_site_fract_y
_atom_site_fract_z
Si Si1 0.173516 0.224176 0.618627
Si Si2 0.644300 0.458403 0.994583
Si Si3 0.000000 0.634359 0.750000
Si Si4 0.113636 0.988211 0.990278
Si Si5 0.504879 0.340579 0.079343
Si Si6 0.855148 0.792018 0.993260
O O1 0.140056 0.298127 0.473386
O O2 0.236091 0.113830 0.632751
O O3 0.974161 0.224200 0.491158
O O4 0.356201 0.258360 0.880905
O O5 0.609586 0.405709 0.085080
O O6 0.867223 0.440049 0.191662
O O7 0.500000 0.409470 0.750000
O O8 0.612225 0.578866 0.960440
O O9 0.000000 0.970791 0.750000
O O10 0.229013 0.093212 0.090000
O O11 0.000000 0.000000 0.000000
O O12 0.673017 0.282149 0.322687
O O13 0.000000 0.772480 0.250000
#
# Coordination Sequence:
#
# PCOD8121810 Si02
#       6
#     4   4   2   4   4   4
#     4  11  22  39  70  97 130 173 221 275 334 399
#     4  11  25  43  62  94 131 169 223 284 323 400
#     4  12  22  42  70  94 130 176 222 276 350 374
#     4   9  19  38  65 100 137 175 221 274 336 417
#     4  11  25  42  63  96 131 170 229 271 331 398
#     4  10  23  42  65  95 138 178 213 270 344 399
#
# _framework density 21.518809000000001
#
# number of rings (size 3 to 8) (size 9 to 14) (size 15 to 20)
#    0.000    1.455    4.545    0.000    2.545    2.909 
#    0.000    0.000    0.000    4.364    0.000    0.000 
#    0.000    0.000    0.000    0.000    0.000    0.000 
#
# Total GULP energy -272632.913267 kJ/mol
# GULP energy per Si atom -12392.405149 kJ/mol
# Density = 2.146983 g / cm^3
# Si number density = 21.518809 Si / 1000 Ang^3
#
#
#
# Elastic Constant Matrix: (Units=GPa)
#
#
# Indices 1 2 3 4 5 6 
#
# 1 60.8864 39.7266 19.6634 0.0000 -3.1081 0.0000
# 2 39.7266 184.4589 75.9808 0.0000 14.8828 0.0000
# 3 19.6634 75.9808 116.4028 0.0000 -2.7453 0.0000
# 4 0.0000 0.0000 0.0000 41.3571 0.0000 -5.5866
# 5 -3.1081 14.8828 -2.7453 0.0000 39.1128 0.0000
# 6 0.0000 0.0000 0.0000 -5.5866 0.0000 15.6543
#
#
#
# Elastic Compliance Matrix: (Units=1/GPa)
#
#
# Indices 1 2 3 4 5 6 
#
# 1 0.019516 -0.004281 -0.000428 0.000000 0.003150 0.000000
# 2 -0.004281 0.008767 -0.005095 0.000000 -0.004034 0.000000
# 3 -0.000428 -0.005095 0.012054 0.000000 0.002751 0.000000
# 4 0.000000 0.000000 0.000000 0.025404 0.000000 0.009066
# 5 0.003150 -0.004034 0.002751 0.000000 0.027545 0.000000
# 6 0.000000 0.000000 0.000000 0.009066 0.000000 0.067116
#
#
# Mechanical properties :
#
#
# Convention : Reuss Voigt Hill
#
# Bulk Modulus (GPa) = 48.24050 70.27662 59.25856
# Shear Modulus (GPa) = 26.74940 34.31665 30.53302
#
# Velocity S-wave (km/s) = 3.52955 3.99774 3.77091
# Velocity P-wave (km/s) = 6.25114 7.35108 6.82331
#
# Compressibility (1/GPa) = 0.02072947
#
# Stress axis : x y z
#
# Youngs Moduli (GPa) = 51.23929 114.06036 82.96278
#
# Poissons Ratio (x) = 0.48829 0.03552
# Poissons Ratio (y) = 0.21935 0.42267
# Poissons Ratio (z) = 0.02194 0.58111
#
# Static dielectric constant tensor:
#      x y z
#    x 3.936290 0.000000 -0.276940 
#    y 0.000000 4.385130 0.000000 
#    z -0.276940 0.000000 3.645980 
# 
# 
# High freq. dielectric constant tensor:
#      x y z
#    x 1.842890 0.000000 -0.026880 
#    y 0.000000 1.866390 0.000000 
#    z -0.026880 0.000000 1.830390 
# 
# From -- ./inp_files/37260.got.cif
#   From: 2010.06.25/outbox.cif.g09.slc.cpg/sg13_19_cif.got.tgz:37260.got - 2010.06.28 04:50:58.
