data_PCOD8121736
_publ_section_title
;
Structure prediction by ZEFSAII (Michael W. Deem and Ramdas Pophale) SiO2 
 PCOD8121736
Probable space group: P 2/C
;
_chemical_formula_sum "Si O2"
_cell_formula_units_Z 28
_cell_length_a 11.775509
_cell_length_b 12.756704
_cell_length_c 9.194726
_cell_angle_alpha 90.000000
_cell_angle_beta 112.076313
_cell_angle_gamma 90.000000
_cell_volume 1279.937211
_symmetry_space_group_name_H-M "P 2/C"
_symmetry_group_IT_number 13
_symmetry_cell_setting 'monoclinic'
loop_
_space_group_symop_operation_xyz
x,y,z
-x,y,1/2-z
-x,-y,-z
x,-y,1/2+z
loop_
_atom_site_type_symbol
_atom_site_label
_atom_site_fract_x
_atom_site_fract_y
_atom_site_fract_z
Si Si1 0.051800 0.241405 0.428840
Si Si2 0.400799 0.258526 0.087141
Si Si3 0.436056 0.834101 0.073894
Si Si4 0.280783 0.628493 0.067942
Si Si5 0.829844 0.136734 0.441124
Si Si6 0.362449 0.537262 0.405354
Si Si7 0.800185 0.052480 0.117962
O O1 0.144897 0.328134 0.538205
O O2 0.122227 0.132710 0.440506
O O3 0.000000 0.282981 0.250000
O O4 0.942509 0.219409 0.491062
O O5 0.500000 0.300519 0.250000
O O6 0.296500 0.199633 0.127327
O O7 0.336948 0.354787 0.975986
O O8 0.461395 0.180290 0.999924
O O9 0.500000 0.877108 0.250000
O O10 0.372184 0.723141 0.076039
O O11 0.342975 0.923527 0.976019
O O12 0.334095 0.557128 0.222945
O O13 0.273062 0.553540 0.922763
O O14 0.835911 0.061472 0.303596
O O15 0.834474 0.065540 0.587437
O O16 0.500000 0.500000 0.500000
#
# Coordination Sequence:
#
# PCOD8121736 Si02
#       7
#     4   4   4   4   4   4   4
#     4   9  22  45  68  89 129 175 225 281 324 383
#     4  12  24  40  63  97 138 172 215 270 339 407
#     4  11  21  40  62  94 136 173 210 273 337 397
#     4  11  23  41  67  99 131 171 225 270 329 391
#     4  11  24  42  64  97 125 176 219 272 335 395
#     4  12  23  40  68 102 131 171 214 268 331 407
#     4  10  23  40  66  92 129 171 224 271 330 397
#
# _framework density 21.876073000000002
#
# number of rings (size 3 to 8) (size 9 to 14) (size 15 to 20)
#    0.000    1.143    4.286    1.714    2.000    1.143 
#    0.000    5.000    0.000    0.000    0.000    0.000 
#    0.000    0.000    0.000    0.000    0.000    0.000 
#
# Total GULP energy -347322.245203 kJ/mol
# GULP energy per Si atom -12404.365900 kJ/mol
# Density = 2.182628 g / cm^3
# Si number density = 21.876073 Si / 1000 Ang^3
#
#
#
# Elastic Constant Matrix: (Units=GPa)
#
#
# Indices 1 2 3 4 5 6 
#
# 1 142.5583 45.9720 26.4514 0.0000 0.4758 0.0000
# 2 45.9720 67.3131 20.1457 0.0000 -2.8743 0.0000
# 3 26.4514 20.1457 57.3133 0.0000 -0.6653 0.0000
# 4 0.0000 0.0000 0.0000 39.5302 0.0000 -2.2903
# 5 0.4758 -2.8743 -0.6653 0.0000 32.1905 0.0000
# 6 0.0000 0.0000 0.0000 -2.2903 0.0000 29.4563
#
#
#
# Elastic Compliance Matrix: (Units=1/GPa)
#
#
# Indices 1 2 3 4 5 6 
#
# 1 0.009273 -0.005676 -0.002292 0.000000 -0.000691 0.000000
# 2 -0.005676 0.020137 -0.004438 0.000000 0.001790 0.000000
# 3 -0.002292 -0.004438 0.020066 0.000000 0.000052 0.000000
# 4 0.000000 0.000000 0.000000 0.025412 0.000000 0.001976
# 5 -0.000691 0.001790 0.000052 0.000000 0.031236 0.000000
# 6 0.000000 0.000000 0.000000 0.001976 0.000000 0.034102
#
#
# Mechanical properties :
#
#
# Convention : Reuss Voigt Hill
#
# Bulk Modulus (GPa) = 40.54568 50.25809 45.40188
# Shear Modulus (GPa) = 28.85823 31.87642 30.36732
#
# Velocity S-wave (km/s) = 3.63598 3.82139 3.72983
# Velocity P-wave (km/s) = 6.01678 6.51878 6.27280
#
# Compressibility (1/GPa) = 0.02466354
#
# Stress axis : x y z
#
# Youngs Moduli (GPa) = 107.84165 49.65919 49.83450
#
# Poissons Ratio (x) = 0.28189 0.11424
# Poissons Ratio (y) = 0.61215 0.22115
# Poissons Ratio (z) = 0.24722 0.22037
#
# Static dielectric constant tensor:
#      x y z
#    x 4.115850 0.000000 0.002070 
#    y 0.000000 3.827420 0.000000 
#    z 0.002070 0.000000 3.904150 
# 
# 
# High freq. dielectric constant tensor:
#      x y z
#    x 1.862050 0.000000 -0.002640 
#    y 0.000000 1.846710 0.000000 
#    z -0.002640 0.000000 1.855580 
# 
# From -- ./inp_files/16545.got.cif
#   From: 2010.06.25/outbox.cif.g09.slc.cpg/sg13_9_cif.got.tgz:16545.got - 2010.06.28 04:50:58.
