data_PCOD8121305
_publ_section_title
;
Structure prediction by ZEFSAII (Michael W. Deem and Ramdas Pophale) SiO2 
 PCOD8121305
Probable space group: P 2/C
;
_chemical_formula_sum "Si O2"
_cell_formula_units_Z 32
_cell_length_a 14.694482
_cell_length_b 11.267095
_cell_length_c 13.869075
_cell_angle_alpha 90.000000
_cell_angle_beta 134.094978
_cell_angle_gamma 90.000000
_cell_volume 1649.116930
_symmetry_space_group_name_H-M "P 2/C"
_symmetry_group_IT_number 13
_symmetry_cell_setting 'monoclinic'
loop_
_space_group_symop_operation_xyz
x,y,z
-x,y,1/2-z
-x,-y,-z
x,-y,1/2+z
loop_
_atom_site_type_symbol
_atom_site_label
_atom_site_fract_x
_atom_site_fract_y
_atom_site_fract_z
Si Si1 0.952897 0.481049 0.320503
Si Si2 0.480982 0.411094 0.341874
Si Si3 0.351454 0.023415 0.408359
Si Si4 0.225389 0.181492 0.699921
Si Si5 0.645134 0.044869 0.868208
Si Si6 0.303421 0.809955 0.708005
Si Si7 0.031811 0.697073 0.498803
Si Si8 0.681181 0.578924 0.144179
O O1 0.986312 0.370267 0.413282
O O2 0.803105 0.501460 0.208591
O O3 0.000000 0.446129 0.250000
O O4 0.022492 0.600882 0.406336
O O5 0.500000 0.467956 0.250000
O O6 0.409440 0.288337 0.273176
O O7 0.404443 0.501479 0.349816
O O8 0.613872 0.386637 0.493955
O O9 0.266417 0.913944 0.309955
O O10 0.500000 0.000000 0.500000
O O11 0.316532 0.048088 0.492432
O O12 0.310352 0.141420 0.321765
O O13 0.269305 0.138893 0.626603
O O14 0.289823 0.305149 0.772965
O O15 0.073899 0.199961 0.588352
O O16 0.500000 0.083563 0.750000
O O17 0.665997 0.912802 0.845021
O O18 0.165641 0.759241 0.585598
#
# Coordination Sequence:
#
# PCOD8121305 Si02
#       8
#     4   4   4   4   4   4   4   4
#     4  10  22  41  65  87 131 173 215 249 314 379
#     4  11  24  38  64  95 126 166 208 260 326 374
#     4  11  22  41  61  92 123 159 208 259 313 371
#     4  10  23  41  64  89 128 161 209 261 306 377
#     4  11  23  40  65  93 118 167 207 254 328 372
#     4  11  23  40  65  89 129 164 208 265 309 375
#     4  10  23  42  61  92 126 170 209 259 310 369
#     4  10  23  42  59  98 129 160 212 268 309 378
#
# _framework density 19.404325
#
# number of rings (size 3 to 8) (size 9 to 14) (size 15 to 20)
#    0.000    1.500    3.750    1.125    3.500    4.500 
#    2.250    1.250    0.000    0.000    0.000    0.000 
#    0.000    0.000    0.000    0.000    0.000    0.000 
#
# Total GULP energy -396903.906830 kJ/mol
# GULP energy per Si atom -12403.247088 kJ/mol
# Density = 1.936016 g / cm^3
# Si number density = 19.404325 Si / 1000 Ang^3
#
#
#
# Elastic Constant Matrix: (Units=GPa)
#
#
# Indices 1 2 3 4 5 6 
#
# 1 70.1679 13.8788 41.8223 0.0000 -22.9398 0.0000
# 2 13.8788 47.3184 26.1076 0.0000 8.5516 0.0000
# 3 41.8223 26.1076 121.6477 0.0000 3.5153 0.0000
# 4 0.0000 0.0000 0.0000 29.0484 0.0000 6.1909
# 5 -22.9398 8.5516 3.5153 0.0000 42.7721 0.0000
# 6 0.0000 0.0000 0.0000 6.1909 0.0000 22.0782
#
#
#
# Elastic Compliance Matrix: (Units=1/GPa)
#
#
# Indices 1 2 3 4 5 6 
#
# 1 0.025019 -0.005785 -0.007800 0.000000 0.015216 0.000000
# 2 -0.005785 0.026157 -0.003392 0.000000 -0.008053 0.000000
# 3 -0.007800 -0.003392 0.011759 0.000000 -0.004471 0.000000
# 4 0.000000 0.000000 0.000000 0.036613 0.000000 -0.010267
# 5 0.015216 -0.008053 -0.004471 0.000000 0.033518 0.000000
# 6 0.000000 0.000000 0.000000 -0.010267 0.000000 0.048172
#
#
# Mechanical properties :
#
#
# Convention : Reuss Voigt Hill
#
# Bulk Modulus (GPa) = 34.50402 44.75016 39.62709
# Shear Modulus (GPa) = 22.23667 29.26809 25.75238
#
# Velocity S-wave (km/s) = 3.38888 3.88793 3.64695
# Velocity P-wave (km/s) = 5.75612 6.57774 6.18060
#
# Compressibility (1/GPa) = 0.02898213
#
# Stress axis : x y z
#
# Youngs Moduli (GPa) = 39.96935 38.23032 85.03938
#
# Poissons Ratio (x) = 0.22115 0.66329
# Poissons Ratio (y) = 0.23121 0.28848
# Poissons Ratio (z) = 0.31175 0.12969
#
# Static dielectric constant tensor:
#      x y z
#    x 3.543750 0.000000 -0.077390 
#    y 0.000000 3.567040 0.000000 
#    z -0.077390 0.000000 3.941940 
# 
# 
# High freq. dielectric constant tensor:
#      x y z
#    x 1.754310 0.000000 -0.002650 
#    y 0.000000 1.757300 0.000000 
#    z -0.002650 0.000000 1.770520 
# 
# From -- ./inp_files/53743.got.cif
#   From: 2010.06.25/outbox.cif.g09.slc.cpg/sg13_27_cif.got.tgz:53743.got - 2010.06.28 04:50:58.
