data_PCOD8121238
_publ_section_title
;
Structure prediction by ZEFSAII (Michael W. Deem and Ramdas Pophale) SiO2 
 PCOD8121238
Probable space group: P 2/C
;
_chemical_formula_sum "Si O2"
_cell_formula_units_Z 16
_cell_length_a 8.903979
_cell_length_b 17.196127
_cell_length_c 7.862255
_cell_angle_alpha 90.000000
_cell_angle_beta 144.863798
_cell_angle_gamma 90.000000
_cell_volume 692.825536
_symmetry_space_group_name_H-M "P 2/C"
_symmetry_group_IT_number 13
_symmetry_cell_setting 'monoclinic'
loop_
_space_group_symop_operation_xyz
x,y,z
-x,y,1/2-z
-x,-y,-z
x,-y,1/2+z
loop_
_atom_site_type_symbol
_atom_site_label
_atom_site_fract_x
_atom_site_fract_y
_atom_site_fract_z
Si Si1 0.963491 0.321851 0.417731
Si Si2 0.469293 0.411426 0.920379
Si Si3 0.000000 0.952437 0.750000
Si Si4 0.902112 0.147119 0.470885
Si Si5 0.500000 0.054902 0.250000
O O1 0.937662 0.237711 0.474364
O O2 0.000000 0.314641 0.250000
O O3 0.195713 0.371787 0.719615
O O4 0.699733 0.365365 0.226091
O O5 0.500000 0.403559 0.750000
O O6 0.500000 0.500000 0.000000
O O7 0.056709 0.899481 0.967981
O O8 0.739145 0.002707 0.540519
O O9 0.603966 0.113674 0.195817
O O10 0.000000 0.125687 0.750000
#
# Coordination Sequence:
#
# PCOD8121238 Si02
#       5
#     4   4   2   4   2
#     4  10  23  44  66  96 138 183 222 280 348 408
#     4  10  22  40  68  98 135 178 225 275 342 409
#     4  12  28  50  72  98 148 184 228 310 356 408
#     4  12  28  46  74 105 139 187 242 285 356 422
#     4  12  28  48  72 106 138 184 244 294 354 422
#
# _framework density 23.093838999999999
#
# number of rings (size 3 to 8) (size 9 to 14) (size 15 to 20)
#    0.000    1.000    2.500    2.250    7.000    2.000 
#    0.000    0.000    0.000    0.000    0.000    0.000 
#    0.000    0.000    0.000    0.000    0.000    0.000 
#
# Total GULP energy -198286.835491 kJ/mol
# GULP energy per Si atom -12392.927218 kJ/mol
# Density = 2.304128 g / cm^3
# Si number density = 23.093839 Si / 1000 Ang^3
#
#
#
# Elastic Constant Matrix: (Units=GPa)
#
#
# Indices 1 2 3 4 5 6 
#
# 1 82.2487 58.4859 54.1983 0.0000 2.8119 0.0000
# 2 58.4859 225.0234 97.1784 0.0000 15.9773 0.0000
# 3 54.1983 97.1784 164.1891 0.0000 27.6053 0.0000
# 4 0.0000 0.0000 0.0000 24.9365 0.0000 4.4168
# 5 2.8119 15.9773 27.6053 0.0000 32.6641 0.0000
# 6 0.0000 0.0000 0.0000 4.4168 0.0000 46.3497
#
#
#
# Elastic Compliance Matrix: (Units=1/GPa)
#
#
# Indices 1 2 3 4 5 6 
#
# 1 0.017006 -0.002673 -0.004669 0.000000 0.003789 0.000000
# 2 -0.002673 0.006390 -0.002813 0.000000 -0.000519 0.000000
# 3 -0.004669 -0.002813 0.010488 0.000000 -0.007086 0.000000
# 4 0.000000 0.000000 0.000000 0.040790 0.000000 -0.003887
# 5 0.003789 -0.000519 -0.007086 0.000000 0.036530 0.000000
# 6 0.000000 0.000000 0.000000 -0.003887 0.000000 0.021946
#
#
# Mechanical properties :
#
#
# Convention : Reuss Voigt Hill
#
# Bulk Modulus (GPa) = 73.66286 99.02072 86.34179
# Shear Modulus (GPa) = 31.64892 38.22997 34.93945
#
# Velocity S-wave (km/s) = 3.70597 4.07310 3.89386
# Velocity P-wave (km/s) = 7.09075 8.06789 7.59505
#
# Compressibility (1/GPa) = 0.01357536
#
# Stress axis : x y z
#
# Youngs Moduli (GPa) = 58.80373 156.49045 95.34962
#
# Poissons Ratio (x) = 0.41827 0.44515
# Poissons Ratio (y) = 0.15717 0.26819
# Poissons Ratio (z) = 0.27453 0.44016
#
# Static dielectric constant tensor:
#      x y z
#    x 4.426540 0.000000 0.561540 
#    y 0.000000 4.288550 0.000000 
#    z 0.561540 0.000000 4.841170 
# 
# 
# High freq. dielectric constant tensor:
#      x y z
#    x 1.911030 0.000000 0.011130 
#    y 0.000000 1.932390 0.000000 
#    z 0.011130 0.000000 1.913590 
# 
# From -- ./inp_files/9210.got.cif
#   From: 2010.06.25/outbox.cif.g09.slc.cpg/sg13_5_cif.got.tgz:9210.got - 2010.06.28 04:50:58.
