data_PCOD8121750
_publ_section_title
;
Structure prediction by ZEFSAII (Michael W. Deem and Ramdas Pophale) SiO2 
 PCOD8121750
Probable space group: P 2/C
;
_chemical_formula_sum "Si O2"
_cell_formula_units_Z 24
_cell_length_a 16.247118
_cell_length_b 15.506676
_cell_length_c 8.757837
_cell_angle_alpha 90.000000
_cell_angle_beta 150.445207
_cell_angle_gamma 90.000000
_cell_volume 1088.338501
_symmetry_space_group_name_H-M "P 2/C"
_symmetry_group_IT_number 13
_symmetry_cell_setting 'monoclinic'
loop_
_space_group_symop_operation_xyz
x,y,z
-x,y,1/2-z
-x,-y,-z
x,-y,1/2+z
loop_
_atom_site_type_symbol
_atom_site_label
_atom_site_fract_x
_atom_site_fract_y
_atom_site_fract_z
Si Si1 0.000000 0.514390 0.250000
Si Si2 0.235760 0.546729 0.876791
Si Si3 0.653197 0.299756 0.775162
Si Si4 0.326724 0.959079 0.764273
Si Si5 0.500000 0.601566 0.750000
Si Si6 0.125334 0.927651 0.150615
Si Si7 0.500000 0.165942 0.750000
Si Si8 0.000000 0.218720 0.250000
O O1 0.904002 0.456022 0.217176
O O2 0.140668 0.569715 0.565320
O O3 0.353444 0.626497 0.105688
O O4 0.341426 0.458466 0.035126
O O5 0.543690 0.335005 0.458691
O O6 0.567420 0.217524 0.712891
O O7 0.840435 0.278575 0.024067
O O8 0.249737 0.910432 0.493151
O O9 0.214759 0.038291 0.641756
O O10 0.349109 0.892178 0.940391
O O11 0.500000 0.000000 0.000000
O O12 0.036381 0.838666 0.959803
O O13 0.000000 0.000000 0.000000
#
# Coordination Sequence:
#
# PCOD8121750 Si02
#       8
#     2   4   4   4   2   4   2   2
#     4  10  23  40  78  97 130 172 246 270 325 406
#     4  11  23  48  70 103 131 185 235 276 331 428
#     4  12  28  46  67 104 143 176 220 298 347 394
#     4  12  23  44  72 100 131 181 232 276 324 414
#     4  12  27  46  75  96 134 188 234 274 345 414
#     4  12  23  44  73  97 132 182 231 271 329 411
#     4  12  27  44  67 106 142 172 230 286 345 392
#     4  12  27  46  66 103 144 174 226 286 351 398
#
# _framework density 22.051962
#
# number of rings (size 3 to 8) (size 9 to 14) (size 15 to 20)
#    0.000    0.333    5.000    3.500    7.000    0.000 
#    3.000    0.000    0.000    0.000    0.000    0.000 
#    0.000    0.000    0.000    0.000    0.000    0.000 
#
# Total GULP energy -297619.709486 kJ/mol
# GULP energy per Si atom -12400.821229 kJ/mol
# Density = 2.200177 g / cm^3
# Si number density = 22.051962 Si / 1000 Ang^3
#
#
#
# Elastic Constant Matrix: (Units=GPa)
#
#
# Indices 1 2 3 4 5 6 
#
# 1 90.5606 24.4449 35.0974 0.0000 2.6452 0.0000
# 2 24.4449 90.7261 50.6575 0.0000 -14.6212 0.0000
# 3 35.0974 50.6575 174.9859 0.0000 -37.2144 0.0000
# 4 0.0000 0.0000 0.0000 17.7409 0.0000 -6.3552
# 5 2.6452 -14.6212 -37.2144 0.0000 50.1555 0.0000
# 6 0.0000 0.0000 0.0000 -6.3552 0.0000 42.5947
#
#
#
# Elastic Compliance Matrix: (Units=1/GPa)
#
#
# Indices 1 2 3 4 5 6 
#
# 1 0.012813 -0.002573 -0.002527 0.000000 -0.003301 0.000000
# 2 -0.002573 0.013725 -0.003060 0.000000 0.001866 0.000000
# 3 -0.002527 -0.003060 0.008248 0.000000 0.005361 0.000000
# 4 0.000000 0.000000 0.000000 0.059550 0.000000 0.008885
# 5 -0.003301 0.001866 0.005361 0.000000 0.024634 0.000000
# 6 0.000000 0.000000 0.000000 0.008885 0.000000 0.024803
#
#
# Mechanical properties :
#
#
# Convention : Reuss Voigt Hill
#
# Bulk Modulus (GPa) = 54.15860 64.07468 59.11664
# Shear Modulus (GPa) = 30.07576 38.50308 34.28942
#
# Velocity S-wave (km/s) = 3.69705 4.18307 3.94755
# Velocity P-wave (km/s) = 6.54501 7.24224 6.90243
#
# Compressibility (1/GPa) = 0.01846429
#
# Stress axis : x y z
#
# Youngs Moduli (GPa) = 78.04783 72.85981 121.24761
#
# Poissons Ratio (x) = 0.18748 0.30638
# Poissons Ratio (y) = 0.20083 0.37106
# Poissons Ratio (z) = 0.19722 0.22298
#
# Static dielectric constant tensor:
#      x y z
#    x 3.965380 0.000000 -0.233250 
#    y 0.000000 3.890310 0.000000 
#    z -0.233250 0.000000 4.752370 
# 
# 
# High freq. dielectric constant tensor:
#      x y z
#    x 1.877930 0.000000 -0.003380 
#    y 0.000000 1.852670 0.000000 
#    z -0.003380 0.000000 1.889390 
# 
# From -- ./inp_files/22018.got.cif
#   From: 2010.06.25/outbox.cif.g09.slc.cpg/sg13_12_cif.got.tgz:22018.got - 2010.06.28 04:50:58.
