data_PCOD8121291
_publ_section_title
;
Structure prediction by ZEFSAII (Michael W. Deem and Ramdas Pophale) SiO2 
 PCOD8121291
Probable space group: P 2/C
;
_chemical_formula_sum "Si O2"
_cell_formula_units_Z 20
_cell_length_a 9.131270
_cell_length_b 8.207189
_cell_length_c 27.589350
_cell_angle_alpha 90.000000
_cell_angle_beta 25.163569
_cell_angle_gamma 90.000000
_cell_volume 879.152684
_symmetry_space_group_name_H-M "P 2/C"
_symmetry_group_IT_number 13
_symmetry_cell_setting 'monoclinic'
loop_
_space_group_symop_operation_xyz
x,y,z
-x,y,1/2-z
-x,-y,-z
x,-y,1/2+z
loop_
_atom_site_type_symbol
_atom_site_label
_atom_site_fract_x
_atom_site_fract_y
_atom_site_fract_z
Si Si1 0.778192 0.175705 0.460875
Si Si2 0.072431 0.314332 0.468736
Si Si3 0.196654 0.623572 0.104402
Si Si4 0.116894 0.845051 0.379296
Si Si5 0.133592 0.320706 0.261581
O O1 0.369977 0.224860 0.581917
O O2 0.958500 0.278199 0.448669
O O3 0.937949 0.221359 0.361437
O O4 0.834869 0.985077 0.453614
O O5 0.471217 0.275085 0.353769
O O6 0.000000 0.500000 0.500000
O O7 0.872944 0.200487 0.567021
O O8 0.998391 0.686509 0.116263
O O9 0.923381 0.517512 0.217137
O O10 0.500000 0.500000 0.000000
O O11 0.500000 0.903790 0.250000
O O12 0.000000 0.258399 0.250000
#
# Coordination Sequence:
#
# PCOD8121291 Si02
#       5
#     4   4   4   4   4
#     4  11  24  43  66  98 135 172 216 273 334 395
#     4  12  23  40  67  96 130 174 219 272 326 390
#     4  10  22  41  64  91 126 169 219 267 318 383
#     4  12  25  43  66  98 135 175 219 272 332 393
#     4  11  22  41  65  95 129 172 222 270 324 391
#
# _framework density 22.749175999999999
#
# number of rings (size 3 to 8) (size 9 to 14) (size 15 to 20)
#    0.000    0.800    0.000   10.200    0.000    0.000 
#    0.000    1.000    0.000    2.400    0.000    0.000 
#    0.000    0.000    0.000    0.000    0.000    0.000 
#
# Total GULP energy -248044.519174 kJ/mol
# GULP energy per Si atom -12402.225959 kJ/mol
# Density = 2.269740 g / cm^3
# Si number density = 22.749176 Si / 1000 Ang^3
#
#
#
# Elastic Constant Matrix: (Units=GPa)
#
#
# Indices 1 2 3 4 5 6 
#
# 1 151.1521 19.5483 22.9573 0.0000 23.2186 0.0000
# 2 19.5483 94.2053 11.0402 0.0000 20.2433 0.0000
# 3 22.9573 11.0402 69.7002 -0.0001 9.4363 0.0000
# 4 0.0000 0.0000 -0.0001 32.1739 0.0000 -7.2607
# 5 23.2186 20.2433 9.4363 0.0000 41.9100 0.0000
# 6 0.0000 0.0000 0.0000 -7.2607 0.0000 51.1957
#
#
#
# Elastic Compliance Matrix: (Units=1/GPa)
#
#
# Indices 1 2 3 4 5 6 
#
# 1 0.007512 -0.000595 -0.001914 0.000000 -0.003444 0.000000
# 2 -0.000595 0.011979 -0.000993 0.000000 -0.005233 0.000000
# 3 -0.001914 -0.000993 0.015396 0.000000 -0.001926 0.000000
# 4 0.000000 0.000000 0.000000 0.032109 0.000000 0.004554
# 5 -0.003444 -0.005233 -0.001926 0.000000 0.028730 0.000000
# 6 0.000000 0.000000 0.000000 0.004554 0.000000 0.020179
#
#
# Mechanical properties :
#
#
# Convention : Reuss Voigt Hill
#
# Bulk Modulus (GPa) = 35.86264 46.90551 41.38407
# Shear Modulus (GPa) = 37.82056 42.49004 40.15530
#
# Velocity S-wave (km/s) = 4.08180 4.32645 4.20591
# Velocity P-wave (km/s) = 6.16550 6.75432 6.46662
#
# Compressibility (1/GPa) = 0.02788417
#
# Stress axis : x y z
#
# Youngs Moduli (GPa) = 133.11226 83.47639 64.95327
#
# Poissons Ratio (x) = 0.04963 0.12432
# Poissons Ratio (y) = 0.07914 0.06451
# Poissons Ratio (z) = 0.25477 0.08291
#
# Static dielectric constant tensor:
#      x y z
#    x 4.316770 0.000000 -0.057550 
#    y 0.000000 4.061800 0.000000 
#    z -0.057550 0.000000 4.204960 
# 
# 
# High freq. dielectric constant tensor:
#      x y z
#    x 1.915750 0.000000 -0.004450 
#    y 0.000000 1.898380 0.000000 
#    z -0.004450 0.000000 1.889750 
# 
# From -- ./inp_files/91185.got.cif
#   From: 2010.06.25/outbox.cif.g09.slc.cpg/sg13_46_cif.got.tgz:91185.got - 2010.06.28 04:50:58.
