data_PCOD8121974
_publ_section_title
;
Structure prediction by ZEFSAII (Michael W. Deem and Ramdas Pophale) SiO2 
 PCOD8121974
Probable space group: P 2/C
;
_chemical_formula_sum "Si O2"
_cell_formula_units_Z 18
_cell_length_a 7.511058
_cell_length_b 5.333607
_cell_length_c 24.581919
_cell_angle_alpha 90.000000
_cell_angle_beta 48.218599
_cell_angle_gamma 90.000000
_cell_volume 734.340676
_symmetry_space_group_name_H-M "P 2/C"
_symmetry_group_IT_number 13
_symmetry_cell_setting 'monoclinic'
loop_
_space_group_symop_operation_xyz
x,y,z
-x,y,1/2-z
-x,-y,-z
x,-y,1/2+z
loop_
_atom_site_type_symbol
_atom_site_label
_atom_site_fract_x
_atom_site_fract_y
_atom_site_fract_z
Si Si1 0.664166 0.018109 0.325565
Si Si2 0.257353 0.251567 0.952636
Si Si3 0.066497 0.431975 0.397023
Si Si4 0.258742 0.474116 0.637451
Si Si5 0.500000 0.178102 0.250000
O O1 0.797128 0.269894 0.318136
O O2 0.643211 0.010072 0.264220
O O3 0.399043 0.003562 0.407722
O O4 0.815605 0.771178 0.311593
O O5 0.116651 0.340735 0.927733
O O6 0.455773 0.457941 0.931509
O O7 0.070932 0.212431 0.040372
O O8 0.317212 0.347155 0.321260
O O9 0.891185 0.533480 0.386709
#
# Coordination Sequence:
#
# PCOD8121974 Si02
#       5
#     4   4   4   4   2
#     4  10  24  46  72 100 147 170 251 276 362 402
#     4   9  23  47  74 108 135 189 236 298 338 431
#     4  11  23  46  78 101 149 182 241 284 368 400
#     4  10  23  48  72 108 131 189 232 301 330 432
#     4  12  24  46  68 106 146 194 222 302 348 440
#
# _framework density 24.511783999999999
#
# number of rings (size 3 to 8) (size 9 to 14) (size 15 to 20)
#    1.333    0.444    2.222    0.667    0.000    8.000 
#    0.000    4.444    0.000    0.000    0.000    0.000 
#    0.000    0.000    0.000    0.000    0.000    0.000 
#
# Total GULP energy -223032.226620 kJ/mol
# GULP energy per Si atom -12390.679257 kJ/mol
# Density = 2.445599 g / cm^3
# Si number density = 24.511784 Si / 1000 Ang^3
#
#
#
# Elastic Constant Matrix: (Units=GPa)
#
#
# Indices 1 2 3 4 5 6 
#
# 1 177.8473 40.8102 58.4153 0.0000 37.3158 0.0000
# 2 40.8102 135.7561 33.0996 0.0000 22.6280 0.0000
# 3 58.4153 33.0996 152.4897 0.0000 8.4862 0.0000
# 4 0.0000 0.0000 0.0000 -637.7169 0.0000 560.1853
# 5 37.3158 22.6280 8.4862 0.0000 48.2612 0.0000
# 6 0.0000 0.0000 0.0000 560.1853 0.0000 -490.1193
#
#
#
# Elastic Compliance Matrix: (Units=1/GPa)
#
#
# Indices 1 2 3 4 5 6 
#
# 1 0.007710 -0.000859 -0.002482 0.000000 -0.005122 0.000000
# 2 -0.000859 0.008462 -0.001337 0.000000 -0.003068 0.000000
# 3 -0.002482 -0.001337 0.007733 0.000000 0.001186 0.000000
# 4 0.000000 0.000000 0.000000 0.392017 0.000000 0.448058
# 5 -0.005122 -0.003068 0.001186 0.000000 0.025911 0.000000
# 6 0.000000 0.000000 0.000000 0.448058 0.000000 0.510071
#
#
# Mechanical properties :
#
#
# Convention : Reuss Voigt Hill
#
# Bulk Modulus (GPa) = 68.73384 81.19369 74.96377
# Shear Modulus (GPa) = 5.17540 -193.66380 -94.24420
#
# Velocity S-wave (km/s) = 1.45464 -8.89831 -6.20741
# Velocity P-wave (km/s) = 5.56087 8.50747 4.55268
#
# Compressibility (1/GPa) = 0.01454887
#
# Stress axis : x y z
#
# Youngs Moduli (GPa) = 129.70456 118.17934 129.31904
#
# Poissons Ratio (x) = 0.10149 0.32097
# Poissons Ratio (y) = 0.11138 0.17290
# Poissons Ratio (z) = 0.32193 0.15800
#
# Static dielectric constant tensor:
#      x y z
#    x 4.449850 0.000000 -0.068010 
#    y 0.000000 3.926020 0.000000 
#    z -0.068010 0.000000 4.371820 
# 
# 
# High freq. dielectric constant tensor:
#      x y z
#    x 1.994030 0.000000 -0.005530 
#    y 0.000000 1.945290 0.000000 
#    z -0.005530 0.000000 1.976590 
# 
# From -- ./inp_files/84124.got.cif
#   From: 2010.06.25/outbox.cif.g09.slc.cpg/sg13_43_cif.got.tgz:84124.got - 2010.06.28 04:50:58.
