data_PCOD8121091
_publ_section_title
;
Structure prediction by ZEFSAII (Michael W. Deem and Ramdas Pophale) SiO2 
 PCOD8121091
Probable space group: P 2/C
;
_chemical_formula_sum "Si O2"
_cell_formula_units_Z 28
_cell_length_a 25.165887
_cell_length_b 10.802748
_cell_length_c 24.908749
_cell_angle_alpha 90.000000
_cell_angle_beta 11.429723
_cell_angle_gamma 90.000000
_cell_volume 1341.921786
_symmetry_space_group_name_H-M "P 2/C"
_symmetry_group_IT_number 13
_symmetry_cell_setting 'monoclinic'
loop_
_space_group_symop_operation_xyz
x,y,z
-x,y,1/2-z
-x,-y,-z
x,-y,1/2+z
loop_
_atom_site_type_symbol
_atom_site_label
_atom_site_fract_x
_atom_site_fract_y
_atom_site_fract_z
Si Si1 0.367644 0.669657 0.434749
Si Si2 0.764990 0.881489 0.283359
Si Si3 0.091411 0.518255 0.470206
Si Si4 0.734929 0.613873 0.481532
Si Si5 0.268107 0.027643 0.802749
Si Si6 0.372128 0.629228 0.030060
Si Si7 0.872237 0.738829 0.995895
O O1 0.500000 0.733424 0.250000
O O2 0.258927 0.534332 0.528970
O O3 0.118739 0.743159 0.708921
O O4 0.616789 0.662587 0.227963
O O5 0.756849 0.898514 0.227882
O O6 0.681182 0.740650 0.376311
O O7 0.566397 0.973724 0.511989
O O8 0.063056 0.911992 0.009059
O O9 0.079852 0.664299 0.495857
O O10 0.000000 0.500000 0.500000
O O11 0.867964 0.467256 0.730823
O O12 0.361618 0.442790 0.215351
O O13 0.655996 0.677535 0.502952
O O14 0.000000 0.660486 0.250000
O O15 0.500000 0.665086 0.750000
O O16 0.206763 0.120232 0.912576
#
# Coordination Sequence:
#
# PCOD8121091 Si02
#       7
#     4   4   4   4   4   4   4
#     4  11  22  37  60  88 125 156 203 249 306 375
#     4  10  22  41  61  87 119 165 216 249 292 362
#     4  12  24  37  57  93 130 159 188 245 321 379
#     4  11  21  37  60  87 119 157 201 247 299 366
#     4  10  22  39  63  86 117 165 213 250 292 363
#     4  12  23  40  61  89 125 160 200 254 308 364
#     4  12  21  39  60  91 124 158 200 254 310 368
#
# _framework density 20.865597999999999
#
# number of rings (size 3 to 8) (size 9 to 14) (size 15 to 20)
#    0.000    0.857    2.857    6.000    0.000    3.429 
#    0.000    0.000    0.000    8.571    0.000    0.000 
#    0.000    0.000    0.000    0.000    0.000    0.000 
#
# Total GULP energy -347017.718076 kJ/mol
# GULP energy per Si atom -12393.489931 kJ/mol
# Density = 2.081811 g / cm^3
# Si number density = 20.865598 Si / 1000 Ang^3
#
#
#
# Elastic Constant Matrix: (Units=GPa)
#
#
# Indices 1 2 3 4 5 6 
#
# 1 89.0715 -2.8137 38.0599 0.0000 -9.0708 0.0000
# 2 -2.8137 58.1810 14.2241 0.0000 12.8011 0.0000
# 3 38.0599 14.2241 145.1592 0.0000 -0.4615 0.0000
# 4 0.0000 0.0000 0.0000 36.1270 0.0000 14.9512
# 5 -9.0708 12.8011 -0.4615 0.0000 45.7174 0.0000
# 6 0.0000 0.0000 0.0000 14.9512 0.0000 21.9716
#
#
#
# Elastic Compliance Matrix: (Units=1/GPa)
#
#
# Indices 1 2 3 4 5 6 
#
# 1 0.012981 0.000983 -0.003493 0.000000 0.002265 0.000000
# 2 0.000983 0.018880 -0.002124 0.000000 -0.005113 0.000000
# 3 -0.003493 -0.002124 0.008013 0.000000 -0.000017 0.000000
# 4 0.000000 0.000000 0.000000 0.038531 0.000000 -0.026220
# 5 0.002265 -0.005113 -0.000017 0.000000 0.023754 0.000000
# 6 0.000000 0.000000 0.000000 -0.026220 0.000000 0.063355
#
#
# Mechanical properties :
#
#
# Convention : Reuss Voigt Hill
#
# Bulk Modulus (GPa) = 32.67276 43.48356 38.07816
# Shear Modulus (GPa) = 27.02949 36.95931 31.99440
#
# Velocity S-wave (km/s) = 3.60308 4.21325 3.92006
# Velocity P-wave (km/s) = 5.74476 6.67486 6.22720
#
# Compressibility (1/GPa) = 0.03060653
#
# Stress axis : x y z
#
# Youngs Moduli (GPa) = 77.03519 52.96749 124.79971
#
# Poissons Ratio (x) = -0.05209 0.43589
# Poissons Ratio (y) = -0.07575 0.26508
# Poissons Ratio (z) = 0.26906 0.11251
#
# Static dielectric constant tensor:
#      x y z
#    x 3.774520 0.000000 0.172030 
#    y 0.000000 3.376630 0.000000 
#    z 0.172030 0.000000 4.159010 
# 
# 
# High freq. dielectric constant tensor:
#      x y z
#    x 1.819350 0.000000 0.006640 
#    y 0.000000 1.782790 0.000000 
#    z 0.006640 0.000000 1.843450 
# 
# From -- ./inp_files/94137.got.cif
#   From: 2010.06.25/outbox.cif.g09.slc.cpg/sg13_48_cif.got.tgz:94137.got - 2010.06.28 04:50:58.
