data_PCOD8121761
_publ_section_title
;
Structure prediction by ZEFSAII (Michael W. Deem and Ramdas Pophale) SiO2 
 PCOD8121761
Probable space group: P 2/C
;
_chemical_formula_sum "Si O2"
_cell_formula_units_Z 24
_cell_length_a 12.195019
_cell_length_b 7.230222
_cell_length_c 24.426381
_cell_angle_alpha 90.000000
_cell_angle_beta 147.377812
_cell_angle_gamma 90.000000
_cell_volume 1161.074656
_symmetry_space_group_name_H-M "P 2/C"
_symmetry_group_IT_number 13
_symmetry_cell_setting 'monoclinic'
loop_
_space_group_symop_operation_xyz
x,y,z
-x,y,1/2-z
-x,-y,-z
x,-y,1/2+z
loop_
_atom_site_type_symbol
_atom_site_label
_atom_site_fract_x
_atom_site_fract_y
_atom_site_fract_z
Si Si1 0.646354 0.225910 0.760172
Si Si2 0.244560 0.580036 0.924922
Si Si3 0.591476 0.914757 0.441986
Si Si4 0.985936 0.953040 0.931007
Si Si5 0.169690 0.399060 0.190545
Si Si6 0.565716 0.301802 0.100594
O O1 0.500000 0.194471 0.750000
O O2 0.526613 0.202190 0.653569
O O3 0.755130 0.423538 0.811137
O O4 0.821404 0.075518 0.831624
O O5 0.265403 0.603394 0.868075
O O6 0.010741 0.560319 0.842654
O O7 0.354603 0.767757 0.989477
O O8 0.353213 0.401529 0.996944
O O9 0.795983 0.999770 0.502586
O O10 0.463213 0.079701 0.416274
O O11 0.914312 0.742187 0.890581
O O12 0.000000 0.000000 0.000000
O O13 0.362975 0.329375 0.306733
#
# Coordination Sequence:
#
# PCOD8121761 Si02
#       6
#     4   4   4   4   4   4
#     4  12  24  41  64  94 127 166 214 261 315 379
#     4  10  23  41  63  94 125 164 207 259 313 384
#     4  11  22  41  64  91 126 164 210 261 312 378
#     4  11  24  42  63  90 127 167 211 263 314 374
#     4  11  24  41  64  94 129 164 209 264 317 376
#     4  11  21  40  68  90 126 166 206 256 322 374
#
# _framework density 20.670503
#
# number of rings (size 3 to 8) (size 9 to 14) (size 15 to 20)
#    0.000    1.000    5.000    2.000    0.000    2.667 
#    0.000    0.000    0.000    0.000    0.000    0.000 
#    0.000    0.000    0.000    0.000    0.000    0.000 
#
# Total GULP energy -297591.975805 kJ/mol
# GULP energy per Si atom -12399.665659 kJ/mol
# Density = 2.062346 g / cm^3
# Si number density = 20.670503 Si / 1000 Ang^3
#
#
#
# Elastic Constant Matrix: (Units=GPa)
#
#
# Indices 1 2 3 4 5 6 
#
# 1 49.9486 18.7515 24.5628 0.0000 -3.8804 0.0000
# 2 18.7515 91.0517 16.5539 0.0000 7.3483 0.0000
# 3 24.5628 16.5539 69.1092 0.0000 6.8897 0.0000
# 4 0.0000 0.0000 0.0000 6.4510 0.0000 19.9824
# 5 -3.8804 7.3483 6.8897 0.0000 23.8622 0.0000
# 6 0.0000 0.0000 0.0000 19.9824 0.0000 22.7357
#
#
#
# Elastic Compliance Matrix: (Units=1/GPa)
#
#
# Indices 1 2 3 4 5 6 
#
# 1 0.026982 -0.004542 -0.009348 0.000000 0.008485 0.000000
# 2 -0.004542 0.012435 -0.000936 0.000000 -0.004298 0.000000
# 3 -0.009348 -0.000936 0.018677 0.000000 -0.006624 0.000000
# 4 0.000000 0.000000 0.000000 -0.089997 0.000000 0.079098
# 5 0.008485 -0.004298 -0.006624 0.000000 0.046523 0.000000
# 6 0.000000 0.000000 0.000000 0.079098 0.000000 -0.025536
#
#
# Mechanical properties :
#
#
# Convention : Reuss Voigt Hill
#
# Bulk Modulus (GPa) = 35.15878 36.64955 35.90416
# Shear Modulus (GPa) = 177.20070 20.62585 98.91328
#
# Velocity S-wave (km/s) = 9.26890 3.16229 6.92505
# Velocity P-wave (km/s) = 11.47153 5.57694 9.01938
#
# Compressibility (1/GPa) = 0.02844240
#
# Stress axis : x y z
#
# Youngs Moduli (GPa) = 37.06193 80.41700 53.54223
#
# Poissons Ratio (x) = 0.36526 0.50051
# Poissons Ratio (y) = 0.16834 0.05011
# Poissons Ratio (z) = 0.34645 0.07526
#
# Static dielectric constant tensor:
#      x y z
#    x 3.438220 0.000000 -0.029920 
#    y 0.000000 3.677370 0.000000 
#    z -0.029920 0.000000 3.803410 
# 
# 
# High freq. dielectric constant tensor:
#      x y z
#    x 1.803240 0.000000 0.001390 
#    y 0.000000 1.814110 0.000000 
#    z 0.001390 0.000000 1.821530 
# 
# From -- ./inp_files/56629.got.cif
#   From: 2010.06.25/outbox.cif.g09.slc.cpg/sg13_29_cif.got.tgz:56629.got - 2010.06.28 04:50:58.
