data_PCOD8121487
_publ_section_title
;
Structure prediction by ZEFSAII (Michael W. Deem and Ramdas Pophale) SiO2 
 PCOD8121487
Probable space group: P 2/C
;
_chemical_formula_sum "Si O2"
_cell_formula_units_Z 28
_cell_length_a 6.668126
_cell_length_b 16.315409
_cell_length_c 17.424543
_cell_angle_alpha 90.000000
_cell_angle_beta 134.358552
_cell_angle_gamma 90.000000
_cell_volume 1355.364861
_symmetry_space_group_name_H-M "P 2/C"
_symmetry_group_IT_number 13
_symmetry_cell_setting 'monoclinic'
loop_
_space_group_symop_operation_xyz
x,y,z
-x,y,1/2-z
-x,-y,-z
x,-y,1/2+z
loop_
_atom_site_type_symbol
_atom_site_label
_atom_site_fract_x
_atom_site_fract_y
_atom_site_fract_z
Si Si1 0.675950 0.576958 0.373179
Si Si2 0.429540 0.034025 0.641709
Si Si3 0.239235 0.839637 0.365780
Si Si4 0.763785 0.729957 0.867859
Si Si5 0.318547 0.413211 0.043764
Si Si6 0.363921 0.309938 0.498399
Si Si7 0.145705 0.884307 0.507764
O O1 0.500000 0.588641 0.250000
O O2 0.566352 0.499676 0.393818
O O3 0.634889 0.656516 0.414718
O O4 0.998591 0.571102 0.431633
O O5 0.500000 0.034269 0.750000
O O6 0.662469 0.083962 0.658750
O O7 0.141739 0.077138 0.539912
O O8 0.408671 0.940143 0.605911
O O9 0.465818 0.774075 0.454418
O O10 0.117203 0.880194 0.409107
O O11 0.000000 0.795145 0.250000
O O12 0.500000 0.764473 0.750000
O O13 0.664248 0.646067 0.879267
O O14 0.831696 0.793671 0.952751
O O15 0.040775 0.712344 0.889693
O O16 0.509010 0.377309 0.025944
#
# Coordination Sequence:
#
# PCOD8121487 Si02
#       7
#     4   4   4   4   4   4   4
#     4  10  23  40  65  95 127 171 214 261 320 383
#     4  11  23  42  65  91 124 171 209 265 327 378
#     4  12  24  40  66  97 130 167 208 264 327 390
#     4  11  23  42  66  92 127 172 215 265 324 380
#     4  10  22  43  62  92 133 164 213 269 314 382
#     4  11  24  40  65  96 130 166 215 266 319 389
#     4  11  23  42  63  91 131 161 218 267 313 388
#
# _framework density 20.658643999999999
#
# number of rings (size 3 to 8) (size 9 to 14) (size 15 to 20)
#    0.000    1.143    4.286    1.714    2.000    1.143 
#    0.000    1.429    0.000    0.000    0.000    0.000 
#    0.000    0.000    0.000    0.000    0.000    0.000 
#
# Total GULP energy -347195.518058 kJ/mol
# GULP energy per Si atom -12399.839931 kJ/mol
# Density = 2.061162 g / cm^3
# Si number density = 20.658644 Si / 1000 Ang^3
#
#
#
# Elastic Constant Matrix: (Units=GPa)
#
#
# Indices 1 2 3 4 5 6 
#
# 1 108.2335 21.8463 38.2992 0.0000 -3.1236 0.0000
# 2 21.8463 75.7459 10.4185 0.0000 0.1127 0.0000
# 3 38.2992 10.4185 98.3947 0.0000 2.3585 0.0000
# 4 0.0000 0.0000 0.0000 17.7451 0.0000 18.3133
# 5 -3.1236 0.1127 2.3585 0.0000 28.5205 0.0000
# 6 0.0000 0.0000 0.0000 18.3133 0.0000 -23.1478
#
#
#
# Elastic Compliance Matrix: (Units=1/GPa)
#
#
# Indices 1 2 3 4 5 6 
#
# 1 0.011297 -0.002690 -0.004151 0.000000 0.001591 0.000000
# 2 -0.002690 0.014038 -0.000432 0.000000 -0.000314 0.000000
# 3 -0.004151 -0.000432 0.011859 0.000000 -0.001434 0.000000
# 4 0.000000 0.000000 0.000000 0.031024 0.000000 0.024544
# 5 0.001591 -0.000314 -0.001434 0.000000 0.035357 0.000000
# 6 0.000000 0.000000 0.000000 0.024544 0.000000 -0.023783
#
#
# Mechanical properties :
#
#
# Convention : Reuss Voigt Hill
#
# Bulk Modulus (GPa) = 44.15194 47.05579 45.60386
# Shear Modulus (GPa) = 49.07522 18.74425 33.90973
#
# Velocity S-wave (km/s) = 4.87923 3.01546 4.05585
# Velocity P-wave (km/s) = 7.29116 5.91196 6.63748
#
# Compressibility (1/GPa) = 0.02264906
#
# Stress axis : x y z
#
# Youngs Moduli (GPa) = 88.52086 71.23699 84.32568
#
# Poissons Ratio (x) = 0.19160 0.34999
# Poissons Ratio (y) = 0.23809 0.03642
# Poissons Ratio (z) = 0.36741 0.03077
#
# Static dielectric constant tensor:
#      x y z
#    x 3.825930 0.000000 0.107210 
#    y 0.000000 3.804630 0.000000 
#    z 0.107210 0.000000 3.626150 
# 
# 
# High freq. dielectric constant tensor:
#      x y z
#    x 1.807580 0.000000 0.000870 
#    y 0.000000 1.819450 0.000000 
#    z 0.000870 0.000000 1.805380 
# 
# From -- ./inp_files/44524.got.cif
#   From: 2010.06.25/outbox.cif.g09.slc.cpg/sg13_23_cif.got.tgz:44524.got - 2010.06.28 04:50:58.
