data_PCOD8121530
_publ_section_title
;
Structure prediction by ZEFSAII (Michael W. Deem and Ramdas Pophale) SiO2 
 PCOD8121530
Probable space group: P 2/C
;
_chemical_formula_sum "Si O2"
_cell_formula_units_Z 32
_cell_length_a 21.593933
_cell_length_b 15.013069
_cell_length_c 9.136066
_cell_angle_alpha 90.000000
_cell_angle_beta 149.189242
_cell_angle_gamma 90.000000
_cell_volume 1517.062732
_symmetry_space_group_name_H-M "P 2/C"
_symmetry_group_IT_number 13
_symmetry_cell_setting 'monoclinic'
loop_
_space_group_symop_operation_xyz
x,y,z
-x,y,1/2-z
-x,-y,-z
x,-y,1/2+z
loop_
_atom_site_type_symbol
_atom_site_label
_atom_site_fract_x
_atom_site_fract_y
_atom_site_fract_z
Si Si1 0.152519 0.720947 0.209917
Si Si2 0.392735 0.601841 0.322322
Si Si3 0.659577 0.575856 0.946478
Si Si4 0.888369 0.792484 0.662272
Si Si5 0.497333 0.906265 0.917695
Si Si6 0.314923 0.212188 0.547799
Si Si7 0.914430 0.004147 0.192675
Si Si8 0.723078 0.143621 0.345017
O O1 0.220169 0.625893 0.373579
O O2 0.181524 0.785769 0.403259
O O3 0.197269 0.749695 0.138081
O O4 0.006513 0.728708 0.912524
O O5 0.536911 0.616526 0.628988
O O6 0.338408 0.583032 0.372907
O O7 0.343991 0.525658 0.114309
O O8 0.350351 0.687122 0.147480
O O9 0.826019 0.795580 0.694228
O O10 0.900195 0.892415 0.623810
O O11 0.500000 0.918588 0.750000
O O12 0.377586 0.858087 0.733138
O O13 0.614132 0.850854 0.197527
O O14 0.500000 0.000000 0.000000
O O15 0.335526 0.179198 0.424388
O O16 0.000000 0.954456 0.250000
O O17 0.000000 0.000000 0.500000
O O18 0.786539 0.952869 0.950709
#
# Coordination Sequence:
#
# PCOD8121530 Si02
#       8
#     4   4   4   4   4   4   4   4
#     4  11  22  41  65  92 134 180 233 276 351 412
#     4  10  23  42  71 103 132 179 226 295 363 426
#     4  10  22  43  69  99 133 169 233 293 359 429
#     4  11  22  41  67  96 131 191 236 287 342 429
#     4  12  27  47  69  99 142 188 235 288 353 419
#     4  12  25  42  69 102 144 181 240 284 358 425
#     4  12  22  40  62  94 135 179 238 288 336 398
#     4  12  26  40  66 101 138 188 233 293 349 406
#
# _framework density 21.093392999999999
#
# number of rings (size 3 to 8) (size 9 to 14) (size 15 to 20)
#    0.000    0.750    3.750    4.125    3.500    2.000 
#    2.250    0.625    0.000    0.000    0.000    0.000 
#    0.000    0.000    0.000    0.000    0.000    0.000 
#
# Total GULP energy -396441.316700 kJ/mol
# GULP energy per Si atom -12388.791147 kJ/mol
# Density = 2.104538 g / cm^3
# Si number density = 21.093393 Si / 1000 Ang^3
#
#
#
# Elastic Constant Matrix: (Units=GPa)
#
#
# Indices 1 2 3 4 5 6 
#
# 1 137.0545 45.5145 52.0300 0.0000 -4.2614 0.0000
# 2 45.5145 121.4593 60.1353 0.0000 2.0650 0.0000
# 3 52.0300 60.1353 110.2903 0.0000 -12.8878 0.0000
# 4 0.0000 0.0000 0.0000 251.0866 0.0000 -182.0984
# 5 -4.2614 2.0650 -12.8878 0.0000 40.6717 0.0000
# 6 0.0000 0.0000 0.0000 -182.0984 0.0000 195.1025
#
#
#
# Elastic Compliance Matrix: (Units=1/GPa)
#
#
# Indices 1 2 3 4 5 6 
#
# 1 0.009158 -0.001769 -0.003357 0.000000 -0.000014 0.000000
# 2 -0.001769 0.011894 -0.005964 0.000000 -0.002679 0.000000
# 3 -0.003357 -0.005964 0.014431 0.000000 0.004524 0.000000
# 4 0.000000 0.000000 0.000000 0.012327 0.000000 0.011505
# 5 -0.000014 -0.002679 0.004524 0.000000 0.026155 0.000000
# 6 0.000000 0.000000 0.000000 0.011505 0.000000 0.015864
#
#
# Mechanical properties :
#
#
# Convention : Reuss Voigt Hill
#
# Bulk Modulus (GPa) = 75.17198 76.01821 75.59509
# Shear Modulus (GPa) = 42.93903 111.44712 77.19307
#
# Velocity S-wave (km/s) = 4.51673 7.27666 6.05601
# Velocity P-wave (km/s) = 7.93197 10.33038 9.20959
#
# Compressibility (1/GPa) = 0.01330283
#
# Stress axis : x y z
#
# Youngs Moduli (GPa) = 109.19367 84.07260 69.29440
#
# Poissons Ratio (x) = 0.14875 0.23264
# Poissons Ratio (y) = 0.19320 0.41326
# Poissons Ratio (z) = 0.36660 0.50139
#
# Static dielectric constant tensor:
#      x y z
#    x 3.843640 0.000000 0.010200 
#    y 0.000000 3.303780 0.000000 
#    z 0.010200 0.000000 3.885640 
# 
# 
# High freq. dielectric constant tensor:
#      x y z
#    x 1.834260 0.000000 -0.006010 
#    y 0.000000 1.819490 0.000000 
#    z -0.006010 0.000000 1.833030 
# 
# From -- ./inp_files/24255.got.cif
#   From: 2010.06.25/outbox.cif.g09.slc.cpg/sg13_13_cif.got.tgz:24255.got - 2010.06.28 04:50:58.
