data_PCOD8121455
_publ_section_title
;
Structure prediction by ZEFSAII (Michael W. Deem and Ramdas Pophale) SiO2 
 PCOD8121455
Probable space group: P 2/C
;
_chemical_formula_sum "Si O2"
_cell_formula_units_Z 22
_cell_length_a 11.608552
_cell_length_b 5.429029
_cell_length_c 22.926276
_cell_angle_alpha 90.000000
_cell_angle_beta 136.747395
_cell_angle_gamma 90.000000
_cell_volume 990.059491
_symmetry_space_group_name_H-M "P 2/C"
_symmetry_group_IT_number 13
_symmetry_cell_setting 'monoclinic'
loop_
_space_group_symop_operation_xyz
x,y,z
-x,y,1/2-z
-x,-y,-z
x,-y,1/2+z
loop_
_atom_site_type_symbol
_atom_site_label
_atom_site_fract_x
_atom_site_fract_y
_atom_site_fract_z
Si Si1 0.806164 0.038958 0.418873
Si Si2 0.303753 0.542020 0.182606
Si Si3 0.433612 0.901991 0.565819
Si Si4 0.256643 0.375411 0.288084
Si Si5 0.000000 0.062520 0.250000
Si Si6 0.315239 0.244891 0.903985
O O1 0.740746 0.811934 0.356491
O O2 0.781349 0.308546 0.380933
O O3 0.717105 0.015752 0.448494
O O4 0.000000 0.000000 0.500000
O O5 0.500000 0.499801 0.250000
O O6 0.241691 0.553557 0.227117
O O7 0.573941 0.780597 0.659053
O O8 0.358529 0.719224 0.488262
O O9 0.519820 0.133923 0.566327
O O10 0.086439 0.217534 0.229810
O O11 0.276254 0.498729 0.358788
O O12 0.145710 0.912639 0.335861
#
# Coordination Sequence:
#
# PCOD8121455 Si02
#       6
#     4   4   4   4   2   4
#     4  12  28  47  70 110 144 191 236 301 357 421
#     4  12  26  47  77 102 144 193 243 291 356 434
#     4  10  23  43  67  97 134 178 234 281 355 422
#     4  11  23  42  68 100 134 181 237 285 357 419
#     4  10  24  38  64 104 130 178 228 288 356 410
#     4  10  22  42  68  96 134 179 225 294 346 416
#
# _framework density 22.220887999999999
#
# number of rings (size 3 to 8) (size 9 to 14) (size 15 to 20)
#    0.000    1.091    1.818    3.273    7.636    1.455 
#    0.000    0.000    0.000    0.000    0.000    0.000 
#    0.000    0.000    0.000    0.000    0.000    0.000 
#
# Total GULP energy -272744.325947 kJ/mol
# GULP energy per Si atom -12397.469361 kJ/mol
# Density = 2.217031 g / cm^3
# Si number density = 22.220888 Si / 1000 Ang^3
#
#
#
# Elastic Constant Matrix: (Units=GPa)
#
#
# Indices 1 2 3 4 5 6 
#
# 1 142.5809 18.4963 58.3595 0.0000 12.9691 0.0000
# 2 18.4963 73.5372 9.2041 0.0000 -0.4238 0.0000
# 3 58.3595 9.2041 82.4133 0.0000 7.7074 0.0000
# 4 0.0000 0.0000 0.0000 36.0671 0.0000 -11.4114
# 5 12.9691 -0.4238 7.7074 0.0000 42.7413 0.0000
# 6 0.0000 0.0000 0.0000 -11.4114 0.0000 10.9935
#
#
#
# Elastic Compliance Matrix: (Units=1/GPa)
#
#
# Indices 1 2 3 4 5 6 
#
# 1 0.010219 -0.001722 -0.006869 0.000000 -0.001879 0.000000
# 2 -0.001722 0.014089 -0.000423 0.000000 0.000738 0.000000
# 3 -0.006869 -0.000423 0.017140 0.000000 -0.001011 0.000000
# 4 0.000000 0.000000 0.000000 0.041285 0.000000 0.042854
# 5 -0.001879 0.000738 -0.001011 0.000000 0.024156 0.000000
# 6 0.000000 0.000000 0.000000 0.042854 0.000000 0.135446
#
#
# Mechanical properties :
#
#
# Convention : Reuss Voigt Hill
#
# Bulk Modulus (GPa) = 42.69741 52.29456 47.49599
# Shear Modulus (GPa) = 18.64495 32.12514 25.38504
#
# Velocity S-wave (km/s) = 2.89982 3.80638 3.38360
# Velocity P-wave (km/s) = 5.51984 6.55005 6.05689
#
# Compressibility (1/GPa) = 0.02342062
#
# Stress axis : x y z
#
# Youngs Moduli (GPa) = 97.85537 70.97828 58.34440
#
# Poissons Ratio (x) = 0.12219 0.40074
# Poissons Ratio (y) = 0.16846 0.02471
# Poissons Ratio (z) = 0.67212 0.03006
#
# Static dielectric constant tensor:
#      x y z
#    x 4.098500 0.000000 0.091050 
#    y 0.000000 3.531280 0.000000 
#    z 0.091050 0.000000 4.099100 
# 
# 
# High freq. dielectric constant tensor:
#      x y z
#    x 1.886810 0.000000 0.007720 
#    y 0.000000 1.871270 0.000000 
#    z 0.007720 0.000000 1.882690 
# 
# From -- ./inp_files/85912.got.cif
#   From: 2010.06.25/outbox.cif.g09.slc.cpg/sg13_43_cif.got.tgz:85912.got - 2010.06.28 04:50:58.
