data_PCOD8121722
_publ_section_title
;
Structure prediction by ZEFSAII (Michael W. Deem and Ramdas Pophale) SiO2 
 PCOD8121722
Probable space group: P 2/C
;
_chemical_formula_sum "Si O2"
_cell_formula_units_Z 32
_cell_length_a 26.304645
_cell_length_b 7.849190
_cell_length_c 21.952967
_cell_angle_alpha 90.000000
_cell_angle_beta 160.132901
_cell_angle_gamma 90.000000
_cell_volume 1540.367808
_symmetry_space_group_name_H-M "P 2/C"
_symmetry_group_IT_number 13
_symmetry_cell_setting 'monoclinic'
loop_
_space_group_symop_operation_xyz
x,y,z
-x,y,1/2-z
-x,-y,-z
x,-y,1/2+z
loop_
_atom_site_type_symbol
_atom_site_label
_atom_site_fract_x
_atom_site_fract_y
_atom_site_fract_z
Si Si1 0.420270 0.327970 0.423303
Si Si2 0.274990 0.223857 0.910720
Si Si3 0.160178 0.331094 0.909085
Si Si4 0.846287 0.546314 0.795947
Si Si5 0.398923 0.795421 0.764920
Si Si6 0.743286 0.161737 0.101116
Si Si7 0.424528 0.817777 0.289605
Si Si8 0.836839 0.282873 0.082852
O O1 0.500000 0.500000 0.500000
O O2 0.264114 0.377074 0.277982
O O3 0.396577 0.225836 0.334732
O O4 0.531317 0.217919 0.590819
O O5 0.228228 0.231735 0.928453
O O6 0.195743 0.365458 0.780823
O O7 0.236683 0.028196 0.847144
O O8 0.449307 0.262197 0.097175
O O9 0.143173 0.526503 0.869487
O O10 0.000000 0.256780 0.750000
O O11 0.268097 0.316202 0.088608
O O12 0.857546 0.700221 0.759463
O O13 0.000000 0.500000 0.000000
O O14 0.369106 0.991342 0.717963
O O15 0.772335 0.158245 0.061876
O O16 0.572272 0.225003 0.916575
O O17 0.281474 0.708449 0.106479
O O18 0.000000 0.209350 0.250000
#
# Coordination Sequence:
#
# PCOD8121722 Si02
#       8
#     4   4   4   4   4   4   4   4
#     4  11  22  41  65  91 124 171 212 256 318 376
#     4  11  23  44  66  95 127 166 216 265 318 379
#     4  11  25  40  66  96 129 168 211 265 324 379
#     4  11  25  43  65  93 132 170 215 263 318 381
#     4  11  23  41  65  95 126 166 217 261 317 381
#     4  10  23  42  66  93 125 168 217 262 320 380
#     4  10  23  40  63  93 127 166 214 267 310 383
#     4  11  23  40  62  95 129 164 212 266 323 377
#
# _framework density 20.774258
#
# number of rings (size 3 to 8) (size 9 to 14) (size 15 to 20)
#    0.000    1.250    2.500    2.625    3.500    6.500 
#    0.000    0.000    0.000    0.000    0.000    0.000 
#    0.000    0.000    0.000    0.000    0.000    0.000 
#
# Total GULP energy -396742.366685 kJ/mol
# GULP energy per Si atom -12398.198959 kJ/mol
# Density = 2.072698 g / cm^3
# Si number density = 20.774258 Si / 1000 Ang^3
#
#
#
# Elastic Constant Matrix: (Units=GPa)
#
#
# Indices 1 2 3 4 5 6 
#
# 1 129.8783 17.0931 61.1054 0.0000 -0.1085 0.0000
# 2 17.0931 89.9677 47.2568 0.0000 1.0015 0.0000
# 3 61.1054 47.2568 154.0593 0.0000 -0.3548 0.0000
# 4 0.0000 0.0000 0.0000 22.0502 0.0000 -5.0431
# 5 -0.1085 1.0015 -0.3548 0.0000 16.3422 0.0000
# 6 0.0000 0.0000 0.0000 -5.0431 0.0000 29.5129
#
#
#
# Elastic Compliance Matrix: (Units=1/GPa)
#
#
# Indices 1 2 3 4 5 6 
#
# 1 0.009469 0.000208 -0.003820 0.000000 -0.000033 0.000000
# 2 0.000208 0.013268 -0.004154 0.000000 -0.000902 0.000000
# 3 -0.003820 -0.004154 0.009281 0.000000 0.000431 0.000000
# 4 0.000000 0.000000 0.000000 0.047196 0.000000 0.008065
# 5 -0.000033 -0.000902 0.000431 0.000000 0.061256 0.000000
# 6 0.000000 0.000000 0.000000 0.008065 0.000000 0.035262
#
#
# Mechanical properties :
#
#
# Convention : Reuss Voigt Hill
#
# Bulk Modulus (GPa) = 60.65823 69.42398 65.04111
# Shear Modulus (GPa) = 25.41184 30.14439 27.77811
#
# Velocity S-wave (km/s) = 3.50127 3.81339 3.66066
# Velocity P-wave (km/s) = 6.75332 7.27187 7.01739
#
# Compressibility (1/GPa) = 0.01648581
#
# Stress axis : x y z
#
# Youngs Moduli (GPa) = 105.60540 75.37060 107.74394
#
# Poissons Ratio (x) = -0.01565 0.41154
# Poissons Ratio (y) = -0.02192 0.44759
# Poissons Ratio (z) = 0.40337 0.31311
#
# Static dielectric constant tensor:
#      x y z
#    x 3.723540 0.000000 0.083960 
#    y 0.000000 3.837500 0.000000 
#    z 0.083960 0.000000 3.670980 
# 
# 
# High freq. dielectric constant tensor:
#      x y z
#    x 1.818640 0.000000 0.001750 
#    y 0.000000 1.826100 0.000000 
#    z 0.001750 0.000000 1.804530 
# 
# From -- ./inp_files/82529.got.cif
#   From: 2010.06.25/outbox.cif.g09.slc.cpg/sg13_42_cif.got.tgz:82529.got - 2010.06.28 04:50:58.
