data_PCOD8121022
_publ_section_title
;
Structure prediction by ZEFSAII (Michael W. Deem and Ramdas Pophale) SiO2 
 PCOD8121022
Probable space group: P 2/C
;
_chemical_formula_sum "Si O2"
_cell_formula_units_Z 18
_cell_length_a 13.290235
_cell_length_b 5.030566
_cell_length_c 21.546268
_cell_angle_alpha 90.000000
_cell_angle_beta 37.775347
_cell_angle_gamma 90.000000
_cell_volume 882.419658
_symmetry_space_group_name_H-M "P 2/C"
_symmetry_group_IT_number 13
_symmetry_cell_setting 'monoclinic'
loop_
_space_group_symop_operation_xyz
x,y,z
-x,y,1/2-z
-x,-y,-z
x,-y,1/2+z
loop_
_atom_site_type_symbol
_atom_site_label
_atom_site_fract_x
_atom_site_fract_y
_atom_site_fract_z
Si Si1 0.026111 0.451528 0.415232
Si Si2 0.487727 0.945701 0.933890
Si Si3 0.500000 0.741274 0.250000
Si Si4 0.664339 0.559240 0.050604
Si Si5 0.235383 0.945285 0.292326
O O1 0.156221 0.654955 0.322566
O O2 0.000000 0.500000 0.500000
O O3 0.857375 0.491306 0.460731
O O4 0.092246 0.154032 0.375219
O O5 0.420212 0.651653 0.953747
O O6 0.360426 0.148690 0.965103
O O7 0.669425 0.981100 0.816927
O O8 0.500000 0.000000 0.000000
O O9 0.578891 0.547225 0.159937
O O10 0.361683 0.934723 0.288590
#
# Coordination Sequence:
#
# PCOD8121022 Si02
#       5
#     4   4   2   4   4
#     4  12  24  39  61 100 136 159 197 259 333 386
#     4  11  25  46  66  89 124 174 224 259 297 370
#     4  10  22  38  64  98 126 174 204 264 318 384
#     4  11  24  40  67  93 130 164 212 260 321 372
#     4  11  24  39  64  92 131 166 210 254 318 373
#
# _framework density 20.398458999999999
#
# number of rings (size 3 to 8) (size 9 to 14) (size 15 to 20)
#    0.000    0.889    2.222    5.333    6.222    1.778 
#    0.000    6.667    0.000    0.000    0.000    0.000 
#    0.000    0.000    0.000    0.000    0.000    0.000 
#
# Total GULP energy -223316.637647 kJ/mol
# GULP energy per Si atom -12406.479869 kJ/mol
# Density = 2.035203 g / cm^3
# Si number density = 20.398459 Si / 1000 Ang^3
#
#
#
# Elastic Constant Matrix: (Units=GPa)
#
#
# Indices 1 2 3 4 5 6 
#
# 1 91.6356 15.8442 62.7117 0.0000 3.2813 0.0000
# 2 15.8442 85.3956 23.8966 0.0000 -3.5124 0.0000
# 3 62.7117 23.8966 101.6062 0.0000 -2.8449 0.0000
# 4 0.0000 0.0000 0.0000 33.5554 0.0000 -10.2729
# 5 3.2813 -3.5124 -2.8449 0.0000 40.9829 0.0000
# 6 0.0000 0.0000 0.0000 -10.2729 0.0000 39.5938
#
#
#
# Elastic Compliance Matrix: (Units=1/GPa)
#
#
# Indices 1 2 3 4 5 6 
#
# 1 0.019127 -0.000347 -0.011790 0.000000 -0.002380 0.000000
# 2 -0.000347 0.012573 -0.002717 0.000000 0.000917 0.000000
# 3 -0.011790 -0.002717 0.017812 0.000000 0.001948 0.000000
# 4 0.000000 0.000000 0.000000 0.032373 0.000000 0.008399
# 5 -0.002380 0.000917 0.001948 0.000000 0.024805 0.000000
# 6 0.000000 0.000000 0.000000 0.008399 0.000000 0.027436
#
#
# Mechanical properties :
#
#
# Convention : Reuss Voigt Hill
#
# Bulk Modulus (GPa) = 50.49713 53.72693 52.11203
# Shear Modulus (GPa) = 29.33681 34.57208 31.95445
#
# Velocity S-wave (km/s) = 3.79646 4.12131 3.96221
# Velocity P-wave (km/s) = 6.63525 7.00306 6.82163
#
# Compressibility (1/GPa) = 0.01980310
#
# Stress axis : x y z
#
# Youngs Moduli (GPa) = 52.28310 79.53781 56.14116
#
# Poissons Ratio (x) = 0.02763 0.66190
# Poissons Ratio (y) = 0.01816 0.15253
# Poissons Ratio (z) = 0.61642 0.21609
#
# Static dielectric constant tensor:
#      x y z
#    x 3.901770 0.000000 -0.531010 
#    y 0.000000 3.823620 0.000000 
#    z -0.531010 0.000000 4.594830 
# 
# 
# High freq. dielectric constant tensor:
#      x y z
#    x 1.787270 0.000000 -0.014540 
#    y 0.000000 1.810390 0.000000 
#    z -0.014540 0.000000 1.800800 
# 
# From -- ./inp_files/51998.got.cif
#   From: 2010.06.25/outbox.cif.g09.slc.cpg/sg13_26_cif.got.tgz:51998.got - 2010.06.28 04:50:58.
