data_PCOD8121702
_publ_section_title
;
Structure prediction by ZEFSAII (Michael W. Deem and Ramdas Pophale) SiO2 
 PCOD8121702
Probable space group: P 2/C
;
_chemical_formula_sum "Si O2"
_cell_formula_units_Z 32
_cell_length_a 8.672253
_cell_length_b 12.360187
_cell_length_c 14.304254
_cell_angle_alpha 90.000000
_cell_angle_beta 89.863666
_cell_angle_gamma 90.000000
_cell_volume 1533.278212
_symmetry_space_group_name_H-M "P 2/C"
_symmetry_group_IT_number 13
_symmetry_cell_setting 'monoclinic'
loop_
_space_group_symop_operation_xyz
x,y,z
-x,y,1/2-z
-x,-y,-z
x,-y,1/2+z
loop_
_atom_site_type_symbol
_atom_site_label
_atom_site_fract_x
_atom_site_fract_y
_atom_site_fract_z
Si Si1 0.673723 0.127047 0.751738
Si Si2 0.681598 0.322557 0.254003
Si Si3 0.672314 0.224358 0.936132
Si Si4 0.178057 0.388611 0.054674
Si Si5 0.680321 0.807447 0.046069
Si Si6 0.175679 0.908399 0.771995
Si Si7 0.816916 0.404633 0.060587
Si Si8 0.177305 0.974482 0.982158
O O1 0.500000 0.081614 0.750000
O O2 0.681063 0.228948 0.823378
O O3 0.724670 0.180938 0.654605
O O4 0.775408 0.020868 0.778048
O O5 0.500000 0.327038 0.250000
O O6 0.736381 0.388674 0.345423
O O7 0.731379 0.197161 0.262132
O O8 0.743206 0.382694 0.161409
O O9 0.496683 0.224912 0.973270
O O10 0.768673 0.316539 0.984711
O O11 0.757380 0.110950 0.946590
O O12 0.998687 0.402665 0.075401
O O13 0.206013 0.278294 0.999769
O O14 0.239314 0.482955 0.985440
O O15 0.717696 0.921231 0.998078
O O16 0.204487 0.922501 0.881194
O O17 0.000000 0.883156 0.750000
O O18 0.000000 0.000000 0.000000
#
# Coordination Sequence:
#
# PCOD8121702 Si02
#       8
#     4   4   4   4   4   4   4   4
#     4   9  21  39  59  90 132 172 213 263 323 386
#     4  12  26  43  68  98 129 168 216 272 328 387
#     4  11  21  39  64  90 131 171 212 272 320 394
#     4  11  26  45  72  92 131 172 216 278 323 392
#     4  10  23  39  61  95 126 169 220 264 329 383
#     4  11  22  37  59  93 133 170 217 266 314 393
#     4  11  25  48  66  98 128 170 222 267 333 388
#     4  11  22  36  59  92 131 174 214 266 327 390
#
# _framework density 20.870314
#
# number of rings (size 3 to 8) (size 9 to 14) (size 15 to 20)
#    0.000    1.250    1.250    4.125    3.500    4.000 
#    0.000    2.500    0.000    0.000    0.000    0.000 
#    0.000    0.000    0.000    0.000    0.000    0.000 
#
# Total GULP energy -396774.842115 kJ/mol
# GULP energy per Si atom -12399.213816 kJ/mol
# Density = 2.082281 g / cm^3
# Si number density = 20.870314 Si / 1000 Ang^3
#
#
#
# Elastic Constant Matrix: (Units=GPa)
#
#
# Indices 1 2 3 4 5 6 
#
# 1 81.6668 33.6935 62.7211 0.0000 -0.5513 0.0000
# 2 33.6935 96.9275 47.8000 0.0000 11.3080 0.0000
# 3 62.7211 47.8000 53.1088 0.0000 11.7342 0.0000
# 4 0.0000 0.0000 0.0000 44.7486 0.0000 24.4071
# 5 -0.5513 11.3080 11.7342 0.0000 29.2096 0.0000
# 6 0.0000 0.0000 0.0000 24.4071 0.0000 69.2401
#
#
#
# Elastic Compliance Matrix: (Units=1/GPa)
#
#
# Indices 1 2 3 4 5 6 
#
# 1 -0.105481 -0.043758 0.176302 0.000000 -0.055875 0.000000
# 2 -0.043758 0.000405 0.056550 0.000000 -0.023700 0.000000
# 3 0.176302 0.056550 -0.259183 0.000000 0.085555 0.000000
# 4 0.000000 0.000000 0.000000 0.027666 0.000000 -0.009752
# 5 -0.055875 -0.023700 0.085555 0.000000 0.007986 0.000000
# 6 0.000000 0.000000 0.000000 -0.009752 0.000000 0.017880
#
#
# Mechanical properties :
#
#
# Convention : Reuss Voigt Hill
#
# Bulk Modulus (GPa) = 71.79213 57.79248 64.79231
# Shear Modulus (GPa) = -7.30705 34.47221 13.58258
#
# Velocity S-wave (km/s) = -1.87317 4.06856 2.55386
# Velocity P-wave (km/s) = 5.45852 7.05849 6.30943
#
# Compressibility (1/GPa) = 0.01392910
#
# Stress axis : x y z
#
# Youngs Moduli (GPa) = -9.48036 2467.11853 -3.85828
#
# Poissons Ratio (x) = 107.95675 0.68022
# Poissons Ratio (y) = -0.41484 0.21819
# Poissons Ratio (z) = 1.67141 -139.51526
#
# Static dielectric constant tensor:
#      x y z
#    x 3.704810 0.000000 -0.121190 
#    y 0.000000 3.026370 0.000000 
#    z -0.121190 0.000000 3.834230 
# 
# 
# High freq. dielectric constant tensor:
#      x y z
#    x 1.824960 0.000000 0.001280 
#    y 0.000000 1.809470 0.000000 
#    z 0.001280 0.000000 1.835560 
# 
# From -- ./inp_files/47254.got.cif
#   From: 2010.06.25/outbox.cif.g09.slc.cpg/sg13_24_cif.got.tgz:47254.got - 2010.06.28 04:50:58.
