data_PCOD8121341
_publ_section_title
;
Structure prediction by ZEFSAII (Michael W. Deem and Ramdas Pophale) SiO2 
 PCOD8121341
Probable space group: P 2/C
;
_chemical_formula_sum "Si O2"
_cell_formula_units_Z 26
_cell_length_a 14.790518
_cell_length_b 11.118912
_cell_length_c 8.866821
_cell_angle_alpha 90.000000
_cell_angle_beta 53.604137
_cell_angle_gamma 90.000000
_cell_volume 1173.749220
_symmetry_space_group_name_H-M "P 2/C"
_symmetry_group_IT_number 13
_symmetry_cell_setting 'monoclinic'
loop_
_space_group_symop_operation_xyz
x,y,z
-x,y,1/2-z
-x,-y,-z
x,-y,1/2+z
loop_
_atom_site_type_symbol
_atom_site_label
_atom_site_fract_x
_atom_site_fract_y
_atom_site_fract_z
Si Si1 0.851598 0.906096 0.640993
Si Si2 0.132354 0.568368 0.500999
Si Si3 0.500000 0.508238 0.250000
Si Si4 0.903599 0.648316 0.644819
Si Si5 0.000000 0.006815 0.750000
Si Si6 0.642493 0.374867 0.866304
Si Si7 0.649744 0.901499 0.358817
Si Si8 0.500000 0.991378 0.250000
O O1 0.825415 0.765179 0.688507
O O2 0.903768 0.913353 0.422362
O O3 0.944510 0.926334 0.676744
O O4 0.749141 0.999564 0.754009
O O5 0.158720 0.583963 0.651750
O O6 0.087578 0.433842 0.513580
O O7 0.241023 0.564093 0.288265
O O8 0.036620 0.668558 0.553007
O O9 0.408719 0.422136 0.424308
O O10 0.444851 0.596526 0.181484
O O11 0.684012 0.236465 0.833278
O O12 0.581203 0.922550 0.577727
O O13 0.572398 0.908742 0.288154
#
# Coordination Sequence:
#
# PCOD8121341 Si02
#       8
#     4   4   2   4   2   4   4   2
#     4  11  24  43  67 101 136 184 220 279 338 407
#     4  10  22  41  67  97 129 180 214 273 339 390
#     4  10  24  46  66 104 130 174 230 278 344 384
#     4  10  23  42  65  99 138 166 228 271 330 413
#     4  10  24  40  62 102 134 176 228 260 342 394
#     4  11  23  43  70  97 132 174 220 284 330 412
#     4  11  24  43  70  97 135 177 226 278 346 391
#     4  10  24  46  62 102 126 176 226 276 336 390
#
# _framework density 22.151239
#
# number of rings (size 3 to 8) (size 9 to 14) (size 15 to 20)
#    0.000    1.538    0.000    3.692    8.615    2.462 
#   19.385    0.000    0.000    0.000    0.000    0.000 
#    0.000    0.000    0.000    0.000    0.000    0.000 
#
# Total GULP energy -322115.559005 kJ/mol
# GULP energy per Si atom -12389.059962 kJ/mol
# Density = 2.210082 g / cm^3
# Si number density = 22.151239 Si / 1000 Ang^3
#
#
#
# Elastic Constant Matrix: (Units=GPa)
#
#
# Indices 1 2 3 4 5 6 
#
# 1 55.4305 28.4343 29.6031 0.0000 -9.2558 0.0000
# 2 28.4343 133.6970 40.0670 0.0000 1.6627 0.0000
# 3 29.6031 40.0670 171.0373 0.0000 -9.6827 0.0000
# 4 0.0000 0.0000 0.0000 20.2275 0.0000 -10.5376
# 5 -9.2558 1.6627 -9.6827 0.0000 39.8096 0.0000
# 6 0.0000 0.0000 0.0000 -10.5376 0.0000 25.8056
#
#
#
# Elastic Compliance Matrix: (Units=1/GPa)
#
#
# Indices 1 2 3 4 5 6 
#
# 1 0.022299 -0.004005 -0.002655 0.000000 0.004706 0.000000
# 2 -0.004005 0.008789 -0.001459 0.000000 -0.001653 0.000000
# 3 -0.002655 -0.001459 0.006709 0.000000 0.001075 0.000000
# 4 0.000000 0.000000 0.000000 0.062796 0.000000 0.025643
# 5 0.004706 -0.001653 0.001075 0.000000 0.026544 0.000000
# 6 0.000000 0.000000 0.000000 0.025643 0.000000 0.049222
#
#
# Mechanical properties :
#
#
# Convention : Reuss Voigt Hill
#
# Bulk Modulus (GPa) = 46.38611 61.81929 54.10270
# Shear Modulus (GPa) = 25.02689 34.63925 29.83307
#
# Velocity S-wave (km/s) = 3.36492 3.95873 3.67385
# Velocity P-wave (km/s) = 6.00692 6.99027 6.51716
#
# Compressibility (1/GPa) = 0.02155818
#
# Stress axis : x y z
#
# Youngs Moduli (GPa) = 44.84529 113.77406 149.05560
#
# Poissons Ratio (x) = 0.45571 0.39571
# Poissons Ratio (y) = 0.17962 0.21752
# Poissons Ratio (z) = 0.11905 0.16603
#
# Static dielectric constant tensor:
#      x y z
#    x 4.159230 0.000000 0.226930 
#    y 0.000000 3.776590 0.000000 
#    z 0.226930 0.000000 4.337790 
# 
# 
# High freq. dielectric constant tensor:
#      x y z
#    x 1.868160 0.000000 0.006230 
#    y 0.000000 1.859150 0.000000 
#    z 0.006230 0.000000 1.889940 
# 
# From -- ./inp_files/18709.got.cif
#   From: 2010.06.25/outbox.cif.g09.slc.cpg/sg13_10_cif.got.tgz:18709.got - 2010.06.28 04:50:58.
