data_PCOD8121930
_publ_section_title
;
Structure prediction by ZEFSAII (Michael W. Deem and Ramdas Pophale) SiO2 
 PCOD8121930
Probable space group: P 2/C
;
_chemical_formula_sum "Si O2"
_cell_formula_units_Z 32
_cell_length_a 23.654440
_cell_length_b 8.797718
_cell_length_c 13.595035
_cell_angle_alpha 90.000000
_cell_angle_beta 31.025051
_cell_angle_gamma 90.000000
_cell_volume 1458.203837
_symmetry_space_group_name_H-M "P 2/C"
_symmetry_group_IT_number 13
_symmetry_cell_setting 'monoclinic'
loop_
_space_group_symop_operation_xyz
x,y,z
-x,y,1/2-z
-x,-y,-z
x,-y,1/2+z
loop_
_atom_site_type_symbol
_atom_site_label
_atom_site_fract_x
_atom_site_fract_y
_atom_site_fract_z
Si Si1 0.476539 0.863335 0.107452
Si Si2 0.603119 0.115531 0.145785
Si Si3 0.070832 0.555113 0.742549
Si Si4 0.109055 0.868460 0.022086
Si Si5 0.970874 0.273010 0.570969
Si Si6 0.789257 0.853405 0.222764
Si Si7 0.676888 0.711306 0.730986
Si Si8 0.713214 0.636722 0.177806
O O1 0.380710 0.752901 0.213543
O O2 0.435028 0.944690 0.267844
O O3 0.592472 0.773525 0.940010
O O4 0.500000 0.000000 0.000000
O O5 0.500000 0.202717 0.250000
O O6 0.648233 0.221388 0.166099
O O7 0.684493 0.082946 0.934901
O O8 0.084200 0.389146 0.770085
O O9 0.188455 0.630875 0.547856
O O10 0.000000 0.539001 0.750000
O O11 0.007264 0.657036 0.914157
O O12 0.000000 0.885078 0.250000
O O13 0.073590 0.811407 0.967222
O O14 0.196075 0.749732 0.936646
O O15 0.169770 0.030291 0.922549
O O16 0.877091 0.156752 0.679605
O O17 0.762174 0.692965 0.209759
O O18 0.662390 0.530740 0.759765
#
# Coordination Sequence:
#
# PCOD8121930 Si02
#       8
#     4   4   4   4   4   4   4   4
#     4  10  23  45  69  98 132 183 228 288 355 416
#     4  11  23  45  70  99 140 181 236 297 356 424
#     4  11  23  44  68 104 144 187 230 298 353 420
#     4  12  26  44  70 101 146 193 238 293 356 420
#     4  11  25  42  69 102 145 187 242 285 352 421
#     4  12  25  41  67 106 141 186 239 293 346 425
#     4  11  24  47  72 102 140 185 233 295 365 418
#     4  12  24  42  74  99 141 184 235 284 364 415
#
# _framework density 21.944804999999999
#
# number of rings (size 3 to 8) (size 9 to 14) (size 15 to 20)
#    0.000    0.750    1.250    7.875    5.250    0.000 
#    0.000    0.625    0.000    1.500    0.000    0.000 
#    0.000    0.000    0.000    0.000    0.000    0.000 
#
# Total GULP energy -396723.399046 kJ/mol
# GULP energy per Si atom -12397.606220 kJ/mol
# Density = 2.189486 g / cm^3
# Si number density = 21.944805 Si / 1000 Ang^3
#
#
#
# Elastic Constant Matrix: (Units=GPa)
#
#
# Indices 1 2 3 4 5 6 
#
# 1 115.2175 37.2120 46.3311 0.0000 -3.9389 0.0000
# 2 37.2120 122.3015 61.2057 0.0000 4.8179 0.0000
# 3 46.3311 61.2057 158.7116 0.0000 -1.7165 0.0000
# 4 0.0000 0.0000 0.0000 31.1810 0.0000 -3.0589
# 5 -3.9389 4.8179 -1.7165 0.0000 39.3937 0.0000
# 6 0.0000 0.0000 0.0000 -3.0589 0.0000 33.5331
#
#
#
# Elastic Compliance Matrix: (Units=1/GPa)
#
#
# Indices 1 2 3 4 5 6 
#
# 1 0.010269 -0.002079 -0.002183 0.000000 0.001186 0.000000
# 2 -0.002079 0.010632 -0.003511 0.000000 -0.001661 0.000000
# 3 -0.002183 -0.003511 0.008298 0.000000 0.000573 0.000000
# 4 0.000000 0.000000 0.000000 0.032360 0.000000 0.002952
# 5 0.001186 -0.001661 0.000573 0.000000 0.025731 0.000000
# 6 0.000000 0.000000 0.000000 0.002952 0.000000 0.030091
#
#
# Mechanical properties :
#
#
# Convention : Reuss Voigt Hill
#
# Bulk Modulus (GPa) = 73.24494 76.19200 74.71847
# Shear Modulus (GPa) = 36.36936 37.58702 36.97819
#
# Velocity S-wave (km/s) = 4.07542 4.14309 4.10939
# Velocity P-wave (km/s) = 7.45619 7.59487 7.52585
#
# Compressibility (1/GPa) = 0.01365282
#
# Stress axis : x y z
#
# Youngs Moduli (GPa) = 97.37998 94.05988 120.50625
#
# Poissons Ratio (x) = 0.19551 0.26311
# Poissons Ratio (y) = 0.20241 0.42311
# Poissons Ratio (z) = 0.21261 0.33026
#
# Static dielectric constant tensor:
#      x y z
#    x 4.011430 0.000000 0.009160 
#    y 0.000000 4.321240 0.000000 
#    z 0.009160 0.000000 4.423320 
# 
# 
# High freq. dielectric constant tensor:
#      x y z
#    x 1.864840 0.000000 -0.006350 
#    y 0.000000 1.860030 0.000000 
#    z -0.006350 0.000000 1.883950 
# 
# From -- ./inp_files/58792.got.cif
#   From: 2010.06.25/outbox.cif.g09.slc.cpg/sg13_30_cif.got.tgz:58792.got - 2010.06.28 04:50:58.
