data_PCOD8121919
_publ_section_title
;
Structure prediction by ZEFSAII (Michael W. Deem and Ramdas Pophale) SiO2 
 PCOD8121919
Probable space group: P 2/C
;
_chemical_formula_sum "Si O2"
_cell_formula_units_Z 18
_cell_length_a 10.194990
_cell_length_b 6.627816
_cell_length_c 12.898141
_cell_angle_alpha 90.000000
_cell_angle_beta 90.620986
_cell_angle_gamma 90.000000
_cell_volume 871.482879
_symmetry_space_group_name_H-M "P 2/C"
_symmetry_group_IT_number 13
_symmetry_cell_setting 'monoclinic'
loop_
_space_group_symop_operation_xyz
x,y,z
-x,y,1/2-z
-x,-y,-z
x,-y,1/2+z
loop_
_atom_site_type_symbol
_atom_site_label
_atom_site_fract_x
_atom_site_fract_y
_atom_site_fract_z
Si Si1 0.000000 0.852296 0.750000
Si Si2 0.891375 0.635859 0.945967
Si Si3 0.441271 0.314917 0.861429
Si Si4 0.676412 0.647920 0.506843
Si Si5 0.796948 0.964503 0.101148
O O1 0.932901 0.705429 0.832687
O O2 0.891659 0.999490 0.699528
O O3 0.757815 0.506162 0.934548
O O4 0.869845 0.830192 0.017150
O O5 0.000000 0.500000 0.000000
O O6 0.500000 0.347322 0.750000
O O7 0.556686 0.255987 0.942106
O O8 0.336933 0.133937 0.858797
O O9 0.375750 0.525694 0.893933
O O10 0.770888 0.821901 0.547533
#
# Coordination Sequence:
#
# PCOD8121919 Si02
#       5
#     2   4   4   4   4
#     4  12  26  42  72  98 130 186 220 272 346 398
#     4  11  25  44  66  99 136 173 223 282 331 400
#     4  10  24  41  68  96 128 177 217 274 331 401
#     4  10  23  45  64  93 138 167 220 277 335 386
#     4  11  25  44  65 100 133 173 223 279 332 403
#
# _framework density 20.654453
#
# number of rings (size 3 to 8) (size 9 to 14) (size 15 to 20)
#    0.000    1.333    2.222    1.333    6.222    1.778 
#    0.000    0.000    0.000    0.000    0.000    0.000 
#    0.000    0.000    0.000    0.000    0.000    0.000 
#
# Total GULP energy -223313.299435 kJ/mol
# GULP energy per Si atom -12406.294413 kJ/mol
# Density = 2.060744 g / cm^3
# Si number density = 20.654453 Si / 1000 Ang^3
#
#
#
# Elastic Constant Matrix: (Units=GPa)
#
#
# Indices 1 2 3 4 5 6 
#
# 1 136.8613 67.4872 78.3485 0.0000 5.0575 0.0000
# 2 67.4872 116.5721 76.0660 0.0000 6.8001 0.0000
# 3 78.3485 76.0660 149.5026 0.0000 -18.6839 0.0000
# 4 0.0000 0.0000 0.0000 7.9435 0.0000 18.5900
# 5 5.0575 6.8001 -18.6839 0.0000 48.0302 0.0000
# 6 0.0000 0.0000 0.0000 18.5900 0.0000 33.9693
#
#
#
# Elastic Compliance Matrix: (Units=1/GPa)
#
#
# Indices 1 2 3 4 5 6 
#
# 1 0.011896 -0.003686 -0.004678 0.000000 -0.002550 0.000000
# 2 -0.003686 0.015021 -0.006231 0.000000 -0.004162 0.000000
# 3 -0.004678 -0.006231 0.013120 0.000000 0.006479 0.000000
# 4 0.000000 0.000000 0.000000 -0.448428 0.000000 0.245406
# 5 -0.002550 -0.004162 0.006479 0.000000 0.024198 0.000000
# 6 0.000000 0.000000 0.000000 0.245406 0.000000 -0.104862
#
#
# Mechanical properties :
#
#
# Convention : Reuss Voigt Hill
#
# Bulk Modulus (GPa) = 92.18347 94.08217 93.13282
# Shear Modulus (GPa) = -10.95895 30.05756 9.54930
#
# Velocity S-wave (km/s) = -2.30594 3.81892 2.15253
# Velocity P-wave (km/s) = 6.13501 8.06815 7.16705
#
# Compressibility (1/GPa) = 0.01084793
#
# Stress axis : x y z
#
# Youngs Moduli (GPa) = 84.05921 66.57282 76.21797
#
# Poissons Ratio (x) = 0.24539 0.35653
# Poissons Ratio (y) = 0.30985 0.47492
# Poissons Ratio (z) = 0.39320 0.41482
#
# Static dielectric constant tensor:
#      x y z
#    x 4.147880 0.000000 -0.021520 
#    y 0.000000 3.783130 0.000000 
#    z -0.021520 0.000000 3.685650 
# 
# 
# High freq. dielectric constant tensor:
#      x y z
#    x 1.833070 0.000000 -0.003640 
#    y 0.000000 1.815290 0.000000 
#    z -0.003640 0.000000 1.802360 
# 
# From -- ./inp_files/31155.got.cif
#   From: 2010.06.25/outbox.cif.g09.slc.cpg/sg13_16_cif.got.tgz:31155.got - 2010.06.28 04:50:58.
