data_PCOD8121257
_publ_section_title
;
Structure prediction by ZEFSAII (Michael W. Deem and Ramdas Pophale) SiO2 
 PCOD8121257
Probable space group: P 2/C
;
_chemical_formula_sum "Si O2"
_cell_formula_units_Z 28
_cell_length_a 14.767801
_cell_length_b 11.072384
_cell_length_c 9.590656
_cell_angle_alpha 90.000000
_cell_angle_beta 121.985817
_cell_angle_gamma 90.000000
_cell_volume 1330.126440
_symmetry_space_group_name_H-M "P 2/C"
_symmetry_group_IT_number 13
_symmetry_cell_setting 'monoclinic'
loop_
_space_group_symop_operation_xyz
x,y,z
-x,y,1/2-z
-x,-y,-z
x,-y,1/2+z
loop_
_atom_site_type_symbol
_atom_site_label
_atom_site_fract_x
_atom_site_fract_y
_atom_site_fract_z
Si Si1 0.120320 0.229600 0.334157
Si Si2 0.847288 0.179021 0.448589
Si Si3 0.500000 0.269901 0.250000
Si Si4 0.000000 0.325685 0.750000
Si Si5 0.296821 0.608655 0.646247
Si Si6 0.736053 0.939633 0.391903
Si Si7 0.181250 0.488883 0.323546
Si Si8 0.599808 0.938630 0.008836
O O1 0.162547 0.177178 0.224577
O O2 0.201129 0.182123 0.518331
O O3 0.122627 0.373844 0.341138
O O4 0.000000 0.182837 0.250000
O O5 0.752464 0.261094 0.429944
O O6 0.957637 0.237030 0.593637
O O7 0.826245 0.043424 0.480817
O O8 0.578746 0.360850 0.228663
O O9 0.563254 0.189302 0.414356
O O10 0.091565 0.405784 0.749937
O O11 0.282621 0.524678 0.499816
O O12 0.231251 0.542177 0.714888
O O13 0.691727 0.920255 0.199801
O O14 0.640018 0.971905 0.419401
O O15 0.500000 0.000000 0.000000
#
# Coordination Sequence:
#
# PCOD8121257 Si02
#       8
#     4   4   2   2   4   4   4   4
#     4  11  25  40  64  97 141 176 219 269 332 402
#     4  10  22  41  63  98 133 173 222 274 328 395
#     4  12  24  44  74  96 132 178 220 288 350 388
#     4  10  22  40  74  90 132 186 230 264 336 400
#     4  10  23  42  68  94 132 169 229 281 329 395
#     4  12  24  43  67 102 138 171 220 280 325 405
#     4  10  23  43  66  98 132 178 225 276 330 396
#     4  12  23  43  70  96 130 179 222 263 343 403
#
# _framework density 21.050629000000001
#
# number of rings (size 3 to 8) (size 9 to 14) (size 15 to 20)
#    0.000    1.143    5.000    0.000    5.000    5.143 
#    0.000    0.000    0.000    0.000    0.000    0.000 
#    0.000    0.000    0.000    0.000    0.000    0.000 
#
# Total GULP energy -347100.699507 kJ/mol
# GULP energy per Si atom -12396.453554 kJ/mol
# Density = 2.100272 g / cm^3
# Si number density = 21.050629 Si / 1000 Ang^3
#
#
#
# Elastic Constant Matrix: (Units=GPa)
#
#
# Indices 1 2 3 4 5 6 
#
# 1 90.7156 42.6156 33.5472 0.0000 18.0044 0.0000
# 2 42.6156 72.4518 44.1737 0.0000 5.6958 0.0000
# 3 33.5472 44.1737 126.5788 0.0000 10.2054 0.0000
# 4 0.0000 0.0000 0.0000 28.4906 0.0000 12.6655
# 5 18.0044 5.6958 10.2054 0.0000 24.4936 0.0000
# 6 0.0000 0.0000 0.0000 12.6655 0.0000 28.8188
#
#
#
# Elastic Compliance Matrix: (Units=1/GPa)
#
#
# Indices 1 2 3 4 5 6 
#
# 1 0.017669 -0.009179 -0.000626 0.000000 -0.010593 0.000000
# 2 -0.009179 0.022360 -0.005686 0.000000 0.003917 0.000000
# 3 -0.000626 -0.005686 0.010251 0.000000 -0.002489 0.000000
# 4 0.000000 0.000000 0.000000 0.043622 0.000000 -0.019171
# 5 -0.010593 0.003917 -0.002489 0.000000 0.048740 0.000000
# 6 0.000000 0.000000 0.000000 -0.019171 0.000000 0.043125
#
#
# Mechanical properties :
#
#
# Convention : Reuss Voigt Hill
#
# Bulk Modulus (GPa) = 51.81607 58.93545 55.37576
# Shear Modulus (GPa) = 22.40330 27.65459 25.02894
#
# Velocity S-wave (km/s) = 3.26584 3.62846 3.45191
# Velocity P-wave (km/s) = 6.23613 6.75367 6.50005
#
# Compressibility (1/GPa) = 0.01929903
#
# Stress axis : x y z
#
# Youngs Moduli (GPa) = 56.59625 44.72230 97.54980
#
# Poissons Ratio (x) = 0.41049 0.06103
# Poissons Ratio (y) = 0.51947 0.55471
# Poissons Ratio (z) = 0.03541 0.25431
#
# Static dielectric constant tensor:
#      x y z
#    x 3.796750 0.000000 0.045600 
#    y 0.000000 3.809110 0.000000 
#    z 0.045600 0.000000 3.877260 
# 
# 
# High freq. dielectric constant tensor:
#      x y z
#    x 1.829240 0.000000 0.000300 
#    y 0.000000 1.821380 0.000000 
#    z 0.000300 0.000000 1.824680 
# 
# From -- ./inp_files/19154.got.cif
#   From: 2010.06.25/outbox.cif.g09.slc.cpg/sg13_10_cif.got.tgz:19154.got - 2010.06.28 04:50:58.
