data_PCOD8121109
_publ_section_title
;
Structure prediction by ZEFSAII (Michael W. Deem and Ramdas Pophale) SiO2 
 PCOD8121109
Probable space group: P 2/C
;
_chemical_formula_sum "Si O2"
_cell_formula_units_Z 32
_cell_length_a 23.743164
_cell_length_b 8.938347
_cell_length_c 14.167091
_cell_angle_alpha 90.000000
_cell_angle_beta 152.222843
_cell_angle_gamma 90.000000
_cell_volume 1401.180313
_symmetry_space_group_name_H-M "P 2/C"
_symmetry_group_IT_number 13
_symmetry_cell_setting 'monoclinic'
loop_
_space_group_symop_operation_xyz
x,y,z
-x,y,1/2-z
-x,-y,-z
x,-y,1/2+z
loop_
_atom_site_type_symbol
_atom_site_label
_atom_site_fract_x
_atom_site_fract_y
_atom_site_fract_z
Si Si1 0.363385 0.736358 0.765728
Si Si2 0.247634 0.596231 0.423643
Si Si3 0.250792 0.533526 0.743843
Si Si4 0.242219 0.900802 0.306142
Si Si5 0.012232 0.447596 0.157140
Si Si6 0.356290 0.245915 0.805580
Si Si7 0.266520 0.028091 0.526304
Si Si8 0.005961 0.111118 0.147679
O O1 0.345013 0.623345 0.650793
O O2 0.289637 0.686608 0.750288
O O3 0.320006 0.901380 0.674123
O O4 0.502784 0.730340 0.999670
O O5 0.308257 0.485714 0.434498
O O6 0.215203 0.748783 0.322090
O O7 0.126560 0.539887 0.293129
O O8 0.287439 0.398895 0.727214
O O9 0.108945 0.528180 0.559850
O O10 0.334245 0.874534 0.356111
O O11 0.309464 0.012927 0.480333
O O12 0.115109 0.963008 0.075671
O O13 0.020945 0.279279 0.130302
O O14 0.000000 0.450829 0.250000
O O15 0.300808 0.186829 0.623911
O O16 0.121994 0.009422 0.297149
O O17 0.000000 0.120223 0.250000
#
# Coordination Sequence:
#
# PCOD8121109 Si02
#       8
#     4   4   4   4   4   4   4   4
#     4  11  25  44  67 100 133 177 232 286 333 399
#     4  10  22  39  64  98 137 173 220 277 346 405
#     4  11  22  42  69  98 129 179 227 277 346 404
#     4  10  22  41  66  99 129 182 223 272 347 410
#     4  11  19  37  67  95 138 178 215 276 350 404
#     4  11  22  47  71  91 135 184 228 277 341 412
#     4  11  24  42  66  98 136 177 228 279 341 405
#     4  11  20  40  66  93 134 177 220 267 346 415
#
# _framework density 22.837889000000001
#
# number of rings (size 3 to 8) (size 9 to 14) (size 15 to 20)
#    0.000    1.250    5.000    2.250    0.000    4.500 
#    6.750    0.000    0.000    0.000    0.000    0.000 
#    0.000    0.000    0.000    0.000    0.000    0.000 
#
# Total GULP energy -396658.465132 kJ/mol
# GULP energy per Si atom -12395.577035 kJ/mol
# Density = 2.278591 g / cm^3
# Si number density = 22.837889 Si / 1000 Ang^3
#
#
#
# Elastic Constant Matrix: (Units=GPa)
#
#
# Indices 1 2 3 4 5 6 
#
# 1 71.3029 19.5324 33.3601 0.0000 -17.1685 0.0000
# 2 19.5324 25.3057 25.9176 0.0000 0.5181 0.0000
# 3 33.3601 25.9176 103.6041 0.0000 -0.5779 0.0000
# 4 0.0000 0.0000 0.0000 28.6045 0.0000 3.4860
# 5 -17.1685 0.5181 -0.5779 0.0000 33.2777 0.0000
# 6 0.0000 0.0000 0.0000 3.4860 0.0000 48.5874
#
#
#
# Elastic Compliance Matrix: (Units=1/GPa)
#
#
# Indices 1 2 3 4 5 6 
#
# 1 0.022306 -0.013668 -0.003698 0.000000 0.011656 0.000000
# 2 -0.013668 0.061541 -0.011040 0.000000 -0.008201 0.000000
# 3 -0.003698 -0.011040 0.013596 0.000000 -0.001500 0.000000
# 4 0.000000 0.000000 0.000000 0.035268 0.000000 -0.002530
# 5 0.011656 -0.008201 -0.001500 0.000000 0.036165 0.000000
# 6 0.000000 0.000000 0.000000 -0.002530 0.000000 0.020763
#
#
# Mechanical properties :
#
#
# Convention : Reuss Voigt Hill
#
# Bulk Modulus (GPa) = 24.61156 39.75923 32.18539
# Shear Modulus (GPa) = 19.23110 30.18742 24.70926
#
# Velocity S-wave (km/s) = 2.90499 3.63962 3.29286
# Velocity P-wave (km/s) = 4.69596 5.92533 5.34610
#
# Compressibility (1/GPa) = 0.04063131
#
# Stress axis : x y z
#
# Youngs Moduli (GPa) = 44.83157 16.24926 73.54935
#
# Poissons Ratio (x) = 0.22209 0.27200
# Poissons Ratio (y) = 0.61275 0.81198
# Poissons Ratio (z) = 0.16579 0.17939
#
# Static dielectric constant tensor:
#      x y z
#    x 4.492140 0.000000 -0.325450 
#    y 0.000000 4.006960 0.000000 
#    z -0.325450 0.000000 4.206290 
# 
# 
# High freq. dielectric constant tensor:
#      x y z
#    x 1.909380 0.000000 -0.019070 
#    y 0.000000 1.875420 0.000000 
#    z -0.019070 0.000000 1.901890 
# 
# From -- ./inp_files/58823.got.cif
#   From: 2010.06.25/outbox.cif.g09.slc.cpg/sg13_30_cif.got.tgz:58823.got - 2010.06.28 04:50:58.
