data_PCOD8121432
_publ_section_title
;
Structure prediction by ZEFSAII (Michael W. Deem and Ramdas Pophale) SiO2 
 PCOD8121432
Probable space group: P 2/C
;
_chemical_formula_sum "Si O2"
_cell_formula_units_Z 26
_cell_length_a 5.063794
_cell_length_b 23.080006
_cell_length_c 11.052303
_cell_angle_alpha 90.000000
_cell_angle_beta 119.745679
_cell_angle_gamma 90.000000
_cell_volume 1121.508673
_symmetry_space_group_name_H-M "P 2/C"
_symmetry_group_IT_number 13
_symmetry_cell_setting 'monoclinic'
loop_
_space_group_symop_operation_xyz
x,y,z
-x,y,1/2-z
-x,-y,-z
x,-y,1/2+z
loop_
_atom_site_type_symbol
_atom_site_label
_atom_site_fract_x
_atom_site_fract_y
_atom_site_fract_z
Si Si1 0.188665 0.811834 0.980301
Si Si2 0.784384 0.382326 0.533190
Si Si3 0.424774 0.876448 0.601607
Si Si4 0.648501 0.690341 0.407681
Si Si5 0.500000 0.441419 0.250000
Si Si6 0.500000 0.125764 0.750000
Si Si7 0.000000 0.479863 0.750000
Si Si8 0.957997 0.962437 0.110809
O O1 0.285250 0.837258 0.870957
O O2 0.867796 0.835346 0.952772
O O3 0.179673 0.742208 0.982807
O O4 0.471950 0.833083 0.127290
O O5 0.626344 0.331390 0.571856
O O6 0.572459 0.397864 0.373906
O O7 0.116288 0.361566 0.565351
O O8 0.801038 0.439920 0.617423
O O9 0.500000 0.904058 0.750000
O O10 0.362917 0.928921 0.489883
O O11 0.500000 0.713179 0.250000
O O12 0.787243 0.480919 0.284748
O O13 0.795406 0.086584 0.813203
O O14 0.000000 0.997565 0.250000
O O15 0.000000 0.000000 0.000000
#
# Coordination Sequence:
#
# PCOD8121432 Si02
#       8
#     4   4   4   4   2   2   2   4
#     4  11  23  44  74  97 136 177 234 278 353 403
#     4  12  25  44  68 103 139 173 234 285 338 407
#     4  11  25  46  68 103 138 178 230 284 341 432
#     4  12  23  44  70 100 133 181 227 290 335 408
#     4  12  26  44  65 102 139 186 218 286 350 400
#     4  10  22  42  67 100 127 176 234 286 330 420
#     4  12  22  44  72  96 134 186 240 272 336 410
#     4  11  25  43  70  99 140 186 231 292 350 414
#
# _framework density 23.183060000000001
#
# number of rings (size 3 to 8) (size 9 to 14) (size 15 to 20)
#    0.000    0.615    3.846    4.154    1.077    3.077 
#    8.308    0.000    0.000    0.000    0.000    0.000 
#    0.000    0.000    0.000    0.000    0.000    0.000 
#
# Total GULP energy -322344.048872 kJ/mol
# GULP energy per Si atom -12397.848034 kJ/mol
# Density = 2.313029 g / cm^3
# Si number density = 23.183060 Si / 1000 Ang^3
#
#
#
# Elastic Constant Matrix: (Units=GPa)
#
#
# Indices 1 2 3 4 5 6 
#
# 1 89.7812 13.2460 4.3164 0.0000 -12.6046 0.0000
# 2 13.2460 65.6222 24.5351 0.0000 -10.5792 0.0000
# 3 4.3164 24.5351 138.7291 0.0000 -20.7583 0.0000
# 4 0.0000 0.0000 0.0000 -90.2826 0.0000 -43.1905
# 5 -12.6046 -10.5792 -20.7583 0.0000 36.3906 0.0000
# 6 0.0000 0.0000 0.0000 -43.1905 0.0000 -7.0091
#
#
#
# Elastic Compliance Matrix: (Units=1/GPa)
#
#
# Indices 1 2 3 4 5 6 
#
# 1 0.011950 -0.001997 0.000562 0.000000 0.003879 0.000000
# 2 -0.001997 0.017042 -0.002530 0.000000 0.002820 0.000000
# 3 0.000562 -0.002530 0.008263 0.000000 0.004172 0.000000
# 4 0.000000 0.000000 0.000000 0.005686 0.000000 -0.035040
# 5 0.003879 0.002820 0.004172 0.000000 0.032023 0.000000
# 6 0.000000 0.000000 0.000000 -0.035040 0.000000 0.073245
#
#
# Mechanical properties :
#
#
# Convention : Reuss Voigt Hill
#
# Bulk Modulus (GPa) = 34.10051 42.03638 38.06844
# Shear Modulus (GPa) = 30.13597 4.62210 17.37903
#
# Velocity S-wave (km/s) = 3.60934 1.41353 2.74093
# Velocity P-wave (km/s) = 5.66665 4.56463 5.14523
#
# Compressibility (1/GPa) = 0.02932507
#
# Stress axis : x y z
#
# Youngs Moduli (GPa) = 83.67919 58.67756 121.02772
#
# Poissons Ratio (x) = 0.11717 -0.06799
# Poissons Ratio (y) = 0.16710 0.30620
# Poissons Ratio (z) = -0.04701 0.14845
#
# Static dielectric constant tensor:
#      x y z
#    x 4.090760 0.000000 -0.134980 
#    y 0.000000 4.033980 0.000000 
#    z -0.134980 0.000000 4.797980 
# 
# 
# High freq. dielectric constant tensor:
#      x y z
#    x 1.918360 0.000000 -0.004450 
#    y 0.000000 1.908480 0.000000 
#    z -0.004450 0.000000 1.932800 
# 
# From -- ./inp_files/26802.got.cif
#   From: 2010.06.25/outbox.cif.g09.slc.cpg/sg13_14_cif.got.tgz:26802.got - 2010.06.28 04:50:58.
