data_PCOD8121683
_publ_section_title
;
Structure prediction by ZEFSAII (Michael W. Deem and Ramdas Pophale) SiO2 
 PCOD8121683
Probable space group: P 2/C
;
_chemical_formula_sum "Si O2"
_cell_formula_units_Z 24
_cell_length_a 12.838028
_cell_length_b 9.639122
_cell_length_c 9.627247
_cell_angle_alpha 90.000000
_cell_angle_beta 80.406239
_cell_angle_gamma 90.000000
_cell_volume 1174.684059
_symmetry_space_group_name_H-M "P 2/C"
_symmetry_group_IT_number 13
_symmetry_cell_setting 'monoclinic'
loop_
_space_group_symop_operation_xyz
x,y,z
-x,y,1/2-z
-x,-y,-z
x,-y,1/2+z
loop_
_atom_site_type_symbol
_atom_site_label
_atom_site_fract_x
_atom_site_fract_y
_atom_site_fract_z
Si Si1 0.061846 0.410550 0.094855
Si Si2 0.043594 0.849483 0.972181
Si Si3 0.766646 0.845207 0.395745
Si Si4 0.619762 0.644123 0.760098
Si Si5 0.289489 0.454335 0.546461
Si Si6 0.750502 0.097202 0.200425
O O1 0.182060 0.457732 0.080734
O O2 0.000000 0.428029 0.250000
O O3 0.053284 0.252859 0.038525
O O4 0.000000 0.500000 0.000000
O O5 0.127810 0.846501 0.824111
O O6 0.108526 0.815151 0.100359
O O7 0.000000 0.000000 0.000000
O O8 0.716454 0.695036 0.375736
O O9 0.715882 0.916368 0.545663
O O10 0.743497 0.946879 0.273025
O O11 0.500000 0.677436 0.750000
O O12 0.622103 0.542660 0.892425
O O13 0.680809 0.568874 0.620341
O O14 0.675835 0.789024 0.789639
#
# Coordination Sequence:
#
# PCOD8121683 Si02
#       6
#     4   4   4   4   4   4
#     4  12  23  40  61  95 135 174 200 249 311 379
#     4  10  23  36  59  89 129 165 204 234 308 376
#     4   9  21  40  57  89 128 158 206 249 297 372
#     4  11  24  45  67  89 120 165 214 274 326 361
#     4  11  23  42  64  96 126 159 217 261 308 387
#     4   9  21  41  59  88 126 160 205 257 302 373
#
# _framework density 20.431025999999999
#
# number of rings (size 3 to 8) (size 9 to 14) (size 15 to 20)
#    1.000    0.667    1.667    2.500    4.667    4.000 
#    0.000    4.167    0.000    0.000    0.000    0.000 
#    0.000    0.000    0.000    0.000    0.000    0.000 
#
# Total GULP energy -297424.038194 kJ/mol
# GULP energy per Si atom -12392.668258 kJ/mol
# Density = 2.038452 g / cm^3
# Si number density = 20.431026 Si / 1000 Ang^3
#
#
#
# Elastic Constant Matrix: (Units=GPa)
#
#
# Indices 1 2 3 4 5 6 
#
# 1 70.0112 45.9456 23.4260 0.0000 -1.0825 0.0000
# 2 45.9456 143.2313 45.5513 0.0000 8.1873 0.0000
# 3 23.4260 45.5513 54.0588 0.0000 3.6830 0.0000
# 4 0.0000 0.0000 0.0000 39.5704 0.0000 11.7977
# 5 -1.0825 8.1873 3.6830 0.0000 24.5238 0.0000
# 6 0.0000 0.0000 0.0000 11.7977 0.0000 15.9498
#
#
#
# Elastic Compliance Matrix: (Units=1/GPa)
#
#
# Indices 1 2 3 4 5 6 
#
# 1 0.018990 -0.004898 -0.004315 0.000000 0.003121 0.000000
# 2 -0.004898 0.010899 -0.006869 0.000000 -0.002823 0.000000
# 3 -0.004315 -0.006869 0.026282 0.000000 -0.001844 0.000000
# 4 0.000000 0.000000 0.000000 0.032421 0.000000 -0.023981
# 5 0.003121 -0.002823 -0.001844 0.000000 0.042134 0.000000
# 6 0.000000 0.000000 0.000000 -0.023981 0.000000 0.080435
#
#
# Mechanical properties :
#
#
# Convention : Reuss Voigt Hill
#
# Bulk Modulus (GPa) = 41.65376 55.23857 48.44617
# Shear Modulus (GPa) = 19.89459 26.16737 23.03098
#
# Velocity S-wave (km/s) = 3.12387 3.58266 3.36110
# Velocity P-wave (km/s) = 5.78301 6.64900 6.23107
#
# Compressibility (1/GPa) = 0.02400744
#
# Stress axis : x y z
#
# Youngs Moduli (GPa) = 52.66051 91.75491 38.04945
#
# Poissons Ratio (x) = 0.44938 0.16417
# Poissons Ratio (y) = 0.25791 0.26135
# Poissons Ratio (z) = 0.22722 0.63024
#
# Static dielectric constant tensor:
#      x y z
#    x 3.026690 0.000000 -0.189040 
#    y 0.000000 3.656000 0.000000 
#    z -0.189040 0.000000 3.417260 
# 
# 
# High freq. dielectric constant tensor:
#      x y z
#    x 1.774910 0.000000 0.006610 
#    y 0.000000 1.808830 0.000000 
#    z 0.006610 0.000000 1.787940 
# 
# From -- ./inp_files/35716.got.cif
#   From: 2010.06.25/outbox.cif.g09.slc.cpg/sg13_18_cif.got.tgz:35716.got - 2010.06.28 04:50:58.
