data_PCOD8121906
_publ_section_title
;
Structure prediction by ZEFSAII (Michael W. Deem and Ramdas Pophale) SiO2 
 PCOD8121906
Probable space group: P 2/C
;
_chemical_formula_sum "Si O2"
_cell_formula_units_Z 18
_cell_length_a 9.557428
_cell_length_b 6.471824
_cell_length_c 19.690742
_cell_angle_alpha 90.000000
_cell_angle_beta 138.542919
_cell_angle_gamma 90.000000
_cell_volume 806.355219
_symmetry_space_group_name_H-M "P 2/C"
_symmetry_group_IT_number 13
_symmetry_cell_setting 'monoclinic'
loop_
_space_group_symop_operation_xyz
x,y,z
-x,y,1/2-z
-x,-y,-z
x,-y,1/2+z
loop_
_atom_site_type_symbol
_atom_site_label
_atom_site_fract_x
_atom_site_fract_y
_atom_site_fract_z
Si Si1 0.146257 0.960111 0.360993
Si Si2 0.595836 0.377741 0.597905
Si Si3 0.956540 0.804946 0.029021
Si Si4 0.339134 0.522412 0.131986
Si Si5 0.000000 0.637827 0.750000
O O1 0.000000 0.859700 0.250000
O O2 0.110653 0.210280 0.347427
O O3 0.369955 0.857302 0.418729
O O4 0.075176 0.870952 0.405983
O O5 0.500000 0.500000 0.500000
O O6 0.438240 0.355187 0.604135
O O7 0.805722 0.495318 0.703496
O O8 0.153914 0.653378 0.098020
O O9 0.744715 0.696265 0.925489
O O10 0.000000 0.000000 0.000000
O O11 0.500000 0.471167 0.250000
#
# Coordination Sequence:
#
# PCOD8121906 Si02
#       5
#     4   4   4   4   2
#     4  10  23  44  71  98 131 176 226 274 332 393
#     4  12  24  44  70  97 133 178 228 274 330 403
#     4  11  26  46  69  99 143 174 222 282 338 400
#     4  11  27  43  69 100 138 182 221 276 343 399
#     4  10  26  40  74  94 140 166 228 282 334 380
#
# _framework density 22.322668
#
# number of rings (size 3 to 8) (size 9 to 14) (size 15 to 20)
#    0.667    0.444    3.333    1.333    6.222    3.556 
#    0.000    0.000    0.000    0.000    0.000    0.000 
#    0.000    0.000    0.000    0.000    0.000    0.000 
#
# Total GULP energy -222990.928286 kJ/mol
# GULP energy per Si atom -12388.384905 kJ/mol
# Density = 2.227186 g / cm^3
# Si number density = 22.322668 Si / 1000 Ang^3
#
#
#
# Elastic Constant Matrix: (Units=GPa)
#
#
# Indices 1 2 3 4 5 6 
#
# 1 127.9731 24.7120 31.8647 0.0000 -27.3531 0.0000
# 2 24.7120 101.4460 24.9394 0.0000 -1.4883 0.0000
# 3 31.8647 24.9394 102.8040 0.0000 -18.4525 0.0000
# 4 0.0000 0.0000 0.0000 23.6098 0.0000 -32.1670
# 5 -27.3531 -1.4883 -18.4525 0.0000 42.3444 0.0000
# 6 0.0000 0.0000 0.0000 -32.1670 0.0000 -61.1882
#
#
#
# Elastic Compliance Matrix: (Units=1/GPa)
#
#
# Indices 1 2 3 4 5 6 
#
# 1 0.009760 -0.001912 -0.001564 0.000000 0.005556 0.000000
# 2 -0.001912 0.010882 -0.002387 0.000000 -0.001893 0.000000
# 3 -0.001564 -0.002387 0.011494 0.000000 0.003914 0.000000
# 4 0.000000 0.000000 0.000000 0.024679 0.000000 -0.012974
# 5 0.005556 -0.001893 0.003914 0.000000 0.028844 0.000000
# 6 0.000000 0.000000 0.000000 -0.012974 0.000000 -0.009523
#
#
# Mechanical properties :
#
#
# Convention : Reuss Voigt Hill
#
# Bulk Modulus (GPa) = 48.99463 55.02836 52.01149
# Shear Modulus (GPa) = 52.81716 17.66701 35.24208
#
# Velocity S-wave (km/s) = 4.86951 2.81630 3.97767
# Velocity P-wave (km/s) = 7.32204 5.93972 6.66680
#
# Compressibility (1/GPa) = 0.02041040
#
# Stress axis : x y z
#
# Youngs Moduli (GPa) = 102.45590 91.89326 87.00342
#
# Poissons Ratio (x) = 0.17565 0.13610
# Poissons Ratio (y) = 0.19585 0.20769
# Poissons Ratio (z) = 0.16027 0.21936
#
# Static dielectric constant tensor:
#      x y z
#    x 3.818730 0.000000 0.238620 
#    y 0.000000 4.648700 0.000000 
#    z 0.238620 0.000000 4.096810 
# 
# 
# High freq. dielectric constant tensor:
#      x y z
#    x 1.879500 0.000000 0.002610 
#    y 0.000000 1.886280 0.000000 
#    z 0.002610 0.000000 1.890670 
# 
# From -- ./inp_files/62568.got.cif
#   From: 2010.06.25/outbox.cif.g09.slc.cpg/sg13_32_cif.got.tgz:62568.got - 2010.06.28 04:50:58.
