data_PCOD8121692
_publ_section_title
;
Structure prediction by ZEFSAII (Michael W. Deem and Ramdas Pophale) SiO2 
 PCOD8121692
Probable space group: P 2/C
;
_chemical_formula_sum "Si O2"
_cell_formula_units_Z 22
_cell_length_a 8.274154
_cell_length_b 10.787293
_cell_length_c 14.871639
_cell_angle_alpha 90.000000
_cell_angle_beta 49.742574
_cell_angle_gamma 90.000000
_cell_volume 1012.987508
_symmetry_space_group_name_H-M "P 2/C"
_symmetry_group_IT_number 13
_symmetry_cell_setting 'monoclinic'
loop_
_space_group_symop_operation_xyz
x,y,z
-x,y,1/2-z
-x,-y,-z
x,-y,1/2+z
loop_
_atom_site_type_symbol
_atom_site_label
_atom_site_fract_x
_atom_site_fract_y
_atom_site_fract_z
Si Si1 0.231296 0.454044 0.811803
Si Si2 0.758468 0.510582 0.494887
Si Si3 0.000000 0.050987 0.750000
Si Si4 0.397689 0.196792 0.693961
Si Si5 0.330403 0.106691 0.054912
Si Si6 0.350682 0.646335 0.624891
O O1 0.333540 0.466609 0.874532
O O2 0.332901 0.340223 0.722127
O O3 0.258373 0.581833 0.747285
O O4 0.985572 0.424296 0.919852
O O5 0.596822 0.614806 0.518178
O O6 0.779607 0.399879 0.415556
O O7 0.186576 0.125985 0.734184
O O8 0.103706 0.962429 0.635743
O O9 0.500000 0.145629 0.750000
O O10 0.602470 0.187184 0.555600
O O11 0.329885 0.204334 0.139076
O O12 0.500000 0.000000 0.000000
#
# Coordination Sequence:
#
# PCOD8121692 Si02
#       6
#     4   4   2   4   4   4
#     4  11  23  39  64 103 132 168 216 273 344 410
#     4  10  23  38  61 100 134 165 217 270 336 412
#     4  10  26  44  68  96 130 178 234 276 316 396
#     4  11  23  44  71  96 133 177 219 279 341 399
#     4  10  24  43  64  95 130 176 231 270 318 399
#     4  11  21  38  66  89 132 177 209 273 337 387
#
# _framework density 21.717936999999999
#
# number of rings (size 3 to 8) (size 9 to 14) (size 15 to 20)
#    0.000    1.455    0.000    5.455   10.182    0.727 
#    0.000    7.273    0.000    0.000    0.000    0.000 
#    0.000    0.000    0.000    0.000    0.000    0.000 
#
# Total GULP energy -272598.793187 kJ/mol
# GULP energy per Si atom -12390.854236 kJ/mol
# Density = 2.166851 g / cm^3
# Si number density = 21.717937 Si / 1000 Ang^3
#
#
#
# Elastic Constant Matrix: (Units=GPa)
#
#
# Indices 1 2 3 4 5 6 
#
# 1 118.1367 44.3881 37.0286 0.0000 1.8807 0.0000
# 2 44.3881 111.7937 41.7424 0.0000 -13.0521 0.0000
# 3 37.0286 41.7424 117.5761 0.0000 -1.3394 0.0000
# 4 0.0000 0.0000 0.0000 40.8481 0.0000 -3.7420
# 5 1.8807 -13.0521 -1.3394 0.0000 29.8309 0.0000
# 6 0.0000 0.0000 0.0000 -3.7420 0.0000 20.5513
#
#
#
# Elastic Compliance Matrix: (Units=1/GPa)
#
#
# Indices 1 2 3 4 5 6 
#
# 1 0.010529 -0.003700 -0.002029 0.000000 -0.002374 0.000000
# 2 -0.003700 0.012209 -0.003107 0.000000 0.005436 0.000000
# 3 -0.002029 -0.003107 0.010239 0.000000 -0.000772 0.000000
# 4 0.000000 0.000000 0.000000 0.024896 0.000000 0.004533
# 5 -0.002374 0.005436 -0.000772 0.000000 0.036016 0.000000
# 6 0.000000 0.000000 0.000000 0.004533 0.000000 0.049484
#
#
# Mechanical properties :
#
#
# Convention : Reuss Voigt Hill
#
# Bulk Modulus (GPa) = 65.34576 65.98051 65.66314
# Shear Modulus (GPa) = 30.09391 33.20255 31.64823
#
# Velocity S-wave (km/s) = 3.72650 3.91424 3.82152
# Velocity P-wave (km/s) = 6.97635 7.13267 7.05494
#
# Compressibility (1/GPa) = 0.01530321
#
# Stress axis : x y z
#
# Youngs Moduli (GPa) = 94.97733 81.90694 97.66937
#
# Poissons Ratio (x) = 0.30305 0.19821
# Poissons Ratio (y) = 0.35141 0.30349
# Poissons Ratio (z) = 0.19274 0.25451
#
# Static dielectric constant tensor:
#      x y z
#    x 4.072540 0.000000 -0.173180 
#    y 0.000000 4.015930 0.000000 
#    z -0.173180 0.000000 4.475950 
# 
# 
# High freq. dielectric constant tensor:
#      x y z
#    x 1.849710 0.000000 -0.020630 
#    y 0.000000 1.843490 0.000000 
#    z -0.020630 0.000000 1.872700 
# 
# From -- ./inp_files/46496.got.cif
#   From: 2010.06.25/outbox.cif.g09.slc.cpg/sg13_24_cif.got.tgz:46496.got - 2010.06.28 04:50:58.
