data_PCOD8121292
_publ_section_title
;
Structure prediction by ZEFSAII (Michael W. Deem and Ramdas Pophale) SiO2 
 PCOD8121292
Probable space group: P 2/C
;
_chemical_formula_sum "Si O2"
_cell_formula_units_Z 20
_cell_length_a 7.876877
_cell_length_b 23.270960
_cell_length_c 8.519709
_cell_angle_alpha 90.000000
_cell_angle_beta 144.365730
_cell_angle_gamma 90.000000
_cell_volume 909.851392
_symmetry_space_group_name_H-M "P 2/C"
_symmetry_group_IT_number 13
_symmetry_cell_setting 'monoclinic'
loop_
_space_group_symop_operation_xyz
x,y,z
-x,y,1/2-z
-x,-y,-z
x,-y,1/2+z
loop_
_atom_site_type_symbol
_atom_site_label
_atom_site_fract_x
_atom_site_fract_y
_atom_site_fract_z
Si Si1 0.812702 0.848617 0.451887
Si Si2 0.333112 0.450486 0.466178
Si Si3 0.633585 0.669458 0.677698
Si Si4 0.125882 0.736162 0.172510
Si Si5 0.203279 0.037182 0.755029
O O1 0.500000 0.820848 0.250000
O O2 0.954158 0.799940 0.450215
O O3 0.734302 0.904809 0.291605
O O4 0.000000 0.862640 0.750000
O O5 0.500000 0.500000 0.500000
O O6 0.350239 0.394132 0.374479
O O7 0.000000 0.469060 0.250000
O O8 0.500000 0.437137 0.750000
O O9 0.500000 0.667092 0.750000
O O10 0.458665 0.714086 0.433203
O O11 0.962811 0.692348 0.933774
O O12 0.000000 0.733589 0.250000
O O13 0.000000 0.052575 0.750000
O O14 0.000000 0.000000 0.500000
O O15 0.500000 0.000000 0.000000
#
# Coordination Sequence:
#
# PCOD8121292 Si02
#       5
#     4   4   4   4   4
#     4  12  25  41  64  95 130 167 214 265 316 379
#     4  12  26  43  66  95 130 171 219 270 326 389
#     4  10  22  41  65  92 127 167 213 265 323 385
#     4  10  22  41  64  92 127 169 211 261 323 384
#     4  12  25  44  68  94 128 168 213 263 319 381
#
# _framework density 21.981611000000001
#
# number of rings (size 3 to 8) (size 9 to 14) (size 15 to 20)
#    0.000    0.800    0.000    7.800    0.000    7.200 
#    0.000    6.000    0.000    0.000    0.000    0.000 
#    0.000    0.000    0.000    0.000    0.000    0.000 
#
# Total GULP energy -247860.606200 kJ/mol
# GULP energy per Si atom -12393.030310 kJ/mol
# Density = 2.193158 g / cm^3
# Si number density = 21.981611 Si / 1000 Ang^3
#
#
#
# Elastic Constant Matrix: (Units=GPa)
#
#
# Indices 1 2 3 4 5 6 
#
# 1 50.5656 33.4411 53.8712 0.0000 7.6801 0.0000
# 2 33.4411 173.5345 70.1227 0.0000 -13.6778 0.0000
# 3 53.8712 70.1227 188.0657 0.0000 3.5807 0.0000
# 4 0.0000 0.0000 0.0000 53.0853 0.0000 -18.3379
# 5 7.6801 -13.6778 3.5807 0.0000 35.7023 0.0000
# 6 0.0000 0.0000 0.0000 -18.3379 0.0000 51.9013
#
#
#
# Elastic Compliance Matrix: (Units=1/GPa)
#
#
# Indices 1 2 3 4 5 6 
#
# 1 0.031210 -0.003575 -0.007468 0.000000 -0.007334 0.000000
# 2 -0.003575 0.007499 -0.001845 0.000000 0.003827 0.000000
# 3 -0.007468 -0.001845 0.008143 0.000000 0.000083 0.000000
# 4 0.000000 0.000000 0.000000 0.021456 0.000000 0.007581
# 5 -0.007334 0.003827 0.000083 0.000000 0.031045 0.000000
# 6 0.000000 0.000000 0.000000 0.007581 0.000000 0.021946
#
#
# Mechanical properties :
#
#
# Convention : Reuss Voigt Hill
#
# Bulk Modulus (GPa) = 47.44523 80.78174 64.11348
# Shear Modulus (GPa) = 32.44672 45.11982 38.78327
#
# Velocity S-wave (km/s) = 3.84615 4.53550 4.20497
# Velocity P-wave (km/s) = 6.43077 8.01605 7.26677
#
# Compressibility (1/GPa) = 0.02107693
#
# Stress axis : x y z
#
# Youngs Moduli (GPa) = 32.04071 133.35982 122.81079
#
# Poissons Ratio (x) = 0.47676 0.91709
# Poissons Ratio (y) = 0.11454 0.22655
# Poissons Ratio (z) = 0.23927 0.24601
#
# Static dielectric constant tensor:
#      x y z
#    x 4.358450 0.000000 -0.049100 
#    y 0.000000 3.841140 0.000000 
#    z -0.049100 0.000000 4.481070 
# 
# 
# High freq. dielectric constant tensor:
#      x y z
#    x 1.870650 0.000000 -0.003220 
#    y 0.000000 1.877570 0.000000 
#    z -0.003220 0.000000 1.888190 
# 
# From -- ./inp_files/13838.got.cif
#   From: 2010.06.25/outbox.cif.g09.slc.cpg/sg13_7_cif.got.tgz:13838.got - 2010.06.28 04:50:58.
