data_PCOD8121261
_publ_section_title
;
Structure prediction by ZEFSAII (Michael W. Deem and Ramdas Pophale) SiO2 
 PCOD8121261
Probable space group: P 2/C
;
_chemical_formula_sum "Si O2"
_cell_formula_units_Z 32
_cell_length_a 24.003343
_cell_length_b 8.202545
_cell_length_c 15.891477
_cell_angle_alpha 90.000000
_cell_angle_beta 149.853784
_cell_angle_gamma 90.000000
_cell_volume 1571.334367
_symmetry_space_group_name_H-M "P 2/C"
_symmetry_group_IT_number 13
_symmetry_cell_setting 'monoclinic'
loop_
_space_group_symop_operation_xyz
x,y,z
-x,y,1/2-z
-x,-y,-z
x,-y,1/2+z
loop_
_atom_site_type_symbol
_atom_site_label
_atom_site_fract_x
_atom_site_fract_y
_atom_site_fract_z
Si Si1 0.763043 0.824778 0.940469
Si Si2 0.820657 0.833897 0.577887
Si Si3 0.888584 0.493839 0.656422
Si Si4 0.761545 0.294318 0.253761
Si Si5 0.621121 0.784223 0.907650
Si Si6 0.170466 0.599653 0.241766
Si Si7 0.970900 0.174185 0.430374
Si Si8 0.382975 0.142703 0.567370
O O1 0.733669 0.770746 0.809061
O O2 0.651557 0.828171 0.850731
O O3 0.839014 0.683765 0.077731
O O4 0.822746 0.004414 0.021133
O O5 0.824755 0.655660 0.537545
O O6 0.929366 0.836629 0.779775
O O7 0.706438 0.832007 0.477482
O O8 0.891420 0.506305 0.763947
O O9 0.000000 0.491568 0.750000
O O10 0.781795 0.487786 0.271295
O O11 0.874862 0.220317 0.368867
O O12 0.653025 0.242834 0.060849
O O13 0.500000 0.694405 0.750000
O O14 0.607253 0.951365 0.942334
O O15 0.720042 0.684327 0.078534
O O16 0.081372 0.717612 0.083263
O O17 0.000000 0.000000 0.500000
O O18 0.500000 0.215487 0.750000
#
# Coordination Sequence:
#
# PCOD8121261 Si02
#       8
#     4   4   4   4   4   4   4   4
#     4  10  23  41  60  90 129 156 210 259 314 370
#     4  10  22  41  58  89 121 168 207 249 318 370
#     4  11  22  37  60  86 126 167 204 246 307 372
#     4  11  22  38  60  94 123 162 203 259 322 361
#     4   9  20  42  67  87 120 166 207 256 315 375
#     4  11  21  38  61  92 126 164 209 261 313 373
#     4  11  21  36  63  87 123 164 215 254 310 384
#     4   9  18  39  67  89 117 161 209 252 311 377
#
# _framework density 20.364858000000002
#
# number of rings (size 3 to 8) (size 9 to 14) (size 15 to 20)
#    0.000    1.750    2.500    4.125    1.750    2.000 
#    2.250    6.250    0.000    0.000    0.000    0.000 
#    0.000    0.000    0.000    0.000    0.000    0.000 
#
# Total GULP energy -396427.985334 kJ/mol
# GULP energy per Si atom -12388.374542 kJ/mol
# Density = 2.031851 g / cm^3
# Si number density = 20.364858 Si / 1000 Ang^3
#
#
#
# Elastic Constant Matrix: (Units=GPa)
#
#
# Indices 1 2 3 4 5 6 
#
# 1 73.7198 37.1710 54.2248 0.0000 -1.7829 0.0000
# 2 37.1710 136.2092 51.5065 0.0000 -1.0657 0.0000
# 3 54.2248 51.5065 142.5802 0.0000 14.7152 0.0000
# 4 0.0000 0.0000 0.0000 21.5286 0.0000 4.6549
# 5 -1.7829 -1.0657 14.7152 0.0000 28.3582 0.0000
# 6 0.0000 0.0000 0.0000 4.6549 0.0000 20.7115
#
#
#
# Elastic Compliance Matrix: (Units=1/GPa)
#
#
# Indices 1 2 3 4 5 6 
#
# 1 0.020445 -0.002788 -0.007280 0.000000 0.004958 0.000000
# 2 -0.002788 0.008994 -0.002331 0.000000 0.001372 0.000000
# 3 -0.007280 -0.002331 0.011285 0.000000 -0.006401 0.000000
# 4 0.000000 0.000000 0.000000 0.048822 0.000000 -0.010973
# 5 0.004958 0.001372 -0.006401 0.000000 0.038948 0.000000
# 6 0.000000 0.000000 0.000000 -0.010973 0.000000 0.050749
#
#
# Mechanical properties :
#
#
# Convention : Reuss Voigt Hill
#
# Bulk Modulus (GPa) = 62.78427 70.92375 66.85401
# Shear Modulus (GPa) = 23.88339 28.09344 25.98841
#
# Velocity S-wave (km/s) = 3.42829 3.71820 3.57619
# Velocity P-wave (km/s) = 6.82404 7.30311 7.06764
#
# Compressibility (1/GPa) = 0.01592756
#
# Stress axis : x y z
#
# Youngs Moduli (GPa) = 48.91057 111.17974 88.61359
#
# Poissons Ratio (x) = 0.30994 0.64514
# Poissons Ratio (y) = 0.13635 0.20652
# Poissons Ratio (z) = 0.35609 0.25912
#
# Static dielectric constant tensor:
#      x y z
#    x 3.872980 0.000000 0.041180 
#    y 0.000000 4.142270 0.000000 
#    z 0.041180 0.000000 3.685680 
# 
# 
# High freq. dielectric constant tensor:
#      x y z
#    x 1.780670 0.000000 0.009470 
#    y 0.000000 1.817650 0.000000 
#    z 0.009470 0.000000 1.782310 
# 
# From -- ./inp_files/58821.got.cif
#   From: 2010.06.25/outbox.cif.g09.slc.cpg/sg13_30_cif.got.tgz:58821.got - 2010.06.28 04:50:58.
