data_PCOD8121781
_publ_section_title
;
Structure prediction by ZEFSAII (Michael W. Deem and Ramdas Pophale) SiO2 
 PCOD8121781
Probable space group: P 2/C
;
_chemical_formula_sum "Si O2"
_cell_formula_units_Z 20
_cell_length_a 22.235629
_cell_length_b 5.112730
_cell_length_c 12.844192
_cell_angle_alpha 90.000000
_cell_angle_beta 145.127826
_cell_angle_gamma 90.000000
_cell_volume 834.859392
_symmetry_space_group_name_H-M "P 2/C"
_symmetry_group_IT_number 13
_symmetry_cell_setting 'monoclinic'
loop_
_space_group_symop_operation_xyz
x,y,z
-x,y,1/2-z
-x,-y,-z
x,-y,1/2+z
loop_
_atom_site_type_symbol
_atom_site_label
_atom_site_fract_x
_atom_site_fract_y
_atom_site_fract_z
Si Si1 0.187919 0.031231 0.669635
Si Si2 0.890278 0.469561 0.539238
Si Si3 0.675665 0.517481 0.837615
Si Si4 0.652925 0.977828 0.436435
Si Si5 0.404810 0.884967 0.926857
O O1 0.129041 0.306089 0.574801
O O2 0.108771 0.804349 0.520548
O O3 0.293334 0.037346 0.745095
O O4 0.228425 0.973213 0.844975
O O5 0.801379 0.478238 0.502414
O O6 0.000000 0.518938 0.750000
O O7 0.636110 0.240710 0.824275
O O8 0.618168 0.584994 0.644800
O O9 0.636028 0.738864 0.862665
O O10 0.571103 0.911417 0.415324
O O11 0.500000 0.000000 0.000000
#
# Coordination Sequence:
#
# PCOD8121781 Si02
#       5
#     4   4   4   4   4
#     4   9  21  40  62  89 136 159 214 273 312 379
#     4  11  21  40  66  92 126 177 215 264 333 385
#     4  11  22  42  66  95 131 174 209 274 323 380
#     4  10  23  41  67  94 136 164 222 261 324 388
#     4   9  22  43  69  93 135 171 214 266 327 377
#
# _framework density 23.956130000000002
#
# number of rings (size 3 to 8) (size 9 to 14) (size 15 to 20)
#    1.200    0.800    0.000    4.200    0.000    0.800 
#    0.000   26.000    0.000    0.000    0.000    0.000 
#    0.000    0.000    0.000    0.000    0.000    0.000 
#
# Total GULP energy -247849.576041 kJ/mol
# GULP energy per Si atom -12392.478802 kJ/mol
# Density = 2.390160 g / cm^3
# Si number density = 23.956130 Si / 1000 Ang^3
#
#
#
# Elastic Constant Matrix: (Units=GPa)
#
#
# Indices 1 2 3 4 5 6 
#
# 1 70.6863 20.7027 7.5931 0.0000 -8.1516 0.0000
# 2 20.7027 123.2424 25.4922 0.0000 -4.3744 0.0000
# 3 7.5931 25.4922 64.1356 0.0000 -5.0559 0.0000
# 4 0.0000 0.0000 0.0000 41.7128 0.0000 -5.3322
# 5 -8.1516 -4.3744 -5.0559 0.0000 38.6466 0.0000
# 6 0.0000 0.0000 0.0000 -5.3322 0.0000 20.9930
#
#
#
# Elastic Compliance Matrix: (Units=1/GPa)
#
#
# Indices 1 2 3 4 5 6 
#
# 1 0.015227 -0.002321 -0.000655 0.000000 0.002864 0.000000
# 2 -0.002321 0.009206 -0.003376 0.000000 0.000111 0.000000
# 3 -0.000655 -0.003376 0.017147 0.000000 0.001723 0.000000
# 4 0.000000 0.000000 0.000000 0.024778 0.000000 0.006294
# 5 0.002864 0.000111 0.001723 0.000000 0.026717 0.000000
# 6 0.000000 0.000000 0.000000 0.006294 0.000000 0.049234
#
#
# Mechanical properties :
#
#
# Convention : Reuss Voigt Hill
#
# Bulk Modulus (GPa) = 34.62818 40.62669 37.62743
# Shear Modulus (GPa) = 30.36969 33.88888 32.12929
#
# Velocity S-wave (km/s) = 3.56437 3.76523 3.66617
# Velocity P-wave (km/s) = 5.60588 5.99151 5.80190
#
# Compressibility (1/GPa) = 0.02887822
#
# Stress axis : x y z
#
# Youngs Moduli (GPa) = 65.67151 108.62306 58.31914
#
# Poissons Ratio (x) = 0.25210 0.03817
# Poissons Ratio (y) = 0.15242 0.19687
# Poissons Ratio (z) = 0.04298 0.36668
#
# Static dielectric constant tensor:
#      x y z
#    x 4.143740 0.000000 -0.238220 
#    y 0.000000 4.292790 0.000000 
#    z -0.238220 0.000000 4.495160 
# 
# 
# High freq. dielectric constant tensor:
#      x y z
#    x 1.926170 0.000000 -0.008980 
#    y 0.000000 1.953550 0.000000 
#    z -0.008980 0.000000 1.957980 
# 
# From -- ./inp_files/39943.got.cif
#   From: 2010.06.25/outbox.cif.g09.slc.cpg/sg13_20_cif.got.tgz:39943.got - 2010.06.28 04:50:58.
