data_PCOD8121137
_publ_section_title
;
Structure prediction by ZEFSAII (Michael W. Deem and Ramdas Pophale) SiO2 
 PCOD8121137
Probable space group: P 2/C
;
_chemical_formula_sum "Si O2"
_cell_formula_units_Z 28
_cell_length_a 29.072020
_cell_length_b 9.045356
_cell_length_c 9.461549
_cell_angle_alpha 90.000000
_cell_angle_beta 32.751444
_cell_angle_gamma 90.000000
_cell_volume 1346.036705
_symmetry_space_group_name_H-M "P 2/C"
_symmetry_group_IT_number 13
_symmetry_cell_setting 'monoclinic'
loop_
_space_group_symop_operation_xyz
x,y,z
-x,y,1/2-z
-x,-y,-z
x,-y,1/2+z
loop_
_atom_site_type_symbol
_atom_site_label
_atom_site_fract_x
_atom_site_fract_y
_atom_site_fract_z
Si Si1 0.783169 0.530821 0.847817
Si Si2 0.802986 0.797674 0.997864
Si Si3 0.849043 0.324711 0.912989
Si Si4 0.443045 0.923370 0.761877
Si Si5 0.009448 0.845305 0.897888
Si Si6 0.324120 0.718929 0.942033
Si Si7 0.716219 0.910144 0.714288
O O1 0.769523 0.677967 0.972495
O O2 0.827725 0.403085 0.821743
O O3 0.844139 0.559987 0.555359
O O4 0.690747 0.458299 0.043316
O O5 0.901355 0.779518 0.781270
O O6 0.757729 0.776430 0.263291
O O7 0.776434 0.956760 0.001056
O O8 0.942074 0.261061 0.647825
O O9 0.779919 0.198927 0.133487
O O10 0.500000 0.900602 0.750000
O O11 0.500000 0.000000 0.500000
O O12 0.411454 0.757883 0.799061
O O13 0.359664 0.026021 0.994095
O O14 0.000000 0.856624 0.750000
O O15 0.000000 0.000000 0.000000
O O16 0.329768 0.816789 0.787221
#
# Coordination Sequence:
#
# PCOD8121137 Si02
#       7
#     4   4   4   4   4   4   4
#     4  11  24  44  66 101 132 193 231 282 355 414
#     4  11  24  40  69  97 133 183 239 280 350 404
#     4  11  25  45  68  95 143 184 240 281 355 411
#     4  11  22  40  71 111 135 174 222 284 352 416
#     4  12  27  44  68 100 141 177 241 301 346 402
#     4  10  22  44  63 102 138 175 228 284 340 426
#     4  10  22  39  72  97 136 175 231 288 336 415
#
# _framework density 20.801811000000001
#
# number of rings (size 3 to 8) (size 9 to 14) (size 15 to 20)
#    0.000    1.143    4.286    1.714    6.000    0.571 
#    2.571    0.000    0.000    8.571    0.000    0.000 
#    0.000    0.000    0.000    0.000    0.000    0.000 
#
# Total GULP energy -346989.534973 kJ/mol
# GULP energy per Si atom -12392.483392 kJ/mol
# Density = 2.075446 g / cm^3
# Si number density = 20.801811 Si / 1000 Ang^3
#
#
#
# Elastic Constant Matrix: (Units=GPa)
#
#
# Indices 1 2 3 4 5 6 
#
# 1 102.0553 58.3466 59.6751 0.0000 -6.3429 0.0000
# 2 58.3466 125.9238 51.7433 0.0000 -3.8563 0.0000
# 3 59.6751 51.7433 124.3854 0.0000 -9.3983 0.0000
# 4 0.0000 0.0000 0.0000 33.2570 0.0000 2.1074
# 5 -6.3429 -3.8563 -9.3983 0.0000 36.1193 0.0000
# 6 0.0000 0.0000 0.0000 2.1074 0.0000 32.1724
#
#
#
# Elastic Compliance Matrix: (Units=1/GPa)
#
#
# Indices 1 2 3 4 5 6 
#
# 1 0.015983 -0.005133 -0.005470 0.000000 0.000836 0.000000
# 2 -0.005133 0.011227 -0.002229 0.000000 -0.000283 0.000000
# 3 -0.005470 -0.002229 0.011731 0.000000 0.001854 0.000000
# 4 0.000000 0.000000 0.000000 0.030194 0.000000 -0.001978
# 5 0.000836 -0.000283 0.001854 0.000000 0.028285 0.000000
# 6 0.000000 0.000000 0.000000 -0.001978 0.000000 0.031212
#
#
# Mechanical properties :
#
#
# Convention : Reuss Voigt Hill
#
# Bulk Modulus (GPa) = 75.31314 76.87716 76.09515
# Shear Modulus (GPa) = 31.50158 32.48304 31.99231
#
# Velocity S-wave (km/s) = 3.89571 3.95593 3.92594
# Velocity P-wave (km/s) = 7.51792 7.60940 7.56380
#
# Compressibility (1/GPa) = 0.01327790
#
# Stress axis : x y z
#
# Youngs Moduli (GPa) = 62.56485 89.07205 85.24296
#
# Poissons Ratio (x) = 0.45718 0.46627
# Poissons Ratio (y) = 0.32112 0.19002
# Poissons Ratio (z) = 0.34222 0.19856
#
# Static dielectric constant tensor:
#      x y z
#    x 3.982190 0.000000 -0.096280 
#    y 0.000000 4.077450 0.000000 
#    z -0.096280 0.000000 3.808890 
# 
# 
# High freq. dielectric constant tensor:
#      x y z
#    x 1.819150 0.000000 0.008950 
#    y 0.000000 1.820080 0.000000 
#    z 0.008950 0.000000 1.807580 
# 
# From -- ./inp_files/24538.got.cif
#   From: 2010.06.25/outbox.cif.g09.slc.cpg/sg13_13_cif.got.tgz:24538.got - 2010.06.28 04:50:58.
