data_PCOD8121851
_publ_section_title
;
Structure prediction by ZEFSAII (Michael W. Deem and Ramdas Pophale) SiO2 
 PCOD8121851
Probable space group: P 2/C
;
_chemical_formula_sum "Si O2"
_cell_formula_units_Z 18
_cell_length_a 7.977700
_cell_length_b 9.190281
_cell_length_c 11.604872
_cell_angle_alpha 90.000000
_cell_angle_beta 70.010049
_cell_angle_gamma 90.000000
_cell_volume 799.577157
_symmetry_space_group_name_H-M "P 2/C"
_symmetry_group_IT_number 13
_symmetry_cell_setting 'monoclinic'
loop_
_space_group_symop_operation_xyz
x,y,z
-x,y,1/2-z
-x,-y,-z
x,-y,1/2+z
loop_
_atom_site_type_symbol
_atom_site_label
_atom_site_fract_x
_atom_site_fract_y
_atom_site_fract_z
Si Si1 0.652994 0.290753 0.474083
Si Si2 0.170067 0.930666 0.397459
Si Si3 0.000000 0.730400 0.250000
Si Si4 0.734279 0.614237 0.489380
Si Si5 0.297977 0.228580 0.286618
O O1 0.704775 0.158651 0.544953
O O2 0.700491 0.444728 0.520273
O O3 0.440454 0.291139 0.502964
O O4 0.763344 0.266616 0.328863
O O5 0.116299 0.829294 0.305553
O O6 0.286783 0.057925 0.314247
O O7 0.000000 0.000000 0.500000
O O8 0.125986 0.626758 0.146076
O O9 0.813931 0.680985 0.590268
O O10 0.500000 0.283679 0.250000
#
# Coordination Sequence:
#
# PCOD8121851 Si02
#       5
#     4   4   2   4   4
#     4  10  25  45  72  93 138 179 226 278 334 407
#     4  12  25  43  65 100 138 177 223 278 339 399
#     4  12  26  40  66 100 136 168 230 274 336 408
#     4  10  24  46  67 102 130 178 226 277 341 398
#     4  10  23  43  67  97 132 173 224 271 330 405
#
# _framework density 22.511899
#
# number of rings (size 3 to 8) (size 9 to 14) (size 15 to 20)
#    0.000    1.333    2.222    1.333    6.222    4.444 
#    0.000    0.000    0.000    0.000    0.000    0.000 
#    0.000    0.000    0.000    0.000    0.000    0.000 
#
# Total GULP energy -223228.082464 kJ/mol
# GULP energy per Si atom -12401.560137 kJ/mol
# Density = 2.246066 g / cm^3
# Si number density = 22.511899 Si / 1000 Ang^3
#
#
#
# Elastic Constant Matrix: (Units=GPa)
#
#
# Indices 1 2 3 4 5 6 
#
# 1 47.6022 29.2174 32.0704 0.0000 14.2942 0.0000
# 2 29.2174 106.8442 27.0943 0.0000 13.3979 0.0000
# 3 32.0704 27.0943 122.7532 0.0000 6.6925 0.0000
# 4 0.0000 0.0000 0.0000 40.5913 0.0000 1.8101
# 5 14.2942 13.3979 6.6925 0.0000 40.2888 0.0000
# 6 0.0000 0.0000 0.0000 1.8101 0.0000 29.9020
#
#
#
# Elastic Compliance Matrix: (Units=1/GPa)
#
#
# Indices 1 2 3 4 5 6 
#
# 1 0.031442 -0.005943 -0.006461 0.000000 -0.008106 0.000000
# 2 -0.005943 0.011400 -0.000880 0.000000 -0.001536 0.000000
# 3 -0.006461 -0.000880 0.009978 0.000000 0.000927 0.000000
# 4 0.000000 0.000000 0.000000 0.024703 0.000000 -0.001495
# 5 -0.008106 -0.001536 0.000927 0.000000 0.028054 0.000000
# 6 0.000000 0.000000 0.000000 -0.001495 0.000000 0.033533
#
#
# Mechanical properties :
#
#
# Convention : Reuss Voigt Hill
#
# Bulk Modulus (GPa) = 38.09129 50.44042 44.26586
# Shear Modulus (GPa) = 28.66507 34.74425 31.70466
#
# Velocity S-wave (km/s) = 3.57225 3.93284 3.75687
# Velocity P-wave (km/s) = 5.82854 6.56336 6.20683
#
# Compressibility (1/GPa) = 0.02625272
#
# Stress axis : x y z
#
# Youngs Moduli (GPa) = 31.80454 87.71597 100.22042
#
# Poissons Ratio (x) = 0.52132 0.64750
# Poissons Ratio (y) = 0.18902 0.08818
# Poissons Ratio (z) = 0.20548 0.07717
#
# Static dielectric constant tensor:
#      x y z
#    x 3.986560 0.000000 0.175940 
#    y 0.000000 4.431680 0.000000 
#    z 0.175940 0.000000 4.542630 
# 
# 
# High freq. dielectric constant tensor:
#      x y z
#    x 1.872810 0.000000 0.006750 
#    y 0.000000 1.894320 0.000000 
#    z 0.006750 0.000000 1.905250 
# 
# From -- ./inp_files/27807.got.cif
#   From: 2010.06.25/outbox.cif.g09.slc.cpg/sg13_14_cif.got.tgz:27807.got - 2010.06.28 04:50:58.
