data_PCOD8121827
_publ_section_title
;
Structure prediction by ZEFSAII (Michael W. Deem and Ramdas Pophale) SiO2 
 PCOD8121827
Probable space group: P 2/C
;
_chemical_formula_sum "Si O2"
_cell_formula_units_Z 20
_cell_length_a 4.973723
_cell_length_b 12.550509
_cell_length_c 17.029919
_cell_angle_alpha 90.000000
_cell_angle_beta 117.303316
_cell_angle_gamma 90.000000
_cell_volume 944.620298
_symmetry_space_group_name_H-M "P 2/C"
_symmetry_group_IT_number 13
_symmetry_cell_setting 'monoclinic'
loop_
_space_group_symop_operation_xyz
x,y,z
-x,y,1/2-z
-x,-y,-z
x,-y,1/2+z
loop_
_atom_site_type_symbol
_atom_site_label
_atom_site_fract_x
_atom_site_fract_y
_atom_site_fract_z
Si Si1 0.698541 0.533965 0.101124
Si Si2 0.300124 0.865865 0.033596
Si Si3 0.500000 0.218814 0.250000
Si Si4 0.293020 0.667852 0.148757
Si Si5 0.000000 0.363915 0.250000
Si Si6 0.393954 0.095293 0.079543
O O1 0.449906 0.568442 0.129970
O O2 0.845412 0.432254 0.161164
O O3 0.948173 0.628557 0.120603
O O4 0.500000 0.500000 0.000000
O O5 0.312952 0.767799 0.093975
O O6 0.485360 0.969537 0.090219
O O7 0.439369 0.837438 0.966953
O O8 0.958254 0.896783 0.978082
O O9 0.785842 0.293143 0.275334
O O10 0.483917 0.142321 0.174034
O O11 0.500000 0.700709 0.250000
#
# Coordination Sequence:
#
# PCOD8121827 Si02
#       6
#     4   4   2   4   2   4
#     4  12  27  46  68  95 134 179 225 277 337 394
#     4  10  23  42  70  94 136 168 220 271 330 394
#     4  12  26  40  72  92 138 172 220 264 338 392
#     4  12  24  45  70  99 131 173 225 279 333 396
#     4  12  26  46  64 100 132 174 226 284 316 402
#     4  10  23  44  63 102 131 173 217 270 322 408
#
# _framework density 21.172526999999999
#
# number of rings (size 3 to 8) (size 9 to 14) (size 15 to 20)
#    0.000    0.800    2.000    4.200    9.800    0.000 
#    0.000    0.000    0.000    0.000    0.000    0.000 
#    0.000    0.000    0.000    0.000    0.000    0.000 
#
# Total GULP energy -247895.939546 kJ/mol
# GULP energy per Si atom -12394.796977 kJ/mol
# Density = 2.112434 g / cm^3
# Si number density = 21.172527 Si / 1000 Ang^3
#
#
#
# Elastic Constant Matrix: (Units=GPa)
#
#
# Indices 1 2 3 4 5 6 
#
# 1 114.5464 28.3943 37.7374 0.0000 -14.5760 0.0000
# 2 28.3943 102.6726 66.7926 0.0000 -13.8282 0.0000
# 3 37.7374 66.7926 163.0212 0.0000 -17.4972 0.0000
# 4 0.0000 0.0000 0.0000 59.2415 0.0000 -9.5639
# 5 -14.5760 -13.8282 -17.4972 0.0000 39.8351 0.0000
# 6 0.0000 0.0000 0.0000 -9.5639 0.0000 37.0243
#
#
#
# Elastic Compliance Matrix: (Units=1/GPa)
#
#
# Indices 1 2 3 4 5 6 
#
# 1 0.009878 -0.001477 -0.001415 0.000000 0.002480 0.000000
# 2 -0.001477 0.013709 -0.005061 0.000000 0.001996 0.000000
# 3 -0.001415 -0.005061 0.008701 0.000000 0.001547 0.000000
# 4 0.000000 0.000000 0.000000 0.017615 0.000000 0.004550
# 5 0.002480 0.001996 0.001547 0.000000 0.027383 0.000000
# 6 0.000000 0.000000 0.000000 0.004550 0.000000 0.028185
#
#
# Mechanical properties :
#
#
# Convention : Reuss Voigt Hill
#
# Bulk Modulus (GPa) = 61.04132 71.78767 66.41449
# Shear Modulus (GPa) = 39.42025 43.70791 41.56408
#
# Velocity S-wave (km/s) = 4.31961 4.54846 4.43551
# Velocity P-wave (km/s) = 7.33292 7.84629 7.59395
#
# Compressibility (1/GPa) = 0.01638235
#
# Stress axis : x y z
#
# Youngs Moduli (GPa) = 101.23418 72.94377 114.92456
#
# Poissons Ratio (x) = 0.10774 0.16265
# Poissons Ratio (y) = 0.14953 0.58161
# Poissons Ratio (z) = 0.14328 0.36915
#
# Static dielectric constant tensor:
#      x y z
#    x 4.208780 0.000000 -0.052390 
#    y 0.000000 4.111580 0.000000 
#    z -0.052390 0.000000 3.748530 
# 
# 
# High freq. dielectric constant tensor:
#      x y z
#    x 1.854550 0.000000 -0.006770 
#    y 0.000000 1.840070 0.000000 
#    z -0.006770 0.000000 1.831740 
# 
# From -- ./inp_files/43744.got.cif
#   From: 2010.06.25/outbox.cif.g09.slc.cpg/sg13_22_cif.got.tgz:43744.got - 2010.06.28 04:50:58.
