data_PCOD8121642
_publ_section_title
;
Structure prediction by ZEFSAII (Michael W. Deem and Ramdas Pophale) SiO2 
 PCOD8121642
Probable space group: P 2/C
;
_chemical_formula_sum "Si O2"
_cell_formula_units_Z 20
_cell_length_a 17.112058
_cell_length_b 7.842175
_cell_length_c 12.086738
_cell_angle_alpha 90.000000
_cell_angle_beta 147.683115
_cell_angle_gamma 90.000000
_cell_volume 867.117582
_symmetry_space_group_name_H-M "P 2/C"
_symmetry_group_IT_number 13
_symmetry_cell_setting 'monoclinic'
loop_
_space_group_symop_operation_xyz
x,y,z
-x,y,1/2-z
-x,-y,-z
x,-y,1/2+z
loop_
_atom_site_type_symbol
_atom_site_label
_atom_site_fract_x
_atom_site_fract_y
_atom_site_fract_z
Si Si1 0.426614 0.318189 0.882686
Si Si2 0.349586 0.640340 0.519024
Si Si3 0.164257 0.198703 0.435575
Si Si4 0.275873 0.717782 0.846021
Si Si5 0.160289 0.815088 0.476942
O O1 0.283123 0.327911 0.632441
O O2 0.500000 0.500000 0.000000
O O3 0.380483 0.240461 0.947056
O O4 0.556680 0.217292 0.975650
O O5 0.500000 0.569499 0.750000
O O6 0.259127 0.475921 0.370481
O O7 0.270200 0.752265 0.514983
O O8 0.202306 0.165809 0.352193
O O9 0.000000 0.274531 0.250000
O O10 0.175174 0.018143 0.510616
O O11 0.187871 0.727520 0.627084
O O12 0.000000 0.760019 0.250000
#
# Coordination Sequence:
#
# PCOD8121642 Si02
#       5
#     4   4   4   4   4
#     4  10  22  45  70  98 137 180 232 292 340 415
#     4  11  23  44  71 100 138 178 235 295 350 411
#     4  11  27  45  70 101 144 186 230 287 359 416
#     4  11  24  45  72  98 138 187 231 292 345 420
#     4  11  28  45  65 106 144 182 237 290 349 421
#
# _framework density 23.064923
#
# number of rings (size 3 to 8) (size 9 to 14) (size 15 to 20)
#    0.000    1.200    2.000    3.000    8.400    5.600 
#    0.000    0.000    0.000    0.000    0.000    0.000 
#    0.000    0.000    0.000    0.000    0.000    0.000 
#
# Total GULP energy -247951.012458 kJ/mol
# GULP energy per Si atom -12397.550623 kJ/mol
# Density = 2.301243 g / cm^3
# Si number density = 23.064923 Si / 1000 Ang^3
#
#
#
# Elastic Constant Matrix: (Units=GPa)
#
#
# Indices 1 2 3 4 5 6 
#
# 1 163.9926 16.7058 85.2104 0.0000 -19.4266 0.0000
# 2 16.7058 49.4994 39.9821 0.0000 7.9015 0.0000
# 3 85.2104 39.9821 205.2280 0.0000 4.5912 0.0000
# 4 0.0000 0.0000 0.0000 25.4491 0.0000 -9.6113
# 5 -19.4266 7.9015 4.5912 0.0000 40.3965 0.0000
# 6 0.0000 0.0000 0.0000 -9.6113 0.0000 56.8762
#
#
#
# Elastic Compliance Matrix: (Units=1/GPa)
#
#
# Indices 1 2 3 4 5 6 
#
# 1 0.008550 -0.000806 -0.003497 0.000000 0.004667 0.000000
# 2 -0.000806 0.024772 -0.004386 0.000000 -0.004734 0.000000
# 3 -0.003497 -0.004386 0.007216 0.000000 -0.001644 0.000000
# 4 0.000000 0.000000 0.000000 0.041973 0.000000 0.007093
# 5 0.004667 -0.004734 -0.001644 0.000000 0.028112 0.000000
# 6 0.000000 0.000000 0.000000 0.007093 0.000000 0.018781
#
#
# Mechanical properties :
#
#
# Convention : Reuss Voigt Hill
#
# Bulk Modulus (GPa) = 43.17621 78.05740 60.61681
# Shear Modulus (GPa) = 32.36223 42.99913 37.68068
#
# Velocity S-wave (km/s) = 3.74985 4.32240 4.04626
# Velocity P-wave (km/s) = 6.12443 7.66986 6.94029
#
# Compressibility (1/GPa) = 0.02316090
#
# Stress axis : x y z
#
# Youngs Moduli (GPa) = 116.95949 40.36760 138.58201
#
# Poissons Ratio (x) = 0.03252 0.48468
# Poissons Ratio (y) = 0.09422 0.60778
# Poissons Ratio (z) = 0.40905 0.17704
#
# Static dielectric constant tensor:
#      x y z
#    x 5.074820 0.000000 0.030540 
#    y 0.000000 3.674880 0.000000 
#    z 0.030540 0.000000 4.318790 
# 
# 
# High freq. dielectric constant tensor:
#      x y z
#    x 1.941310 0.000000 -0.009240 
#    y 0.000000 1.874240 0.000000 
#    z -0.009240 0.000000 1.916280 
# 
# From -- ./inp_files/38827.got.cif
#   From: 2010.06.25/outbox.cif.g09.slc.cpg/sg13_20_cif.got.tgz:38827.got - 2010.06.28 04:50:58.
