data_PCOD8121190
_publ_section_title
;
Structure prediction by ZEFSAII (Michael W. Deem and Ramdas Pophale) SiO2 
 PCOD8121190
Probable space group: P 2/C
;
_chemical_formula_sum "Si O2"
_cell_formula_units_Z 24
_cell_length_a 7.911884
_cell_length_b 8.640933
_cell_length_c 20.001286
_cell_angle_alpha 90.000000
_cell_angle_beta 54.868164
_cell_angle_gamma 90.000000
_cell_volume 1118.308320
_symmetry_space_group_name_H-M "P 2/C"
_symmetry_group_IT_number 13
_symmetry_cell_setting 'monoclinic'
loop_
_space_group_symop_operation_xyz
x,y,z
-x,y,1/2-z
-x,-y,-z
x,-y,1/2+z
loop_
_atom_site_type_symbol
_atom_site_label
_atom_site_fract_x
_atom_site_fract_y
_atom_site_fract_z
Si Si1 0.702351 0.843426 0.669888
Si Si2 0.216248 0.570095 0.933888
Si Si3 0.237667 0.984630 0.468226
Si Si4 0.502718 0.710423 0.376796
Si Si5 0.783105 0.245282 0.934821
Si Si6 0.146614 0.875292 0.280202
O O1 0.500000 0.777276 0.750000
O O2 0.824363 0.689151 0.618413
O O3 0.628652 0.934129 0.620362
O O4 0.827712 0.957260 0.690561
O O5 0.398765 0.448012 0.874431
O O6 0.279259 0.656357 0.987143
O O7 0.000000 0.500000 0.000000
O O8 0.314065 0.808986 0.451376
O O9 0.274096 0.066461 0.532103
O O10 0.000000 0.000000 0.500000
O O11 0.660048 0.682276 0.401337
O O12 0.632466 0.796430 0.288174
O O13 0.027501 0.241150 0.858646
O O14 0.000000 0.904165 0.250000
#
# Coordination Sequence:
#
# PCOD8121190 Si02
#       6
#     4   4   4   4   4   4
#     4  11  22  41  61  91 126 161 215 261 310 380
#     4  11  26  41  61  95 129 172 208 260 324 379
#     4  11  20  36  64  92 121 165 211 255 306 368
#     4  11  22  41  63  94 127 167 209 259 322 373
#     4  10  22  40  64  92 130 164 210 259 312 383
#     4  10  22  40  68  97 123 169 215 264 319 378
#
# _framework density 21.460986999999999
#
# number of rings (size 3 to 8) (size 9 to 14) (size 15 to 20)
#    0.000    1.333    3.333    3.000    0.000    1.333 
#    0.000    1.667    0.000    0.000    0.000    0.000 
#    0.000    0.000    0.000    0.000    0.000    0.000 
#
# Total GULP energy -297333.420580 kJ/mol
# GULP energy per Si atom -12388.892524 kJ/mol
# Density = 2.141214 g / cm^3
# Si number density = 21.460987 Si / 1000 Ang^3
#
#
#
# Elastic Constant Matrix: (Units=GPa)
#
#
# Indices 1 2 3 4 5 6 
#
# 1 64.2153 42.5827 31.2837 0.0000 -11.7303 0.0000
# 2 42.5827 125.6733 50.7456 0.0000 -12.4837 0.0000
# 3 31.2837 50.7456 117.5214 0.0000 -14.8499 0.0000
# 4 0.0000 0.0000 0.0000 43.7282 0.0000 0.7185
# 5 -11.7303 -12.4837 -14.8499 0.0000 36.4521 0.0000
# 6 0.0000 0.0000 0.0000 0.7185 0.0000 32.5428
#
#
#
# Elastic Compliance Matrix: (Units=1/GPa)
#
#
# Indices 1 2 3 4 5 6 
#
# 1 0.021431 -0.005782 -0.002727 0.000000 0.003805 0.000000
# 2 -0.005782 0.011298 -0.003253 0.000000 0.000683 0.000000
# 3 -0.002727 -0.003253 0.010952 0.000000 0.002470 0.000000
# 4 0.000000 0.000000 0.000000 0.022877 0.000000 -0.000505
# 5 0.003805 0.000683 0.002470 0.000000 0.029898 0.000000
# 6 0.000000 0.000000 0.000000 -0.000505 0.000000 0.030740
#
#
# Mechanical properties :
#
#
# Convention : Reuss Voigt Hill
#
# Bulk Modulus (GPa) = 49.61403 61.84823 55.73113
# Shear Modulus (GPa) = 31.75860 34.73117 33.24489
#
# Velocity S-wave (km/s) = 3.85103 4.02722 3.94011
# Velocity P-wave (km/s) = 6.55304 7.10677 6.83551
#
# Compressibility (1/GPa) = 0.02015559
#
# Stress axis : x y z
#
# Youngs Moduli (GPa) = 46.66211 88.51354 91.31013
#
# Poissons Ratio (x) = 0.51181 0.24902
# Poissons Ratio (y) = 0.26982 0.29701
# Poissons Ratio (z) = 0.12725 0.28791
#
# Static dielectric constant tensor:
#      x y z
#    x 3.638330 0.000000 -0.123230 
#    y 0.000000 6.622010 0.000000 
#    z -0.123230 0.000000 4.149360 
# 
# 
# High freq. dielectric constant tensor:
#      x y z
#    x 1.822000 0.000000 -0.003850 
#    y 0.000000 1.830660 0.000000 
#    z -0.003850 0.000000 1.866840 
# 
# From -- ./inp_files/75601.got.cif
#   From: 2010.06.25/outbox.cif.g09.slc.cpg/sg13_38_cif.got.tgz:75601.got - 2010.06.28 04:50:58.
