data_PCOD8121252
_publ_section_title
;
Structure prediction by ZEFSAII (Michael W. Deem and Ramdas Pophale) SiO2 
 PCOD8121252
Probable space group: P 2/C
;
_chemical_formula_sum "Si O2"
_cell_formula_units_Z 28
_cell_length_a 13.566837
_cell_length_b 5.697981
_cell_length_c 17.221510
_cell_angle_alpha 90.000000
_cell_angle_beta 125.124157
_cell_angle_gamma 90.000000
_cell_volume 1088.867084
_symmetry_space_group_name_H-M "P 2/C"
_symmetry_group_IT_number 13
_symmetry_cell_setting 'monoclinic'
loop_
_space_group_symop_operation_xyz
x,y,z
-x,y,1/2-z
-x,-y,-z
x,-y,1/2+z
loop_
_atom_site_type_symbol
_atom_site_label
_atom_site_fract_x
_atom_site_fract_y
_atom_site_fract_z
Si Si1 0.000000 0.317103 0.250000
Si Si2 0.929753 0.245520 0.967490
Si Si3 0.165718 0.428980 0.721754
Si Si4 0.221036 0.199421 0.448389
Si Si5 0.539079 0.598134 0.420191
Si Si6 0.365589 0.783591 0.792665
Si Si7 0.500000 0.099706 0.750000
Si Si8 0.673612 0.159720 0.598366
O O1 0.039128 0.458110 0.190574
O O2 0.118392 0.180813 0.334424
O O3 0.860236 0.231221 0.853947
O O4 0.834634 0.233097 0.993117
O O5 0.000000 0.500000 0.000000
O O6 0.000000 0.000000 0.000000
O O7 0.259710 0.603677 0.722967
O O8 0.221046 0.332330 0.826404
O O9 0.322574 0.409837 0.484535
O O10 0.295730 0.951658 0.472676
O O11 0.490263 0.345077 0.373753
O O12 0.456032 0.710513 0.452215
O O13 0.540668 0.752366 0.342800
O O14 0.388093 0.938971 0.726316
O O15 0.321737 0.935980 0.843975
#
# Coordination Sequence:
#
# PCOD8121252 Si02
#       8
#     2   4   4   4   4   4   2   4
#     4  12  26  50  76 106 148 218 254 320 396 460
#     4  12  31  52  75 116 159 208 273 331 389 472
#     4  11  26  48  77 104 152 201 262 320 392 467
#     4  12  27  48  79 110 156 200 267 322 399 469
#     4  10  24  45  71 115 147 195 257 322 399 481
#     4  10  22  44  74 103 149 190 248 310 393 469
#     4  10  22  40  72 110 154 198 240 314 408 462
#     4  10  24  46  76 107 146 198 250 323 397 477
#
# _framework density 25.714801999999999
#
# number of rings (size 3 to 8) (size 9 to 14) (size 15 to 20)
#    0.000    1.143    2.857    0.857   14.000    0.571 
#    7.714    0.000    0.000    0.000    0.000    0.000 
#    0.000    0.000    0.000    0.000    0.000    0.000 
#
# Total GULP energy -346982.124730 kJ/mol
# GULP energy per Si atom -12392.218740 kJ/mol
# Density = 2.565627 g / cm^3
# Si number density = 25.714802 Si / 1000 Ang^3
#
#
#
# Elastic Constant Matrix: (Units=GPa)
#
#
# Indices 1 2 3 4 5 6 
#
# 1 146.7240 30.3048 35.5615 0.0000 1.0785 0.0000
# 2 30.3048 90.9161 5.6370 0.0000 6.3062 0.0000
# 3 35.5615 5.6370 86.8175 0.0000 9.2682 0.0000
# 4 0.0000 0.0000 0.0000 16.4831 0.0000 11.2495
# 5 1.0785 6.3062 9.2682 0.0000 48.3599 0.0000
# 6 0.0000 0.0000 0.0000 11.2495 0.0000 34.0911
#
#
#
# Elastic Compliance Matrix: (Units=1/GPa)
#
#
# Indices 1 2 3 4 5 6 
#
# 1 0.008125 -0.002561 -0.003245 0.000000 0.000775 0.000000
# 2 -0.002561 0.011935 0.000443 0.000000 -0.001584 0.000000
# 3 -0.003245 0.000443 0.013085 0.000000 -0.002493 0.000000
# 4 0.000000 0.000000 0.000000 0.078302 0.000000 -0.025838
# 5 0.000775 -0.001584 -0.002493 0.000000 0.021345 0.000000
# 6 0.000000 0.000000 0.000000 -0.025838 0.000000 0.037859
#
#
# Mechanical properties :
#
#
# Convention : Reuss Voigt Hill
#
# Bulk Modulus (GPa) = 44.60199 51.94047 48.27123
# Shear Modulus (GPa) = 26.47596 36.65043 31.56320
#
# Velocity S-wave (km/s) = 3.21222 3.77937 3.50727
# Velocity P-wave (km/s) = 5.58035 6.26796 5.93412
#
# Compressibility (1/GPa) = 0.02242052
#
# Stress axis : x y z
#
# Youngs Moduli (GPa) = 123.07475 83.78591 76.42445
#
# Poissons Ratio (x) = 0.21457 0.24796
# Poissons Ratio (y) = 0.31518 -0.03387
# Poissons Ratio (z) = 0.39932 -0.03713
#
# Static dielectric constant tensor:
#      x y z
#    x 4.944010 0.000000 -0.093500 
#    y 0.000000 5.046120 0.000000 
#    z -0.093500 0.000000 4.634440 
# 
# 
# High freq. dielectric constant tensor:
#      x y z
#    x 2.046610 0.000000 -0.004090 
#    y 0.000000 2.029010 0.000000 
#    z -0.004090 0.000000 2.028850 
# 
# From -- ./inp_files/67637.got.cif
#   From: 2010.06.25/outbox.cif.g09.slc.cpg/sg13_34_cif.got.tgz:67637.got - 2010.06.28 04:50:58.
