data_PCOD8121844
_publ_section_title
;
Structure prediction by ZEFSAII (Michael W. Deem and Ramdas Pophale) SiO2 
 PCOD8121844
Probable space group: P 2/C
;
_chemical_formula_sum "Si O2"
_cell_formula_units_Z 22
_cell_length_a 13.552864
_cell_length_b 6.286760
_cell_length_c 13.143481
_cell_angle_alpha 90.000000
_cell_angle_beta 69.972527
_cell_angle_gamma 90.000000
_cell_volume 1052.151623
_symmetry_space_group_name_H-M "P 2/C"
_symmetry_group_IT_number 13
_symmetry_cell_setting 'monoclinic'
loop_
_space_group_symop_operation_xyz
x,y,z
-x,y,1/2-z
-x,-y,-z
x,-y,1/2+z
loop_
_atom_site_type_symbol
_atom_site_label
_atom_site_fract_x
_atom_site_fract_y
_atom_site_fract_z
Si Si1 0.075945 0.806401 0.949139
Si Si2 0.763656 0.119285 0.667109
Si Si3 0.413441 0.217629 0.922671
Si Si4 0.597856 0.889996 0.845609
Si Si5 0.038882 0.415216 0.846448
Si Si6 0.500000 0.435862 0.250000
O O1 0.054263 0.669450 0.853844
O O2 0.191029 0.901024 0.895649
O O3 0.061034 0.644145 0.047416
O O4 0.000000 0.000000 0.000000
O O5 0.694055 0.213022 0.601912
O O6 0.853951 0.286032 0.667087
O O7 0.692355 0.056136 0.790142
O O8 0.469481 0.428625 0.860515
O O9 0.486703 0.013003 0.878549
O O10 0.386109 0.226971 0.051806
O O11 0.595277 0.710739 0.758259
O O12 0.000000 0.354736 0.750000
#
# Coordination Sequence:
#
# PCOD8121844 Si02
#       6
#     4   4   4   4   4   2
#     4   9  22  43  62  88 129 160 207 267 324 376
#     4  11  22  42  66  96 127 170 220 267 317 389
#     4  11  24  42  64  94 135 174 217 263 327 387
#     4  11  24  42  65  96 134 175 212 269 327 382
#     4  10  23  43  66  94 123 166 214 269 325 387
#     4  12  20  44  62  96 140 174 212 276 310 390
#
# _framework density 20.909535000000002
#
# number of rings (size 3 to 8) (size 9 to 14) (size 15 to 20)
#    0.000    1.455    3.636    0.545    5.091    2.909 
#    6.545    0.000    0.000    0.000    0.000    0.000 
#    0.000    0.000    0.000    0.000    0.000    0.000 
#
# Total GULP energy -272603.201508 kJ/mol
# GULP energy per Si atom -12391.054614 kJ/mol
# Density = 2.086194 g / cm^3
# Si number density = 20.909535 Si / 1000 Ang^3
#
#
#
# Elastic Constant Matrix: (Units=GPa)
#
#
# Indices 1 2 3 4 5 6 
#
# 1 113.1356 39.7140 47.1247 0.0000 8.4202 0.0000
# 2 39.7140 101.3186 36.8092 0.0000 6.7807 0.0000
# 3 47.1247 36.8092 115.2759 0.0000 13.7454 0.0000
# 4 0.0000 0.0000 0.0000 35.2482 0.0000 -1.3078
# 5 8.4202 6.7807 13.7454 0.0000 29.7660 0.0000
# 6 0.0000 0.0000 0.0000 -1.3078 0.0000 23.4317
#
#
#
# Elastic Compliance Matrix: (Units=1/GPa)
#
#
# Indices 1 2 3 4 5 6 
#
# 1 0.011506 -0.003145 -0.003594 0.000000 -0.000878 0.000000
# 2 -0.003145 0.012050 -0.002477 0.000000 -0.000711 0.000000
# 3 -0.003594 -0.002477 0.011373 0.000000 -0.003671 0.000000
# 4 0.000000 0.000000 0.000000 0.028429 0.000000 0.001587
# 5 -0.000878 -0.000711 -0.003671 0.000000 0.035701 0.000000
# 6 0.000000 0.000000 0.000000 0.001587 0.000000 0.042766
#
#
# Mechanical properties :
#
#
# Convention : Reuss Voigt Hill
#
# Bulk Modulus (GPa) = 60.62420 64.11399 62.36909
# Shear Modulus (GPa) = 30.16467 31.42799 30.79633
#
# Velocity S-wave (km/s) = 3.80231 3.88112 3.84192
# Velocity P-wave (km/s) = 6.95222 7.12834 7.04083
#
# Compressibility (1/GPa) = 0.01649506
#
# Stress axis : x y z
#
# Youngs Moduli (GPa) = 86.91427 82.98553 87.92803
#
# Poissons Ratio (x) = 0.26101 0.31605
# Poissons Ratio (y) = 0.27336 0.21782
# Poissons Ratio (z) = 0.31241 0.20557
#
# Static dielectric constant tensor:
#      x y z
#    x 3.737180 0.000000 -0.221700 
#    y 0.000000 4.104030 0.000000 
#    z -0.221700 0.000000 3.991750 
# 
# 
# High freq. dielectric constant tensor:
#      x y z
#    x 1.804360 0.000000 -0.007470 
#    y 0.000000 1.831040 0.000000 
#    z -0.007470 0.000000 1.821590 
# 
# From -- ./inp_files/48888.got.cif
#   From: 2010.06.25/outbox.cif.g09.slc.cpg/sg13_25_cif.got.tgz:48888.got - 2010.06.28 04:50:58.
