data_PCOD8121742
_publ_section_title
;
Structure prediction by ZEFSAII (Michael W. Deem and Ramdas Pophale) SiO2 
 PCOD8121742
Probable space group: P 2/C
;
_chemical_formula_sum "Si O2"
_cell_formula_units_Z 30
_cell_length_a 6.601867
_cell_length_b 8.004675
_cell_length_c 27.549125
_cell_angle_alpha 90.000000
_cell_angle_beta 67.300590
_cell_angle_gamma 90.000000
_cell_volume 1343.087976
_symmetry_space_group_name_H-M "P 2/C"
_symmetry_group_IT_number 13
_symmetry_cell_setting 'monoclinic'
loop_
_space_group_symop_operation_xyz
x,y,z
-x,y,1/2-z
-x,-y,-z
x,-y,1/2+z
loop_
_atom_site_type_symbol
_atom_site_label
_atom_site_fract_x
_atom_site_fract_y
_atom_site_fract_z
Si Si1 0.715106 0.984281 0.202088
Si Si2 0.834493 0.587074 0.899149
Si Si3 0.678055 0.681348 0.659823
Si Si4 0.456511 0.175504 0.427729
Si Si5 0.325482 0.161245 0.900878
Si Si6 0.642338 0.584966 0.328815
Si Si7 0.093325 0.353505 0.524190
Si Si8 0.000000 0.811586 0.250000
O O1 0.500000 0.917944 0.250000
O O2 0.727566 0.911983 0.147220
O O3 0.933871 0.928755 0.210796
O O4 0.707274 0.186654 0.200881
O O5 0.690965 0.753155 0.925323
O O6 0.797952 0.530024 0.847248
O O7 0.783649 0.436154 0.941064
O O8 0.089159 0.623867 0.881705
O O9 0.556338 0.764185 0.626073
O O10 0.523789 0.524615 0.689596
O O11 0.267437 0.244781 0.479210
O O12 0.435407 0.974349 0.427357
O O13 0.498655 0.309557 0.880094
O O14 0.099812 0.227587 0.943501
O O15 0.790060 0.698636 0.280811
O O16 0.000000 0.500000 0.500000
#
# Coordination Sequence:
#
# PCOD8121742 Si02
#       8
#     4   4   4   4   4   4   4   2
#     4  11  25  46  70  96 137 175 223 289 345 406
#     4  11  22  42  67  97 136 176 224 279 330 407
#     4  10  23  44  68  94 137 176 219 275 341 401
#     4  10  23  40  66  99 131 176 226 272 331 405
#     4  11  23  45  67  96 140 175 222 286 344 399
#     4  11  24  43  66  99 131 178 222 281 337 410
#     4  12  21  42  69  97 137 183 222 275 340 406
#     4  12  26  40  74 102 132 174 240 280 350 414
#
# _framework density 22.336586
#
# number of rings (size 3 to 8) (size 9 to 14) (size 15 to 20)
#    0.000    1.067    4.000    2.400    1.867    2.133 
#    0.000    1.333    0.000    0.000    0.000    0.000 
#    0.000    0.000    0.000    0.000    0.000    0.000 
#
# Total GULP energy -372000.592091 kJ/mol
# GULP energy per Si atom -12400.019736 kJ/mol
# Density = 2.228575 g / cm^3
# Si number density = 22.336586 Si / 1000 Ang^3
#
#
#
# Elastic Constant Matrix: (Units=GPa)
#
#
# Indices 1 2 3 4 5 6 
#
# 1 98.3675 54.9194 27.3689 0.0000 -12.3940 0.0000
# 2 54.9194 132.9307 36.6061 0.0000 -4.9727 0.0000
# 3 27.3689 36.6061 77.6510 0.0000 -9.3727 0.0000
# 4 0.0000 0.0000 0.0000 35.6771 0.0000 -3.4205
# 5 -12.3940 -4.9727 -9.3727 0.0000 29.5022 0.0000
# 6 0.0000 0.0000 0.0000 -3.4205 0.0000 43.5904
#
#
#
# Elastic Compliance Matrix: (Units=1/GPa)
#
#
# Indices 1 2 3 4 5 6 
#
# 1 0.014150 -0.005118 -0.002039 0.000000 0.004434 0.000000
# 2 -0.005118 0.010497 -0.003318 0.000000 -0.001435 0.000000
# 3 -0.002039 -0.003318 0.015588 0.000000 0.003536 0.000000
# 4 0.000000 0.000000 0.000000 0.028242 0.000000 0.002216
# 5 0.004434 -0.001435 0.003536 0.000000 0.036640 0.000000
# 6 0.000000 0.000000 0.000000 0.002216 0.000000 0.023115
#
#
# Mechanical properties :
#
#
# Convention : Reuss Voigt Hill
#
# Bulk Modulus (GPa) = 51.85633 60.74868 56.30251
# Shear Modulus (GPa) = 32.13166 34.42425 33.27796
#
# Velocity S-wave (km/s) = 3.79690 3.93002 3.86403
# Velocity P-wave (km/s) = 6.51830 6.91733 6.72077
#
# Compressibility (1/GPa) = 0.01928405
#
# Stress axis : x y z
#
# Youngs Moduli (GPa) = 70.67333 95.26225 64.15301
#
# Poissons Ratio (x) = 0.48759 0.13081
# Poissons Ratio (y) = 0.36174 0.21285
# Poissons Ratio (z) = 0.14411 0.31606
#
# Static dielectric constant tensor:
#      x y z
#    x 4.086220 0.000000 -0.032600 
#    y 0.000000 4.457460 0.000000 
#    z -0.032600 0.000000 3.839340 
# 
# 
# High freq. dielectric constant tensor:
#      x y z
#    x 1.880150 0.000000 -0.006620 
#    y 0.000000 1.889340 0.000000 
#    z -0.006620 0.000000 1.876490 
# 
# From -- ./inp_files/95022.got.cif
#   From: 2010.06.25/outbox.cif.g09.slc.cpg/sg13_48_cif.got.tgz:95022.got - 2010.06.28 04:50:58.
