data_PCOD8121733
_publ_section_title
;
Structure prediction by ZEFSAII (Michael W. Deem and Ramdas Pophale) SiO2 
 PCOD8121733
Probable space group: P 2/C
;
_chemical_formula_sum "Si O2"
_cell_formula_units_Z 28
_cell_length_a 7.066227
_cell_length_b 14.995811
_cell_length_c 10.879235
_cell_angle_alpha 90.000000
_cell_angle_beta 75.110210
_cell_angle_gamma 90.000000
_cell_volume 1114.096108
_symmetry_space_group_name_H-M "P 2/C"
_symmetry_group_IT_number 13
_symmetry_cell_setting 'monoclinic'
loop_
_space_group_symop_operation_xyz
x,y,z
-x,y,1/2-z
-x,-y,-z
x,-y,1/2+z
loop_
_atom_site_type_symbol
_atom_site_label
_atom_site_fract_x
_atom_site_fract_y
_atom_site_fract_z
Si Si1 0.787079 0.069157 0.324124
Si Si2 0.705768 0.544989 0.448395
Si Si3 0.554423 0.735153 0.471408
Si Si4 0.240234 0.241361 0.329591
Si Si5 0.267745 0.565731 0.782605
Si Si6 0.693522 0.123060 0.786135
Si Si7 0.844713 0.811833 0.027788
O O1 0.719147 0.155275 0.259295
O O2 0.779558 0.097885 0.467099
O O3 0.000000 0.037335 0.250000
O O4 0.661387 0.980809 0.323496
O O5 0.500000 0.500000 0.500000
O O6 0.662573 0.645485 0.409598
O O7 0.815825 0.542722 0.564684
O O8 0.819564 0.494542 0.316420
O O9 0.567167 0.741289 0.618131
O O10 0.694138 0.817845 0.408367
O O11 0.329760 0.738937 0.461990
O O12 0.210367 0.332151 0.256636
O O13 0.044951 0.227840 0.443709
O O14 0.500000 0.551256 0.750000
O O15 0.500000 0.156386 0.750000
O O16 0.870442 0.152384 0.664231
#
# Coordination Sequence:
#
# PCOD8121733 Si02
#       7
#     4   4   4   4   4   4   4
#     4  10  24  38  60  93 123 170 214 264 320 376
#     4   9  19  36  64  95 123 169 216 263 329 393
#     4  10  23  41  67  93 127 173 210 264 330 386
#     4  10  23  40  65  93 126 169 215 267 323 375
#     4   9  19  36  65  98 125 172 218 265 333 395
#     4  10  24  39  61  92 126 169 215 264 323 385
#     4  10  24  41  60  96 129 164 222 262 320 385
#
# _framework density 25.132482
#
# number of rings (size 3 to 8) (size 9 to 14) (size 15 to 20)
#    0.000    2.286    0.000    0.000   12.000    7.429 
#    0.000    0.000    0.000   24.000    0.000    0.000 
#    0.000    0.000    0.000    0.000    0.000    0.000 
#
# Total GULP energy -346904.624395 kJ/mol
# GULP energy per Si atom -12389.450871 kJ/mol
# Density = 2.507528 g / cm^3
# Si number density = 25.132482 Si / 1000 Ang^3
#
#
#
# Elastic Constant Matrix: (Units=GPa)
#
#
# Indices 1 2 3 4 5 6 
#
# 1 27.6378 7.7324 6.2227 0.0000 1.9807 0.0000
# 2 7.7324 193.2966 59.9956 0.0000 14.6942 0.0000
# 3 6.2227 59.9956 94.7548 0.0000 19.8788 0.0000
# 4 0.0000 0.0000 0.0000 29.0225 0.0000 9.0779
# 5 1.9807 14.6942 19.8788 0.0000 33.6313 0.0000
# 6 0.0000 0.0000 0.0000 9.0779 0.0000 8.1397
#
#
#
# Elastic Compliance Matrix: (Units=1/GPa)
#
#
# Indices 1 2 3 4 5 6 
#
# 1 0.036869 -0.000890 -0.001694 0.000000 -0.000781 0.000000
# 2 -0.000890 0.006466 -0.003943 0.000000 -0.000442 0.000000
# 3 -0.001694 -0.003943 0.014588 0.000000 -0.006800 0.000000
# 4 0.000000 0.000000 0.000000 0.052915 0.000000 -0.059015
# 5 -0.000781 -0.000442 -0.006800 0.000000 0.033993 0.000000
# 6 0.000000 0.000000 0.000000 -0.059015 0.000000 0.188672
#
#
# Mechanical properties :
#
#
# Convention : Reuss Voigt Hill
#
# Bulk Modulus (GPa) = 22.28681 51.51006 36.89843
# Shear Modulus (GPa) = 13.83075 30.27459 22.05267
#
# Velocity S-wave (km/s) = 2.34842 3.47450 2.96540
# Velocity P-wave (km/s) = 4.02994 6.05278 5.14182
#
# Compressibility (1/GPa) = 0.04486959
#
# Stress axis : x y z
#
# Youngs Moduli (GPa) = 27.12330 154.64352 68.54905
#
# Poissons Ratio (x) = 0.13758 0.11612
# Poissons Ratio (y) = 0.02413 0.27030
# Poissons Ratio (z) = 0.04595 0.60978
#
# Static dielectric constant tensor:
#      x y z
#    x 4.491600 0.000000 0.387760 
#    y 0.000000 4.896910 0.000000 
#    z 0.387760 0.000000 5.516990 
# 
# 
# High freq. dielectric constant tensor:
#      x y z
#    x 1.982720 0.000000 0.000500 
#    y 0.000000 2.000420 0.000000 
#    z 0.000500 0.000000 2.014550 
# 
# From -- ./inp_files/30079.got.cif
#   From: 2010.06.25/outbox.cif.g09.slc.cpg/sg13_16_cif.got.tgz:30079.got - 2010.06.28 04:50:58.
