data_PCOD8121580
_publ_section_title
;
Structure prediction by ZEFSAII (Michael W. Deem and Ramdas Pophale) SiO2 
 PCOD8121580
Probable space group: P 2/C
;
_chemical_formula_sum "Si O2"
_cell_formula_units_Z 28
_cell_length_a 11.552849
_cell_length_b 13.781038
_cell_length_c 8.560807
_cell_angle_alpha 90.000000
_cell_angle_beta 119.883754
_cell_angle_gamma 90.000000
_cell_volume 1181.745329
_symmetry_space_group_name_H-M "P 2/C"
_symmetry_group_IT_number 13
_symmetry_cell_setting 'monoclinic'
loop_
_space_group_symop_operation_xyz
x,y,z
-x,y,1/2-z
-x,-y,-z
x,-y,1/2+z
loop_
_atom_site_type_symbol
_atom_site_label
_atom_site_fract_x
_atom_site_fract_y
_atom_site_fract_z
Si Si1 0.150655 0.070883 0.911597
Si Si2 0.381644 0.266805 0.560155
Si Si3 0.215876 0.616893 0.752676
Si Si4 0.189205 0.238443 0.706324
Si Si5 0.064990 0.813535 0.635728
Si Si6 0.151409 0.580972 0.360286
Si Si7 0.594477 0.061796 0.958735
O O1 0.219028 0.156078 0.855429
O O2 0.000000 0.042737 0.750000
O O3 0.145521 0.103148 0.092765
O O4 0.256670 0.981690 0.975845
O O5 0.500000 0.301330 0.750000
O O6 0.357637 0.360222 0.430959
O O7 0.267033 0.227069 0.598966
O O8 0.395510 0.170515 0.460803
O O9 0.145766 0.719025 0.743408
O O10 0.220240 0.588395 0.575476
O O11 0.149450 0.529188 0.801497
O O12 0.229057 0.344531 0.800882
O O13 0.034332 0.228835 0.560795
O O14 0.000000 0.859391 0.750000
O O15 0.000000 0.617670 0.250000
O O16 0.500000 0.079962 0.750000
O O17 0.500000 0.000000 0.000000
#
# Coordination Sequence:
#
# PCOD8121580 Si02
#       7
#     4   4   4   4   4   4   4
#     4  10  22  44  67 105 144 186 237 298 365 431
#     4  11  26  48  67  96 137 188 239 295 355 420
#     4  12  24  41  68 103 141 181 234 287 352 420
#     4  11  21  42  65  98 146 181 230 291 350 424
#     4  11  21  38  66 101 142 186 223 291 360 420
#     4  12  23  40  68 109 141 180 230 287 353 433
#     4  11  26  48  75 103 139 186 248 303 360 443
#
# _framework density 23.693770000000001
#
# number of rings (size 3 to 8) (size 9 to 14) (size 15 to 20)
#    0.000    0.857    4.286    3.857    2.000    0.000 
#    2.571    5.714    0.000    0.857    0.000    0.000 
#    0.000    0.000    0.000    0.000    0.000    0.000 
#
# Total GULP energy -346877.909059 kJ/mol
# GULP energy per Si atom -12388.496752 kJ/mol
# Density = 2.363984 g / cm^3
# Si number density = 23.693770 Si / 1000 Ang^3
#
#
#
# Elastic Constant Matrix: (Units=GPa)
#
#
# Indices 1 2 3 4 5 6 
#
# 1 56.1915 10.2091 23.2326 0.0000 1.9111 0.0000
# 2 10.2091 73.7001 38.9540 0.0000 5.3759 0.0000
# 3 23.2326 38.9540 120.2684 0.0000 -5.4668 0.0000
# 4 0.0000 0.0000 0.0000 12.9340 0.0000 4.4972
# 5 1.9111 5.3759 -5.4668 0.0000 44.2404 0.0000
# 6 0.0000 0.0000 0.0000 4.4972 0.0000 28.1305
#
#
#
# Elastic Compliance Matrix: (Units=1/GPa)
#
#
# Indices 1 2 3 4 5 6 
#
# 1 0.019447 -0.000715 -0.003579 0.000000 -0.001196 0.000000
# 2 -0.000715 0.016715 -0.005397 0.000000 -0.002667 0.000000
# 3 -0.003579 -0.005397 0.010852 0.000000 0.002151 0.000000
# 4 0.000000 0.000000 0.000000 0.081866 0.000000 -0.013088
# 5 -0.001196 -0.002667 0.002151 0.000000 0.023245 0.000000
# 6 0.000000 0.000000 0.000000 -0.013088 0.000000 0.037641
#
#
# Mechanical properties :
#
#
# Convention : Reuss Voigt Hill
#
# Bulk Modulus (GPa) = 36.19096 43.88350 40.03723
# Shear Modulus (GPa) = 22.89812 28.91193 25.90502
#
# Velocity S-wave (km/s) = 3.11210 3.49697 3.31014
# Velocity P-wave (km/s) = 5.31236 5.90478 5.61639
#
# Compressibility (1/GPa) = 0.02763121
#
# Stress axis : x y z
#
# Youngs Moduli (GPa) = 51.42256 59.82808 92.14895
#
# Poissons Ratio (x) = 0.04276 0.32984
# Poissons Ratio (y) = 0.03675 0.49732
# Poissons Ratio (z) = 0.18406 0.32289
#
# Static dielectric constant tensor:
#      x y z
#    x 4.266330 0.000000 0.279990 
#    y 0.000000 4.126510 0.000000 
#    z 0.279990 0.000000 4.837310 
# 
# 
# High freq. dielectric constant tensor:
#      x y z
#    x 1.909830 0.000000 -0.003050 
#    y 0.000000 1.950170 0.000000 
#    z -0.003050 0.000000 1.957660 
# 
# From -- ./inp_files/16846.got.cif
#   From: 2010.06.25/outbox.cif.g09.slc.cpg/sg13_9_cif.got.tgz:16846.got - 2010.06.28 04:50:58.
