data_PCOD8121423
_publ_section_title
;
Structure prediction by ZEFSAII (Michael W. Deem and Ramdas Pophale) SiO2 
 PCOD8121423
Probable space group: P 2/C
;
_chemical_formula_sum "Si O2"
_cell_formula_units_Z 20
_cell_length_a 10.933190
_cell_length_b 14.072865
_cell_length_c 16.770527
_cell_angle_alpha 90.000000
_cell_angle_beta 158.750995
_cell_angle_gamma 90.000000
_cell_volume 935.169865
_symmetry_space_group_name_H-M "P 2/C"
_symmetry_group_IT_number 13
_symmetry_cell_setting 'monoclinic'
loop_
_space_group_symop_operation_xyz
x,y,z
-x,y,1/2-z
-x,-y,-z
x,-y,1/2+z
loop_
_atom_site_type_symbol
_atom_site_label
_atom_site_fract_x
_atom_site_fract_y
_atom_site_fract_z
Si Si1 0.511006 0.235129 0.090557
Si Si2 0.773903 0.559769 0.716968
Si Si3 0.148075 0.239616 0.714212
Si Si4 0.156062 0.102792 0.087893
Si Si5 0.524186 0.581386 0.171769
O O1 0.706661 0.329706 0.186697
O O2 0.765583 0.155561 0.280456
O O3 0.354068 0.194092 0.913307
O O4 0.227036 0.265195 0.982478
O O5 0.500000 0.500000 0.500000
O O6 0.761497 0.509723 0.797226
O O7 0.151721 0.554928 0.911285
O O8 0.332365 0.331391 0.791874
O O9 0.122833 0.163009 0.628986
O O10 0.500000 0.092097 0.250000
O O11 0.000000 0.000000 0.000000
O O12 0.500000 0.606408 0.250000
#
# Coordination Sequence:
#
# PCOD8121423 Si02
#       5
#     4   4   4   4   4
#     4  10  22  42  68  91 130 174 216 270 329 392
#     4  12  24  39  62  93 134 175 222 267 325 390
#     4  10  22  42  66  94 129 173 220 268 328 396
#     4  10  23  43  67  97 128 167 217 277 339 395
#     4  12  25  40  62  94 132 175 224 273 327 391
#
# _framework density 21.386489000000001
#
# number of rings (size 3 to 8) (size 9 to 14) (size 15 to 20)
#    0.000    1.200    2.000    3.600    2.800    5.600 
#    0.000    0.000    0.000    0.000    0.000    0.000 
#    0.000    0.000    0.000    0.000    0.000    0.000 
#
# Total GULP energy -247921.362264 kJ/mol
# GULP energy per Si atom -12396.068113 kJ/mol
# Density = 2.133781 g / cm^3
# Si number density = 21.386489 Si / 1000 Ang^3
#
#
#
# Elastic Constant Matrix: (Units=GPa)
#
#
# Indices 1 2 3 4 5 6 
#
# 1 47.8259 17.3739 35.1916 0.0000 -8.4219 0.0000
# 2 17.3739 123.2815 62.9933 0.0000 0.3710 0.0000
# 3 35.1916 62.9933 110.8545 0.0000 -8.3227 0.0000
# 4 0.0000 0.0000 0.0000 40.8046 0.0000 3.6836
# 5 -8.4219 0.3710 -8.3227 0.0000 42.1237 0.0000
# 6 0.0000 0.0000 0.0000 3.6836 0.0000 33.5833
#
#
#
# Elastic Compliance Matrix: (Units=1/GPa)
#
#
# Indices 1 2 3 4 5 6 
#
# 1 0.027928 0.000615 -0.008929 0.000000 0.003814 0.000000
# 2 0.000615 0.011527 -0.006845 0.000000 -0.001331 0.000000
# 3 -0.008929 -0.006845 0.015851 0.000000 0.001407 0.000000
# 4 0.000000 0.000000 0.000000 0.024752 0.000000 -0.002715
# 5 0.003814 -0.001331 0.001407 0.000000 0.024792 0.000000
# 6 0.000000 0.000000 0.000000 -0.002715 0.000000 0.030074
#
#
# Mechanical properties :
#
#
# Convention : Reuss Voigt Hill
#
# Bulk Modulus (GPa) = 40.02108 57.00883 48.51495
# Shear Modulus (GPa) = 28.80676 34.39586 31.60131
#
# Velocity S-wave (km/s) = 3.67408 4.01471 3.84817
# Velocity P-wave (km/s) = 6.06237 6.94297 6.51756
#
# Compressibility (1/GPa) = 0.02498683
#
# Stress axis : x y z
#
# Youngs Moduli (GPa) = 35.80696 86.75646 63.08809
#
# Poissons Ratio (x) = -0.05338 0.56332
# Poissons Ratio (y) = -0.02203 0.43185
# Poissons Ratio (z) = 0.31972 0.59387
#
# Static dielectric constant tensor:
#      x y z
#    x 6.186570 0.000000 -0.647360 
#    y 0.000000 3.867120 0.000000 
#    z -0.647360 0.000000 4.370480 
# 
# 
# High freq. dielectric constant tensor:
#      x y z
#    x 1.853780 0.000000 -0.007300 
#    y 0.000000 1.820160 0.000000 
#    z -0.007300 0.000000 1.852690 
# 
# From -- ./inp_files/66882.got.cif
#   From: 2010.06.25/outbox.cif.g09.slc.cpg/sg13_34_cif.got.tgz:66882.got - 2010.06.28 04:50:58.
