data_PCOD8121512
_publ_section_title
;
Structure prediction by ZEFSAII (Michael W. Deem and Ramdas Pophale) SiO2 
 PCOD8121512
Probable space group: P 2/C
;
_chemical_formula_sum "Si O2"
_cell_formula_units_Z 20
_cell_length_a 10.801179
_cell_length_b 9.931651
_cell_length_c 9.911013
_cell_angle_alpha 90.000000
_cell_angle_beta 78.582244
_cell_angle_gamma 90.000000
_cell_volume 1042.148798
_symmetry_space_group_name_H-M "P 2/C"
_symmetry_group_IT_number 13
_symmetry_cell_setting 'monoclinic'
loop_
_space_group_symop_operation_xyz
x,y,z
-x,y,1/2-z
-x,-y,-z
x,-y,1/2+z
loop_
_atom_site_type_symbol
_atom_site_label
_atom_site_fract_x
_atom_site_fract_y
_atom_site_fract_z
Si Si1 0.250716 0.254011 0.978377
Si Si2 0.781398 0.759232 0.326490
Si Si3 0.081765 0.023343 0.113432
Si Si4 0.909295 0.494301 0.393085
Si Si5 0.489749 0.130065 0.596398
O O1 0.208742 0.272905 0.833404
O O2 0.401712 0.240004 0.958930
O O3 0.198895 0.116422 0.052178
O O4 0.197925 0.379815 0.073098
O O5 0.833661 0.633134 0.397574
O O6 0.639804 0.791810 0.404324
O O7 0.870755 0.883164 0.338820
O O8 0.000000 0.093117 0.250000
O O9 0.000000 0.000000 0.000000
O O10 0.000000 0.461334 0.250000
O O11 0.000000 0.500000 0.500000
O O12 0.500000 0.081476 0.750000
O O13 0.500000 0.000000 0.500000
#
# Coordination Sequence:
#
# PCOD8121512 Si02
#       5
#     4   4   4   4   4
#     4  11  23  42  65  94 127 168 213 262 319 373
#     4  11  23  43  64  92 133 164 208 273 314 369
#     4  12  22  36  63  91 126 165 209 261 319 374
#     4  12  24  44  67  91 134 173 210 263 321 381
#     4  10  22  43  67  93 128 167 212 267 316 371
#
# _framework density 19.191116000000001
#
# number of rings (size 3 to 8) (size 9 to 14) (size 15 to 20)
#    0.000    0.800    6.000    2.400    0.000    0.800 
#    3.600    0.000    0.000    0.000    0.000    0.000 
#    0.000    0.000    0.000    0.000    0.000    0.000 
#
# Total GULP energy -248069.013420 kJ/mol
# GULP energy per Si atom -12403.450671 kJ/mol
# Density = 1.914744 g / cm^3
# Si number density = 19.191116 Si / 1000 Ang^3
#
#
#
# Elastic Constant Matrix: (Units=GPa)
#
#
# Indices 1 2 3 4 5 6 
#
# 1 129.4519 47.6145 56.2361 0.0000 -11.6399 0.0000
# 2 47.6145 113.7452 33.7406 0.0000 -9.5265 0.0000
# 3 56.2361 33.7406 112.0629 0.0000 -9.8111 0.0000
# 4 0.0000 0.0000 0.0000 32.7213 0.0000 -5.2354
# 5 -11.6399 -9.5265 -9.8111 0.0000 33.7437 0.0000
# 6 0.0000 0.0000 0.0000 -5.2354 0.0000 35.8581
#
#
#
# Elastic Compliance Matrix: (Units=1/GPa)
#
#
# Indices 1 2 3 4 5 6 
#
# 1 0.010936 -0.003137 -0.004403 0.000000 0.001607 0.000000
# 2 -0.003137 0.010678 -0.001510 0.000000 0.001493 0.000000
# 3 -0.004403 -0.001510 0.011715 0.000000 0.001461 0.000000
# 4 0.000000 0.000000 0.000000 0.031292 0.000000 0.004569
# 5 0.001607 0.001493 0.001461 0.000000 0.031036 0.000000
# 6 0.000000 0.000000 0.000000 0.004569 0.000000 0.028555
#
#
# Mechanical properties :
#
#
# Convention : Reuss Voigt Hill
#
# Bulk Modulus (GPa) = 65.66166 70.04914 67.85540
# Shear Modulus (GPa) = 33.92408 34.97587 34.44998
#
# Velocity S-wave (km/s) = 4.20896 4.27371 4.24146
# Velocity P-wave (km/s) = 7.60982 7.80595 7.70851
#
# Compressibility (1/GPa) = 0.01522959
#
# Stress axis : x y z
#
# Youngs Moduli (GPa) = 91.44225 93.65217 85.35728
#
# Poissons Ratio (x) = 0.29381 0.37580
# Poissons Ratio (y) = 0.28688 0.12887
# Poissons Ratio (z) = 0.40259 0.14140
#
# Static dielectric constant tensor:
#      x y z
#    x 3.709820 0.000000 -0.186940 
#    y 0.000000 3.476880 0.000000 
#    z -0.186940 0.000000 3.718930 
# 
# 
# High freq. dielectric constant tensor:
#      x y z
#    x 1.763120 0.000000 -0.008600 
#    y 0.000000 1.741800 0.000000 
#    z -0.008600 0.000000 1.757190 
# 
# From -- ./inp_files/14828.got.cif
#   From: 2010.06.25/outbox.cif.g09.slc.cpg/sg13_8_cif.got.tgz:14828.got - 2010.06.28 04:50:58.
