data_PCOD8121135
_publ_section_title
;
Structure prediction by ZEFSAII (Michael W. Deem and Ramdas Pophale) SiO2 
 PCOD8121135
Probable space group: P 2/C
;
_chemical_formula_sum "Si O2"
_cell_formula_units_Z 28
_cell_length_a 15.308903
_cell_length_b 5.285070
_cell_length_c 19.867071
_cell_angle_alpha 90.000000
_cell_angle_beta 130.975346
_cell_angle_gamma 90.000000
_cell_volume 1213.586952
_symmetry_space_group_name_H-M "P 2/C"
_symmetry_group_IT_number 13
_symmetry_cell_setting 'monoclinic'
loop_
_space_group_symop_operation_xyz
x,y,z
-x,y,1/2-z
-x,-y,-z
x,-y,1/2+z
loop_
_atom_site_type_symbol
_atom_site_label
_atom_site_fract_x
_atom_site_fract_y
_atom_site_fract_z
Si Si1 0.000000 0.928554 0.750000
Si Si2 0.702758 0.287631 0.929001
Si Si3 0.251388 0.372531 0.787194
Si Si4 0.997111 0.292798 0.872822
Si Si5 0.178854 0.206978 0.063457
Si Si6 0.500000 0.070258 0.750000
Si Si7 0.685338 0.867070 0.745902
Si Si8 0.813500 0.576674 0.612161
O O1 0.005383 0.072712 0.682899
O O2 0.877941 0.780619 0.691585
O O3 0.756444 0.526482 0.917008
O O4 0.572585 0.252715 0.836248
O O5 0.768279 0.022889 0.952409
O O6 0.706017 0.331488 0.011878
O O7 0.329811 0.614664 0.806501
O O8 0.230888 0.364783 0.857673
O O9 0.131463 0.402017 0.684911
O O10 0.316147 0.114004 0.801779
O O11 0.087791 0.494461 0.890162
O O12 0.044344 0.218560 0.971252
O O13 0.193711 0.144144 0.150274
O O14 0.581297 0.886746 0.746884
#
# Coordination Sequence:
#
# PCOD8121135 Si02
#       8
#     2   4   4   4   4   2   4   4
#     4  12  16  36  62  92 136 178 206 228 318 378
#     4  10  22  39  71  93 119 164 228 271 309 387
#     4  12  24  39  62 100 136 166 208 263 320 387
#     4  11  22  35  64  93 137 179 204 249 315 394
#     4  10  22  40  61  97 125 168 223 257 312 387
#     4  10  24  52  70  86 118 174 228 282 338 364
#     4  11  26  42  65  90 125 170 221 278 321 371
#     4  11  22  37  62 101 133 173 208 249 317 399
#
# _framework density 23.072099999999999
#
# number of rings (size 3 to 8) (size 9 to 14) (size 15 to 20)
#    0.000    1.143    4.286    2.571    0.000    6.286 
#    0.000    1.429    0.000    0.000    0.000    0.000 
#    0.000    0.000    0.000    0.000    0.000    0.000 
#
# Total GULP energy -347023.068605 kJ/mol
# GULP energy per Si atom -12393.681022 kJ/mol
# Density = 2.301959 g / cm^3
# Si number density = 23.072100 Si / 1000 Ang^3
#
#
#
# Elastic Constant Matrix: (Units=GPa)
#
#
# Indices 1 2 3 4 5 6 
#
# 1 61.3861 27.9662 -7.0794 0.0000 3.1504 0.0000
# 2 27.9662 116.4884 13.0145 0.0000 4.8859 0.0000
# 3 -7.0794 13.0145 107.7994 0.0000 10.8449 0.0000
# 4 0.0000 0.0000 0.0000 75.2567 0.0000 -16.8170
# 5 3.1504 4.8859 10.8449 0.0000 21.1708 0.0000
# 6 0.0000 0.0000 0.0000 -16.8170 0.0000 26.9103
#
#
#
# Elastic Compliance Matrix: (Units=1/GPa)
#
#
# Indices 1 2 3 4 5 6 
#
# 1 0.018778 -0.004623 0.002072 0.000000 -0.002789 0.000000
# 2 -0.004623 0.009888 -0.001410 0.000000 -0.000872 0.000000
# 3 0.002072 -0.001410 0.010102 0.000000 -0.005158 0.000000
# 4 0.000000 0.000000 0.000000 0.015445 0.000000 0.009652
# 5 -0.002789 -0.000872 -0.005158 0.000000 0.050493 0.000000
# 6 0.000000 0.000000 0.000000 0.009652 0.000000 0.043192
#
#
# Mechanical properties :
#
#
# Convention : Reuss Voigt Hill
#
# Bulk Modulus (GPa) = 32.41768 39.27517 35.84643
# Shear Modulus (GPa) = 30.10198 41.45239 35.77718
#
# Velocity S-wave (km/s) = 3.61597 4.24328 3.94213
# Velocity P-wave (km/s) = 5.61380 6.40836 6.02419
#
# Compressibility (1/GPa) = 0.03084736
#
# Stress axis : x y z
#
# Youngs Moduli (GPa) = 53.25253 101.12814 98.99404
#
# Poissons Ratio (x) = 0.46749 -0.20510
# Poissons Ratio (y) = 0.24618 0.13955
# Poissons Ratio (z) = -0.11033 0.14256
#
# Static dielectric constant tensor:
#      x y z
#    x 3.993630 0.000000 -0.096220 
#    y 0.000000 4.228700 0.000000 
#    z -0.096220 0.000000 4.720090 
# 
# 
# High freq. dielectric constant tensor:
#      x y z
#    x 1.878050 0.000000 -0.017760 
#    y 0.000000 1.923410 0.000000 
#    z -0.017760 0.000000 1.913730 
# 
# From -- ./inp_files/79378.got.cif
#   From: 2010.06.25/outbox.cif.g09.slc.cpg/sg13_40_cif.got.tgz:79378.got - 2010.06.28 04:50:58.
