data_PCOD8121354
_publ_section_title
;
Structure prediction by ZEFSAII (Michael W. Deem and Ramdas Pophale) SiO2 
 PCOD8121354
Probable space group: P 2/C
;
_chemical_formula_sum "Si O2"
_cell_formula_units_Z 24
_cell_length_a 9.415550
_cell_length_b 7.034415
_cell_length_c 15.720249
_cell_angle_alpha 90.000000
_cell_angle_beta 71.365836
_cell_angle_gamma 90.000000
_cell_volume 986.615865
_symmetry_space_group_name_H-M "P 2/C"
_symmetry_group_IT_number 13
_symmetry_cell_setting 'monoclinic'
loop_
_space_group_symop_operation_xyz
x,y,z
-x,y,1/2-z
-x,-y,-z
x,-y,1/2+z
loop_
_atom_site_type_symbol
_atom_site_label
_atom_site_fract_x
_atom_site_fract_y
_atom_site_fract_z
Si Si1 0.124716 0.732417 0.988899
Si Si2 0.839268 0.374294 0.822894
Si Si3 0.332609 0.142876 0.777721
Si Si4 0.388947 0.267167 0.333720
Si Si5 0.397690 0.351729 0.070868
Si Si6 0.192067 0.176243 0.974613
O O1 0.139286 0.665837 0.081993
O O2 0.958824 0.698394 0.982105
O O3 0.242318 0.627248 0.901639
O O4 0.160151 0.954407 0.980153
O O5 0.759628 0.196465 0.790040
O O6 0.723104 0.550170 0.841796
O O7 0.000000 0.423643 0.750000
O O8 0.500000 0.226091 0.750000
O O9 0.248920 0.241731 0.871909
O O10 0.337443 0.914983 0.788723
O O11 0.500000 0.391217 0.250000
O O12 0.492706 0.215367 0.395612
O O13 0.500000 0.500000 0.000000
O O14 0.312622 0.215494 0.022982
#
# Coordination Sequence:
#
# PCOD8121354 Si02
#       6
#     4   4   4   4   4   4
#     4  10  22  45  71  99 136 180 237 280 329 402
#     4  12  25  45  69 103 140 179 222 285 350 408
#     4  10  22  41  69 102 132 180 234 278 327 401
#     4  10  24  44  68 101 133 182 232 278 333 401
#     4  12  26  44  67 104 145 181 220 282 353 411
#     4  10  23  42  70 101 135 187 227 280 336 404
#
# _framework density 24.325576999999999
#
# number of rings (size 3 to 8) (size 9 to 14) (size 15 to 20)
#    0.000    1.333    3.333    1.000    4.667    5.333 
#    0.000    0.833    0.000    0.000    0.000    0.000 
#    0.000    0.000    0.000    0.000    0.000    0.000 
#
# Total GULP energy -297357.652679 kJ/mol
# GULP energy per Si atom -12389.902195 kJ/mol
# Density = 2.427021 g / cm^3
# Si number density = 24.325577 Si / 1000 Ang^3
#
#
#
# Elastic Constant Matrix: (Units=GPa)
#
#
# Indices 1 2 3 4 5 6 
#
# 1 120.1269 -4.6100 30.3492 0.0000 -32.7388 0.0000
# 2 -4.6100 24.5996 0.4512 0.0000 -0.0760 0.0000
# 3 30.3492 0.4512 119.2491 0.0000 -45.7438 0.0000
# 4 0.0000 0.0000 0.0000 4.8540 0.0000 11.0635
# 5 -32.7388 -0.0760 -45.7438 0.0000 65.6459 0.0000
# 6 0.0000 0.0000 0.0000 11.0635 0.0000 30.6203
#
#
#
# Elastic Compliance Matrix: (Units=1/GPa)
#
#
# Indices 1 2 3 4 5 6 
#
# 1 0.009779 0.001861 -0.000852 0.000000 0.004286 0.000000
# 2 0.001861 0.041009 -0.000347 0.000000 0.000734 0.000000
# 3 -0.000852 -0.000347 0.011520 0.000000 0.007602 0.000000
# 4 0.000000 0.000000 0.000000 1.167382 0.000000 -0.421788
# 5 0.004286 0.000734 0.007602 0.000000 0.022669 0.000000
# 6 0.000000 0.000000 0.000000 -0.421788 0.000000 0.185055
#
#
# Mechanical properties :
#
#
# Convention : Reuss Voigt Hill
#
# Bulk Modulus (GPa) = 15.71537 35.15073 25.43305
# Shear Modulus (GPa) = 3.43100 36.07637 19.75369
#
# Velocity S-wave (km/s) = 1.18891 3.85523 2.85275
# Velocity P-wave (km/s) = 2.89122 5.85650 4.61832
#
# Compressibility (1/GPa) = 0.06363197
#
# Stress axis : x y z
#
# Youngs Moduli (GPa) = 102.25825 24.38516 86.80425
#
# Poissons Ratio (x) = -0.04539 0.07395
# Poissons Ratio (y) = -0.19035 0.03016
# Poissons Ratio (z) = 0.08712 0.00847
#
# Static dielectric constant tensor:
#      x y z
#    x 5.100020 0.000000 -0.572620 
#    y 0.000000 3.982510 0.000000 
#    z -0.572620 0.000000 4.929970 
# 
# 
# High freq. dielectric constant tensor:
#      x y z
#    x 1.992210 0.000000 -0.013690 
#    y 0.000000 1.939940 0.000000 
#    z -0.013690 0.000000 1.982300 
# 
# From -- ./inp_files/46034.got.cif
#   From: 2010.06.25/outbox.cif.g09.slc.cpg/sg13_24_cif.got.tgz:46034.got - 2010.06.28 04:50:58.
