data_PCOD8121262
_publ_section_title
;
Structure prediction by ZEFSAII (Michael W. Deem and Ramdas Pophale) SiO2 
 PCOD8121262
Probable space group: P 2/C
;
_chemical_formula_sum "Si O2"
_cell_formula_units_Z 24
_cell_length_a 14.392461
_cell_length_b 12.250529
_cell_length_c 19.140821
_cell_angle_alpha 90.000000
_cell_angle_beta 159.235520
_cell_angle_gamma 90.000000
_cell_volume 1196.465608
_symmetry_space_group_name_H-M "P 2/C"
_symmetry_group_IT_number 13
_symmetry_cell_setting 'monoclinic'
loop_
_space_group_symop_operation_xyz
x,y,z
-x,y,1/2-z
-x,-y,-z
x,-y,1/2+z
loop_
_atom_site_type_symbol
_atom_site_label
_atom_site_fract_x
_atom_site_fract_y
_atom_site_fract_z
Si Si1 0.000000 0.119629 0.750000
Si Si2 0.000000 0.492607 0.750000
Si Si3 0.905758 0.775461 0.856888
Si Si4 0.754980 0.763374 0.277757
Si Si5 0.216731 0.014277 0.769309
Si Si6 0.659656 0.698462 0.059299
Si Si7 0.314701 0.659794 0.058533
O O1 0.013305 0.045984 0.689040
O O2 0.250560 0.201836 0.928206
O O3 0.754034 0.419430 0.600795
O O4 0.878952 0.565447 0.603667
O O5 0.653889 0.703810 0.658399
O O6 0.864456 0.904684 0.826913
O O7 0.001606 0.734518 0.000579
O O8 0.134475 0.755499 0.962116
O O9 0.753454 0.894192 0.269296
O O10 0.796141 0.712431 0.230599
O O11 0.482016 0.715787 0.114888
O O12 0.500000 0.000000 0.000000
O O13 0.500000 0.611115 0.250000
#
# Coordination Sequence:
#
# PCOD8121262 Si02
#       7
#     2   2   4   4   4   4   4
#     4   9  20  37  56  86 122 151 194 245 276 342
#     4  11  24  41  66  82 116 157 198 247 314 338
#     4  11  22  38  62  87 122 158 191 242 293 349
#     4  10  22  41  58  89 123 154 197 238 292 352
#     4  11  21  36  62  88 123 159 197 233 286 353
#     4  10  22  41  59  86 115 156 202 244 292 350
#     4  10  24  40  60  91 119 149 198 248 291 352
#
# _framework density 20.059082
#
# number of rings (size 3 to 8) (size 9 to 14) (size 15 to 20)
#    0.000    1.667    3.333    1.500    2.333    4.000 
#    0.000   10.000    0.000    0.000    0.000    0.000 
#    0.000    0.000    0.000    0.000    0.000    0.000 
#
# Total GULP energy -297524.177859 kJ/mol
# GULP energy per Si atom -12396.840744 kJ/mol
# Density = 2.001343 g / cm^3
# Si number density = 20.059082 Si / 1000 Ang^3
#
#
#
# Elastic Constant Matrix: (Units=GPa)
#
#
# Indices 1 2 3 4 5 6 
#
# 1 88.4317 28.2470 35.1575 0.0000 -2.7898 0.0000
# 2 28.2470 92.5600 32.2990 0.0000 -6.9238 0.0000
# 3 35.1575 32.2990 97.2992 0.0000 -11.0345 0.0000
# 4 0.0000 0.0000 0.0000 28.3981 0.0000 8.5415
# 5 -2.7898 -6.9238 -11.0345 0.0000 28.2623 0.0000
# 6 0.0000 0.0000 0.0000 8.5415 0.0000 14.0946
#
#
#
# Elastic Compliance Matrix: (Units=1/GPa)
#
#
# Indices 1 2 3 4 5 6 
#
# 1 0.013842 -0.002842 -0.004167 0.000000 -0.000957 0.000000
# 2 -0.002842 0.012862 -0.003052 0.000000 0.001679 0.000000
# 3 -0.004167 -0.003052 0.013252 0.000000 0.004015 0.000000
# 4 0.000000 0.000000 0.000000 0.043063 0.000000 -0.026096
# 5 -0.000957 0.001679 0.004015 0.000000 0.037267 0.000000
# 6 0.000000 0.000000 0.000000 -0.026096 0.000000 0.086764
#
#
# Mechanical properties :
#
#
# Convention : Reuss Voigt Hill
#
# Bulk Modulus (GPa) = 50.41889 52.18865 51.30377
# Shear Modulus (GPa) = 21.38739 26.32351 23.85545
#
# Velocity S-wave (km/s) = 3.26884 3.62650 3.45231
# Velocity P-wave (km/s) = 6.27988 6.60373 6.44384
#
# Compressibility (1/GPa) = 0.01983384
#
# Stress axis : x y z
#
# Youngs Moduli (GPa) = 72.24222 77.75004 75.46185
#
# Poissons Ratio (x) = 0.22095 0.31444
# Poissons Ratio (y) = 0.20530 0.23033
# Poissons Ratio (z) = 0.30102 0.23732
#
# Static dielectric constant tensor:
#      x y z
#    x 3.074060 0.000000 0.331870 
#    y 0.000000 4.651730 0.000000 
#    z 0.331870 0.000000 3.643240 
# 
# 
# High freq. dielectric constant tensor:
#      x y z
#    x 1.786030 0.000000 0.004160 
#    y 0.000000 1.781520 0.000000 
#    z 0.004160 0.000000 1.781720 
# 
# From -- ./inp_files/37358.got.cif
#   From: 2010.06.25/outbox.cif.g09.slc.cpg/sg13_19_cif.got.tgz:37358.got - 2010.06.28 04:50:58.
