data_PCOD8121629
_publ_section_title
;
Structure prediction by ZEFSAII (Michael W. Deem and Ramdas Pophale) SiO2 
 PCOD8121629
Probable space group: P 2/C
;
_chemical_formula_sum "Si O2"
_cell_formula_units_Z 26
_cell_length_a 21.633422
_cell_length_b 8.115583
_cell_length_c 9.029942
_cell_angle_alpha 90.000000
_cell_angle_beta 133.131705
_cell_angle_gamma 90.000000
_cell_volume 1156.975830
_symmetry_space_group_name_H-M "P 2/C"
_symmetry_group_IT_number 13
_symmetry_cell_setting 'monoclinic'
loop_
_space_group_symop_operation_xyz
x,y,z
-x,y,1/2-z
-x,-y,-z
x,-y,1/2+z
loop_
_atom_site_type_symbol
_atom_site_label
_atom_site_fract_x
_atom_site_fract_y
_atom_site_fract_z
Si Si1 0.941856 0.842627 0.927582
Si Si2 0.595514 0.781628 0.916569
Si Si3 0.148342 0.615923 0.936259
Si Si4 0.000000 0.610708 0.250000
Si Si5 0.761131 0.180961 0.237454
Si Si6 0.665072 0.958920 0.309000
Si Si7 0.256807 0.539332 0.356112
O O1 0.903868 0.770665 0.712729
O O2 0.861061 0.865166 0.904466
O O3 0.006436 0.715978 0.110063
O O4 0.000000 0.000000 0.000000
O O5 0.500000 0.716283 0.750000
O O6 0.604776 0.934070 0.817651
O O7 0.612376 0.839249 0.113967
O O8 0.653989 0.627016 0.962123
O O9 0.083513 0.494292 0.907872
O O10 0.202094 0.509209 0.907957
O O11 0.208946 0.673193 0.171103
O O12 0.736041 0.370825 0.228489
O O13 0.721346 0.078510 0.303005
O O14 0.726670 0.147083 0.014499
#
# Coordination Sequence:
#
# PCOD8121629 Si02
#       7
#     4   4   4   2   4   4   4
#     4  11  26  40  63  97 133 167 228 280 322 374
#     4  11  23  42  69 102 130 171 221 272 328 394
#     4  11  23  46  65  91 131 180 213 268 335 393
#     4  12  24  44  62  94 128 174 226 266 330 378
#     4  10  22  45  64  96 129 179 220 264 327 399
#     4  10  23  42  67  92 138 176 211 265 336 391
#     4  11  23  43  72  93 134 173 222 265 334 393
#
# _framework density 22.472379
#
# number of rings (size 3 to 8) (size 9 to 14) (size 15 to 20)
#    0.000    1.231    3.077    3.692    2.154    1.846 
#    2.769   10.000    0.000    0.000    0.000    0.000 
#    0.000    0.000    0.000    0.000    0.000    0.000 
#
# Total GULP energy -322276.321808 kJ/mol
# GULP energy per Si atom -12395.243146 kJ/mol
# Density = 2.242123 g / cm^3
# Si number density = 22.472379 Si / 1000 Ang^3
#
#
#
# Elastic Constant Matrix: (Units=GPa)
#
#
# Indices 1 2 3 4 5 6 
#
# 1 78.4613 36.5738 47.9739 0.0000 11.0584 0.0000
# 2 36.5738 97.8867 36.8124 0.0000 16.5661 0.0000
# 3 47.9739 36.8124 106.0641 0.0000 11.7972 0.0000
# 4 0.0000 0.0000 0.0000 35.7522 0.0000 4.7824
# 5 11.0584 16.5661 11.7972 0.0000 40.4062 0.0000
# 6 0.0000 0.0000 0.0000 4.7824 0.0000 30.5932
#
#
#
# Elastic Compliance Matrix: (Units=1/GPa)
#
#
# Indices 1 2 3 4 5 6 
#
# 1 0.019272 -0.004299 -0.007064 0.000000 -0.001450 0.000000
# 2 -0.004299 0.013285 -0.002265 0.000000 -0.003609 0.000000
# 3 -0.007064 -0.002265 0.013530 0.000000 -0.001089 0.000000
# 4 0.000000 0.000000 0.000000 0.028568 0.000000 -0.004466
# 5 -0.001450 -0.003609 -0.001089 0.000000 0.026943 0.000000
# 6 0.000000 0.000000 0.000000 -0.004466 0.000000 0.033385
#
#
# Mechanical properties :
#
#
# Convention : Reuss Voigt Hill
#
# Bulk Modulus (GPa) = 53.10085 58.34802 55.72444
# Shear Modulus (GPa) = 29.67078 32.08711 30.87894
#
# Velocity S-wave (km/s) = 3.63757 3.78279 3.71089
# Velocity P-wave (km/s) = 6.42831 6.71565 6.57355
#
# Compressibility (1/GPa) = 0.01883209
#
# Stress axis : x y z
#
# Youngs Moduli (GPa) = 51.88760 75.27486 73.90718
#
# Poissons Ratio (x) = 0.32361 0.52207
# Poissons Ratio (y) = 0.22307 0.16739
# Poissons Ratio (z) = 0.36652 0.17049
#
# Static dielectric constant tensor:
#      x y z
#    x 3.943430 0.000000 -0.087130 
#    y 0.000000 4.053210 0.000000 
#    z -0.087130 0.000000 4.249590 
# 
# 
# High freq. dielectric constant tensor:
#      x y z
#    x 1.880540 0.000000 -0.008720 
#    y 0.000000 1.880550 0.000000 
#    z -0.008720 0.000000 1.898350 
# 
# From -- ./inp_files/23013.got.cif
#   From: 2010.06.25/outbox.cif.g09.slc.cpg/sg13_12_cif.got.tgz:23013.got - 2010.06.28 04:50:58.
