data_PCOD8121017
_publ_section_title
;
Structure prediction by ZEFSAII (Michael W. Deem and Ramdas Pophale) SiO2 
 PCOD8121017
Probable space group: P 2/C
;
_chemical_formula_sum "Si O2"
_cell_formula_units_Z 30
_cell_length_a 12.182541
_cell_length_b 8.296446
_cell_length_c 14.158433
_cell_angle_alpha 90.000000
_cell_angle_beta 105.641355
_cell_angle_gamma 90.000000
_cell_volume 1378.025058
_symmetry_space_group_name_H-M "P 2/C"
_symmetry_group_IT_number 13
_symmetry_cell_setting 'monoclinic'
loop_
_space_group_symop_operation_xyz
x,y,z
-x,y,1/2-z
-x,-y,-z
x,-y,1/2+z
loop_
_atom_site_type_symbol
_atom_site_label
_atom_site_fract_x
_atom_site_fract_y
_atom_site_fract_z
Si Si1 0.500000 0.220768 0.750000
Si Si2 0.264796 0.131958 0.954721
Si Si3 0.424669 0.403089 0.908673
Si Si4 0.210047 0.561064 0.779100
Si Si5 0.864054 0.925123 0.730819
Si Si6 0.091143 0.388392 0.908653
Si Si7 0.152063 0.610175 0.087927
Si Si8 0.723529 0.930607 0.362507
O O1 0.502294 0.336249 0.841963
O O2 0.389331 0.105176 0.725107
O O3 0.365095 0.246764 0.940531
O O4 0.161013 0.240203 0.967320
O O5 0.213439 0.015639 0.863318
O O6 0.312480 0.034947 0.055252
O O7 0.335622 0.536112 0.850373
O O8 0.500000 0.500000 0.000000
O O9 0.160537 0.736770 0.785586
O O10 0.126763 0.431021 0.810045
O O11 0.215737 0.521080 0.668720
O O12 0.000000 0.958626 0.750000
O O13 0.821050 0.982972 0.823357
O O14 0.960502 0.337656 0.881359
O O15 0.118365 0.544648 0.978099
O O16 0.230150 0.762586 0.087395
#
# Coordination Sequence:
#
# PCOD8121017 Si02
#       8
#     2   4   4   4   4   4   4   4
#     4  12  26  50  74 100 138 186 238 292 368 410
#     4  11  25  44  66 104 139 180 240 290 372 426
#     4  11  27  47  76 102 135 187 244 306 352 424
#     4  11  23  42  66 100 133 181 233 287 353 418
#     4  12  25  43  68 107 149 188 233 296 367 438
#     4  10  22  38  64  94 134 176 229 278 343 425
#     4  11  21  40  63  96 132 182 226 280 341 420
#     4  12  26  43  71  99 143 185 238 300 362 431
#
# _framework density 21.770288000000001
#
# number of rings (size 3 to 8) (size 9 to 14) (size 15 to 20)
#    0.000    0.800    2.667    4.400    5.600    6.933 
#    0.000    0.000    0.000    0.000    0.000    0.000 
#    0.000    0.000    0.000    0.000    0.000    0.000 
#
# Total GULP energy -372027.363806 kJ/mol
# GULP energy per Si atom -12400.912127 kJ/mol
# Density = 2.172074 g / cm^3
# Si number density = 21.770288 Si / 1000 Ang^3
#
#
#
# Elastic Constant Matrix: (Units=GPa)
#
#
# Indices 1 2 3 4 5 6 
#
# 1 94.3252 40.8444 42.2445 0.0000 6.3062 0.0000
# 2 40.8444 105.1326 37.8528 0.0000 3.9478 0.0000
# 3 42.2445 37.8528 108.3295 0.0000 -3.9292 0.0000
# 4 0.0000 0.0000 0.0000 32.8179 0.0000 -0.4874
# 5 6.3062 3.9478 -3.9292 0.0000 31.7564 0.0000
# 6 0.0000 0.0000 0.0000 -0.4874 0.0000 31.5720
#
#
#
# Elastic Compliance Matrix: (Units=1/GPa)
#
#
# Indices 1 2 3 4 5 6 
#
# 1 0.014457 -0.003934 -0.004369 0.000000 -0.002922 0.000000
# 2 -0.003934 0.012058 -0.002718 0.000000 -0.001054 0.000000
# 3 -0.004369 -0.002718 0.011982 0.000000 0.002688 0.000000
# 4 0.000000 0.000000 0.000000 0.030478 0.000000 0.000470
# 5 -0.002922 -0.001054 0.002688 0.000000 0.032534 0.000000
# 6 0.000000 0.000000 0.000000 0.000470 0.000000 0.031681
#
#
# Mechanical properties :
#
#
# Convention : Reuss Voigt Hill
#
# Bulk Modulus (GPa) = 60.76758 61.07453 60.92105
# Shear Modulus (GPa) = 31.11064 31.68562 31.39813
#
# Velocity S-wave (km/s) = 3.78437 3.81918 3.80181
# Velocity P-wave (km/s) = 6.86068 6.89660 6.87866
#
# Compressibility (1/GPa) = 0.01645614
#
# Stress axis : x y z
#
# Youngs Moduli (GPa) = 69.16964 82.93148 83.45846
#
# Poissons Ratio (x) = 0.32624 0.36465
# Poissons Ratio (y) = 0.27210 0.22680
# Poissons Ratio (z) = 0.30222 0.22537
#
# Static dielectric constant tensor:
#      x y z
#    x 4.126390 0.000000 -0.020240 
#    y 0.000000 3.968600 0.000000 
#    z -0.020240 0.000000 3.957720 
# 
# 
# High freq. dielectric constant tensor:
#      x y z
#    x 1.858530 0.000000 -0.001440 
#    y 0.000000 1.857220 0.000000 
#    z -0.001440 0.000000 1.865620 
# 
# From -- ./inp_files/50125.got.cif
#   From: 2010.06.25/outbox.cif.g09.slc.cpg/sg13_26_cif.got.tgz:50125.got - 2010.06.28 04:50:58.
