data_PCOD8121312
_publ_section_title
;
Structure prediction by ZEFSAII (Michael W. Deem and Ramdas Pophale) SiO2 
 PCOD8121312
Probable space group: P 2/C
;
_chemical_formula_sum "Si O2"
_cell_formula_units_Z 24
_cell_length_a 22.545734
_cell_length_b 10.429500
_cell_length_c 22.247197
_cell_angle_alpha 90.000000
_cell_angle_beta 12.614679
_cell_angle_gamma 90.000000
_cell_volume 1142.463677
_symmetry_space_group_name_H-M "P 2/C"
_symmetry_group_IT_number 13
_symmetry_cell_setting 'monoclinic'
loop_
_space_group_symop_operation_xyz
x,y,z
-x,y,1/2-z
-x,-y,-z
x,-y,1/2+z
loop_
_atom_site_type_symbol
_atom_site_label
_atom_site_fract_x
_atom_site_fract_y
_atom_site_fract_z
Si Si1 0.531752 0.270618 0.377951
Si Si2 0.133806 0.179417 0.956426
Si Si3 0.234150 0.628011 0.975695
Si Si4 0.222863 0.338924 0.986834
Si Si5 0.401803 0.990028 0.529442
Si Si6 0.057577 0.643560 0.421157
O O1 0.682955 0.294272 0.165463
O O2 0.773810 0.287137 0.186331
O O3 0.380577 0.133769 0.525026
O O4 0.280089 0.364351 0.646419
O O5 0.175626 0.268043 0.971766
O O6 0.367625 0.077953 0.736154
O O7 0.864710 0.094716 0.216534
O O8 0.184001 0.269380 0.848811
O O9 0.500000 0.615990 0.750000
O O10 0.146287 0.484806 0.044815
O O11 0.000000 0.692800 0.250000
O O12 0.500000 0.321395 0.750000
O O13 0.000000 0.277565 0.250000
O O14 0.500000 0.000000 0.500000
O O15 0.000000 0.500000 0.500000
#
# Coordination Sequence:
#
# PCOD8121312 Si02
#       6
#     4   4   4   4   4   4
#     4  12  24  41  64  95 130 169 221 261 325 392
#     4  12  23  41  65  94 128 170 219 258 326 384
#     4  10  22  42  66  92 127 169 213 269 333 388
#     4  10  22  41  65  92 126 166 211 267 326 382
#     4  12  23  42  64  92 133 179 211 257 320 392
#     4  12  24  38  63  98 132 163 210 279 329 385
#
# _framework density 21.007232999999999
#
# number of rings (size 3 to 8) (size 9 to 14) (size 15 to 20)
#    0.000    0.667    3.333    5.000    0.000    4.000 
#    0.000    3.333    0.000    0.000    0.000    0.000 
#    0.000    0.000    0.000    0.000    0.000    0.000 
#
# Total GULP energy -297351.588466 kJ/mol
# GULP energy per Si atom -12389.649519 kJ/mol
# Density = 2.095942 g / cm^3
# Si number density = 21.007233 Si / 1000 Ang^3
#
#
#
# Elastic Constant Matrix: (Units=GPa)
#
#
# Indices 1 2 3 4 5 6 
#
# 1 88.9984 48.3675 28.9391 0.0000 18.5096 0.0000
# 2 48.3675 105.8804 39.9789 0.0000 14.5323 0.0000
# 3 28.9391 39.9789 143.5047 0.0000 22.8106 0.0000
# 4 0.0000 0.0000 0.0000 34.7037 0.0000 -7.3756
# 5 18.5096 14.5323 22.8106 0.0000 44.4365 0.0000
# 6 0.0000 0.0000 0.0000 -7.3756 0.0000 29.8015
#
#
#
# Elastic Compliance Matrix: (Units=1/GPa)
#
#
# Indices 1 2 3 4 5 6 
#
# 1 0.015797 -0.006366 -0.000759 0.000000 -0.004109 0.000000
# 2 -0.006366 0.013306 -0.002344 0.000000 -0.000497 0.000000
# 3 -0.000759 -0.002344 0.008278 0.000000 -0.003166 0.000000
# 4 0.000000 0.000000 0.000000 0.030415 0.000000 0.007528
# 5 -0.004109 -0.000497 -0.003166 0.000000 0.026003 0.000000
# 6 0.000000 0.000000 0.000000 0.007528 0.000000 0.035418
#
#
# Mechanical properties :
#
#
# Convention : Reuss Voigt Hill
#
# Bulk Modulus (GPa) = 54.22224 63.66161 58.94192
# Shear Modulus (GPa) = 32.40368 36.52820 34.46594
#
# Velocity S-wave (km/s) = 3.93173 4.17446 4.05491
# Velocity P-wave (km/s) = 6.81752 7.32156 7.07403
#
# Compressibility (1/GPa) = 0.01844262
#
# Stress axis : x y z
#
# Youngs Moduli (GPa) = 63.30293 75.15477 120.80371
#
# Poissons Ratio (x) = 0.47842 0.09170
# Poissons Ratio (y) = 0.40297 0.28319
# Poissons Ratio (z) = 0.04805 0.17618
#
# Static dielectric constant tensor:
#      x y z
#    x 3.833330 0.000000 0.016870 
#    y 0.000000 4.502900 0.000000 
#    z 0.016870 0.000000 4.200660 
# 
# 
# High freq. dielectric constant tensor:
#      x y z
#    x 1.822390 0.000000 0.002770 
#    y 0.000000 1.821010 0.000000 
#    z 0.002770 0.000000 1.847400 
# 
# From -- ./inp_files/89087.got.cif
#   From: 2010.06.25/outbox.cif.g09.slc.cpg/sg13_45_cif.got.tgz:89087.got - 2010.06.28 04:50:58.
