data_PCOD8121245
_publ_section_title
;
Structure prediction by ZEFSAII (Michael W. Deem and Ramdas Pophale) SiO2 
 PCOD8121245
Probable space group: P 2/C
;
_chemical_formula_sum "Si O2"
_cell_formula_units_Z 16
_cell_length_a 8.764430
_cell_length_b 6.214330
_cell_length_c 19.662820
_cell_angle_alpha 90.000000
_cell_angle_beta 39.449234
_cell_angle_gamma 90.000000
_cell_volume 680.467044
_symmetry_space_group_name_H-M "P 2/C"
_symmetry_group_IT_number 13
_symmetry_cell_setting 'monoclinic'
loop_
_space_group_symop_operation_xyz
x,y,z
-x,y,1/2-z
-x,-y,-z
x,-y,1/2+z
loop_
_atom_site_type_symbol
_atom_site_label
_atom_site_fract_x
_atom_site_fract_y
_atom_site_fract_z
Si Si1 0.742700 0.495129 0.959748
Si Si2 0.774321 0.844041 0.565139
Si Si3 0.467430 0.220859 0.643984
Si Si4 0.000000 0.632687 0.250000
Si Si5 0.500000 0.539960 0.750000
O O1 0.958846 0.517449 0.830843
O O2 0.500000 0.500000 0.000000
O O3 0.791732 0.278848 0.987107
O O4 0.711473 0.696289 0.021713
O O5 0.727584 0.677413 0.643202
O O6 0.529411 0.984797 0.649058
O O7 0.000000 0.000000 0.500000
O O8 0.395193 0.387361 0.727763
O O9 0.232191 0.212396 0.677231
#
# Coordination Sequence:
#
# PCOD8121245 Si02
#       5
#     4   4   4   2   2
#     4   9  22  43  62  98 135 177 222 278 349 408
#     4  11  25  41  70 105 136 178 234 289 348 417
#     4  10  23  43  67  95 140 173 234 276 347 412
#     4  10  22  40  70  90 130 180 216 278 340 406
#     4  10  24  42  68  98 136 182 220 282 350 414
#
# _framework density 23.513259999999999
#
# number of rings (size 3 to 8) (size 9 to 14) (size 15 to 20)
#    0.000    2.000    0.000    0.750   10.500    6.000 
#    0.000   12.500    0.000    0.000    0.000    0.000 
#    0.000    0.000    0.000    0.000    0.000    0.000 
#
# Total GULP energy -198234.401574 kJ/mol
# GULP energy per Si atom -12389.650098 kJ/mol
# Density = 2.345974 g / cm^3
# Si number density = 23.513260 Si / 1000 Ang^3
#
#
#
# Elastic Constant Matrix: (Units=GPa)
#
#
# Indices 1 2 3 4 5 6 
#
# 1 81.4316 35.3399 38.9566 0.0000 10.9525 0.0000
# 2 35.3399 90.5666 40.8855 0.0000 14.6972 0.0000
# 3 38.9566 40.8855 147.3497 0.0000 28.1464 0.0000
# 4 0.0000 0.0000 0.0000 12.3340 0.0000 -10.0067
# 5 10.9525 14.6972 28.1464 0.0000 45.1815 0.0000
# 6 0.0000 0.0000 0.0000 -10.0067 0.0000 30.7498
#
#
#
# Elastic Compliance Matrix: (Units=1/GPa)
#
#
# Indices 1 2 3 4 5 6 
#
# 1 0.015751 -0.004829 -0.002719 0.000000 -0.000554 0.000000
# 2 -0.004829 0.014296 -0.002299 0.000000 -0.002048 0.000000
# 3 -0.002719 -0.002299 0.008938 0.000000 -0.004161 0.000000
# 4 0.000000 0.000000 0.000000 0.110162 0.000000 0.035849
# 5 -0.000554 -0.002048 -0.004161 0.000000 0.025526 0.000000
# 6 0.000000 0.000000 0.000000 0.035849 0.000000 0.044187
#
#
# Mechanical properties :
#
#
# Convention : Reuss Voigt Hill
#
# Bulk Modulus (GPa) = 51.83469 61.07909 56.45689
# Shear Modulus (GPa) = 20.40958 31.26411 25.83685
#
# Velocity S-wave (km/s) = 2.94939 3.65038 3.31844
# Velocity P-wave (km/s) = 5.80441 6.61814 6.22459
#
# Compressibility (1/GPa) = 0.01929210
#
# Stress axis : x y z
#
# Youngs Moduli (GPa) = 63.48801 69.94941 111.88086
#
# Poissons Ratio (x) = 0.33779 0.30416
# Poissons Ratio (y) = 0.30659 0.25720
# Poissons Ratio (z) = 0.17260 0.16081
#
# Static dielectric constant tensor:
#      x y z
#    x 4.235600 0.000000 0.364030 
#    y 0.000000 4.164440 0.000000 
#    z 0.364030 0.000000 4.605430 
# 
# 
# High freq. dielectric constant tensor:
#      x y z
#    x 1.941460 0.000000 0.011000 
#    y 0.000000 1.903540 0.000000 
#    z 0.011000 0.000000 1.940990 
# 
# From -- ./inp_files/35068.got.cif
#   From: 2010.06.25/outbox.cif.g09.slc.cpg/sg13_18_cif.got.tgz:35068.got - 2010.06.28 04:50:58.
