data_PCOD8121780
_publ_section_title
;
Structure prediction by ZEFSAII (Michael W. Deem and Ramdas Pophale) SiO2 
 PCOD8121780
Probable space group: P 2/C
;
_chemical_formula_sum "Si O2"
_cell_formula_units_Z 24
_cell_length_a 9.773999
_cell_length_b 10.109440
_cell_length_c 25.548678
_cell_angle_alpha 90.000000
_cell_angle_beta 24.210745
_cell_angle_gamma 90.000000
_cell_volume 1035.264504
_symmetry_space_group_name_H-M "P 2/C"
_symmetry_group_IT_number 13
_symmetry_cell_setting 'monoclinic'
loop_
_space_group_symop_operation_xyz
x,y,z
-x,y,1/2-z
-x,-y,-z
x,-y,1/2+z
loop_
_atom_site_type_symbol
_atom_site_label
_atom_site_fract_x
_atom_site_fract_y
_atom_site_fract_z
Si Si1 0.678316 0.742924 0.488874
Si Si2 0.712214 0.093966 0.578106
Si Si3 0.754411 0.110421 0.288102
Si Si4 0.264484 0.773621 0.538918
Si Si5 0.618625 0.527529 0.371552
Si Si6 0.421044 0.351063 0.721571
O O1 0.598313 0.835506 0.566296
O O2 0.558654 0.813739 0.476916
O O3 0.450852 0.613048 0.578707
O O4 0.060587 0.713154 0.349993
O O5 0.766794 0.124390 0.497682
O O6 0.683805 0.231740 0.619665
O O7 0.353180 0.019413 0.707094
O O8 0.000000 0.000000 0.500000
O O9 0.000000 0.074408 0.250000
O O10 0.917809 0.218810 0.192263
O O11 0.346923 0.626004 0.491430
O O12 0.560194 0.535391 0.329134
O O13 0.000000 0.571207 0.250000
O O14 0.500000 0.418298 0.750000
#
# Coordination Sequence:
#
# PCOD8121780 Si02
#       6
#     4   4   4   4   4   4
#     4  11  23  41  72 103 139 172 233 295 347 420
#     4  11  26  44  68  94 137 191 232 286 352 409
#     4  10  24  38  65 100 132 171 231 287 344 410
#     4  10  23  41  67 103 132 177 234 284 347 413
#     4  11  22  42  75 102 136 181 230 291 355 412
#     4  11  26  43  68  98 141 186 233 287 355 419
#
# _framework density 23.182479000000001
#
# number of rings (size 3 to 8) (size 9 to 14) (size 15 to 20)
#    0.000    1.333    1.667    3.000    9.333    2.000 
#    0.000    0.000    0.000    0.000    0.000    0.000 
#    0.000    0.000    0.000    0.000    0.000    0.000 
#
# Total GULP energy -297474.611899 kJ/mol
# GULP energy per Si atom -12394.775496 kJ/mol
# Density = 2.312972 g / cm^3
# Si number density = 23.182479 Si / 1000 Ang^3
#
#
#
# Elastic Constant Matrix: (Units=GPa)
#
#
# Indices 1 2 3 4 5 6 
#
# 1 148.1698 30.7289 34.9470 0.0000 19.8158 0.0000
# 2 30.7289 62.9639 1.7130 0.0000 -1.4614 0.0000
# 3 34.9470 1.7130 70.5060 0.0000 3.3578 0.0000
# 4 0.0000 0.0000 0.0000 32.0069 0.0000 -0.1274
# 5 19.8158 -1.4614 3.3578 0.0000 29.8272 0.0000
# 6 0.0000 0.0000 0.0000 -0.1274 0.0000 29.6041
#
#
#
# Elastic Compliance Matrix: (Units=1/GPa)
#
#
# Indices 1 2 3 4 5 6 
#
# 1 0.009558 -0.004688 -0.004334 0.000000 -0.006092 0.000000
# 2 -0.004688 0.018212 0.001700 0.000000 0.003816 0.000000
# 3 -0.004334 0.001700 0.016236 0.000000 0.001135 0.000000
# 4 0.000000 0.000000 0.000000 0.031244 0.000000 0.000134
# 5 -0.006092 0.003816 0.001135 0.000000 0.037633 0.000000
# 6 0.000000 0.000000 0.000000 0.000134 0.000000 0.033780
#
#
# Mechanical properties :
#
#
# Convention : Reuss Voigt Hill
#
# Bulk Modulus (GPa) = 34.05762 46.26860 40.16311
# Shear Modulus (GPa) = 29.22363 32.57103 30.89733
#
# Velocity S-wave (km/s) = 3.55433 3.75238 3.65470
# Velocity P-wave (km/s) = 5.61848 6.22700 5.93055
#
# Compressibility (1/GPa) = 0.02936200
#
# Stress axis : x y z
#
# Youngs Moduli (GPa) = 104.62325 54.90745 61.59212
#
# Poissons Ratio (x) = 0.25742 0.26691
# Poissons Ratio (y) = 0.49050 -0.10468
# Poissons Ratio (z) = 0.45339 -0.09332
#
# Static dielectric constant tensor:
#      x y z
#    x 4.356770 0.000000 0.320320 
#    y 0.000000 4.005560 0.000000 
#    z 0.320320 0.000000 4.222160 
# 
# 
# High freq. dielectric constant tensor:
#      x y z
#    x 1.920450 0.000000 0.015780 
#    y 0.000000 1.902150 0.000000 
#    z 0.015780 0.000000 1.920830 
# 
# From -- ./inp_files/85188.got.cif
#   From: 2010.06.25/outbox.cif.g09.slc.cpg/sg13_43_cif.got.tgz:85188.got - 2010.06.28 04:50:58.
