data_PCOD8121918
_publ_section_title
;
Structure prediction by ZEFSAII (Michael W. Deem and Ramdas Pophale) SiO2 
 PCOD8121918
Probable space group: P 2/C
;
_chemical_formula_sum "Si O2"
_cell_formula_units_Z 30
_cell_length_a 8.281429
_cell_length_b 6.341635
_cell_length_c 28.086896
_cell_angle_alpha 90.000000
_cell_angle_beta 112.168785
_cell_angle_gamma 90.000000
_cell_volume 1366.019942
_symmetry_space_group_name_H-M "P 2/C"
_symmetry_group_IT_number 13
_symmetry_cell_setting 'monoclinic'
loop_
_space_group_symop_operation_xyz
x,y,z
-x,y,1/2-z
-x,-y,-z
x,-y,1/2+z
loop_
_atom_site_type_symbol
_atom_site_label
_atom_site_fract_x
_atom_site_fract_y
_atom_site_fract_z
Si Si1 0.688509 0.794992 0.183932
Si Si2 0.964510 0.463562 0.195734
Si Si3 0.233529 0.272551 0.163328
Si Si4 0.500000 0.977600 0.250000
Si Si5 0.891797 0.300513 0.974714
Si Si6 0.951099 0.976668 0.572747
Si Si7 0.301023 0.832967 0.882754
Si Si8 0.569811 0.507057 0.898339
O O1 0.884759 0.695576 0.201246
O O2 0.617864 0.822498 0.229992
O O3 0.571141 0.642082 0.140205
O O4 0.673771 0.027205 0.160973
O O5 0.835691 0.345403 0.146258
O O6 0.000000 0.344933 0.250000
O O7 0.149982 0.451249 0.189023
O O8 0.314635 0.403836 0.130529
O O9 0.091463 0.121425 0.123671
O O10 0.372937 0.127572 0.205708
O O11 0.690290 0.368671 0.946598
O O12 0.906285 0.142919 0.019688
O O13 0.973844 0.203821 0.935061
O O14 0.000000 0.500000 0.000000
O O15 0.768364 0.980928 0.581761
O O16 0.479116 0.705973 0.915783
#
# Coordination Sequence:
#
# PCOD8121918 Si02
#       8
#     4   4   4   2   4   4   4   4
#     4  11  25  41  63  95 132 174 217 270 329 393
#     4  10  24  40  63  94 130 173 225 265 326 394
#     4  11  23  43  68  94 134 176 215 278 322 393
#     4  12  24  40  72  96 136 180 226 270 340 388
#     4  11  23  42  70  99 125 169 220 270 334 398
#     4  10  24  43  68  97 130 168 218 270 333 396
#     4  10  23  45  61  93 134 169 214 278 327 391
#     4  11  24  41  68  94 131 168 222 269 328 391
#
# _framework density 21.961611999999999
#
# number of rings (size 3 to 8) (size 9 to 14) (size 15 to 20)
#    0.000    1.333    2.667    1.600    5.600    4.267 
#    0.000    1.333    0.000    0.000    0.000    0.000 
#    0.000    0.000    0.000    0.000    0.000    0.000 
#
# Total GULP energy -371730.606911 kJ/mol
# GULP energy per Si atom -12391.020230 kJ/mol
# Density = 2.191163 g / cm^3
# Si number density = 21.961612 Si / 1000 Ang^3
#
#
#
# Elastic Constant Matrix: (Units=GPa)
#
#
# Indices 1 2 3 4 5 6 
#
# 1 128.4574 44.0499 44.8906 0.0000 -8.3599 0.0000
# 2 44.0499 82.6778 22.6918 0.0000 -0.5116 0.0000
# 3 44.8906 22.6918 98.6690 0.0000 5.3323 0.0000
# 4 0.0000 0.0000 0.0000 39.5480 0.0000 -11.1063
# 5 -8.3599 -0.5116 5.3323 0.0000 34.9327 0.0000
# 6 0.0000 0.0000 0.0000 -11.1063 0.0000 32.9568
#
#
#
# Elastic Compliance Matrix: (Units=1/GPa)
#
#
# Indices 1 2 3 4 5 6 
#
# 1 0.011057 -0.004742 -0.004113 0.000000 0.003204 0.000000
# 2 -0.004742 0.014959 -0.001243 0.000000 -0.000726 0.000000
# 3 -0.004113 -0.001243 0.012449 0.000000 -0.002903 0.000000
# 4 0.000000 0.000000 0.000000 0.027929 0.000000 0.009412
# 5 0.003204 -0.000726 -0.002903 0.000000 0.029826 0.000000
# 6 0.000000 0.000000 0.000000 0.009412 0.000000 0.033514
#
#
# Mechanical properties :
#
#
# Convention : Reuss Voigt Hill
#
# Bulk Modulus (GPa) = 54.74324 59.22984 56.98654
# Shear Modulus (GPa) = 32.04728 34.69897 33.37313
#
# Velocity S-wave (km/s) = 3.82415 3.97921 3.90245
# Velocity P-wave (km/s) = 6.66931 6.93833 6.80515
#
# Compressibility (1/GPa) = 0.01826709
#
# Stress axis : x y z
#
# Youngs Moduli (GPa) = 90.44290 66.85153 80.32809
#
# Poissons Ratio (x) = 0.31703 0.33038
# Poissons Ratio (y) = 0.42890 0.09988
# Poissons Ratio (z) = 0.37199 0.08312
#
# Static dielectric constant tensor:
#      x y z
#    x 4.822280 0.000000 0.000540 
#    y 0.000000 3.970020 0.000000 
#    z 0.000540 0.000000 3.983470 
# 
# 
# High freq. dielectric constant tensor:
#      x y z
#    x 1.877050 0.000000 -0.000800 
#    y 0.000000 1.859780 0.000000 
#    z -0.000800 0.000000 1.864090 
# 
# From -- ./inp_files/95478.got.cif
#   From: 2010.06.25/outbox.cif.g09.slc.cpg/sg13_48_cif.got.tgz:95478.got - 2010.06.28 04:50:58.
