data_PCOD8121260
_publ_section_title
;
Structure prediction by ZEFSAII (Michael W. Deem and Ramdas Pophale) SiO2 
 PCOD8121260
Probable space group: P 2/C
;
_chemical_formula_sum "Si O2"
_cell_formula_units_Z 30
_cell_length_a 14.610786
_cell_length_b 11.720982
_cell_length_c 8.908632
_cell_angle_alpha 90.000000
_cell_angle_beta 111.771571
_cell_angle_gamma 90.000000
_cell_volume 1416.804749
_symmetry_space_group_name_H-M "P 2/C"
_symmetry_group_IT_number 13
_symmetry_cell_setting 'monoclinic'
loop_
_space_group_symop_operation_xyz
x,y,z
-x,y,1/2-z
-x,-y,-z
x,-y,1/2+z
loop_
_atom_site_type_symbol
_atom_site_label
_atom_site_fract_x
_atom_site_fract_y
_atom_site_fract_z
Si Si1 0.000000 0.160119 0.750000
Si Si2 0.628584 0.576587 0.448245
Si Si3 0.577317 0.365725 0.580851
Si Si4 0.841631 0.819562 0.938541
Si Si5 0.831199 0.075068 0.857945
Si Si6 0.245248 0.779856 0.927019
Si Si7 0.323891 0.147628 0.964011
Si Si8 0.430292 0.059760 0.579043
O O1 0.077415 0.087266 0.699966
O O2 0.938407 0.230884 0.584711
O O3 0.635687 0.442224 0.492971
O O4 0.540526 0.623967 0.501079
O O5 0.610126 0.590798 0.262263
O O6 0.728474 0.646087 0.543450
O O7 0.598504 0.232506 0.566570
O O8 0.828928 0.785377 0.759085
O O9 0.846010 0.957358 0.955112
O O10 0.748798 0.776129 0.979130
O O11 0.730543 0.077198 0.701246
O O12 0.820341 0.176683 0.973303
O O13 0.349842 0.847473 0.974234
O O14 0.371458 0.052213 0.102597
O O15 0.500000 0.114795 0.750000
O O16 0.500000 0.000000 0.500000
#
# Coordination Sequence:
#
# PCOD8121260 Si02
#       8
#     2   4   4   4   4   4   4   4
#     4  10  24  38  62  88 122 168 188 248 316 368
#     4  10  23  39  60  86 118 165 210 259 293 340
#     4  10  22  41  58  84 123 161 216 255 291 341
#     4  11  22  38  59  90 124 158 199 244 302 377
#     4  11  20  40  59  88 124 157 200 248 303 372
#     4  12  22  37  60  88 126 162 204 251 296 356
#     4  11  21  38  56  83 124 165 197 254 294 349
#     4  12  23  34  54  84 122 168 203 231 291 355
#
# _framework density 21.174406000000001
#
# number of rings (size 3 to 8) (size 9 to 14) (size 15 to 20)
#    0.000    1.067    4.000    3.600    3.733    0.533 
#    2.400    0.000    0.000    0.000    0.000   14.933 
#    0.000    0.000    0.000    0.000    0.000    0.000 
#
# Total GULP energy -371693.475980 kJ/mol
# GULP energy per Si atom -12389.782533 kJ/mol
# Density = 2.112621 g / cm^3
# Si number density = 21.174406 Si / 1000 Ang^3
#
#
#
# Elastic Constant Matrix: (Units=GPa)
#
#
# Indices 1 2 3 4 5 6 
#
# 1 61.4508 5.8990 23.0794 0.0000 5.4751 0.0000
# 2 5.8990 56.5878 13.0660 0.0000 5.4344 0.0000
# 3 23.0794 13.0660 121.8130 0.0000 11.5975 0.0000
# 4 0.0000 0.0000 0.0000 20.3266 0.0000 -6.4634
# 5 5.4751 5.4344 11.5975 0.0000 34.2477 0.0000
# 6 0.0000 0.0000 0.0000 -6.4634 0.0000 17.5817
#
#
#
# Elastic Compliance Matrix: (Units=1/GPa)
#
#
# Indices 1 2 3 4 5 6 
#
# 1 0.017672 -0.000973 -0.003089 0.000000 -0.001625 0.000000
# 2 -0.000973 0.018350 -0.001572 0.000000 -0.002224 0.000000
# 3 -0.003089 -0.001572 0.009189 0.000000 -0.002368 0.000000
# 4 0.000000 0.000000 0.000000 0.055709 0.000000 0.020480
# 5 -0.001625 -0.002224 -0.002368 0.000000 0.030614 0.000000
# 6 0.000000 0.000000 0.000000 0.020480 0.000000 0.064406
#
#
# Mechanical properties :
#
#
# Convention : Reuss Voigt Hill
#
# Bulk Modulus (GPa) = 29.46247 35.99339 32.72793
# Shear Modulus (GPa) = 22.88113 27.61834 25.24974
#
# Velocity S-wave (km/s) = 3.29082 3.61546 3.45695
# Velocity P-wave (km/s) = 5.32764 5.87062 5.60571
#
# Compressibility (1/GPa) = 0.03394148
#
# Stress axis : x y z
#
# Youngs Moduli (GPa) = 56.58821 54.49697 108.82924
#
# Poissons Ratio (x) = 0.05302 0.33619
# Poissons Ratio (y) = 0.05505 0.17110
# Poissons Ratio (z) = 0.17481 0.08568
#
# Static dielectric constant tensor:
#      x y z
#    x 4.070080 0.000000 0.213600 
#    y 0.000000 3.598830 0.000000 
#    z 0.213600 0.000000 4.136790 
# 
# 
# High freq. dielectric constant tensor:
#      x y z
#    x 1.823790 0.000000 -0.010350 
#    y 0.000000 1.787510 0.000000 
#    z -0.010350 0.000000 1.841000 
# 
# From -- ./inp_files/19066.got.cif
#   From: 2010.06.25/outbox.cif.g09.slc.cpg/sg13_10_cif.got.tgz:19066.got - 2010.06.28 04:50:58.
