data_PCOD8121204
_publ_section_title
;
Structure prediction by ZEFSAII (Michael W. Deem and Ramdas Pophale) SiO2 
 PCOD8121204
Probable space group: P 2/C
;
_chemical_formula_sum "Si O2"
_cell_formula_units_Z 24
_cell_length_a 10.978932
_cell_length_b 12.079317
_cell_length_c 8.604241
_cell_angle_alpha 90.000000
_cell_angle_beta 94.454837
_cell_angle_gamma 90.000000
_cell_volume 1137.629889
_symmetry_space_group_name_H-M "P 2/C"
_symmetry_group_IT_number 13
_symmetry_cell_setting 'monoclinic'
loop_
_space_group_symop_operation_xyz
x,y,z
-x,y,1/2-z
-x,-y,-z
x,-y,1/2+z
loop_
_atom_site_type_symbol
_atom_site_label
_atom_site_fract_x
_atom_site_fract_y
_atom_site_fract_z
Si Si1 0.656722 0.915217 0.892243
Si Si2 0.611431 0.136121 0.039642
Si Si3 0.408598 0.447840 0.110834
Si Si4 0.984285 0.379599 0.065241
Si Si5 0.734448 0.667495 0.388357
Si Si6 0.218732 0.725537 0.451997
O O1 0.532962 0.870165 0.957334
O O2 0.671981 0.887832 0.712306
O O3 0.763795 0.852066 0.993388
O O4 0.663621 0.046780 0.921170
O O5 0.637899 0.257080 0.972018
O O6 0.500000 0.398196 0.250000
O O7 0.321126 0.547506 0.160330
O O8 0.500000 0.500000 0.000000
O O9 0.323421 0.350590 0.039676
O O10 0.000000 0.379718 0.250000
O O11 0.849067 0.338441 0.014363
O O12 0.000000 0.500000 0.000000
O O13 0.083761 0.303418 0.993513
O O14 0.775766 0.721805 0.232328
#
# Coordination Sequence:
#
# PCOD8121204 Si02
#       6
#     4   4   4   4   4   4
#     4  10  22  40  65  97 130 173 211 266 321 384
#     4  10  22  40  66  95 134 168 216 262 324 383
#     4  12  26  39  60  95 132 168 206 262 323 382
#     4  12  26  44  65  91 127 174 220 265 319 381
#     4  12  25  43  65  94 129 173 216 267 320 384
#     4  12  25  42  67  92 131 170 218 264 323 381
#
# _framework density 21.096489999999999
#
# number of rings (size 3 to 8) (size 9 to 14) (size 15 to 20)
#    0.000    0.667    3.333    4.500    7.000    1.333 
#    0.000    0.833    0.000    0.000    0.000    0.000 
#    0.000    0.000    0.000    0.000    0.000    0.000 
#
# Total GULP energy -297663.104128 kJ/mol
# GULP energy per Si atom -12402.629339 kJ/mol
# Density = 2.104847 g / cm^3
# Si number density = 21.096490 Si / 1000 Ang^3
#
#
#
# Elastic Constant Matrix: (Units=GPa)
#
#
# Indices 1 2 3 4 5 6 
#
# 1 84.5436 14.0265 11.4675 0.0000 11.3022 0.0000
# 2 14.0265 77.5142 10.3859 0.0000 6.6706 0.0000
# 3 11.4675 10.3859 119.2542 0.0000 5.5358 0.0000
# 4 0.0000 0.0000 0.0000 35.9289 0.0000 1.6608
# 5 11.3022 6.6706 5.5358 0.0000 38.5293 0.0000
# 6 0.0000 0.0000 0.0000 1.6608 0.0000 31.3675
#
#
#
# Elastic Compliance Matrix: (Units=1/GPa)
#
#
# Indices 1 2 3 4 5 6 
#
# 1 0.012702 -0.001896 -0.000905 0.000000 -0.003268 0.000000
# 2 -0.001896 0.013509 -0.000918 0.000000 -0.001651 0.000000
# 3 -0.000905 -0.000918 0.008590 0.000000 -0.000810 0.000000
# 4 0.000000 0.000000 0.000000 0.027901 0.000000 -0.001477
# 5 -0.003268 -0.001651 -0.000810 0.000000 0.027315 0.000000
# 6 0.000000 0.000000 0.000000 -0.001477 0.000000 0.031958
#
#
# Mechanical properties :
#
#
# Convention : Reuss Voigt Hill
#
# Bulk Modulus (GPa) = 36.54342 39.23019 37.88680
# Shear Modulus (GPa) = 36.09228 37.52730 36.80979
#
# Velocity S-wave (km/s) = 4.14069 4.22221 4.18165
# Velocity P-wave (km/s) = 6.34193 6.51194 6.42750
#
# Compressibility (1/GPa) = 0.02736471
#
# Stress axis : x y z
#
# Youngs Moduli (GPa) = 78.72547 74.02488 116.41520
#
# Poissons Ratio (x) = 0.14036 0.10531
# Poissons Ratio (y) = 0.14927 0.10682
# Poissons Ratio (z) = 0.07122 0.06792
#
# Static dielectric constant tensor:
#      x y z
#    x 3.709000 0.000000 -0.077250 
#    y 0.000000 3.965280 0.000000 
#    z -0.077250 0.000000 3.821920 
# 
# 
# High freq. dielectric constant tensor:
#      x y z
#    x 1.817970 0.000000 -0.000220 
#    y 0.000000 1.825830 0.000000 
#    z -0.000220 0.000000 1.845200 
# 
# From -- ./inp_files/15879.got.cif
#   From: 2010.06.25/outbox.cif.g09.slc.cpg/sg13_8_cif.got.tgz:15879.got - 2010.06.28 04:50:58.
