data_PCOD8121368
_publ_section_title
;
Structure prediction by ZEFSAII (Michael W. Deem and Ramdas Pophale) SiO2 
 PCOD8121368
Probable space group: P 2/C
;
_chemical_formula_sum "Si O2"
_cell_formula_units_Z 26
_cell_length_a 7.629723
_cell_length_b 4.971892
_cell_length_c 31.124765
_cell_angle_alpha 90.000000
_cell_angle_beta 109.150163
_cell_angle_gamma 90.000000
_cell_volume 1115.354735
_symmetry_space_group_name_H-M "P 2/C"
_symmetry_group_IT_number 13
_symmetry_cell_setting 'monoclinic'
loop_
_space_group_symop_operation_xyz
x,y,z
-x,y,1/2-z
-x,-y,-z
x,-y,1/2+z
loop_
_atom_site_type_symbol
_atom_site_label
_atom_site_fract_x
_atom_site_fract_y
_atom_site_fract_z
Si Si1 0.715933 0.598259 0.568063
Si Si2 0.500000 0.201745 0.750000
Si Si3 0.392067 0.196791 0.522249
Si Si4 0.502728 0.952756 0.891246
Si Si5 0.901646 0.049827 0.287144
Si Si6 0.433300 0.433905 0.657178
Si Si7 0.963289 0.425250 0.848501
O O1 0.525267 0.431019 0.551096
O O2 0.767707 0.682224 0.522353
O O3 0.675830 0.854747 0.595880
O O4 0.881824 0.433898 0.602284
O O5 0.317551 0.013957 0.734941
O O6 0.515055 0.409822 0.711547
O O7 0.500000 0.000000 0.500000
O O8 0.332403 0.028014 0.560314
O O9 0.559115 0.736785 0.859912
O O10 0.448747 0.228604 0.862721
O O11 0.926570 0.297647 0.321108
O O12 0.000000 0.117829 0.250000
O O13 0.010919 0.798271 0.316698
O O14 0.220460 0.337339 0.640431
#
# Coordination Sequence:
#
# PCOD8121368 Si02
#       7
#     4   2   4   4   4   4   4
#     4  10  22  41  70  97 137 170 228 284 338 407
#     4  10  26  46  68  96 144 182 226 292 346 406
#     4   9  20  40  68 101 131 174 225 280 341 406
#     4  11  22  40  68  97 125 178 230 263 334 420
#     4  11  26  45  69 101 136 182 238 286 352 419
#     4  11  24  43  64  94 135 176 223 276 349 405
#     4  11  26  44  63 102 136 176 223 294 349 402
#
# _framework density 23.310967999999999
#
# number of rings (size 3 to 8) (size 9 to 14) (size 15 to 20)
#    0.000    1.538    1.538    2.308    8.615    5.538 
#    0.000    1.538    0.000    0.000    0.000    0.000 
#    0.000    0.000    0.000    0.000    0.000    0.000 
#
# Total GULP energy -322098.388687 kJ/mol
# GULP energy per Si atom -12388.399565 kJ/mol
# Density = 2.325791 g / cm^3
# Si number density = 23.310968 Si / 1000 Ang^3
#
#
#
# Elastic Constant Matrix: (Units=GPa)
#
#
# Indices 1 2 3 4 5 6 
#
# 1 36.5677 8.1548 30.9640 0.0000 7.8126 0.0000
# 2 8.1548 113.4167 48.3399 0.0000 -4.7799 0.0000
# 3 30.9640 48.3399 162.1743 0.0000 -1.0119 0.0000
# 4 0.0000 0.0000 0.0000 38.3665 0.0000 -6.1657
# 5 7.8126 -4.7799 -1.0119 0.0000 35.1233 0.0000
# 6 0.0000 0.0000 0.0000 -6.1657 0.0000 18.5848
#
#
#
# Elastic Compliance Matrix: (Units=1/GPa)
#
#
# Indices 1 2 3 4 5 6 
#
# 1 0.034685 0.000019 -0.006677 0.000000 -0.007905 0.000000
# 2 0.000019 0.010159 -0.003024 0.000000 0.001291 0.000000
# 3 -0.006677 -0.003024 0.008351 0.000000 0.001314 0.000000
# 4 0.000000 0.000000 0.000000 0.027532 0.000000 0.009134
# 5 -0.007905 0.001291 0.001314 0.000000 0.030443 0.000000
# 6 0.000000 0.000000 0.000000 0.009134 0.000000 0.056838
#
#
# Mechanical properties :
#
#
# Convention : Reuss Voigt Hill
#
# Bulk Modulus (GPa) = 29.55911 54.11956 41.83934
# Shear Modulus (GPa) = 25.16999 33.39491 29.28245
#
# Velocity S-wave (km/s) = 3.28952 3.78905 3.54809
# Velocity P-wave (km/s) = 5.20920 6.51225 5.89683
#
# Compressibility (1/GPa) = 0.03383052
#
# Stress axis : x y z
#
# Youngs Moduli (GPa) = 28.83056 98.43665 119.75169
#
# Poissons Ratio (x) = -0.00187 0.79964
# Poissons Ratio (y) = -0.00055 0.36209
# Poissons Ratio (z) = 0.19252 0.29764
#
# Static dielectric constant tensor:
#      x y z
#    x 3.791640 0.000000 -0.213420 
#    y 0.000000 5.155600 0.000000 
#    z -0.213420 0.000000 5.045310 
# 
# 
# High freq. dielectric constant tensor:
#      x y z
#    x 1.864250 0.000000 -0.018210 
#    y 0.000000 1.940200 0.000000 
#    z -0.018210 0.000000 1.954690 
# 
# From -- ./inp_files/95548.got.cif
#   From: 2010.06.25/outbox.cif.g09.slc.cpg/sg13_48_cif.got.tgz:95548.got - 2010.06.28 04:50:58.
