data_PCOD8121233
_publ_section_title
;
Structure prediction by ZEFSAII (Michael W. Deem and Ramdas Pophale) SiO2 
 PCOD8121233
Probable space group: P 2/C
;
_chemical_formula_sum "Si O2"
_cell_formula_units_Z 24
_cell_length_a 14.727452
_cell_length_b 5.410141
_cell_length_c 22.075506
_cell_angle_alpha 90.000000
_cell_angle_beta 143.122984
_cell_angle_gamma 90.000000
_cell_volume 1055.528708
_symmetry_space_group_name_H-M "P 2/C"
_symmetry_group_IT_number 13
_symmetry_cell_setting 'monoclinic'
loop_
_space_group_symop_operation_xyz
x,y,z
-x,y,1/2-z
-x,-y,-z
x,-y,1/2+z
loop_
_atom_site_type_symbol
_atom_site_label
_atom_site_fract_x
_atom_site_fract_y
_atom_site_fract_z
Si Si1 0.653772 0.511048 0.663686
Si Si2 0.147928 0.872557 0.430880
Si Si3 0.597515 0.801971 0.019199
Si Si4 0.681275 0.177090 0.354418
Si Si5 0.652046 0.679561 0.290819
Si Si6 0.018416 0.638388 0.687396
O O1 0.507197 0.687406 0.589682
O O2 0.654342 0.392363 0.598109
O O3 0.628879 0.321899 0.705993
O O4 0.811643 0.656681 0.747753
O O5 0.252226 0.917925 0.428225
O O6 0.261279 0.834769 0.546902
O O7 0.048029 0.625596 0.369776
O O8 0.054808 0.126364 0.385931
O O9 0.500000 0.000000 0.000000
O O10 0.500000 0.181939 0.250000
O O11 0.744602 0.429479 0.357505
O O12 0.744531 0.931044 0.354323
O O13 0.500000 0.686083 0.250000
O O14 0.000000 0.665283 0.750000
#
# Coordination Sequence:
#
# PCOD8121233 Si02
#       6
#     4   4   4   4   4   4
#     4  11  26  44  69 109 143 188 238 306 351 431
#     4  12  26  46  75 102 146 190 239 288 366 434
#     4  11  25  41  73 107 139 181 249 300 361 412
#     4  10  22  42  67  99 131 183 238 295 342 407
#     4  10  22  40  68  95 138 177 232 292 356 397
#     4  12  26  48  68 106 150 192 225 290 375 437
#
# _framework density 22.737418999999999
#
# number of rings (size 3 to 8) (size 9 to 14) (size 15 to 20)
#    0.000    1.000    1.667    4.500   11.667    0.000 
#    0.000    5.000    0.000    0.000    0.000    0.000 
#    0.000    0.000    0.000    0.000    0.000    0.000 
#
# Total GULP energy -297409.015337 kJ/mol
# GULP energy per Si atom -12392.042306 kJ/mol
# Density = 2.268567 g / cm^3
# Si number density = 22.737419 Si / 1000 Ang^3
#
#
#
# Elastic Constant Matrix: (Units=GPa)
#
#
# Indices 1 2 3 4 5 6 
#
# 1 74.8691 8.0705 32.3654 0.0000 6.7369 0.0000
# 2 8.0705 176.7375 38.7461 0.0000 4.4064 0.0000
# 3 32.3654 38.7461 112.7551 0.0000 -5.8222 0.0000
# 4 0.0000 0.0000 0.0000 610.9432 0.0000 -40.0742
# 5 6.7369 4.4064 -5.8222 0.0000 30.3581 0.0000
# 6 0.0000 0.0000 0.0000 -40.0742 0.0000 30.8250
#
#
#
# Elastic Compliance Matrix: (Units=1/GPa)
#
#
# Indices 1 2 3 4 5 6 
#
# 1 0.015852 0.000474 -0.004947 0.000000 -0.004535 0.000000
# 2 0.000474 0.006185 -0.002336 0.000000 -0.001451 0.000000
# 3 -0.004947 -0.002336 0.011278 0.000000 0.003600 0.000000
# 4 0.000000 0.000000 0.000000 0.001789 0.000000 0.002326
# 5 -0.004535 -0.001451 0.003600 0.000000 0.034848 0.000000
# 6 0.000000 0.000000 0.000000 0.002326 0.000000 0.035466
#
#
# Mechanical properties :
#
#
# Convention : Reuss Voigt Hill
#
# Bulk Modulus (GPa) = 50.77353 58.08064 54.42709
# Shear Modulus (GPa) = 39.80832 153.43724 96.62278
#
# Velocity S-wave (km/s) = 4.18878 8.22367 6.52589
# Velocity P-wave (km/s) = 6.76560 10.75970 8.98734
#
# Compressibility (1/GPa) = 0.01969530
#
# Stress axis : x y z
#
# Youngs Moduli (GPa) = 63.08200 161.68637 88.67187
#
# Poissons Ratio (x) = -0.07661 0.43869
# Poissons Ratio (y) = -0.02989 0.20716
# Poissons Ratio (z) = 0.31209 0.37773
#
# Static dielectric constant tensor:
#      x y z
#    x 3.830030 0.000000 -0.125570 
#    y 0.000000 4.911050 0.000000 
#    z -0.125570 0.000000 4.479300 
# 
# 
# High freq. dielectric constant tensor:
#      x y z
#    x 1.884480 0.000000 -0.013150 
#    y 0.000000 1.917100 0.000000 
#    z -0.013150 0.000000 1.896230 
# 
# From -- ./inp_files/87743.got.cif
#   From: 2010.06.25/outbox.cif.g09.slc.cpg/sg13_44_cif.got.tgz:87743.got - 2010.06.28 04:50:58.
