data_PCOD8121626
_publ_section_title
;
Structure prediction by ZEFSAII (Michael W. Deem and Ramdas Pophale) SiO2 
 PCOD8121626
Probable space group: P 2/C
;
_chemical_formula_sum "Si O2"
_cell_formula_units_Z 18
_cell_length_a 4.653641
_cell_length_b 8.147356
_cell_length_c 17.817781
_cell_angle_alpha 90.000000
_cell_angle_beta 95.216461
_cell_angle_gamma 90.000000
_cell_volume 672.760900
_symmetry_space_group_name_H-M "P 2/C"
_symmetry_group_IT_number 13
_symmetry_cell_setting 'monoclinic'
loop_
_space_group_symop_operation_xyz
x,y,z
-x,y,1/2-z
-x,-y,-z
x,-y,1/2+z
loop_
_atom_site_type_symbol
_atom_site_label
_atom_site_fract_x
_atom_site_fract_y
_atom_site_fract_z
Si Si1 0.500000 0.857462 0.250000
Si Si2 0.085719 0.596257 0.172814
Si Si3 0.624589 0.623037 0.941963
Si Si4 0.319114 0.142775 0.896773
Si Si5 0.831147 0.835971 0.521785
O O1 0.284592 0.749029 0.196128
O O2 0.654538 0.952788 0.184418
O O3 0.251987 0.460219 0.128873
O O4 0.000000 0.510801 0.250000
O O5 0.813379 0.674887 0.121810
O O6 0.355683 0.744267 0.916833
O O7 0.500000 0.500000 0.000000
O O8 0.125893 0.264585 0.013077
O O9 0.115082 0.023246 0.944955
O O10 0.631007 0.168966 0.942569
#
# Coordination Sequence:
#
# PCOD8121626 Si02
#       5
#     2   4   4   4   4
#     4  10  22  44  76 102 146 208 248 302 364 478
#     4  10  25  48  77 107 151 205 254 302 378 467
#     4  12  28  48  73 115 149 201 246 319 381 453
#     4  10  25  48  75 111 149 199 257 311 387 451
#     4  11  28  46  77 111 156 186 255 327 383 439
#
# _framework density 26.755417999999999
#
# number of rings (size 3 to 8) (size 9 to 14) (size 15 to 20)
#    0.000    1.333    0.000    2.000   18.667    1.778 
#    8.000    0.000    0.000    0.000    0.000    0.000 
#    0.000    0.000    0.000    0.000    0.000    0.000 
#
# Total GULP energy -223048.078021 kJ/mol
# GULP energy per Si atom -12391.559890 kJ/mol
# Density = 2.669452 g / cm^3
# Si number density = 26.755418 Si / 1000 Ang^3
#
#
#
# Elastic Constant Matrix: (Units=GPa)
#
#
# Indices 1 2 3 4 5 6 
#
# 1 158.0258 60.6323 43.2909 0.0000 -9.1094 0.0000
# 2 60.6323 127.7145 84.9646 0.0000 -14.6862 0.0000
# 3 43.2909 84.9646 186.6740 0.0000 -47.2727 0.0000
# 4 0.0000 0.0000 0.0000 32.3762 0.0000 -17.5645
# 5 -9.1094 -14.6862 -47.2727 0.0000 52.4027 0.0000
# 6 0.0000 0.0000 0.0000 -17.5645 0.0000 56.5736
#
#
#
# Elastic Compliance Matrix: (Units=1/GPa)
#
#
# Indices 1 2 3 4 5 6 
#
# 1 0.007744 -0.003579 -0.000104 0.000000 0.000250 0.000000
# 2 -0.003579 0.013032 -0.005617 0.000000 -0.002037 0.000000
# 3 -0.000104 -0.005617 0.009765 0.000000 0.007217 0.000000
# 4 0.000000 0.000000 0.000000 0.037143 0.000000 0.011532
# 5 0.000250 -0.002037 0.007217 0.000000 0.025066 0.000000
# 6 0.000000 0.000000 0.000000 0.011532 0.000000 0.021256
#
#
# Mechanical properties :
#
#
# Convention : Reuss Voigt Hill
#
# Bulk Modulus (GPa) = 83.74323 94.46556 89.10439
# Shear Modulus (GPa) = 36.60676 47.17227 41.88952
#
# Velocity S-wave (km/s) = 3.70293 4.20347 3.96112
# Velocity P-wave (km/s) = 7.04626 7.67741 7.36860
#
# Compressibility (1/GPa) = 0.01194126
#
# Stress axis : x y z
#
# Youngs Moduli (GPa) = 129.13217 76.73571 102.40222
#
# Poissons Ratio (x) = 0.27461 0.01064
# Poissons Ratio (y) = 0.46212 0.57524
# Poissons Ratio (z) = 0.01341 0.43106
#
# Static dielectric constant tensor:
#      x y z
#    x 6.368250 0.000000 -1.019640 
#    y 0.000000 5.379060 0.000000 
#    z -1.019640 0.000000 5.751670 
# 
# 
# High freq. dielectric constant tensor:
#      x y z
#    x 2.109080 0.000000 -0.034140 
#    y 0.000000 2.048580 0.000000 
#    z -0.034140 0.000000 2.097870 
# 
# From -- ./inp_files/60406.got.cif
#   From: 2010.06.25/outbox.cif.g09.slc.cpg/sg13_31_cif.got.tgz:60406.got - 2010.06.28 04:50:58.
