data_PCOD8121283
_publ_section_title
;
Structure prediction by ZEFSAII (Michael W. Deem and Ramdas Pophale) SiO2 
 PCOD8121283
Probable space group: P 2/C
;
_chemical_formula_sum "Si O2"
_cell_formula_units_Z 18
_cell_length_a 10.424550
_cell_length_b 8.079061
_cell_length_c 9.875100
_cell_angle_alpha 90.000000
_cell_angle_beta 116.580340
_cell_angle_gamma 90.000000
_cell_volume 743.783837
_symmetry_space_group_name_H-M "P 2/C"
_symmetry_group_IT_number 13
_symmetry_cell_setting 'monoclinic'
loop_
_space_group_symop_operation_xyz
x,y,z
-x,y,1/2-z
-x,-y,-z
x,-y,1/2+z
loop_
_atom_site_type_symbol
_atom_site_label
_atom_site_fract_x
_atom_site_fract_y
_atom_site_fract_z
Si Si1 0.729646 0.390573 0.803511
Si Si2 0.500000 0.647042 0.750000
Si Si3 0.909960 0.316464 0.397422
Si Si4 0.789726 0.800624 0.573872
Si Si5 0.724223 0.818055 0.035909
O O1 0.614005 0.533772 0.723677
O O2 0.890129 0.480423 0.886290
O O3 0.687137 0.309566 0.928905
O O4 0.731190 0.251460 0.690602
O O5 0.575587 0.763368 0.896926
O O6 0.861214 0.250710 0.520008
O O7 0.056964 0.229404 0.426698
O O8 0.792430 0.258485 0.229068
O O9 0.734061 0.986088 0.544645
#
# Coordination Sequence:
#
# PCOD8121283 Si02
#       5
#     4   2   4   4   4
#     4  11  23  43  68  94 127 172 215 261 315 382
#     4  10  24  44  64  92 128 172 220 262 314 376
#     4  10  22  41  63  95 132 167 207 257 322 390
#     4  11  23  40  64  98 131 164 209 265 322 377
#     4  11  23  41  66  96 128 168 215 268 316 370
#
# _framework density 24.200581
#
# number of rings (size 3 to 8) (size 9 to 14) (size 15 to 20)
#    0.000    1.333    0.000    6.000    0.000    7.111 
#    0.000    6.667    0.000    0.000    0.000    0.000 
#    0.000    0.000    0.000    0.000    0.000    0.000 
#
# Total GULP energy -223146.690192 kJ/mol
# GULP energy per Si atom -12397.038344 kJ/mol
# Density = 2.414550 g / cm^3
# Si number density = 24.200581 Si / 1000 Ang^3
#
#
#
# Elastic Constant Matrix: (Units=GPa)
#
#
# Indices 1 2 3 4 5 6 
#
# 1 56.8829 19.9318 -1.9051 0.0000 4.4866 0.0000
# 2 19.9318 166.2237 29.3405 0.0000 1.8129 0.0000
# 3 -1.9051 29.3405 82.3692 0.0000 -12.2479 0.0000
# 4 0.0000 0.0000 0.0000 20.0648 0.0000 -14.3995
# 5 4.4866 1.8129 -12.2479 0.0000 33.1046 0.0000
# 6 0.0000 0.0000 0.0000 -14.3995 0.0000 36.4272
#
#
#
# Elastic Compliance Matrix: (Units=1/GPa)
#
#
# Indices 1 2 3 4 5 6 
#
# 1 0.018607 -0.002381 0.000977 0.000000 -0.002030 0.000000
# 2 -0.002381 0.006775 -0.002620 0.000000 -0.001017 0.000000
# 3 0.000977 -0.002620 0.013860 0.000000 0.005139 0.000000
# 4 0.000000 0.000000 0.000000 0.069576 0.000000 0.027503
# 5 -0.002030 -0.001017 0.005139 0.000000 0.032439 0.000000
# 6 0.000000 0.000000 0.000000 0.027503 0.000000 0.038324
#
#
# Mechanical properties :
#
#
# Convention : Reuss Voigt Hill
#
# Bulk Modulus (GPa) = 32.05747 44.46780 38.26263
# Shear Modulus (GPa) = 25.24890 35.12658 30.18774
#
# Velocity S-wave (km/s) = 3.23355 3.81396 3.53568
# Velocity P-wave (km/s) = 5.21694 6.14895 5.70202
#
# Compressibility (1/GPa) = 0.03119398
#
# Stress axis : x y z
#
# Youngs Moduli (GPa) = 53.74248 147.60031 72.14818
#
# Poissons Ratio (x) = 0.35151 -0.07048
# Poissons Ratio (y) = 0.12799 0.18901
# Poissons Ratio (z) = -0.05250 0.38667
#
# Static dielectric constant tensor:
#      x y z
#    x 4.191990 0.000000 0.127770 
#    y 0.000000 4.359880 0.000000 
#    z 0.127770 0.000000 4.911120 
# 
# 
# High freq. dielectric constant tensor:
#      x y z
#    x 1.955350 0.000000 0.001240 
#    y 0.000000 1.968780 0.000000 
#    z 0.001240 0.000000 1.980120 
# 
# From -- ./inp_files/15082.got.cif
#   From: 2010.06.25/outbox.cif.g09.slc.cpg/sg13_8_cif.got.tgz:15082.got - 2010.06.28 04:50:58.
