data_PCOD8121572
_publ_section_title
;
Structure prediction by ZEFSAII (Michael W. Deem and Ramdas Pophale) SiO2 
 PCOD8121572
Probable space group: P 2/C
;
_chemical_formula_sum "Si O2"
_cell_formula_units_Z 14
_cell_length_a 5.468887
_cell_length_b 8.714923
_cell_length_c 13.755563
_cell_angle_alpha 90.000000
_cell_angle_beta 58.908828
_cell_angle_gamma 90.000000
_cell_volume 561.423365
_symmetry_space_group_name_H-M "P 2/C"
_symmetry_group_IT_number 13
_symmetry_cell_setting 'monoclinic'
loop_
_space_group_symop_operation_xyz
x,y,z
-x,y,1/2-z
-x,-y,-z
x,-y,1/2+z
loop_
_atom_site_type_symbol
_atom_site_label
_atom_site_fract_x
_atom_site_fract_y
_atom_site_fract_z
Si Si1 0.465476 0.200649 0.589704
Si Si2 0.518909 0.134033 0.124924
Si Si3 0.000000 0.427932 0.750000
Si Si4 0.982137 0.713405 0.870508
O O1 0.328249 0.159533 0.511747
O O2 0.280801 0.324649 0.684698
O O3 0.785201 0.267765 0.507170
O O4 0.472336 0.046632 0.652477
O O5 0.211813 0.223968 0.182855
O O6 0.722694 0.194028 0.170070
O O7 0.963374 0.533370 0.661028
#
# Coordination Sequence:
#
# PCOD8121572 Si02
#       4
#     4   4   2   4
#     4   9  22  43  70  99 130 185 227 284 321 418
#     4   9  21  45  72  86 137 180 237 267 337 391
#     4  12  24  42  66 112 144 172 224 288 360 392
#     4  10  22  44  65  99 133 183 214 290 333 410
#
# _framework density 24.936617999999999
#
# number of rings (size 3 to 8) (size 9 to 14) (size 15 to 20)
#    1.714    0.571    0.000    1.714    0.000    3.429 
#    5.143    0.000    0.000    0.000    0.000    0.000 
#    0.000    0.000    0.000    0.000    0.000    0.000 
#
# Total GULP energy -173584.261074 kJ/mol
# GULP energy per Si atom -12398.875791 kJ/mol
# Density = 2.487986 g / cm^3
# Si number density = 24.936618 Si / 1000 Ang^3
#
#
#
# Elastic Constant Matrix: (Units=GPa)
#
#
# Indices 1 2 3 4 5 6 
#
# 1 157.3529 72.7633 75.4630 0.0000 -24.8787 0.0000
# 2 72.7633 226.7183 73.0671 0.0000 -37.1139 0.0000
# 3 75.4630 73.0671 100.3609 0.0000 -34.7064 0.0000
# 4 0.0000 0.0000 0.0000 43.2538 0.0000 -11.0264
# 5 -24.8787 -37.1139 -34.7064 0.0000 49.2865 0.0000
# 6 0.0000 0.0000 0.0000 -11.0264 0.0000 36.3980
#
#
#
# Elastic Compliance Matrix: (Units=1/GPa)
#
#
# Indices 1 2 3 4 5 6 
#
# 1 0.010140 -0.001088 -0.007067 0.000000 -0.000677 0.000000
# 2 -0.001088 0.006007 -0.002883 0.000000 0.001944 0.000000
# 3 -0.007067 -0.002883 0.020347 0.000000 0.008590 0.000000
# 4 0.000000 0.000000 0.000000 0.025054 0.000000 0.007590
# 5 -0.000677 0.001944 0.008590 0.000000 0.027461 0.000000
# 6 0.000000 0.000000 0.000000 0.007590 0.000000 0.029773
#
#
# Mechanical properties :
#
#
# Convention : Reuss Voigt Hill
#
# Bulk Modulus (GPa) = 69.35190 103.00208 86.17699
# Shear Modulus (GPa) = 34.32534 43.33025 38.82780
#
# Velocity S-wave (km/s) = 3.71415 4.17299 3.95024
# Velocity P-wave (km/s) = 6.80183 8.03827 7.44576
#
# Compressibility (1/GPa) = 0.01441922
#
# Stress axis : x y z
#
# Youngs Moduli (GPa) = 98.61790 166.46136 49.14657
#
# Poissons Ratio (x) = 0.18106 0.34730
# Poissons Ratio (y) = 0.10727 0.14171
# Poissons Ratio (z) = 0.69690 0.47998
#
# Static dielectric constant tensor:
#      x y z
#    x 4.079590 0.000000 -0.092720 
#    y 0.000000 4.196140 0.000000 
#    z -0.092720 0.000000 4.574100 
# 
# 
# High freq. dielectric constant tensor:
#      x y z
#    x 1.981500 0.000000 -0.006460 
#    y 0.000000 1.982410 0.000000 
#    z -0.006460 0.000000 2.036930 
# 
# From -- ./inp_files/60294.got.cif
#   From: 2010.06.25/outbox.cif.g09.slc.cpg/sg13_31_cif.got.tgz:60294.got - 2010.06.28 04:50:58.
