data_PCOD8121329
_publ_section_title
;
Structure prediction by ZEFSAII (Michael W. Deem and Ramdas Pophale) SiO2 
 PCOD8121329
Probable space group: P 2/C
;
_chemical_formula_sum "Si O2"
_cell_formula_units_Z 22
_cell_length_a 10.725405
_cell_length_b 8.433439
_cell_length_c 12.002087
_cell_angle_alpha 90.000000
_cell_angle_beta 108.022102
_cell_angle_gamma 90.000000
_cell_volume 1032.350173
_symmetry_space_group_name_H-M "P 2/C"
_symmetry_group_IT_number 13
_symmetry_cell_setting 'monoclinic'
loop_
_space_group_symop_operation_xyz
x,y,z
-x,y,1/2-z
-x,-y,-z
x,-y,1/2+z
loop_
_atom_site_type_symbol
_atom_site_label
_atom_site_fract_x
_atom_site_fract_y
_atom_site_fract_z
Si Si1 0.609030 0.740425 0.627547
Si Si2 0.317421 0.755167 0.104875
Si Si3 0.114007 0.657730 0.708057
Si Si4 0.988064 0.813051 0.470733
Si Si5 0.500000 0.006232 0.250000
Si Si6 0.000000 0.347756 0.750000
Si Si7 0.500000 0.491239 0.750000
O O1 0.617049 0.742991 0.497867
O O2 0.750292 0.736679 0.723932
O O3 0.535047 0.895772 0.649685
O O4 0.523954 0.591883 0.645133
O O5 0.161559 0.758698 0.054117
O O6 0.367389 0.606453 0.190620
O O7 0.370570 0.908350 0.183254
O O8 0.114475 0.466564 0.734612
O O9 0.000000 0.740888 0.750000
O O10 0.080762 0.702045 0.571810
O O11 0.040092 0.770902 0.361083
O O12 0.000000 0.000000 0.500000
#
# Coordination Sequence:
#
# PCOD8121329 Si02
#       7
#     4   4   4   4   2   2   2
#     4  11  21  42  64  90 123 160 208 260 303 369
#     4  11  22  42  61  88 128 161 205 256 307 373
#     4  10  22  41  66  92 128 162 209 257 321 369
#     4  12  25  40  65  97 130 167 210 260 321 377
#     4  10  24  38  60  92 120 168 208 248 308 364
#     4  10  24  40  62  92 128 166 206 250 320 374
#     4  10  24  38  66  92 116 164 212 248 308 364
#
# _framework density 21.310599
#
# number of rings (size 3 to 8) (size 9 to 14) (size 15 to 20)
#    0.545    0.727    1.818    3.818    1.273    2.909 
#    0.000    9.091    0.000    0.000    0.000    0.000 
#    0.000    0.000    0.000    0.000    0.000    0.000 
#
# Total GULP energy -272717.421367 kJ/mol
# GULP energy per Si atom -12396.246426 kJ/mol
# Density = 2.126209 g / cm^3
# Si number density = 21.310599 Si / 1000 Ang^3
#
#
#
# Elastic Constant Matrix: (Units=GPa)
#
#
# Indices 1 2 3 4 5 6 
#
# 1 55.5690 20.0034 -1.8665 0.0000 3.6510 0.0000
# 2 20.0034 124.1333 43.2381 0.0000 -10.6770 0.0000
# 3 -1.8665 43.2381 108.6456 0.0000 -22.1303 0.0000
# 4 0.0000 0.0000 0.0000 30.1739 0.0000 12.8063
# 5 3.6510 -10.6770 -22.1303 0.0000 42.8158 0.0000
# 6 0.0000 0.0000 0.0000 12.8063 0.0000 35.3971
#
#
#
# Elastic Compliance Matrix: (Units=1/GPa)
#
#
# Indices 1 2 3 4 5 6 
#
# 1 0.019544 -0.003824 0.001480 0.000000 -0.001855 0.000000
# 2 -0.003824 0.010109 -0.003922 0.000000 0.000820 0.000000
# 3 0.001480 -0.003922 0.011809 0.000000 0.004999 0.000000
# 4 0.000000 0.000000 0.000000 0.039153 0.000000 -0.014165
# 5 -0.001855 0.000820 0.004999 0.000000 0.026303 0.000000
# 6 0.000000 0.000000 0.000000 -0.014165 0.000000 0.033376
#
#
# Mechanical properties :
#
#
# Convention : Reuss Voigt Hill
#
# Bulk Modulus (GPa) = 34.56758 45.67756 40.12257
# Shear Modulus (GPa) = 30.77520 36.80887 33.79204
#
# Velocity S-wave (km/s) = 3.80429 4.16054 3.98639
# Velocity P-wave (km/s) = 5.96262 6.67539 6.32905
#
# Compressibility (1/GPa) = 0.02892884
#
# Stress axis : x y z
#
# Youngs Moduli (GPa) = 51.16669 98.92500 84.68302
#
# Poissons Ratio (x) = 0.37833 -0.12532
# Poissons Ratio (y) = 0.19568 0.33210
# Poissons Ratio (z) = -0.07572 0.38795
#
# Static dielectric constant tensor:
#      x y z
#    x 3.725920 0.000000 -0.161530 
#    y 0.000000 3.868550 0.000000 
#    z -0.161530 0.000000 3.955040 
# 
# 
# High freq. dielectric constant tensor:
#      x y z
#    x 1.831870 0.000000 -0.006330 
#    y 0.000000 1.840080 0.000000 
#    z -0.006330 0.000000 1.842460 
# 
# From -- ./inp_files/32190.got.cif
#   From: 2010.06.25/outbox.cif.g09.slc.cpg/sg13_17_cif.got.tgz:32190.got - 2010.06.28 04:50:58.
