data_PCOD8121428
_publ_section_title
;
Structure prediction by ZEFSAII (Michael W. Deem and Ramdas Pophale) SiO2 
 PCOD8121428
Probable space group: P 2/C
;
_chemical_formula_sum "Si O2"
_cell_formula_units_Z 22
_cell_length_a 11.145341
_cell_length_b 16.166541
_cell_length_c 11.783537
_cell_angle_alpha 90.000000
_cell_angle_beta 29.090024
_cell_angle_gamma 90.000000
_cell_volume 1032.252918
_symmetry_space_group_name_H-M "P 2/C"
_symmetry_group_IT_number 13
_symmetry_cell_setting 'monoclinic'
loop_
_space_group_symop_operation_xyz
x,y,z
-x,y,1/2-z
-x,-y,-z
x,-y,1/2+z
loop_
_atom_site_type_symbol
_atom_site_label
_atom_site_fract_x
_atom_site_fract_y
_atom_site_fract_z
Si Si1 0.670859 0.226960 0.216603
Si Si2 0.000000 0.843908 0.750000
Si Si3 0.824155 0.219401 0.623011
Si Si4 0.499316 0.637531 0.479582
Si Si5 0.549900 0.906999 0.992895
Si Si6 0.294444 0.491953 0.521508
O O1 0.500000 0.242952 0.250000
O O2 0.662556 0.307252 0.303008
O O3 0.579803 0.144111 0.352382
O O4 0.964363 0.218083 0.952722
O O5 0.070271 0.780975 0.591323
O O6 0.215861 0.903479 0.617024
O O7 0.664634 0.301447 0.767388
O O8 0.678419 0.133120 0.752524
O O9 0.327779 0.585685 0.536755
O O10 0.663379 0.574114 0.414687
O O11 0.500000 0.000000 0.000000
O O12 0.000000 0.480857 0.750000
O O13 0.500000 0.476147 0.250000
#
# Coordination Sequence:
#
# PCOD8121428 Si02
#       6
#     4   2   4   4   4   4
#     4  10  23  40  65  97 129 179 226 276 342 411
#     4  10  22  42  66  98 134 170 232 272 340 404
#     4  10  23  42  66  96 131 177 225 279 341 406
#     4  10  25  43  66  97 134 175 232 278 346 417
#     4  10  23  41  64  98 134 176 217 280 337 406
#     4  11  27  45  71 102 138 183 229 293 353 415
#
# _framework density 21.312605999999999
#
# number of rings (size 3 to 8) (size 9 to 14) (size 15 to 20)
#    0.000    1.818    0.000    1.091    7.636   13.818 
#    6.545    0.000    0.000    0.000    0.000    0.000 
#    0.000    0.000    0.000    0.000    0.000    0.000 
#
# Total GULP energy -272602.848788 kJ/mol
# GULP energy per Si atom -12391.038581 kJ/mol
# Density = 2.126410 g / cm^3
# Si number density = 21.312606 Si / 1000 Ang^3
#
#
#
# Elastic Constant Matrix: (Units=GPa)
#
#
# Indices 1 2 3 4 5 6 
#
# 1 93.4661 24.5363 41.2840 0.0000 -16.0158 0.0000
# 2 24.5363 135.9957 27.6676 0.0000 -4.0464 0.0000
# 3 41.2840 27.6676 105.3365 0.0000 -20.3160 0.0000
# 4 0.0000 0.0000 0.0000 -4.4294 0.0000 -10.5928
# 5 -16.0158 -4.0464 -20.3160 0.0000 33.8338 0.0000
# 6 0.0000 0.0000 0.0000 -10.5928 0.0000 24.7205
#
#
#
# Elastic Compliance Matrix: (Units=1/GPa)
#
#
# Indices 1 2 3 4 5 6 
#
# 1 0.013590 -0.001483 -0.004219 0.000000 0.003722 0.000000
# 2 -0.001483 0.007933 -0.001646 0.000000 -0.000741 0.000000
# 3 -0.004219 -0.001646 0.012617 0.000000 0.005382 0.000000
# 4 0.000000 0.000000 0.000000 -0.111502 0.000000 -0.047779
# 5 0.003722 -0.000741 0.005382 0.000000 0.034462 0.000000
# 6 0.000000 0.000000 0.000000 -0.047779 0.000000 0.019979
#
#
# Mechanical properties :
#
#
# Convention : Reuss Voigt Hill
#
# Bulk Modulus (GPa) = 51.42473 57.97491 54.69982
# Shear Modulus (GPa) = -2864.86383 26.91233 -1418.97575
#
# Velocity S-wave (km/s) = -36.70326 3.55736 -25.83093
# Velocity P-wave (km/s) = 42.09502 6.64337 29.39266
#
# Compressibility (1/GPa) = 0.01944590
#
# Stress axis : x y z
#
# Youngs Moduli (GPa) = 73.58588 126.04877 79.25744
#
# Poissons Ratio (x) = 0.18691 0.33436
# Poissons Ratio (y) = 0.10911 0.13043
# Poissons Ratio (z) = 0.31044 0.20743
#
# Static dielectric constant tensor:
#      x y z
#    x 3.629990 0.000000 -0.351120 
#    y 0.000000 3.835710 0.000000 
#    z -0.351120 0.000000 3.968500 
# 
# 
# High freq. dielectric constant tensor:
#      x y z
#    x 1.843690 0.000000 -0.011230 
#    y 0.000000 1.840720 0.000000 
#    z -0.011230 0.000000 1.840160 
# 
# From -- ./inp_files/34533.got.cif
#   From: 2010.06.25/outbox.cif.g09.slc.cpg/sg13_18_cif.got.tgz:34533.got - 2010.06.28 04:50:58.
