data_PCOD8121536
_publ_section_title
;
Structure prediction by ZEFSAII (Michael W. Deem and Ramdas Pophale) SiO2 
 PCOD8121536
Probable space group: P 2/C
;
_chemical_formula_sum "Si O2"
_cell_formula_units_Z 20
_cell_length_a 10.379407
_cell_length_b 8.339877
_cell_length_c 24.804029
_cell_angle_alpha 90.000000
_cell_angle_beta 156.768013
_cell_angle_gamma 90.000000
_cell_volume 846.938476
_symmetry_space_group_name_H-M "P 2/C"
_symmetry_group_IT_number 13
_symmetry_cell_setting 'monoclinic'
loop_
_space_group_symop_operation_xyz
x,y,z
-x,y,1/2-z
-x,-y,-z
x,-y,1/2+z
loop_
_atom_site_type_symbol
_atom_site_label
_atom_site_fract_x
_atom_site_fract_y
_atom_site_fract_z
Si Si1 0.887723 0.323965 0.263998
Si Si2 0.194680 0.309848 0.757289
Si Si3 0.796386 0.181441 0.507625
Si Si4 0.413634 0.112262 0.517527
Si Si5 0.253176 0.363528 0.611063
O O1 0.949457 0.513376 0.289899
O O2 0.000000 0.253908 0.250000
O O3 0.108368 0.231025 0.391846
O O4 0.505797 0.293024 0.125986
O O5 0.550168 0.309213 0.865634
O O6 0.925927 0.221505 0.617651
O O7 0.269276 0.219184 0.843081
O O8 0.074143 0.209321 0.569447
O O9 0.679965 0.997798 0.466671
O O10 0.500000 0.000000 0.500000
O O11 0.500000 0.438647 0.750000
O O12 0.000000 0.500000 0.500000
#
# Coordination Sequence:
#
# PCOD8121536 Si02
#       5
#     4   4   4   4   4
#     4  12  25  43  71 106 137 191 237 287 359 432
#     4  11  26  44  73 102 141 188 242 291 352 435
#     4  11  24  44  69 102 146 187 232 291 364 406
#     4  12  27  46  68 106 148 185 235 301 359 424
#     4  10  22  43  71 103 142 183 241 295 342 423
#
# _framework density 23.614466
#
# number of rings (size 3 to 8) (size 9 to 14) (size 15 to 20)
#    0.000    0.800    4.000    2.400    5.600    2.400 
#    0.000    2.000    0.000    0.000    0.000    0.000 
#    0.000    0.000    0.000    0.000    0.000    0.000 
#
# Total GULP energy -248037.045344 kJ/mol
# GULP energy per Si atom -12401.852267 kJ/mol
# Density = 2.356072 g / cm^3
# Si number density = 23.614466 Si / 1000 Ang^3
#
#
#
# Elastic Constant Matrix: (Units=GPa)
#
#
# Indices 1 2 3 4 5 6 
#
# 1 59.6967 8.0148 10.8733 0.0000 2.0855 0.0000
# 2 8.0148 131.6587 39.4884 0.0000 -2.2198 0.0000
# 3 10.8733 39.4884 142.8467 0.0000 3.8497 0.0000
# 4 0.0000 0.0000 0.0000 47.2805 0.0000 0.4405
# 5 2.0855 -2.2198 3.8497 0.0000 33.2536 0.0000
# 6 0.0000 0.0000 0.0000 0.4405 0.0000 25.3769
#
#
#
# Elastic Compliance Matrix: (Units=1/GPa)
#
#
# Indices 1 2 3 4 5 6 
#
# 1 0.017080 -0.000736 -0.001070 0.000000 -0.000996 0.000000
# 2 -0.000736 0.008336 -0.002272 0.000000 0.000866 0.000000
# 3 -0.001070 -0.002272 0.007736 0.000000 -0.000980 0.000000
# 4 0.000000 0.000000 0.000000 0.021154 0.000000 -0.000367
# 5 -0.000996 0.000866 -0.000980 0.000000 0.030306 0.000000
# 6 0.000000 0.000000 0.000000 -0.000367 0.000000 0.039412
#
#
# Mechanical properties :
#
#
# Convention : Reuss Voigt Hill
#
# Bulk Modulus (GPa) = 40.00365 50.10611 45.05488
# Shear Modulus (GPa) = 35.58435 39.57058 37.57747
#
# Velocity S-wave (km/s) = 3.88608 4.09796 3.99343
# Velocity P-wave (km/s) = 6.09201 6.60723 6.35484
#
# Compressibility (1/GPa) = 0.02499772
#
# Stress axis : x y z
#
# Youngs Moduli (GPa) = 58.54873 119.95958 129.25958
#
# Poissons Ratio (x) = 0.08825 0.13829
# Poissons Ratio (y) = 0.04307 0.29365
# Poissons Ratio (z) = 0.06264 0.27252
#
# Static dielectric constant tensor:
#      x y z
#    x 4.474540 0.000000 -0.144070 
#    y 0.000000 4.185030 0.000000 
#    z -0.144070 0.000000 4.576670 
# 
# 
# High freq. dielectric constant tensor:
#      x y z
#    x 1.933960 0.000000 0.009250 
#    y 0.000000 1.931910 0.000000 
#    z 0.009250 0.000000 1.953750 
# 
# From -- ./inp_files/14933.got.cif
#   From: 2010.06.25/outbox.cif.g09.slc.cpg/sg13_8_cif.got.tgz:14933.got - 2010.06.28 04:50:58.
