data_PCOD8121400
_publ_section_title
;
Structure prediction by ZEFSAII (Michael W. Deem and Ramdas Pophale) SiO2 
 PCOD8121400
Probable space group: P 2/C
;
_chemical_formula_sum "Si O2"
_cell_formula_units_Z 28
_cell_length_a 8.899439
_cell_length_b 15.166850
_cell_length_c 14.950022
_cell_angle_alpha 90.000000
_cell_angle_beta 142.186262
_cell_angle_gamma 90.000000
_cell_volume 1237.168024
_symmetry_space_group_name_H-M "P 2/C"
_symmetry_group_IT_number 13
_symmetry_cell_setting 'monoclinic'
loop_
_space_group_symop_operation_xyz
x,y,z
-x,y,1/2-z
-x,-y,-z
x,-y,1/2+z
loop_
_atom_site_type_symbol
_atom_site_label
_atom_site_fract_x
_atom_site_fract_y
_atom_site_fract_z
Si Si1 0.500000 0.695893 0.250000
Si Si2 0.281781 0.568744 0.006730
Si Si3 0.764967 0.860087 0.837550
Si Si4 0.127981 0.829974 0.152431
Si Si5 0.000000 0.711940 0.250000
Si Si6 0.124491 0.305824 0.213870
Si Si7 0.263603 0.990060 0.324014
Si Si8 0.427559 0.392857 0.023510
O O1 0.459353 0.631071 0.147320
O O2 0.276113 0.760667 0.162847
O O3 0.307830 0.463325 0.038246
O O4 0.355402 0.567680 0.936604
O O5 0.007074 0.606467 0.888791
O O6 0.500000 0.834968 0.750000
O O7 0.912080 0.777411 0.866610
O O8 0.736909 0.933817 0.749393
O O9 0.939418 0.887272 0.003160
O O10 0.978372 0.771949 0.152630
O O11 0.300131 0.898114 0.287854
O O12 0.234071 0.649003 0.364571
O O13 0.419315 0.319328 0.350741
O O14 0.000000 0.281054 0.250000
O O15 0.000000 0.990044 0.250000
O O16 0.500000 0.000000 0.500000
#
# Coordination Sequence:
#
# PCOD8121400 Si02
#       8
#     2   4   4   4   2   4   4   4
#     4  12  24  44  70 104 138 184 238 300 364 424
#     4  10  22  42  64 100 133 182 235 296 351 421
#     4  12  26  46  73 109 148 186 239 303 364 428
#     4  12  27  46  73 103 147 185 242 299 365 430
#     4  12  24  46  72  98 140 196 232 292 368 430
#     4  10  22  42  70  98 138 187 241 288 355 431
#     4  12  29  49  78 110 149 196 245 297 368 456
#     4  10  23  39  68  95 136 182 237 287 351 428
#
# _framework density 22.632332999999999
#
# number of rings (size 3 to 8) (size 9 to 14) (size 15 to 20)
#    0.000    0.857    3.571    2.571   10.000    0.000 
#    3.857    1.429    0.000    0.000    0.000    0.000 
#    0.000    0.000    0.000    0.000    0.000    0.000 
#
# Total GULP energy -346980.487622 kJ/mol
# GULP energy per Si atom -12392.160272 kJ/mol
# Density = 2.258082 g / cm^3
# Si number density = 22.632333 Si / 1000 Ang^3
#
#
#
# Elastic Constant Matrix: (Units=GPa)
#
#
# Indices 1 2 3 4 5 6 
#
# 1 88.1027 44.5735 32.2450 0.0000 -1.8756 0.0000
# 2 44.5735 121.7817 55.8853 0.0000 -6.8540 0.0000
# 3 32.2450 55.8853 161.2314 0.0000 8.7960 0.0000
# 4 0.0000 0.0000 0.0000 37.2367 0.0000 -3.2406
# 5 -1.8756 -6.8540 8.7960 0.0000 27.1563 0.0000
# 6 0.0000 0.0000 0.0000 -3.2406 0.0000 31.4913
#
#
#
# Elastic Compliance Matrix: (Units=1/GPa)
#
#
# Indices 1 2 3 4 5 6 
#
# 1 0.014133 -0.004587 -0.001249 0.000000 0.000223 0.000000
# 2 -0.004587 0.011617 -0.003310 0.000000 0.003687 0.000000
# 3 -0.001249 -0.003310 0.007787 0.000000 -0.003444 0.000000
# 4 0.000000 0.000000 0.000000 0.027098 0.000000 0.002788
# 5 0.000223 0.003687 -0.003444 0.000000 0.038885 0.000000
# 6 0.000000 0.000000 0.000000 0.002788 0.000000 0.032042
#
#
# Mechanical properties :
#
#
# Convention : Reuss Voigt Hill
#
# Bulk Modulus (GPa) = 65.59645 70.72481 68.16063
# Shear Modulus (GPa) = 32.27124 35.07099 33.67112
#
# Velocity S-wave (km/s) = 3.78019 3.94076 3.86131
# Velocity P-wave (km/s) = 6.93539 7.21273 7.07542
#
# Compressibility (1/GPa) = 0.01524473
#
# Stress axis : x y z
#
# Youngs Moduli (GPa) = 70.75659 86.08003 128.41406
#
# Poissons Ratio (x) = 0.39488 0.16034
# Poissons Ratio (y) = 0.32458 0.42510
# Poissons Ratio (z) = 0.08835 0.28496
#
# Static dielectric constant tensor:
#      x y z
#    x 3.777870 0.000000 -0.115620 
#    y 0.000000 4.259820 0.000000 
#    z -0.115620 0.000000 4.124700 
# 
# 
# High freq. dielectric constant tensor:
#      x y z
#    x 1.881520 0.000000 -0.001090 
#    y 0.000000 1.897530 0.000000 
#    z -0.001090 0.000000 1.903560 
# 
# From -- ./inp_files/47971.got.cif
#   From: 2010.06.25/outbox.cif.g09.slc.cpg/sg13_24_cif.got.tgz:47971.got - 2010.06.28 04:50:58.
