data_PCOD8121817
_publ_section_title
;
Structure prediction by ZEFSAII (Michael W. Deem and Ramdas Pophale) SiO2 
 PCOD8121817
Probable space group: P 2/C
;
_chemical_formula_sum "Si O2"
_cell_formula_units_Z 22
_cell_length_a 11.523231
_cell_length_b 10.994879
_cell_length_c 11.125981
_cell_angle_alpha 90.000000
_cell_angle_beta 47.033096
_cell_angle_gamma 90.000000
_cell_volume 1031.488282
_symmetry_space_group_name_H-M "P 2/C"
_symmetry_group_IT_number 13
_symmetry_cell_setting 'monoclinic'
loop_
_space_group_symop_operation_xyz
x,y,z
-x,y,1/2-z
-x,-y,-z
x,-y,1/2+z
loop_
_atom_site_type_symbol
_atom_site_label
_atom_site_fract_x
_atom_site_fract_y
_atom_site_fract_z
Si Si1 0.098536 0.321977 0.798701
Si Si2 0.680550 0.131715 0.963724
Si Si3 0.216959 0.266989 0.367076
Si Si4 0.645869 0.511450 0.305381
Si Si5 0.352181 0.138052 0.063144
Si Si6 0.500000 0.291498 0.750000
O O1 0.217872 0.207039 0.705375
O O2 0.193252 0.449040 0.741284
O O3 0.000000 0.337827 0.750000
O O4 0.969191 0.299062 0.993054
O O5 0.723174 0.989593 0.925109
O O6 0.715523 0.182310 0.072782
O O7 0.496965 0.136246 0.056297
O O8 0.327922 0.387156 0.285861
O O9 0.218310 0.204394 0.235518
O O10 0.500000 0.500000 0.500000
O O11 0.622822 0.621935 0.230233
O O12 0.397958 0.209019 0.910939
#
# Coordination Sequence:
#
# PCOD8121817 Si02
#       6
#     4   4   4   4   4   2
#     4  10  23  44  68 101 142 177 227 279 347 416
#     4  10  23  42  67  96 134 178 232 280 333 405
#     4  11  24  42  69  98 133 184 222 282 353 405
#     4  12  25  44  68 100 138 180 233 279 341 406
#     4  11  24  41  66  98 133 179 232 283 330 400
#     4  12  26  40  68 104 136 168 234 292 324 408
#
# _framework density 21.328403999999999
#
# number of rings (size 3 to 8) (size 9 to 14) (size 15 to 20)
#    0.000    1.091    3.636    1.091   12.727    0.727 
#    0.000    4.545    0.000    0.000    0.000    0.000 
#    0.000    0.000    0.000    0.000    0.000    0.000 
#
# Total GULP energy -272734.921296 kJ/mol
# GULP energy per Si atom -12397.041877 kJ/mol
# Density = 2.127986 g / cm^3
# Si number density = 21.328404 Si / 1000 Ang^3
#
#
#
# Elastic Constant Matrix: (Units=GPa)
#
#
# Indices 1 2 3 4 5 6 
#
# 1 45.1775 40.4906 29.7893 0.0000 -7.0317 0.0000
# 2 40.4906 161.6899 67.7191 0.0000 13.7539 0.0000
# 3 29.7893 67.7191 176.6150 0.0000 10.4298 0.0000
# 4 0.0000 0.0000 0.0000 26.3883 0.0000 11.5941
# 5 -7.0317 13.7539 10.4298 0.0000 32.0367 0.0000
# 6 0.0000 0.0000 0.0000 11.5941 0.0000 35.9398
#
#
#
# Elastic Compliance Matrix: (Units=1/GPa)
#
#
# Indices 1 2 3 4 5 6 
#
# 1 0.033251 -0.007968 -0.003249 0.000000 0.011777 0.000000
# 2 -0.007968 0.009445 -0.001973 0.000000 -0.005162 0.000000
# 3 -0.003249 -0.001973 0.007095 0.000000 -0.002176 0.000000
# 4 0.000000 0.000000 0.000000 0.044154 0.000000 -0.014244
# 5 0.011777 -0.005162 -0.002176 0.000000 0.036723 0.000000
# 6 0.000000 0.000000 0.000000 -0.014244 0.000000 0.032419
#
#
# Mechanical properties :
#
#
# Convention : Reuss Voigt Hill
#
# Bulk Modulus (GPa) = 42.71214 73.27558 57.99386
# Shear Modulus (GPa) = 25.34575 35.23854 30.29214
#
# Velocity S-wave (km/s) = 3.45099 4.06912 3.77274
# Velocity P-wave (km/s) = 5.99571 7.51714 6.79912
#
# Compressibility (1/GPa) = 0.02341255
#
# Stress axis : x y z
#
# Youngs Moduli (GPa) = 30.07386 105.87192 140.94561
#
# Poissons Ratio (x) = 0.84359 0.45790
# Poissons Ratio (y) = 0.23963 0.27807
# Poissons Ratio (z) = 0.09770 0.20887
#
# Static dielectric constant tensor:
#      x y z
#    x 4.377510 0.000000 -0.871790 
#    y 0.000000 4.075140 0.000000 
#    z -0.871790 0.000000 5.387570 
# 
# 
# High freq. dielectric constant tensor:
#      x y z
#    x 1.823090 0.000000 0.003870 
#    y 0.000000 1.847840 0.000000 
#    z 0.003870 0.000000 1.848560 
# 
# From -- ./inp_files/33625.got.cif
#   From: 2010.06.25/outbox.cif.g09.slc.cpg/sg13_17_cif.got.tgz:33625.got - 2010.06.28 04:50:58.
