data_PCOD8121552
_publ_section_title
;
Structure prediction by ZEFSAII (Michael W. Deem and Ramdas Pophale) SiO2 
 PCOD8121552
Probable space group: P 2/C
;
_chemical_formula_sum "Si O2"
_cell_formula_units_Z 30
_cell_length_a 7.382197
_cell_length_b 10.033954
_cell_length_c 19.764011
_cell_angle_alpha 90.000000
_cell_angle_beta 100.919618
_cell_angle_gamma 90.000000
_cell_volume 1437.465364
_symmetry_space_group_name_H-M "P 2/C"
_symmetry_group_IT_number 13
_symmetry_cell_setting 'monoclinic'
loop_
_space_group_symop_operation_xyz
x,y,z
-x,y,1/2-z
-x,-y,-z
x,-y,1/2+z
loop_
_atom_site_type_symbol
_atom_site_label
_atom_site_fract_x
_atom_site_fract_y
_atom_site_fract_z
Si Si1 0.543281 0.852930 0.385734
Si Si2 0.674424 0.548784 0.583254
Si Si3 0.500000 0.993490 0.250000
Si Si4 0.845118 0.065297 0.443692
Si Si5 0.376281 0.284999 0.996042
Si Si6 0.593600 0.418424 0.829217
Si Si7 0.051508 0.431177 0.183005
Si Si8 0.125722 0.866658 0.699866
O O1 0.440459 0.907802 0.311492
O O2 0.397278 0.812867 0.433141
O O3 0.647543 0.720338 0.368439
O O4 0.680827 0.959831 0.426837
O O5 0.704696 0.429244 0.531283
O O6 0.575735 0.679998 0.544037
O O7 0.550227 0.501431 0.636783
O O8 0.875789 0.590425 0.622530
O O9 0.666716 0.086632 0.280887
O O10 0.763823 0.207364 0.464168
O O11 0.946210 0.091383 0.379243
O O12 0.000000 0.000000 0.500000
O O13 0.500000 0.397668 0.750000
O O14 0.790055 0.489352 0.843592
O O15 0.135297 0.290358 0.210232
O O16 0.000000 0.505900 0.250000
O O17 0.000000 0.931941 0.750000
#
# Coordination Sequence:
#
# PCOD8121552 Si02
#       8
#     4   4   2   4   4   4   4   4
#     4  10  23  42  66  93 122 182 209 267 338 381
#     4  10  23  43  65  98 131 172 221 268 344 388
#     4  10  22  44  64  88 130 166 224 266 324 394
#     4  11  25  41  63 100 132 172 223 267 331 394
#     4  10  23  44  67  92 134 177 214 277 329 404
#     4  11  21  40  65  96 134 161 218 276 329 397
#     4  11  23  37  66  99 125 173 216 278 336 386
#     4  10  25  42  64  94 125 172 218 269 325 385
#
# _framework density 20.870068
#
# number of rings (size 3 to 8) (size 9 to 14) (size 15 to 20)
#    0.000    1.600    2.000    1.200    6.533    4.267 
#    0.000    5.333    0.000    0.000    0.000    0.000 
#    0.000    0.000    0.000    0.000    0.000    0.000 
#
# Total GULP energy -371943.486468 kJ/mol
# GULP energy per Si atom -12398.116216 kJ/mol
# Density = 2.082257 g / cm^3
# Si number density = 20.870068 Si / 1000 Ang^3
#
#
#
# Elastic Constant Matrix: (Units=GPa)
#
#
# Indices 1 2 3 4 5 6 
#
# 1 89.1116 34.4279 46.2564 0.0000 -0.4201 0.0000
# 2 34.4279 88.6705 35.6809 0.0000 -8.1819 0.0000
# 3 46.2564 35.6809 132.4846 0.0000 -6.6072 0.0000
# 4 0.0000 0.0000 0.0000 29.1216 0.0000 -9.0909
# 5 -0.4201 -8.1819 -6.6072 0.0000 36.3149 0.0000
# 6 0.0000 0.0000 0.0000 -9.0909 0.0000 19.9950
#
#
#
# Elastic Compliance Matrix: (Units=1/GPa)
#
#
# Indices 1 2 3 4 5 6 
#
# 1 0.015043 -0.004306 -0.004170 0.000000 -0.001555 0.000000
# 2 -0.004306 0.014066 -0.002149 0.000000 0.002728 0.000000
# 3 -0.004170 -0.002149 0.009644 0.000000 0.001222 0.000000
# 4 0.000000 0.000000 0.000000 0.040019 0.000000 0.018195
# 5 -0.001555 0.002728 0.001222 0.000000 0.028356 0.000000
# 6 0.000000 0.000000 0.000000 0.018195 0.000000 0.058285
#
#
# Mechanical properties :
#
#
# Convention : Reuss Voigt Hill
#
# Bulk Modulus (GPa) = 57.13364 60.33302 58.73333
# Shear Modulus (GPa) = 25.97455 30.01305 27.99380
#
# Velocity S-wave (km/s) = 3.53169 3.79633 3.66640
# Velocity P-wave (km/s) = 6.63821 6.94174 6.79167
#
# Compressibility (1/GPa) = 0.01750282
#
# Stress axis : x y z
#
# Youngs Moduli (GPa) = 66.47726 71.09320 103.69559
#
# Poissons Ratio (x) = 0.30614 0.43240
# Poissons Ratio (y) = 0.28626 0.22282
# Poissons Ratio (z) = 0.27720 0.15276
#
# Static dielectric constant tensor:
#      x y z
#    x 3.496790 0.000000 -0.081440 
#    y 0.000000 3.802000 0.000000 
#    z -0.081440 0.000000 4.276310 
# 
# 
# High freq. dielectric constant tensor:
#      x y z
#    x 1.798520 0.000000 -0.005000 
#    y 0.000000 1.819130 0.000000 
#    z -0.005000 0.000000 1.841390 
# 
# From -- ./inp_files/73653.got.cif
#   From: 2010.06.25/outbox.cif.g09.slc.cpg/sg13_37_cif.got.tgz:73653.got - 2010.06.28 04:50:58.
