data_PCOD8121342
_publ_section_title
;
Structure prediction by ZEFSAII (Michael W. Deem and Ramdas Pophale) SiO2 
 PCOD8121342
Probable space group: P 2/C
;
_chemical_formula_sum "Si O2"
_cell_formula_units_Z 16
_cell_length_a 10.171179
_cell_length_b 4.924914
_cell_length_c 13.673838
_cell_angle_alpha 90.000000
_cell_angle_beta 115.064175
_cell_angle_gamma 90.000000
_cell_volume 620.453057
_symmetry_space_group_name_H-M "P 2/C"
_symmetry_group_IT_number 13
_symmetry_cell_setting 'monoclinic'
loop_
_space_group_symop_operation_xyz
x,y,z
-x,y,1/2-z
-x,-y,-z
x,-y,1/2+z
loop_
_atom_site_type_symbol
_atom_site_label
_atom_site_fract_x
_atom_site_fract_y
_atom_site_fract_z
Si Si1 0.244140 0.699466 0.232171
Si Si2 0.670110 0.490148 0.949911
Si Si3 0.379056 0.784707 0.868963
Si Si4 0.036689 0.748906 0.445269
O O1 0.257271 0.401098 0.280948
O O2 0.071917 0.770150 0.182473
O O3 0.345400 0.907306 0.325271
O O4 0.290495 0.685311 0.132973
O O5 0.629814 0.257754 0.016765
O O6 0.795282 0.697168 0.031400
O O7 0.536610 0.688020 0.881910
O O8 0.000000 0.500000 0.500000
O O9 0.000000 0.000000 0.500000
#
# Coordination Sequence:
#
# PCOD8121342 Si02
#       4
#     4   4   4   4
#     4  11  24  44  69 100 138 183 233 285 350 423
#     4  10  25  46  70 104 147 181 234 297 348 421
#     4  11  26  44  72 104 136 188 235 286 357 416
#     4  10  22  41  67  97 135 181 224 284 353 408
#
# _framework density 25.787606
#
# number of rings (size 3 to 8) (size 9 to 14) (size 15 to 20)
#    0.000    1.500    0.000    3.750    0.000   21.000 
#    0.000    2.500    0.000    0.000    0.000    0.000 
#    0.000    0.000    0.000    0.000    0.000    0.000 
#
# Total GULP energy -198307.160776 kJ/mol
# GULP energy per Si atom -12394.197548 kJ/mol
# Density = 2.572891 g / cm^3
# Si number density = 25.787606 Si / 1000 Ang^3
#
#
#
# Elastic Constant Matrix: (Units=GPa)
#
#
# Indices 1 2 3 4 5 6 
#
# 1 80.1474 21.9037 34.6366 0.0000 15.9857 0.0000
# 2 21.9037 102.4403 14.0641 0.0000 2.4097 0.0000
# 3 34.6366 14.0641 110.6564 0.0000 20.0202 0.0000
# 4 0.0000 0.0000 0.0000 59.5108 0.0000 4.5323
# 5 15.9857 2.4097 20.0202 0.0000 54.7377 0.0000
# 6 0.0000 0.0000 0.0000 4.5323 0.0000 18.3578
#
#
#
# Elastic Compliance Matrix: (Units=1/GPa)
#
#
# Indices 1 2 3 4 5 6 
#
# 1 0.015527 -0.002704 -0.003981 0.000000 -0.002959 0.000000
# 2 -0.002704 0.010406 -0.000574 0.000000 0.000542 0.000000
# 3 -0.003981 -0.000574 0.010860 0.000000 -0.002784 0.000000
# 4 0.000000 0.000000 0.000000 0.017126 0.000000 -0.004228
# 5 -0.002959 0.000542 -0.002784 0.000000 0.020128 0.000000
# 6 0.000000 0.000000 0.000000 -0.004228 0.000000 0.055517
#
#
# Mechanical properties :
#
#
# Convention : Reuss Voigt Hill
#
# Bulk Modulus (GPa) = 44.89441 48.27257 46.58349
# Shear Modulus (GPa) = 33.00225 41.36391 37.18308
#
# Velocity S-wave (km/s) = 3.58127 4.00937 3.80135
# Velocity P-wave (km/s) = 5.87773 6.33982 6.11315
#
# Compressibility (1/GPa) = 0.02227449
#
# Stress axis : x y z
#
# Youngs Moduli (GPa) = 64.40568 96.09845 92.08324
#
# Poissons Ratio (x) = 0.25982 0.36658
# Poissons Ratio (y) = 0.17414 0.05288
# Poissons Ratio (z) = 0.25639 0.05518
#
# Static dielectric constant tensor:
#      x y z
#    x 3.809700 0.000000 -0.233630 
#    y 0.000000 4.972670 0.000000 
#    z -0.233630 0.000000 4.560260 
# 
# 
# High freq. dielectric constant tensor:
#      x y z
#    x 2.032160 0.000000 0.019250 
#    y 0.000000 2.029760 0.000000 
#    z 0.019250 0.000000 2.046560 
# 
# From -- ./inp_files/48468.got.cif
#   From: 2010.06.25/outbox.cif.g09.slc.cpg/sg13_25_cif.got.tgz:48468.got - 2010.06.28 04:50:58.
