data_PCOD8121500
_publ_section_title
;
Structure prediction by ZEFSAII (Michael W. Deem and Ramdas Pophale) SiO2 
 PCOD8121500
Probable space group: P 2/C
;
_chemical_formula_sum "Si O2"
_cell_formula_units_Z 26
_cell_length_a 20.227128
_cell_length_b 6.486545
_cell_length_c 15.743300
_cell_angle_alpha 90.000000
_cell_angle_beta 30.896710
_cell_angle_gamma 90.000000
_cell_volume 1060.662206
_symmetry_space_group_name_H-M "P 2/C"
_symmetry_group_IT_number 13
_symmetry_cell_setting 'monoclinic'
loop_
_space_group_symop_operation_xyz
x,y,z
-x,y,1/2-z
-x,-y,-z
x,-y,1/2+z
loop_
_atom_site_type_symbol
_atom_site_label
_atom_site_fract_x
_atom_site_fract_y
_atom_site_fract_z
Si Si1 0.966047 0.866686 0.665529
Si Si2 0.450936 0.985669 0.708317
Si Si3 0.000000 0.495665 0.250000
Si Si4 0.194805 0.034567 0.318186
Si Si5 0.802257 0.165152 0.954957
Si Si6 0.328891 0.298688 0.567869
Si Si7 0.421040 0.322246 0.039687
O O1 0.887428 0.850765 0.664783
O O2 0.983308 0.636680 0.682590
O O3 0.895307 0.989344 0.817701
O O4 0.101700 0.991613 0.501809
O O5 0.500000 0.023835 0.750000
O O6 0.527498 0.798568 0.578063
O O7 0.476554 0.192703 0.627053
O O8 0.298414 0.938851 0.868436
O O9 0.879062 0.640471 0.407389
O O10 0.322003 0.171879 0.200409
O O11 0.234310 0.810270 0.239389
O O12 0.712093 0.255140 0.981592
O O13 0.328699 0.544613 0.579272
O O14 0.500000 0.500000 0.000000
#
# Coordination Sequence:
#
# PCOD8121500 Si02
#       7
#     4   4   2   4   4   4   4
#     4  10  22  44  67  99 135 182 224 277 338 405
#     4   9  21  42  69  95 134 177 221 278 333 399
#     4  12  24  40  64 104 138 170 226 276 340 400
#     4   9  21  44  72  90 136 183 224 273 337 410
#     4  10  22  43  65  97 137 175 223 278 335 403
#     4   9  20  42  68  93 126 178 228 267 333 405
#     4  11  23  42  69 105 133 173 229 281 339 402
#
# _framework density 24.512986999999999
#
# number of rings (size 3 to 8) (size 9 to 14) (size 15 to 20)
#    0.000    2.154    0.000    2.308    0.000    6.769 
#   16.615    4.615    0.000    0.000    0.000    0.000 
#    0.000    0.000    0.000    0.000    0.000    0.000 
#
# Total GULP energy -322371.656071 kJ/mol
# GULP energy per Si atom -12398.909849 kJ/mol
# Density = 2.445719 g / cm^3
# Si number density = 24.512987 Si / 1000 Ang^3
#
#
#
# Elastic Constant Matrix: (Units=GPa)
#
#
# Indices 1 2 3 4 5 6 
#
# 1 39.3713 39.1720 50.0815 0.0000 -15.2743 0.0000
# 2 39.1720 164.4763 86.4561 0.0000 -0.7431 0.0000
# 3 50.0815 86.4561 203.9848 0.0000 -5.8161 0.0000
# 4 0.0000 0.0000 0.0000 35.6335 0.0000 -4.5301
# 5 -15.2743 -0.7431 -5.8161 0.0000 42.7446 0.0000
# 6 0.0000 0.0000 0.0000 -4.5301 0.0000 23.3939
#
#
#
# Elastic Compliance Matrix: (Units=1/GPa)
#
#
# Indices 1 2 3 4 5 6 
#
# 1 0.050271 -0.007281 -0.008782 0.000000 0.016642 0.000000
# 2 -0.007281 0.008882 -0.002054 0.000000 -0.002727 0.000000
# 3 -0.008782 -0.002054 0.007869 0.000000 -0.002103 0.000000
# 4 0.000000 0.000000 0.000000 0.028772 0.000000 0.005571
# 5 0.016642 -0.002727 -0.002103 0.000000 0.029008 0.000000
# 6 0.000000 0.000000 0.000000 0.005571 0.000000 0.043825
#
#
# Mechanical properties :
#
#
# Convention : Reuss Voigt Hill
#
# Bulk Modulus (GPa) = 32.48172 84.36130 58.42151
# Shear Modulus (GPa) = 23.24252 35.82926 29.53589
#
# Velocity S-wave (km/s) = 3.08258 3.82729 3.47494
# Velocity P-wave (km/s) = 5.09405 7.34987 6.32336
#
# Compressibility (1/GPa) = 0.03078654
#
# Stress axis : x y z
#
# Youngs Moduli (GPa) = 19.89237 112.59221 127.07873
#
# Poissons Ratio (x) = 0.81982 1.11596
# Poissons Ratio (y) = 0.14484 0.26107
# Poissons Ratio (z) = 0.17469 0.23131
#
# Static dielectric constant tensor:
#      x y z
#    x 4.606940 0.000000 -0.272030 
#    y 0.000000 4.610910 0.000000 
#    z -0.272030 0.000000 4.594130 
# 
# 
# High freq. dielectric constant tensor:
#      x y z
#    x 2.003210 0.000000 -0.010320 
#    y 0.000000 1.969470 0.000000 
#    z -0.010320 0.000000 1.979060 
# 
# From -- ./inp_files/70882.got.cif
#   From: 2010.06.25/outbox.cif.g09.slc.cpg/sg13_36_cif.got.tgz:70882.got - 2010.06.28 04:50:58.
