data_PCOD8121892
_publ_section_title
;
Structure prediction by ZEFSAII (Michael W. Deem and Ramdas Pophale) SiO2 
 PCOD8121892
Probable space group: P 2/C
;
_chemical_formula_sum "Si O2"
_cell_formula_units_Z 22
_cell_length_a 5.271258
_cell_length_b 11.029667
_cell_length_c 17.065635
_cell_angle_alpha 90.000000
_cell_angle_beta 62.591380
_cell_angle_gamma 90.000000
_cell_volume 880.821524
_symmetry_space_group_name_H-M "P 2/C"
_symmetry_group_IT_number 13
_symmetry_cell_setting 'monoclinic'
loop_
_space_group_symop_operation_xyz
x,y,z
-x,y,1/2-z
-x,-y,-z
x,-y,1/2+z
loop_
_atom_site_type_symbol
_atom_site_label
_atom_site_fract_x
_atom_site_fract_y
_atom_site_fract_z
Si Si1 0.584284 0.856664 0.650795
Si Si2 0.194955 0.220459 0.839775
Si Si3 0.155911 0.217760 0.018531
Si Si4 0.766246 0.355892 0.343061
Si Si5 0.355846 0.093480 0.626797
Si Si6 0.000000 0.414104 0.750000
O O1 0.500000 0.887825 0.750000
O O2 0.918966 0.876984 0.585144
O O3 0.523088 0.715598 0.637435
O O4 0.398834 0.949381 0.624767
O O5 0.979244 0.119535 0.835210
O O6 0.516819 0.162637 0.811525
O O7 0.187649 0.337383 0.784474
O O8 0.075425 0.262041 0.942125
O O9 0.165241 0.332524 0.075538
O O10 0.459762 0.146334 0.972443
O O11 0.763831 0.501308 0.328433
O O12 0.000000 0.297094 0.250000
#
# Coordination Sequence:
#
# PCOD8121892 Si02
#       6
#     4   4   4   4   4   2
#     4  12  23  41  71 108 145 185 239 299 362 435
#     4  10  25  47  72 102 142 190 240 293 358 419
#     4  10  23  45  66 110 138 193 233 294 370 424
#     4  10  23  44  68 102 137 191 233 297 357 411
#     4  10  26  43  74 103 142 187 236 295 363 431
#     4  10  24  50  70 104 146 192 250 304 338 438
#
# _framework density 24.976680999999999
#
# number of rings (size 3 to 8) (size 9 to 14) (size 15 to 20)
#    1.636    0.000    1.818    1.636    5.091    2.182 
#    9.818    1.818    0.000    0.000    0.000    0.000 
#    0.000    0.000    0.000    0.000    0.000    0.000 
#
# Total GULP energy -272583.408894 kJ/mol
# GULP energy per Si atom -12390.154950 kJ/mol
# Density = 2.491983 g / cm^3
# Si number density = 24.976681 Si / 1000 Ang^3
#
#
#
# Elastic Constant Matrix: (Units=GPa)
#
#
# Indices 1 2 3 4 5 6 
#
# 1 128.3847 31.8664 37.1308 0.0000 -12.3883 0.0000
# 2 31.8664 104.3872 27.1920 0.0000 -11.9255 0.0000
# 3 37.1308 27.1920 103.0036 0.0000 19.1524 0.0000
# 4 0.0000 0.0000 0.0000 23.1935 0.0000 3.9099
# 5 -12.3883 -11.9255 19.1524 0.0000 38.4403 0.0000
# 6 0.0000 0.0000 0.0000 3.9099 0.0000 33.8679
#
#
#
# Elastic Compliance Matrix: (Units=1/GPa)
#
#
# Indices 1 2 3 4 5 6 
#
# 1 0.009754 -0.001390 -0.004027 0.000000 0.004718 0.000000
# 2 -0.001390 0.011441 -0.003412 0.000000 0.004802 0.000000
# 3 -0.004027 -0.003412 0.013775 0.000000 -0.009220 0.000000
# 4 0.000000 0.000000 0.000000 0.043971 0.000000 -0.005076
# 5 0.004718 0.004802 -0.009220 0.000000 0.033618 0.000000
# 6 0.000000 0.000000 0.000000 -0.005076 0.000000 0.030112
#
#
# Mechanical properties :
#
#
# Convention : Reuss Voigt Hill
#
# Bulk Modulus (GPa) = 57.75956 58.68379 58.22168
# Shear Modulus (GPa) = 30.10228 35.07276 32.58752
#
# Velocity S-wave (km/s) = 3.47539 3.75136 3.61601
# Velocity P-wave (km/s) = 6.26738 6.50462 6.38710
#
# Compressibility (1/GPa) = 0.01731315
#
# Stress axis : x y z
#
# Youngs Moduli (GPa) = 102.52345 87.40196 72.59530
#
# Poissons Ratio (x) = 0.12146 0.29231
# Poissons Ratio (y) = 0.14247 0.24772
# Poissons Ratio (z) = 0.41282 0.29825
#
# Static dielectric constant tensor:
#      x y z
#    x 4.239710 0.000000 0.038590 
#    y 0.000000 4.023490 0.000000 
#    z 0.038590 0.000000 4.896980 
# 
# 
# High freq. dielectric constant tensor:
#      x y z
#    x 1.989260 0.000000 0.007990 
#    y 0.000000 1.962040 0.000000 
#    z 0.007990 0.000000 2.028450 
# 
# From -- ./inp_files/60926.got.cif
#   From: 2010.06.25/outbox.cif.g09.slc.cpg/sg13_31_cif.got.tgz:60926.got - 2010.06.28 04:50:58.
