data_PCOD8121206
_publ_section_title
;
Structure prediction by ZEFSAII (Michael W. Deem and Ramdas Pophale) SiO2 
 PCOD8121206
Probable space group: P 2/C
;
_chemical_formula_sum "Si O2"
_cell_formula_units_Z 16
_cell_length_a 14.330400
_cell_length_b 7.752378
_cell_length_c 15.980369
_cell_angle_alpha 90.000000
_cell_angle_beta 156.123600
_cell_angle_gamma 90.000000
_cell_volume 718.592996
_symmetry_space_group_name_H-M "P 2/C"
_symmetry_group_IT_number 13
_symmetry_cell_setting 'monoclinic'
loop_
_space_group_symop_operation_xyz
x,y,z
-x,y,1/2-z
-x,-y,-z
x,-y,1/2+z
loop_
_atom_site_type_symbol
_atom_site_label
_atom_site_fract_x
_atom_site_fract_y
_atom_site_fract_z
Si Si1 0.829554 0.679363 0.543044
Si Si2 0.572542 0.438257 0.689228
Si Si3 0.882679 0.947530 0.816643
Si Si4 0.578249 0.745668 0.026874
O O1 0.593897 0.704309 0.403167
O O2 0.789257 0.548851 0.431313
O O3 0.000000 0.591903 0.750000
O O4 0.928710 0.861038 0.589894
O O5 0.442794 0.622552 0.572106
O O6 0.660124 0.369760 0.672490
O O7 0.677769 0.815854 0.667737
O O8 0.772219 0.108381 0.675213
O O9 0.000000 0.000000 0.000000
#
# Coordination Sequence:
#
# PCOD8121206 Si02
#       4
#     4   4   4   4
#     4  11  22  40  65  96 131 176 217 277 332 388
#     4  10  22  40  66  91 134 168 220 276 325 395
#     4  11  22  40  67  96 132 173 216 272 338 402
#     4  10  22  40  65  98 126 172 218 269 333 397
#
# _framework density 22.265733000000001
#
# number of rings (size 3 to 8) (size 9 to 14) (size 15 to 20)
#    0.000    1.500    5.000    0.000    0.000    3.000 
#    0.000    6.250    0.000    0.000    0.000    0.000 
#    0.000    0.000    0.000    0.000    0.000    0.000 
#
# Total GULP energy -198234.258161 kJ/mol
# GULP energy per Si atom -12389.641135 kJ/mol
# Density = 2.221506 g / cm^3
# Si number density = 22.265733 Si / 1000 Ang^3
#
#
#
# Elastic Constant Matrix: (Units=GPa)
#
#
# Indices 1 2 3 4 5 6 
#
# 1 79.5057 54.7933 48.0123 0.0000 -14.1966 0.0000
# 2 54.7933 127.4477 66.9396 0.0000 -7.1121 0.0000
# 3 48.0123 66.9396 157.6555 0.0000 -47.7980 0.0000
# 4 0.0000 0.0000 0.0000 40.3270 0.0000 -4.3278
# 5 -14.1966 -7.1121 -47.7980 0.0000 44.9462 0.0000
# 6 0.0000 0.0000 0.0000 -4.3278 0.0000 22.9484
#
#
#
# Elastic Compliance Matrix: (Units=1/GPa)
#
#
# Indices 1 2 3 4 5 6 
#
# 1 0.019118 -0.007017 -0.001990 0.000000 0.002812 0.000000
# 2 -0.007017 0.013291 -0.005226 0.000000 -0.005670 0.000000
# 3 -0.001990 -0.005226 0.012879 0.000000 0.012241 0.000000
# 4 0.000000 0.000000 0.000000 0.025310 0.000000 0.004773
# 5 0.002812 -0.005670 0.012241 0.000000 0.035257 0.000000
# 6 0.000000 0.000000 0.000000 0.004773 0.000000 0.044476
#
#
# Mechanical properties :
#
#
# Convention : Reuss Voigt Hill
#
# Bulk Modulus (GPa) = 59.44560 78.23325 68.83942
# Shear Modulus (GPa) = 27.11444 34.63522 30.87483
#
# Velocity S-wave (km/s) = 3.49344 3.94831 3.72782
# Velocity P-wave (km/s) = 6.55960 7.48318 7.03656
#
# Compressibility (1/GPa) = 0.01682210
#
# Stress axis : x y z
#
# Youngs Moduli (GPa) = 52.30801 75.23676 77.64593
#
# Poissons Ratio (x) = 0.52793 0.15454
# Poissons Ratio (y) = 0.36704 0.40575
# Poissons Ratio (z) = 0.10411 0.39316
#
# Static dielectric constant tensor:
#      x y z
#    x 3.864240 0.000000 -0.244650 
#    y 0.000000 3.937860 0.000000 
#    z -0.244650 0.000000 4.731830 
# 
# 
# High freq. dielectric constant tensor:
#      x y z
#    x 1.858260 0.000000 -0.017120 
#    y 0.000000 1.848780 0.000000 
#    z -0.017120 0.000000 1.907020 
# 
# From -- ./inp_files/69253.got.cif
#   From: 2010.06.25/outbox.cif.g09.slc.cpg/sg13_35_cif.got.tgz:69253.got - 2010.06.28 04:50:58.
