data_PCOD8121648
_publ_section_title
;
Structure prediction by ZEFSAII (Michael W. Deem and Ramdas Pophale) SiO2 
 PCOD8121648
Probable space group: P 2/C
;
_chemical_formula_sum "Si O2"
_cell_formula_units_Z 20
_cell_length_a 6.520761
_cell_length_b 5.289696
_cell_length_c 26.581781
_cell_angle_alpha 90.000000
_cell_angle_beta 86.105117
_cell_angle_gamma 90.000000
_cell_volume 914.763533
_symmetry_space_group_name_H-M "P 2/C"
_symmetry_group_IT_number 13
_symmetry_cell_setting 'monoclinic'
loop_
_space_group_symop_operation_xyz
x,y,z
-x,y,1/2-z
-x,-y,-z
x,-y,1/2+z
loop_
_atom_site_type_symbol
_atom_site_label
_atom_site_fract_x
_atom_site_fract_y
_atom_site_fract_z
Si Si1 0.920338 0.664851 0.195720
Si Si2 0.492330 0.816230 0.928611
Si Si3 0.195674 0.830345 0.847617
Si Si4 0.855926 0.478224 0.396112
Si Si5 0.184261 0.838792 0.019403
O O1 0.111114 0.657066 0.153138
O O2 0.000000 0.619483 0.250000
O O3 0.763611 0.433466 0.183777
O O4 0.823496 0.943097 0.192285
O O5 0.377192 0.921572 0.881286
O O6 0.614142 0.571462 0.906695
O O7 0.661437 0.007801 0.946993
O O8 0.325595 0.727179 0.972438
O O9 0.991967 0.778520 0.885793
O O10 0.925207 0.617117 0.446655
O O11 0.000000 0.000000 0.000000
#
# Coordination Sequence:
#
# PCOD8121648 Si02
#       5
#     4   4   4   4   4
#     4  10  22  45  73  93 129 175 221 277 343 393
#     4  11  23  39  65  99 137 178 221 273 327 405
#     4  10  24  42  71  96 135 172 221 274 333 398
#     4  10  23  40  66  95 134 174 218 279 326 395
#     4  11  24  40  64  99 140 183 222 270 333 401
#
# _framework density 21.863574
#
# number of rings (size 3 to 8) (size 9 to 14) (size 15 to 20)
#    1.200    0.400    0.000    4.800    2.800    4.800 
#    0.000    1.000    0.000    0.000    0.000    0.000 
#    0.000    0.000    0.000    0.000    0.000    0.000 
#
# Total GULP energy -247764.656965 kJ/mol
# GULP energy per Si atom -12388.232848 kJ/mol
# Density = 2.181381 g / cm^3
# Si number density = 21.863574 Si / 1000 Ang^3
#
#
#
# Elastic Constant Matrix: (Units=GPa)
#
#
# Indices 1 2 3 4 5 6 
#
# 1 83.8274 23.6860 34.4764 0.0000 20.4202 0.0000
# 2 23.6860 107.6620 31.3183 0.0000 12.0980 0.0000
# 3 34.4764 31.3183 113.5792 0.0000 33.4481 0.0000
# 4 0.0000 0.0000 0.0000 39.5381 0.0000 3.0804
# 5 20.4202 12.0980 33.4481 0.0000 29.2169 0.0000
# 6 0.0000 0.0000 0.0000 3.0804 0.0000 18.3489
#
#
#
# Elastic Compliance Matrix: (Units=1/GPa)
#
#
# Indices 1 2 3 4 5 6 
#
# 1 0.015084 -0.001936 -0.001775 0.000000 -0.007709 0.000000
# 2 -0.001936 0.010391 -0.002125 0.000000 -0.000516 0.000000
# 3 -0.001775 -0.002125 0.014037 0.000000 -0.013950 0.000000
# 4 0.000000 0.000000 0.000000 0.025627 0.000000 -0.004302
# 5 -0.007709 -0.000516 -0.013950 0.000000 0.055799 0.000000
# 6 0.000000 0.000000 0.000000 -0.004302 0.000000 0.055222
#
#
# Mechanical properties :
#
#
# Convention : Reuss Voigt Hill
#
# Bulk Modulus (GPa) = 35.91968 53.78111 44.85039
# Shear Modulus (GPa) = 25.36639 31.79330 28.57985
#
# Velocity S-wave (km/s) = 3.40988 3.81749 3.61943
# Velocity P-wave (km/s) = 5.65400 6.63950 6.16647
#
# Compressibility (1/GPa) = 0.02783989
#
# Stress axis : x y z
#
# Youngs Moduli (GPa) = 66.29480 96.24145 71.23928
#
# Poissons Ratio (x) = 0.18633 0.12642
# Poissons Ratio (y) = 0.12835 0.15141
# Poissons Ratio (z) = 0.11764 0.20455
#
# Static dielectric constant tensor:
#      x y z
#    x 3.783600 0.000000 -0.076600 
#    y 0.000000 3.820640 0.000000 
#    z -0.076600 0.000000 3.869590 
# 
# 
# High freq. dielectric constant tensor:
#      x y z
#    x 1.839010 0.000000 0.003230 
#    y 0.000000 1.853920 0.000000 
#    z 0.003230 0.000000 1.862160 
# 
# From -- ./inp_files/89960.got.cif
#   From: 2010.06.25/outbox.cif.g09.slc.cpg/sg13_45_cif.got.tgz:89960.got - 2010.06.28 04:50:58.
