data_PCOD8121084
_publ_section_title
;
Structure prediction by ZEFSAII (Michael W. Deem and Ramdas Pophale) SiO2 
 PCOD8121084
Probable space group: P 2/C
;
_chemical_formula_sum "Si O2"
_cell_formula_units_Z 20
_cell_length_a 8.713955
_cell_length_b 22.471778
_cell_length_c 9.236258
_cell_angle_alpha 90.000000
_cell_angle_beta 32.099808
_cell_angle_gamma 90.000000
_cell_volume 961.096230
_symmetry_space_group_name_H-M "P 2/C"
_symmetry_group_IT_number 13
_symmetry_cell_setting 'monoclinic'
loop_
_space_group_symop_operation_xyz
x,y,z
-x,y,1/2-z
-x,-y,-z
x,-y,1/2+z
loop_
_atom_site_type_symbol
_atom_site_label
_atom_site_fract_x
_atom_site_fract_y
_atom_site_fract_z
Si Si1 0.325778 0.044692 0.535434
Si Si2 0.806473 0.659527 0.547184
Si Si3 0.306219 0.470974 0.272345
Si Si4 0.636645 0.842154 0.293989
Si Si5 0.872085 0.765157 0.700806
O O1 0.317442 0.105888 0.628998
O O2 0.000000 0.023489 0.750000
O O3 0.500000 0.000000 0.500000
O O4 0.500000 0.054118 0.250000
O O5 0.500000 0.687002 0.750000
O O6 0.747103 0.599757 0.686530
O O7 0.935995 0.709037 0.547576
O O8 0.000000 0.646567 0.250000
O O9 0.500000 0.490618 0.250000
O O10 0.000000 0.500000 0.500000
O O11 0.500000 0.500000 0.000000
O O12 0.500000 0.864346 0.250000
O O13 0.454132 0.788283 0.513091
O O14 0.957390 0.820286 0.003498
O O15 0.000000 0.744058 0.750000
#
# Coordination Sequence:
#
# PCOD8121084 Si02
#       5
#     4   4   4   4   4
#     4  12  26  43  66  95 127 167 214 260 314 375
#     4  11  23  40  61  88 123 159 202 256 310 367
#     4  11  23  41  62  89 122 161 205 254 309 365
#     4  10  22  41  62  89 126 162 203 258 310 366
#     4  10  22  39  62  91 123 161 204 252 310 369
#
# _framework density 20.809570999999998
#
# number of rings (size 3 to 8) (size 9 to 14) (size 15 to 20)
#    0.000    1.200    0.000    6.600    0.000    8.800 
#    0.000    2.000    0.000    0.000    0.000    0.000 
#    0.000    0.000    0.000    0.000    0.000    0.000 
#
# Total GULP energy -247811.148952 kJ/mol
# GULP energy per Si atom -12390.557448 kJ/mol
# Density = 2.076221 g / cm^3
# Si number density = 20.809571 Si / 1000 Ang^3
#
#
#
# Elastic Constant Matrix: (Units=GPa)
#
#
# Indices 1 2 3 4 5 6 
#
# 1 134.8596 76.3295 56.4148 0.0000 -2.0265 0.0000
# 2 76.3295 102.8361 43.3540 0.0000 19.3787 0.0000
# 3 56.4148 43.3540 140.4043 0.0000 4.6317 0.0000
# 4 0.0000 0.0000 0.0000 20.6766 0.0000 8.9792
# 5 -2.0265 19.3787 4.6317 0.0000 48.5867 0.0000
# 6 0.0000 0.0000 0.0000 8.9792 0.0000 25.7437
#
#
#
# Elastic Compliance Matrix: (Units=1/GPa)
#
#
# Indices 1 2 3 4 5 6 
#
# 1 0.014729 -0.010736 -0.002773 0.000000 0.005161 0.000000
# 2 -0.010736 0.019903 -0.001560 0.000000 -0.008237 0.000000
# 3 -0.002773 -0.001560 0.008729 0.000000 -0.000326 0.000000
# 4 0.000000 0.000000 0.000000 0.056997 0.000000 -0.019880
# 5 0.005161 -0.008237 -0.000326 0.000000 0.024114 0.000000
# 6 0.000000 0.000000 0.000000 -0.019880 0.000000 0.045778
#
#
# Mechanical properties :
#
#
# Convention : Reuss Voigt Hill
#
# Bulk Modulus (GPa) = 75.63038 81.14408 78.38723
# Shear Modulus (GPa) = 24.41435 32.46818 28.44126
#
# Velocity S-wave (km/s) = 3.42896 3.95429 3.70095
# Velocity P-wave (km/s) = 7.21803 7.74124 7.48421
#
# Compressibility (1/GPa) = 0.01322220
#
# Stress axis : x y z
#
# Youngs Moduli (GPa) = 67.89119 50.24356 114.55869
#
# Poissons Ratio (x) = 0.53942 0.31773
# Poissons Ratio (y) = 0.72889 0.17872
# Poissons Ratio (z) = 0.18829 0.07839
#
# Static dielectric constant tensor:
#      x y z
#    x 4.106150 0.000000 -0.021080 
#    y 0.000000 3.724220 0.000000 
#    z -0.021080 0.000000 4.160470 
# 
# 
# High freq. dielectric constant tensor:
#      x y z
#    x 1.826920 0.000000 -0.000010 
#    y 0.000000 1.810920 0.000000 
#    z -0.000010 0.000000 1.839300 
# 
# From -- ./inp_files/13771.got.cif
#   From: 2010.06.25/outbox.cif.g09.slc.cpg/sg13_7_cif.got.tgz:13771.got - 2010.06.28 04:50:58.
