data_PCOD8121637
_publ_section_title
;
Structure prediction by ZEFSAII (Michael W. Deem and Ramdas Pophale) SiO2 
 PCOD8121637
Probable space group: P 2/C
;
_chemical_formula_sum "Si O2"
_cell_formula_units_Z 30
_cell_length_a 27.961960
_cell_length_b 9.246016
_cell_length_c 10.970393
_cell_angle_alpha 90.000000
_cell_angle_beta 30.301969
_cell_angle_gamma 90.000000
_cell_volume 1431.050389
_symmetry_space_group_name_H-M "P 2/C"
_symmetry_group_IT_number 13
_symmetry_cell_setting 'monoclinic'
loop_
_space_group_symop_operation_xyz
x,y,z
-x,y,1/2-z
-x,-y,-z
x,-y,1/2+z
loop_
_atom_site_type_symbol
_atom_site_label
_atom_site_fract_x
_atom_site_fract_y
_atom_site_fract_z
Si Si1 0.594319 0.913376 0.763412
Si Si2 0.758496 0.081775 0.340151
Si Si3 0.500000 0.605496 0.250000
Si Si4 0.795547 0.578244 0.361379
Si Si5 0.774525 0.710829 0.030105
Si Si6 0.890570 0.186694 0.503424
Si Si7 0.314174 0.770835 0.725570
Si Si8 0.368794 0.370712 0.455250
O O1 0.665509 0.899223 0.723261
O O2 0.578521 0.761736 0.729074
O O3 0.656183 0.010307 0.537384
O O4 0.500000 0.000000 0.000000
O O5 0.758737 0.162468 0.468117
O O6 0.755657 0.189640 0.231998
O O7 0.840632 0.961227 0.157332
O O8 0.420581 0.710992 0.475959
O O9 0.447047 0.496208 0.274901
O O10 0.825198 0.419156 0.342164
O O11 0.879292 0.682992 0.127320
O O12 0.747611 0.643606 0.584826
O O13 0.720483 0.565368 0.418407
O O14 0.848684 0.765859 0.966427
O O15 0.672733 0.670992 0.318453
O O16 0.000000 0.149877 0.250000
#
# Coordination Sequence:
#
# PCOD8121637 Si02
#       8
#     4   4   2   4   4   4   4   4
#     4  11  24  38  60  88 134 180 228 276 323 392
#     4  12  24  43  67  96 136 178 221 276 347 401
#     4  12  22  36  62  96 134 176 230 268 310 400
#     4  10  22  45  68  93 135 176 218 283 339 396
#     4  11  23  44  71  96 134 177 217 276 350 400
#     4  11  26  48  72 101 131 168 227 285 349 420
#     4  11  23  40  61  95 132 179 224 273 325 394
#     4  10  23  39  60  96 132 183 227 272 326 392
#
# _framework density 20.963622000000001
#
# number of rings (size 3 to 8) (size 9 to 14) (size 15 to 20)
#    0.000    1.067    5.333    2.400    3.733    3.200 
#    0.000    0.667    0.000    0.000    0.000    0.000 
#    0.000    0.000    0.000    0.000    0.000    0.000 
#
# Total GULP energy -371654.089496 kJ/mol
# GULP energy per Si atom -12388.469650 kJ/mol
# Density = 2.091591 g / cm^3
# Si number density = 20.963622 Si / 1000 Ang^3
#
#
#
# Elastic Constant Matrix: (Units=GPa)
#
#
# Indices 1 2 3 4 5 6 
#
# 1 64.1319 30.0636 19.3277 0.0000 13.7293 0.0000
# 2 30.0636 107.4562 38.1343 0.0000 6.9059 0.0000
# 3 19.3277 38.1343 100.3445 0.0000 -7.8232 0.0000
# 4 0.0000 0.0000 0.0000 17.0286 0.0000 18.9056
# 5 13.7293 6.9059 -7.8232 0.0000 30.9114 0.0000
# 6 0.0000 0.0000 0.0000 18.9056 0.0000 -0.2227
#
#
#
# Elastic Compliance Matrix: (Units=1/GPa)
#
#
# Indices 1 2 3 4 5 6 
#
# 1 0.020310 -0.004017 -0.003079 0.000000 -0.008902 0.000000
# 2 -0.004017 0.011938 -0.003909 0.000000 -0.001872 0.000000
# 3 -0.003079 -0.003909 0.012465 0.000000 0.005396 0.000000
# 4 0.000000 0.000000 0.000000 0.000617 0.000000 0.052339
# 5 -0.008902 -0.001872 0.005396 0.000000 0.038088 0.000000
# 6 0.000000 0.000000 0.000000 0.052339 0.000000 -0.047143
#
#
# Mechanical properties :
#
#
# Convention : Reuss Voigt Hill
#
# Bulk Modulus (GPa) = 44.04990 49.66487 46.85738
# Shear Modulus (GPa) = 75.92707 21.83725 48.88216
#
# Velocity S-wave (km/s) = 6.02471 3.23100 4.83407
# Velocity P-wave (km/s) = 8.33393 6.13690 7.31833
#
# Compressibility (1/GPa) = 0.02270153
#
# Stress axis : x y z
#
# Youngs Moduli (GPa) = 49.23696 83.76945 80.22504
#
# Poissons Ratio (x) = 0.33653 0.24704
# Poissons Ratio (y) = 0.19780 0.31359
# Poissons Ratio (z) = 0.15162 0.32744
#
# Static dielectric constant tensor:
#      x y z
#    x 3.762700 0.000000 0.139990 
#    y 0.000000 4.049590 0.000000 
#    z 0.139990 0.000000 4.095680 
# 
# 
# High freq. dielectric constant tensor:
#      x y z
#    x 1.814480 0.000000 0.021090 
#    y 0.000000 1.841280 0.000000 
#    z 0.021090 0.000000 1.804150 
# 
# From -- ./inp_files/42680.got.cif
#   From: 2010.06.25/outbox.cif.g09.slc.cpg/sg13_22_cif.got.tgz:42680.got - 2010.06.28 04:50:58.
