data_PCOD8121013
_publ_section_title
;
Structure prediction by ZEFSAII (Michael W. Deem and Ramdas Pophale) SiO2 
 PCOD8121013
Probable space group: P 2/C
;
_chemical_formula_sum "Si O2"
_cell_formula_units_Z 26
_cell_length_a 23.967221
_cell_length_b 9.477140
_cell_length_c 13.114201
_cell_angle_alpha 90.000000
_cell_angle_beta 155.218270
_cell_angle_gamma 90.000000
_cell_volume 1248.588511
_symmetry_space_group_name_H-M "P 2/C"
_symmetry_group_IT_number 13
_symmetry_cell_setting 'monoclinic'
loop_
_space_group_symop_operation_xyz
x,y,z
-x,y,1/2-z
-x,-y,-z
x,-y,1/2+z
loop_
_atom_site_type_symbol
_atom_site_label
_atom_site_fract_x
_atom_site_fract_y
_atom_site_fract_z
Si Si1 0.364743 0.838151 0.467996
Si Si2 0.865299 0.240538 0.648372
Si Si3 0.345622 0.886497 0.025378
Si Si4 0.000000 0.215215 0.250000
Si Si5 0.257783 0.939326 0.095882
Si Si6 0.847102 0.686149 0.898948
Si Si7 0.843963 0.371455 0.831031
O O1 0.377149 0.912436 0.376265
O O2 0.285965 0.690924 0.327805
O O3 0.285502 0.957405 0.402206
O O4 0.500000 0.801389 0.750000
O O5 0.836851 0.340954 0.503402
O O6 0.828664 0.324837 0.688861
O O7 0.775370 0.101293 0.485973
O O8 0.025274 0.214848 0.916372
O O9 0.500000 0.892027 0.250000
O O10 0.310338 0.855311 0.084240
O O11 0.283517 0.766697 0.852777
O O12 0.124452 0.120365 0.425576
O O13 0.028701 0.309749 0.397866
O O14 0.853010 0.539134 0.849182
#
# Coordination Sequence:
#
# PCOD8121013 Si02
#       7
#     4   4   4   2   4   4   4
#     4  10  23  41  63  93 122 170 217 262 311 373
#     4  11  22  38  66  91 127 169 206 272 330 377
#     4  11  24  41  64  94 126 170 218 263 312 374
#     4  10  22  38  64 100 130 164 212 268 326 386
#     4  11  22  40  69  98 129 164 218 270 323 378
#     4  11  24  39  61  95 130 164 218 262 323 389
#     4  11  23  40  62  91 132 169 209 264 326 386
#
# _framework density 20.823512999999998
#
# number of rings (size 3 to 8) (size 9 to 14) (size 15 to 20)
#    0.000    1.231    3.077    3.231    2.154    8.000 
#    0.000    0.000    0.000    6.462    0.000    0.000 
#    0.000    0.000    0.000    0.000    0.000    0.000 
#
# Total GULP energy -322194.843350 kJ/mol
# GULP energy per Si atom -12392.109360 kJ/mol
# Density = 2.077612 g / cm^3
# Si number density = 20.823513 Si / 1000 Ang^3
#
#
#
# Elastic Constant Matrix: (Units=GPa)
#
#
# Indices 1 2 3 4 5 6 
#
# 1 106.5413 12.8442 34.3161 0.0000 -14.9344 0.0000
# 2 12.8442 69.5404 36.9588 0.0000 4.0679 0.0000
# 3 34.3161 36.9588 112.0022 0.0000 -17.5959 0.0000
# 4 0.0000 0.0000 0.0000 22.3192 0.0000 -5.8033
# 5 -14.9344 4.0679 -17.5959 0.0000 25.8807 0.0000
# 6 0.0000 0.0000 0.0000 -5.8033 0.0000 26.0539
#
#
#
# Elastic Compliance Matrix: (Units=1/GPa)
#
#
# Indices 1 2 3 4 5 6 
#
# 1 0.010929 -0.001151 -0.002183 0.000000 0.005004 0.000000
# 2 -0.001151 0.018944 -0.007244 0.000000 -0.008567 0.000000
# 3 -0.002183 -0.007244 0.013400 0.000000 0.008990 0.000000
# 4 0.000000 0.000000 0.000000 0.047559 0.000000 0.010593
# 5 0.005004 -0.008567 0.008990 0.000000 0.048985 0.000000
# 6 0.000000 0.000000 0.000000 0.010593 0.000000 0.040742
#
#
# Mechanical properties :
#
#
# Convention : Reuss Voigt Hill
#
# Bulk Modulus (GPa) = 45.21490 50.70245 47.95867
# Shear Modulus (GPa) = 23.91344 28.44842 26.18093
#
# Velocity S-wave (km/s) = 3.39246 3.70018 3.54966
# Velocity P-wave (km/s) = 6.09144 6.53120 6.31515
#
# Compressibility (1/GPa) = 0.02211660
#
# Stress axis : x y z
#
# Youngs Moduli (GPa) = 91.49788 52.78664 74.62727
#
# Poissons Ratio (x) = 0.06078 0.16288
# Poissons Ratio (y) = 0.10535 0.54063
# Poissons Ratio (z) = 0.19970 0.38241
#
# Static dielectric constant tensor:
#      x y z
#    x 3.787720 0.000000 -0.326810 
#    y 0.000000 3.644050 0.000000 
#    z -0.326810 0.000000 4.003740 
# 
# 
# High freq. dielectric constant tensor:
#      x y z
#    x 1.815670 0.000000 -0.024400 
#    y 0.000000 1.797810 0.000000 
#    z -0.024400 0.000000 1.824830 
# 
# From -- ./inp_files/41669.got.cif
#   From: 2010.06.25/outbox.cif.g09.slc.cpg/sg13_21_cif.got.tgz:41669.got - 2010.06.28 04:50:58.
