data_PCOD8121860
_publ_section_title
;
Structure prediction by ZEFSAII (Michael W. Deem and Ramdas Pophale) SiO2 
 PCOD8121860
Probable space group: P 2/C
;
_chemical_formula_sum "Si O2"
_cell_formula_units_Z 20
_cell_length_a 9.861925
_cell_length_b 15.456439
_cell_length_c 9.611732
_cell_angle_alpha 90.000000
_cell_angle_beta 41.776832
_cell_angle_gamma 90.000000
_cell_volume 976.107420
_symmetry_space_group_name_H-M "P 2/C"
_symmetry_group_IT_number 13
_symmetry_cell_setting 'monoclinic'
loop_
_space_group_symop_operation_xyz
x,y,z
-x,y,1/2-z
-x,-y,-z
x,-y,1/2+z
loop_
_atom_site_type_symbol
_atom_site_label
_atom_site_fract_x
_atom_site_fract_y
_atom_site_fract_z
Si Si1 0.348310 0.490516 0.742505
Si Si2 0.988616 0.609818 0.604437
Si Si3 0.477825 0.086819 0.607017
Si Si4 0.964826 0.914427 0.115155
Si Si5 0.145949 0.194114 0.258741
O O1 0.500000 0.507775 0.750000
O O2 0.500000 0.500000 0.500000
O O3 0.173524 0.563048 0.870493
O O4 0.217427 0.400097 0.861272
O O5 0.900393 0.705255 0.692785
O O6 0.000000 0.566703 0.750000
O O7 0.500000 0.058738 0.750000
O O8 0.257370 0.124660 0.741927
O O9 0.626960 0.166609 0.457902
O O10 0.500000 0.000000 0.500000
O O11 0.000000 0.932511 0.250000
O O12 0.116290 0.843807 0.936148
O O13 0.000000 0.000000 0.000000
O O14 0.000000 0.153858 0.250000
#
# Coordination Sequence:
#
# PCOD8121860 Si02
#       5
#     4   4   4   4   4
#     4  11  22  43  72 101 131 173 223 267 335 410
#     4  10  23  43  68  99 134 175 219 277 337 410
#     4  12  24  40  68  93 125 180 227 273 334 400
#     4  12  24  42  65  94 129 174 225 277 334 395
#     4  11  24  45  64  95 136 173 225 278 335 401
#
# _framework density 20.489549
#
# number of rings (size 3 to 8) (size 9 to 14) (size 15 to 20)
#    0.000    0.800    6.000    1.800    0.000    1.600 
#    7.200    0.000    0.000    0.000    0.000    0.000 
#    0.000    0.000    0.000    0.000    0.000    0.000 
#
# Total GULP energy -247778.228776 kJ/mol
# GULP energy per Si atom -12388.911439 kJ/mol
# Density = 2.044291 g / cm^3
# Si number density = 20.489549 Si / 1000 Ang^3
#
#
#
# Elastic Constant Matrix: (Units=GPa)
#
#
# Indices 1 2 3 4 5 6 
#
# 1 162.0280 45.3332 74.2247 0.0000 2.0084 0.0000
# 2 45.3332 93.7988 51.3319 0.0000 -0.3162 0.0000
# 3 74.2247 51.3319 163.4436 0.0000 -3.3250 0.0000
# 4 0.0000 0.0000 0.0000 23.0199 0.0000 -2.9743
# 5 2.0084 -0.3162 -3.3250 0.0000 48.3058 0.0000
# 6 0.0000 0.0000 0.0000 -2.9743 0.0000 26.8415
#
#
#
# Elastic Compliance Matrix: (Units=1/GPa)
#
#
# Indices 1 2 3 4 5 6 
#
# 1 0.008207 -0.002321 -0.003009 0.000000 -0.000564 0.000000
# 2 -0.002321 0.013532 -0.003196 0.000000 -0.000035 0.000000
# 3 -0.003009 -0.003196 0.008503 0.000000 0.000689 0.000000
# 4 0.000000 0.000000 0.000000 0.044072 0.000000 0.004884
# 5 -0.000564 -0.000035 0.000689 0.000000 0.020772 0.000000
# 6 0.000000 0.000000 0.000000 0.004884 0.000000 0.037797
#
#
# Mechanical properties :
#
#
# Convention : Reuss Voigt Hill
#
# Bulk Modulus (GPa) = 75.82965 84.56112 80.19539
# Shear Modulus (GPa) = 32.39748 36.19214 34.29481
#
# Velocity S-wave (km/s) = 3.98071 4.20738 4.09561
# Velocity P-wave (km/s) = 7.63003 8.05994 7.84793
#
# Compressibility (1/GPa) = 0.01318745
#
# Stress axis : x y z
#
# Youngs Moduli (GPa) = 121.84957 73.89759 117.60698
#
# Poissons Ratio (x) = 0.17155 0.35392
# Poissons Ratio (y) = 0.28286 0.37593
# Poissons Ratio (z) = 0.36669 0.23621
#
# Static dielectric constant tensor:
#      x y z
#    x 3.730300 0.000000 -0.887660 
#    y 0.000000 4.906500 0.000000 
#    z -0.887660 0.000000 2.328590 
# 
# 
# High freq. dielectric constant tensor:
#      x y z
#    x 1.815550 0.000000 -0.003280 
#    y 0.000000 1.774180 0.000000 
#    z -0.003280 0.000000 1.822720 
# 
# From -- ./inp_files/13032.got.cif
#   From: 2010.06.25/outbox.cif.g09.slc.cpg/sg13_7_cif.got.tgz:13032.got - 2010.06.28 04:50:58.
