data_PCOD8121725
_publ_section_title
;
Structure prediction by ZEFSAII (Michael W. Deem and Ramdas Pophale) SiO2 
 PCOD8121725
Probable space group: P 2/C
;
_chemical_formula_sum "Si O2"
_cell_formula_units_Z 18
_cell_length_a 7.216844
_cell_length_b 11.095552
_cell_length_c 17.397554
_cell_angle_alpha 90.000000
_cell_angle_beta 142.801533
_cell_angle_gamma 90.000000
_cell_volume 842.241471
_symmetry_space_group_name_H-M "P 2/C"
_symmetry_group_IT_number 13
_symmetry_cell_setting 'monoclinic'
loop_
_space_group_symop_operation_xyz
x,y,z
-x,y,1/2-z
-x,-y,-z
x,-y,1/2+z
loop_
_atom_site_type_symbol
_atom_site_label
_atom_site_fract_x
_atom_site_fract_y
_atom_site_fract_z
Si Si1 0.562281 0.789390 0.153530
Si Si2 0.511184 0.946123 0.844563
Si Si3 0.522088 0.359493 0.494191
Si Si4 0.000000 0.784468 0.750000
Si Si5 0.999059 0.766224 0.063455
O O1 0.660534 0.710406 0.113221
O O2 0.846320 0.798989 0.304838
O O3 0.261955 0.724496 0.091154
O O4 0.487994 0.928315 0.107952
O O5 0.500000 0.973005 0.750000
O O6 0.219424 0.866071 0.770665
O O7 0.826837 0.882140 0.972396
O O8 0.500000 0.500000 0.500000
O O9 0.751060 0.339327 0.497457
O O10 0.189787 0.302939 0.368729
#
# Coordination Sequence:
#
# PCOD8121725 Si02
#       5
#     4   4   4   2   4
#     4  11  23  38  68  96 128 166 209 260 322 379
#     4  11  22  39  66  97 138 160 202 262 327 388
#     4  11  26  44  66  88 130 173 222 264 303 371
#     4  10  26  40  62  98 124 174 210 262 326 374
#     4  10  23  40  64 100 126 169 207 259 322 378
#
# _framework density 21.371544
#
# number of rings (size 3 to 8) (size 9 to 14) (size 15 to 20)
#    0.000    1.333    2.222    2.667    9.333    2.667 
#    0.000    0.000    0.000    0.000    0.000    0.000 
#    0.000    0.000    0.000    0.000    0.000    0.000 
#
# Total GULP energy -223199.521154 kJ/mol
# GULP energy per Si atom -12399.973397 kJ/mol
# Density = 2.132290 g / cm^3
# Si number density = 21.371544 Si / 1000 Ang^3
#
#
#
# Elastic Constant Matrix: (Units=GPa)
#
#
# Indices 1 2 3 4 5 6 
#
# 1 86.3121 49.3600 25.8341 0.0000 10.9311 0.0000
# 2 49.3600 151.3040 26.7933 0.0000 -3.2914 0.0000
# 3 25.8341 26.7933 95.9096 0.0000 2.5542 0.0000
# 4 0.0000 0.0000 0.0000 19.5861 0.0000 -3.7863
# 5 10.9311 -3.2914 2.5542 0.0000 36.1019 0.0000
# 6 0.0000 0.0000 0.0000 -3.7863 0.0000 27.3309
#
#
#
# Elastic Compliance Matrix: (Units=1/GPa)
#
#
# Indices 1 2 3 4 5 6 
#
# 1 0.015779 -0.004763 -0.002786 0.000000 -0.005015 0.000000
# 2 -0.004763 0.008413 -0.001128 0.000000 0.002289 0.000000
# 3 -0.002786 -0.001128 0.011494 0.000000 -0.000073 0.000000
# 4 0.000000 0.000000 0.000000 0.052462 0.000000 0.007268
# 5 -0.005015 0.002289 -0.000073 0.000000 0.029432 0.000000
# 6 0.000000 0.000000 0.000000 0.007268 0.000000 0.037595
#
#
# Mechanical properties :
#
#
# Convention : Reuss Voigt Hill
#
# Bulk Modulus (GPa) = 54.55284 59.72229 57.13756
# Shear Modulus (GPa) = 27.98940 32.03968 30.01454
#
# Velocity S-wave (km/s) = 3.62284 3.87612 3.75162
# Velocity P-wave (km/s) = 6.56364 6.93093 6.74978
#
# Compressibility (1/GPa) = 0.01833085
#
# Stress axis : x y z
#
# Youngs Moduli (GPa) = 63.37596 118.86784 87.00207
#
# Poissons Ratio (x) = 0.56620 0.24238
# Poissons Ratio (y) = 0.30188 0.09815
# Poissons Ratio (z) = 0.17656 0.13409
#
# Static dielectric constant tensor:
#      x y z
#    x 4.079020 0.000000 0.223070 
#    y 0.000000 3.577240 0.000000 
#    z 0.223070 0.000000 4.005750 
# 
# 
# High freq. dielectric constant tensor:
#      x y z
#    x 1.845840 0.000000 0.017090 
#    y 0.000000 1.816510 0.000000 
#    z 0.017090 0.000000 1.854670 
# 
# From -- ./inp_files/75904.got.cif
#   From: 2010.06.25/outbox.cif.g09.slc.cpg/sg13_38_cif.got.tgz:75904.got - 2010.06.28 04:50:58.
