data_PCOD8121319
_publ_section_title
;
Structure prediction by ZEFSAII (Michael W. Deem and Ramdas Pophale) SiO2 
 PCOD8121319
Probable space group: P 2/C
;
_chemical_formula_sum "Si O2"
_cell_formula_units_Z 18
_cell_length_a 18.650509
_cell_length_b 6.436755
_cell_length_c 10.294027
_cell_angle_alpha 90.000000
_cell_angle_beta 41.468161
_cell_angle_gamma 90.000000
_cell_volume 818.341564
_symmetry_space_group_name_H-M "P 2/C"
_symmetry_group_IT_number 13
_symmetry_cell_setting 'monoclinic'
loop_
_space_group_symop_operation_xyz
x,y,z
-x,y,1/2-z
-x,-y,-z
x,-y,1/2+z
loop_
_atom_site_type_symbol
_atom_site_label
_atom_site_fract_x
_atom_site_fract_y
_atom_site_fract_z
Si Si1 0.216399 0.363041 0.555790
Si Si2 0.670529 0.024547 0.244016
Si Si3 0.196874 0.337165 0.867307
Si Si4 0.506633 0.309576 0.591967
Si Si5 0.000000 0.480048 0.750000
O O1 0.280850 0.150961 0.443654
O O2 0.236187 0.433429 0.676874
O O3 0.260261 0.541502 0.397803
O O4 0.086249 0.334953 0.709429
O O5 0.618393 0.183942 0.417771
O O6 0.771432 0.905356 0.174317
O O7 0.587447 0.855666 0.304535
O O8 0.067462 0.369531 0.060228
O O9 0.500000 0.392585 0.750000
O O10 0.500000 0.500000 0.500000
#
# Coordination Sequence:
#
# PCOD8121319 Si02
#       5
#     4   4   4   4   2
#     4  10  22  41  65  95 130 171 214 262 315 373
#     4  11  24  41  68  98 128 167 216 263 320 382
#     4  10  22  41  65  95 130 171 214 262 315 373
#     4  11  26  46  67  95 131 167 211 269 324 384
#     4   8  22  42  66  94 132 172 210 262 318 370
#
# _framework density 21.995705000000001
#
# number of rings (size 3 to 8) (size 9 to 14) (size 15 to 20)
#    1.333    0.444    0.000    3.333    0.000   13.333 
#    0.000    2.222    0.000    0.000    0.000    0.000 
#    0.000    0.000    0.000    0.000    0.000    0.000 
#
# Total GULP energy -223006.513503 kJ/mol
# GULP energy per Si atom -12389.250750 kJ/mol
# Density = 2.194564 g / cm^3
# Si number density = 21.995705 Si / 1000 Ang^3
#
#
#
# Elastic Constant Matrix: (Units=GPa)
#
#
# Indices 1 2 3 4 5 6 
#
# 1 65.0652 48.7100 70.1011 0.0000 42.6306 0.0000
# 2 48.7100 129.3677 88.1434 0.0000 8.3490 0.0000
# 3 70.1011 88.1434 162.0823 0.0000 26.2336 0.0000
# 4 0.0000 0.0000 0.0000 45.5586 0.0000 -7.8659
# 5 42.6306 8.3490 26.2336 0.0000 55.7533 0.0000
# 6 0.0000 0.0000 0.0000 -7.8659 0.0000 37.9075
#
#
#
# Elastic Compliance Matrix: (Units=1/GPa)
#
#
# Indices 1 2 3 4 5 6 
#
# 1 0.075449 -0.013250 -0.017763 0.000000 -0.047348 0.000000
# 2 -0.013250 0.014710 -0.003845 0.000000 0.009738 0.000000
# 3 -0.017763 -0.003845 0.014777 0.000000 0.007205 0.000000
# 4 0.000000 0.000000 0.000000 0.022765 0.000000 0.004724
# 5 -0.047348 0.009738 0.007205 0.000000 0.049292 0.000000
# 6 0.000000 0.000000 0.000000 0.004724 0.000000 0.027360
#
#
# Mechanical properties :
#
#
# Convention : Reuss Voigt Hill
#
# Bulk Modulus (GPa) = 28.39269 85.60270 56.99769
# Shear Modulus (GPa) = 17.49416 37.81458 27.65437
#
# Velocity S-wave (km/s) = 2.82324 4.15080 3.54964
# Velocity P-wave (km/s) = 4.85427 7.87239 6.53982
#
# Compressibility (1/GPa) = 0.03522034
#
# Stress axis : x y z
#
# Youngs Moduli (GPa) = 13.25402 67.97983 67.67234
#
# Poissons Ratio (x) = 0.90074 1.20204
# Poissons Ratio (y) = 0.17562 0.26021
# Poissons Ratio (z) = 0.23543 0.26139
#
# Static dielectric constant tensor:
#      x y z
#    x 3.688240 0.000000 -0.109180 
#    y 0.000000 3.818670 0.000000 
#    z -0.109180 0.000000 4.197860 
# 
# 
# High freq. dielectric constant tensor:
#      x y z
#    x 1.845300 0.000000 -0.003100 
#    y 0.000000 1.850280 0.000000 
#    z -0.003100 0.000000 1.886090 
# 
# From -- ./inp_files/20602.got.cif
#   From: 2010.06.25/outbox.cif.g09.slc.cpg/sg13_11_cif.got.tgz:20602.got - 2010.06.28 04:50:58.
