data_PCOD8121764
_publ_section_title
;
Structure prediction by ZEFSAII (Michael W. Deem and Ramdas Pophale) SiO2 
 PCOD8121764
Probable space group: P 2/C
;
_chemical_formula_sum "Si O2"
_cell_formula_units_Z 28
_cell_length_a 19.035514
_cell_length_b 6.344132
_cell_length_c 15.903539
_cell_angle_alpha 90.000000
_cell_angle_beta 41.263186
_cell_angle_gamma 90.000000
_cell_volume 1266.653401
_symmetry_space_group_name_H-M "P 2/C"
_symmetry_group_IT_number 13
_symmetry_cell_setting 'monoclinic'
loop_
_space_group_symop_operation_xyz
x,y,z
-x,y,1/2-z
-x,-y,-z
x,-y,1/2+z
loop_
_atom_site_type_symbol
_atom_site_label
_atom_site_fract_x
_atom_site_fract_y
_atom_site_fract_z
Si Si1 0.586003 0.760660 0.509451
Si Si2 0.500000 0.054079 0.250000
Si Si3 0.000000 0.334726 0.750000
Si Si4 0.755242 0.020878 0.257499
Si Si5 0.335109 0.240784 0.805013
Si Si6 0.951380 0.958693 0.686658
Si Si7 0.625310 0.400701 0.359713
Si Si8 0.135667 0.288912 0.085400
O O1 0.672241 0.932887 0.402028
O O2 0.627336 0.525478 0.447246
O O3 0.473071 0.766517 0.559669
O O4 0.567360 0.795290 0.626216
O O5 0.571614 0.905078 0.243688
O O6 0.103863 0.478525 0.644183
O O7 0.011045 0.192982 0.823292
O O8 0.742891 0.890610 0.184262
O O9 0.880312 0.016705 0.167479
O O10 0.732483 0.266678 0.260306
O O11 0.383225 0.439533 0.711796
O O12 0.257808 0.313897 0.948926
O O13 0.871876 0.874996 0.831084
O O14 0.052315 0.798579 0.588594
#
# Coordination Sequence:
#
# PCOD8121764 Si02
#       8
#     4   2   2   4   4   4   4   4
#     4  10  23  41  64  86 126 166 211 257 310 368
#     4  12  24  44  60  94 130 164 216 270 308 374
#     4   8  18  40  64  88 122 158 208 258 316 378
#     4  11  22  43  64  89 126 168 206 258 316 381
#     4  11  25  40  60  92 129 164 211 262 317 373
#     4   9  20  39  67  91 117 167 206 251 324 375
#     4  10  23  42  63  87 126 173 205 253 315 384
#     4   9  20  40  60  92 128 155 206 269 307 378
#
# _framework density 22.105495000000001
#
# number of rings (size 3 to 8) (size 9 to 14) (size 15 to 20)
#    0.000    2.286    1.429    1.286    4.000    8.000 
#    7.714    1.429    0.000    0.000    0.000    0.000 
#    0.000    0.000    0.000    0.000    0.000    0.000 
#
# Total GULP energy -346985.689567 kJ/mol
# GULP energy per Si atom -12392.346056 kJ/mol
# Density = 2.205518 g / cm^3
# Si number density = 22.105495 Si / 1000 Ang^3
#
#
#
# Elastic Constant Matrix: (Units=GPa)
#
#
# Indices 1 2 3 4 5 6 
#
# 1 73.8286 6.4479 -27.4366 0.0000 -7.2166 0.0000
# 2 6.4479 87.1026 -0.7848 0.0000 1.9235 0.0000
# 3 -27.4366 -0.7848 64.9134 0.0000 6.3499 0.0000
# 4 0.0000 0.0000 0.0000 8.0705 0.0000 2.8024
# 5 -7.2166 1.9235 6.3499 0.0000 30.6521 0.0000
# 6 0.0000 0.0000 0.0000 2.8024 0.0000 25.5330
#
#
#
# Elastic Compliance Matrix: (Units=1/GPa)
#
#
# Indices 1 2 3 4 5 6 
#
# 1 0.016373 -0.001208 0.006656 0.000000 0.002552 0.000000
# 2 -0.001208 0.011589 -0.000277 0.000000 -0.000954 0.000000
# 3 0.006656 -0.000277 0.018434 0.000000 -0.002234 0.000000
# 4 0.000000 0.000000 0.000000 0.128817 0.000000 -0.014138
# 5 0.002552 -0.000954 -0.002234 0.000000 0.033748 0.000000
# 6 0.000000 0.000000 0.000000 -0.014138 0.000000 0.040717
#
#
# Mechanical properties :
#
#
# Convention : Reuss Voigt Hill
#
# Bulk Modulus (GPa) = 17.62521 20.25531 18.94026
# Shear Modulus (GPa) = 19.36118 29.35900 24.36009
#
# Velocity S-wave (km/s) = 2.96269 3.64831 3.32323
# Velocity P-wave (km/s) = 4.43778 5.18939 4.82824
#
# Compressibility (1/GPa) = 0.05673690
#
# Stress axis : x y z
#
# Youngs Moduli (GPa) = 61.07430 86.29059 54.24845
#
# Poissons Ratio (x) = 0.10428 -0.36109
# Poissons Ratio (y) = 0.07381 0.01504
# Poissons Ratio (z) = -0.40653 0.02393
#
# Static dielectric constant tensor:
#      x y z
#    x 3.814770 0.000000 -0.014570 
#    y 0.000000 3.985110 0.000000 
#    z -0.014570 0.000000 3.820020 
# 
# 
# High freq. dielectric constant tensor:
#      x y z
#    x 1.852590 0.000000 -0.007620 
#    y 0.000000 1.874780 0.000000 
#    z -0.007620 0.000000 1.859050 
# 
# From -- ./inp_files/70269.got.cif
#   From: 2010.06.25/outbox.cif.g09.slc.cpg/sg13_36_cif.got.tgz:70269.got - 2010.06.28 04:50:58.
