data_PCOD8121821
_publ_section_title
;
Structure prediction by ZEFSAII (Michael W. Deem and Ramdas Pophale) SiO2 
 PCOD8121821
Probable space group: P 2/C
;
_chemical_formula_sum "Si O2"
_cell_formula_units_Z 28
_cell_length_a 26.071697
_cell_length_b 8.801662
_cell_length_c 11.275904
_cell_angle_alpha 90.000000
_cell_angle_beta 149.247650
_cell_angle_gamma 90.000000
_cell_volume 1323.077293
_symmetry_space_group_name_H-M "P 2/C"
_symmetry_group_IT_number 13
_symmetry_cell_setting 'monoclinic'
loop_
_space_group_symop_operation_xyz
x,y,z
-x,y,1/2-z
-x,-y,-z
x,-y,1/2+z
loop_
_atom_site_type_symbol
_atom_site_label
_atom_site_fract_x
_atom_site_fract_y
_atom_site_fract_z
Si Si1 0.758769 0.126431 0.311287
Si Si2 0.623069 0.336490 0.187462
Si Si3 0.810545 0.631953 0.229658
Si Si4 0.248940 0.214047 0.655706
Si Si5 0.944229 0.845322 0.353685
Si Si6 0.856382 0.288083 0.291269
Si Si7 0.546067 0.339854 0.467860
O O1 0.658705 0.207575 0.165048
O O2 0.854160 0.135951 0.584764
O O3 0.780952 0.200433 0.228548
O O4 0.742754 0.947769 0.262708
O O5 0.718698 0.373715 0.456887
O O6 0.532818 0.281522 0.091365
O O7 0.579175 0.483913 0.034433
O O8 0.772985 0.660168 0.288098
O O9 0.896753 0.756426 0.371993
O O10 0.855167 0.465633 0.311015
O O11 0.167213 0.231173 0.389372
O O12 0.356252 0.241931 0.809885
O O13 0.027899 0.747521 0.453178
O O14 0.000000 0.000000 0.500000
O O15 0.500000 0.300920 0.250000
#
# Coordination Sequence:
#
# PCOD8121821 Si02
#       7
#     4   4   4   4   4   4   4
#     4  11  26  44  68  97 141 178 221 277 340 399
#     4  10  23  42  68  97 130 175 224 277 337 397
#     4  11  24  42  69  98 137 173 229 282 327 396
#     4  12  25  43  70 100 136 177 223 282 340 401
#     4  11  23  46  69  97 136 184 224 274 339 398
#     4  12  25  44  68 100 136 179 231 275 336 396
#     4  11  22  41  72  99 130 173 226 279 339 405
#
# _framework density 21.162785
#
# number of rings (size 3 to 8) (size 9 to 14) (size 15 to 20)
#    0.000    0.857    4.286    2.571    4.000    1.143 
#    2.571    0.714    0.000    0.000    0.000    0.000 
#    0.000    0.000    0.000    0.000    0.000    0.000 
#
# Total GULP energy -347168.152652 kJ/mol
# GULP energy per Si atom -12398.862595 kJ/mol
# Density = 2.111462 g / cm^3
# Si number density = 21.162785 Si / 1000 Ang^3
#
#
#
# Elastic Constant Matrix: (Units=GPa)
#
#
# Indices 1 2 3 4 5 6 
#
# 1 100.2638 23.8446 14.6384 0.0000 19.2640 0.0000
# 2 23.8446 100.3489 12.5551 0.0000 14.3258 0.0000
# 3 14.6384 12.5551 44.9694 0.0000 20.5463 0.0000
# 4 0.0000 0.0000 0.0000 32.5032 0.0000 10.6616
# 5 19.2640 14.3258 20.5463 0.0000 43.4167 0.0000
# 6 0.0000 0.0000 0.0000 10.6616 0.0000 84.2393
#
#
#
# Elastic Compliance Matrix: (Units=1/GPa)
#
#
# Indices 1 2 3 4 5 6 
#
# 1 0.011371 -0.001992 -0.001455 0.000000 -0.003699 0.000000
# 2 -0.001992 0.010911 -0.001476 0.000000 -0.002018 0.000000
# 3 -0.001455 -0.001476 0.028842 0.000000 -0.012516 0.000000
# 4 0.000000 0.000000 0.000000 0.032099 0.000000 -0.004063
# 5 -0.003699 -0.002018 -0.012516 0.000000 0.031263 0.000000
# 6 0.000000 0.000000 0.000000 -0.004063 0.000000 0.012385
#
#
# Mechanical properties :
#
#
# Convention : Reuss Voigt Hill
#
# Bulk Modulus (GPa) = 24.22592 38.62871 31.42732
# Shear Modulus (GPa) = 33.22809 45.00145 39.11477
#
# Velocity S-wave (km/s) = 3.96677 4.61634 4.30383
# Velocity P-wave (km/s) = 5.69672 6.83424 6.29124
#
# Compressibility (1/GPa) = 0.04127810
#
# Stress axis : x y z
#
# Youngs Moduli (GPa) = 87.94652 91.64853 34.67208
#
# Poissons Ratio (x) = 0.18253 0.05045
# Poissons Ratio (y) = 0.17516 0.05117
# Poissons Ratio (z) = 0.12797 0.13527
#
# Static dielectric constant tensor:
#      x y z
#    x 4.010290 0.000000 0.240050 
#    y 0.000000 4.054080 0.000000 
#    z 0.240050 0.000000 3.921080 
# 
# 
# High freq. dielectric constant tensor:
#      x y z
#    x 1.841360 0.000000 0.012230 
#    y 0.000000 1.831900 0.000000 
#    z 0.012230 0.000000 1.831750 
# 
# From -- ./inp_files/42278.got.cif
#   From: 2010.06.25/outbox.cif.g09.slc.cpg/sg13_22_cif.got.tgz:42278.got - 2010.06.28 04:50:58.
