data_PCOD8121120
_publ_section_title
;
Structure prediction by ZEFSAII (Michael W. Deem and Ramdas Pophale) SiO2 
 PCOD8121120
Probable space group: P 2/C
;
_chemical_formula_sum "Si O2"
_cell_formula_units_Z 28
_cell_length_a 7.858951
_cell_length_b 8.808308
_cell_length_c 20.611566
_cell_angle_alpha 90.000000
_cell_angle_beta 62.084625
_cell_angle_gamma 90.000000
_cell_volume 1260.792002
_symmetry_space_group_name_H-M "P 2/C"
_symmetry_group_IT_number 13
_symmetry_cell_setting 'monoclinic'
loop_
_space_group_symop_operation_xyz
x,y,z
-x,y,1/2-z
-x,-y,-z
x,-y,1/2+z
loop_
_atom_site_type_symbol
_atom_site_label
_atom_site_fract_x
_atom_site_fract_y
_atom_site_fract_z
Si Si1 0.879907 0.285427 0.360869
Si Si2 0.276019 0.425487 0.993621
Si Si3 0.000000 0.975460 0.750000
Si Si4 0.808765 0.905622 0.167328
Si Si5 0.500000 0.322356 0.750000
Si Si6 0.421991 0.460529 0.153436
Si Si7 0.756921 0.764813 0.628279
Si Si8 0.035714 0.294592 0.538021
O O1 0.732683 0.293049 0.449547
O O2 0.793264 0.400848 0.323212
O O3 0.883182 0.122065 0.325038
O O4 0.097232 0.321728 0.347321
O O5 0.489310 0.468530 0.929577
O O6 0.162635 0.375043 0.949090
O O7 0.171809 0.574012 0.043972
O O8 0.854487 0.080720 0.735777
O O9 0.649039 0.779871 0.184572
O O10 0.995871 0.842775 0.095274
O O11 0.722101 0.064037 0.157634
O O12 0.609861 0.419670 0.784365
O O13 0.557785 0.326052 0.157792
O O14 0.857752 0.780993 0.541358
#
# Coordination Sequence:
#
# PCOD8121120 Si02
#       8
#     4   4   2   4   2   4   4   4
#     4  10  22  39  66  91 125 163 215 262 312 380
#     4   9  18  37  64  97 124 157 214 275 314 375
#     4  10  26  42  60  94 126 182 216 252 326 400
#     4  11  23  42  59  90 133 164 213 263 323 384
#     4  12  28  36  62  96 132 172 210 270 330 382
#     4  11  23  41  63  97 125 167 216 262 328 380
#     4   9  22  41  70  89 120 170 214 263 321 387
#     4   9  17  36  67  92 119 165 216 261 326 373
#
# _framework density 22.208262000000001
#
# number of rings (size 3 to 8) (size 9 to 14) (size 15 to 20)
#    0.000    2.000    1.429    1.714    6.000    1.143 
#    0.000    0.000    0.000    7.714    0.000    0.000 
#    0.000    0.000    0.000    0.000    0.000    0.000 
#
# Total GULP energy -347020.391660 kJ/mol
# GULP energy per Si atom -12393.585416 kJ/mol
# Density = 2.215772 g / cm^3
# Si number density = 22.208262 Si / 1000 Ang^3
#
#
#
# Elastic Constant Matrix: (Units=GPa)
#
#
# Indices 1 2 3 4 5 6 
#
# 1 87.7146 37.1514 28.3978 0.0000 11.5699 0.0000
# 2 37.1514 98.6048 48.2971 0.0000 5.3611 0.0000
# 3 28.3978 48.2971 78.9490 0.0000 15.1338 0.0000
# 4 0.0000 0.0000 0.0000 47.1286 0.0000 4.1560
# 5 11.5699 5.3611 15.1338 0.0000 24.8932 0.0000
# 6 0.0000 0.0000 0.0000 4.1560 0.0000 24.7096
#
#
#
# Elastic Compliance Matrix: (Units=1/GPa)
#
#
# Indices 1 2 3 4 5 6 
#
# 1 0.014404 -0.004396 -0.001573 0.000000 -0.004791 0.000000
# 2 -0.004396 0.015968 -0.008964 0.000000 0.004054 0.000000
# 3 -0.001573 -0.008964 0.020608 0.000000 -0.009866 0.000000
# 4 0.000000 0.000000 0.000000 0.021538 0.000000 -0.003623
# 5 -0.004791 0.004054 -0.009866 0.000000 0.047524 0.000000
# 6 0.000000 0.000000 0.000000 -0.003623 0.000000 0.041079
#
#
# Mechanical properties :
#
#
# Convention : Reuss Voigt Hill
#
# Bulk Modulus (GPa) = 47.36584 54.77344 51.06964
# Shear Modulus (GPa) = 25.24928 29.44110 27.34519
#
# Velocity S-wave (km/s) = 3.37550 3.64494 3.51281
# Velocity P-wave (km/s) = 6.04701 6.51392 6.28481
#
# Compressibility (1/GPa) = 0.02111226
#
# Stress axis : x y z
#
# Youngs Moduli (GPa) = 69.42598 62.62488 48.52562
#
# Poissons Ratio (x) = 0.27528 0.07635
# Poissons Ratio (y) = 0.30518 0.43501
# Poissons Ratio (z) = 0.10924 0.56140
#
# Static dielectric constant tensor:
#      x y z
#    x 3.898080 0.000000 0.207680 
#    y 0.000000 3.909750 0.000000 
#    z 0.207680 0.000000 4.061040 
# 
# 
# High freq. dielectric constant tensor:
#      x y z
#    x 1.860320 0.000000 0.013190 
#    y 0.000000 1.858690 0.000000 
#    z 0.013190 0.000000 1.880160 
# 
# From -- ./inp_files/75266.got.cif
#   From: 2010.06.25/outbox.cif.g09.slc.cpg/sg13_38_cif.got.tgz:75266.got - 2010.06.28 04:50:58.
