data_PCOD8121520
_publ_section_title
;
Structure prediction by ZEFSAII (Michael W. Deem and Ramdas Pophale) SiO2 
 PCOD8121520
Probable space group: P 2/C
;
_chemical_formula_sum "Si O2"
_cell_formula_units_Z 20
_cell_length_a 13.231240
_cell_length_b 8.086503
_cell_length_c 21.664834
_cell_angle_alpha 90.000000
_cell_angle_beta 158.083313
_cell_angle_gamma 90.000000
_cell_volume 865.218468
_symmetry_space_group_name_H-M "P 2/C"
_symmetry_group_IT_number 13
_symmetry_cell_setting 'monoclinic'
loop_
_space_group_symop_operation_xyz
x,y,z
-x,y,1/2-z
-x,-y,-z
x,-y,1/2+z
loop_
_atom_site_type_symbol
_atom_site_label
_atom_site_fract_x
_atom_site_fract_y
_atom_site_fract_z
Si Si1 0.803384 0.782907 0.427562
Si Si2 0.989732 0.680835 0.659968
Si Si3 0.012827 0.304920 0.688807
Si Si4 0.217759 0.830993 0.561693
Si Si5 0.422275 0.179014 0.482158
O O1 0.500000 0.711466 0.250000
O O2 0.960050 0.686915 0.569936
O O3 0.967931 0.750767 0.457874
O O4 0.795367 0.973466 0.441056
O O5 0.926124 0.495239 0.645026
O O6 0.795361 0.813688 0.584953
O O7 0.299017 0.723813 0.853354
O O8 0.809314 0.217061 0.525461
O O9 0.000000 0.223181 0.750000
O O10 0.321762 0.274256 0.843274
O O11 0.500000 0.764951 0.750000
O O12 0.500000 0.000000 0.500000
#
# Coordination Sequence:
#
# PCOD8121520 Si02
#       5
#     4   4   4   4   4
#     4  10  22  43  68  95 139 180 243 291 343 425
#     4  11  25  43  68 102 136 187 232 292 358 423
#     4  12  26  43  69 102 147 179 230 291 358 422
#     4  10  24  42  68 101 133 186 237 288 352 420
#     4  11  25  43  67 101 139 182 236 286 349 418
#
# _framework density 23.115549999999999
#
# number of rings (size 3 to 8) (size 9 to 14) (size 15 to 20)
#    0.000    1.200    2.000    3.000    8.400    3.200 
#    0.000    0.000    0.000    0.000    0.000    0.000 
#    0.000    0.000    0.000    0.000    0.000    0.000 
#
# Total GULP energy -247978.978311 kJ/mol
# GULP energy per Si atom -12398.948916 kJ/mol
# Density = 2.306294 g / cm^3
# Si number density = 23.115550 Si / 1000 Ang^3
#
#
#
# Elastic Constant Matrix: (Units=GPa)
#
#
# Indices 1 2 3 4 5 6 
#
# 1 111.4950 26.8463 46.0673 0.0000 -27.4047 0.0000
# 2 26.8463 61.0779 17.2157 0.0000 0.8187 0.0000
# 3 46.0673 17.2157 161.1097 0.0000 -25.8192 0.0000
# 4 0.0000 0.0000 0.0000 31.3858 0.0000 -4.2908
# 5 -27.4047 0.8187 -25.8192 0.0000 50.9217 0.0000
# 6 0.0000 0.0000 0.0000 -4.2908 0.0000 28.9399
#
#
#
# Elastic Compliance Matrix: (Units=1/GPa)
#
#
# Indices 1 2 3 4 5 6 
#
# 1 0.012434 -0.004946 -0.002113 0.000000 0.005700 0.000000
# 2 -0.004946 0.018927 -0.001179 0.000000 -0.003564 0.000000
# 3 -0.002113 -0.001179 0.007356 0.000000 0.002611 0.000000
# 4 0.000000 0.000000 0.000000 0.032521 0.000000 0.004822
# 5 0.005700 -0.003564 0.002611 0.000000 0.024087 0.000000
# 6 0.000000 0.000000 0.000000 0.004822 0.000000 0.035269
#
#
# Mechanical properties :
#
#
# Convention : Reuss Voigt Hill
#
# Bulk Modulus (GPa) = 44.96626 57.10458 51.03542
# Shear Modulus (GPa) = 32.36583 38.48636 35.42609
#
# Velocity S-wave (km/s) = 3.74595 4.08481 3.91905
# Velocity P-wave (km/s) = 6.18099 6.85603 6.52724
#
# Compressibility (1/GPa) = 0.02223890
#
# Stress axis : x y z
#
# Youngs Moduli (GPa) = 80.42400 52.83537 135.94796
#
# Poissons Ratio (x) = 0.26132 0.28732
# Poissons Ratio (y) = 0.39778 0.16033
# Poissons Ratio (z) = 0.16997 0.06231
#
# Static dielectric constant tensor:
#      x y z
#    x 4.120730 0.000000 -0.070360 
#    y 0.000000 3.823700 0.000000 
#    z -0.070360 0.000000 4.543970 
# 
# 
# High freq. dielectric constant tensor:
#      x y z
#    x 1.911070 0.000000 -0.009520 
#    y 0.000000 1.894700 0.000000 
#    z -0.009520 0.000000 1.930670 
# 
# From -- ./inp_files/87347.got.cif
#   From: 2010.06.25/outbox.cif.g09.slc.cpg/sg13_44_cif.got.tgz:87347.got - 2010.06.28 04:50:58.
