data_PCOD8121125
_publ_section_title
;
Structure prediction by ZEFSAII (Michael W. Deem and Ramdas Pophale) SiO2 
 PCOD8121125
Probable space group: P 2/C
;
_chemical_formula_sum "Si O2"
_cell_formula_units_Z 18
_cell_length_a 7.717331
_cell_length_b 22.118261
_cell_length_c 5.381445
_cell_angle_alpha 90.000000
_cell_angle_beta 64.621976
_cell_angle_gamma 90.000000
_cell_volume 829.936848
_symmetry_space_group_name_H-M "P 2/C"
_symmetry_group_IT_number 13
_symmetry_cell_setting 'monoclinic'
loop_
_space_group_symop_operation_xyz
x,y,z
-x,y,1/2-z
-x,-y,-z
x,-y,1/2+z
loop_
_atom_site_type_symbol
_atom_site_label
_atom_site_fract_x
_atom_site_fract_y
_atom_site_fract_z
Si Si1 0.697817 0.359682 0.492838
Si Si2 0.000000 0.461144 0.250000
Si Si3 0.500000 0.961116 0.250000
Si Si4 0.500000 0.718032 0.750000
Si Si5 0.188240 0.753418 0.291080
Si Si6 0.881000 0.883388 0.060590
O O1 0.500000 0.376700 0.750000
O O2 0.810305 0.420835 0.373308
O O3 0.661070 0.326536 0.256988
O O4 0.821428 0.310619 0.565862
O O5 0.000000 0.500000 0.500000
O O6 0.688099 0.921230 0.175241
O O7 0.500000 0.000000 0.500000
O O8 0.609504 0.759303 0.482535
O O9 0.179379 0.813727 0.462494
O O10 0.000000 0.754918 0.250000
O O11 0.000000 0.890320 0.250000
O O12 0.000000 0.906794 0.750000
#
# Coordination Sequence:
#
# PCOD8121125 Si02
#       6
#     4   2   2   2   4   4
#     4  10  24  43  68  98 134 179 224 285 352 408
#     4  12  30  46  70  96 134 186 236 280 332 422
#     4  12  28  49  76 102 145 200 240 290 346 420
#     4  10  22  39  68 100 135 180 218 280 356 422
#     4  10  23  39  69 101 139 175 220 288 355 414
#     4  11  27  45  71 111 143 185 241 296 352 419
#
# _framework density 21.688396999999998
#
# number of rings (size 3 to 8) (size 9 to 14) (size 15 to 20)
#    0.000    1.333    0.000    2.667   20.222    4.444 
#    0.000    0.000    0.000    0.000    0.000    0.000 
#    0.000    0.000    0.000    0.000    0.000    0.000 
#
# Total GULP energy -223059.923218 kJ/mol
# GULP energy per Si atom -12392.217957 kJ/mol
# Density = 2.163903 g / cm^3
# Si number density = 21.688397 Si / 1000 Ang^3
#
#
#
# Elastic Constant Matrix: (Units=GPa)
#
#
# Indices 1 2 3 4 5 6 
#
# 1 114.3902 72.7155 53.5972 0.0000 -10.7098 0.0000
# 2 72.7155 136.1357 59.1350 0.0000 -12.7519 0.0000
# 3 53.5972 59.1350 126.8555 0.0000 5.2968 0.0000
# 4 0.0000 0.0000 0.0000 65.5543 0.0000 20.4881
# 5 -10.7098 -12.7519 5.2968 0.0000 36.2861 0.0000
# 6 0.0000 0.0000 0.0000 20.4881 0.0000 85.6566
#
#
#
# Elastic Compliance Matrix: (Units=1/GPa)
#
#
# Indices 1 2 3 4 5 6 
#
# 1 0.014366 -0.005945 -0.003409 0.000000 0.002649 0.000000
# 2 -0.005945 0.012250 -0.003325 0.000000 0.003036 0.000000
# 3 -0.003409 -0.003325 0.011032 0.000000 -0.003785 0.000000
# 4 0.000000 0.000000 0.000000 0.016487 0.000000 -0.003944
# 5 0.002649 0.003036 -0.003785 0.000000 0.029960 0.000000
# 6 0.000000 0.000000 0.000000 -0.003944 0.000000 0.012618
#
#
# Mechanical properties :
#
#
# Convention : Reuss Voigt Hill
#
# Bulk Modulus (GPa) = 81.37362 83.14187 82.25775
# Shear Modulus (GPa) = 39.62988 50.29496 44.96242
#
# Velocity S-wave (km/s) = 4.27926 4.82080 4.55808
# Velocity P-wave (km/s) = 7.87508 8.33095 8.10622
#
# Compressibility (1/GPa) = 0.01228899
#
# Stress axis : x y z
#
# Youngs Moduli (GPa) = 69.60763 81.63461 90.64777
#
# Poissons Ratio (x) = 0.48528 0.30905
# Poissons Ratio (y) = 0.41378 0.30145
# Poissons Ratio (z) = 0.23732 0.27148
#
# Static dielectric constant tensor:
#      x y z
#    x 4.087700 0.000000 0.024400 
#    y 0.000000 4.111540 0.000000 
#    z 0.024400 0.000000 4.093200 
# 
# 
# High freq. dielectric constant tensor:
#      x y z
#    x 1.871530 0.000000 -0.005930 
#    y 0.000000 1.850080 0.000000 
#    z -0.005930 0.000000 1.863380 
# 
# From -- ./inp_files/1510.got.cif
#   From: 2010.06.25/outbox.cif.g09.slc.cpg/sg13_1_cif.got.tgz:1510.got - 2010.06.28 04:50:58.
