data_PCOD8121299
_publ_section_title
;
Structure prediction by ZEFSAII (Michael W. Deem and Ramdas Pophale) SiO2 
 PCOD8121299
Probable space group: P 2/C
;
_chemical_formula_sum "Si O2"
_cell_formula_units_Z 28
_cell_length_a 10.064894
_cell_length_b 6.309036
_cell_length_c 20.710679
_cell_angle_alpha 90.000000
_cell_angle_beta 114.297661
_cell_angle_gamma 90.000000
_cell_volume 1198.629987
_symmetry_space_group_name_H-M "P 2/C"
_symmetry_group_IT_number 13
_symmetry_cell_setting 'monoclinic'
loop_
_space_group_symop_operation_xyz
x,y,z
-x,y,1/2-z
-x,-y,-z
x,-y,1/2+z
loop_
_atom_site_type_symbol
_atom_site_label
_atom_site_fract_x
_atom_site_fract_y
_atom_site_fract_z
Si Si1 0.337675 0.587947 0.744579
Si Si2 0.600400 0.810811 0.996794
Si Si3 0.433965 0.561107 0.395425
Si Si4 0.841059 0.048594 0.346896
Si Si5 0.050900 0.343783 0.687837
Si Si6 0.708596 0.840435 0.439079
Si Si7 0.948420 0.603273 0.555451
O O1 0.500000 0.537992 0.750000
O O2 0.335469 0.537162 0.819984
O O3 0.207171 0.437850 0.694784
O O4 0.291415 0.828612 0.716187
O O5 0.507401 0.642495 0.939936
O O6 0.712831 0.920358 0.970361
O O7 0.667132 0.688701 0.072791
O O8 0.500000 0.000000 0.000000
O O9 0.552761 0.732429 0.394005
O O10 0.934288 0.911761 0.313583
O O11 0.783492 0.871219 0.385210
O O12 0.946568 0.205219 0.405178
O O13 0.000000 0.407890 0.750000
O O14 0.936324 0.437398 0.612475
O O15 0.788072 0.690318 0.507044
O O16 0.000000 0.500000 0.500000
#
# Coordination Sequence:
#
# PCOD8121299 Si02
#       7
#     4   4   4   4   4   4   4
#     4  11  25  44  70 100 142 187 238 290 360 436
#     4   9  21  38  60  98 131 175 225 281 349 418
#     4  10  22  41  64  96 142 179 229 292 360 428
#     4  11  25  43  68 102 134 185 238 292 357 439
#     4  11  27  48  71 105 149 190 238 300 375 435
#     4  11  22  39  72 100 134 179 247 298 357 424
#     4  11  25  44  71  99 132 183 244 304 354 417
#
# _framework density 23.360005000000001
#
# number of rings (size 3 to 8) (size 9 to 14) (size 15 to 20)
#    0.000    1.429    1.429    2.143    4.000   10.857 
#    0.000    0.000    0.000    0.000    0.000    0.000 
#    0.000    0.000    0.000    0.000    0.000    0.000 
#
# Total GULP energy -346891.574729 kJ/mol
# GULP energy per Si atom -12388.984812 kJ/mol
# Density = 2.330684 g / cm^3
# Si number density = 23.360005 Si / 1000 Ang^3
#
#
#
# Elastic Constant Matrix: (Units=GPa)
#
#
# Indices 1 2 3 4 5 6 
#
# 1 60.2418 31.8227 17.1463 0.0000 2.0389 0.0000
# 2 31.8227 125.8042 54.7754 0.0000 -7.0680 0.0000
# 3 17.1463 54.7754 141.8397 0.0000 -10.1798 0.0000
# 4 0.0000 0.0000 0.0000 44.4411 0.0000 -6.2462
# 5 2.0389 -7.0680 -10.1798 0.0000 32.8934 0.0000
# 6 0.0000 0.0000 0.0000 -6.2462 0.0000 37.6464
#
#
#
# Elastic Compliance Matrix: (Units=1/GPa)
#
#
# Indices 1 2 3 4 5 6 
#
# 1 0.019382 -0.004740 -0.000687 0.000000 -0.002433 0.000000
# 2 -0.004740 0.010743 -0.003466 0.000000 0.001530 0.000000
# 3 -0.000687 -0.003466 0.008613 0.000000 0.001963 0.000000
# 4 0.000000 0.000000 0.000000 0.023039 0.000000 0.003823
# 5 -0.002433 0.001530 0.001963 0.000000 0.031488 0.000000
# 6 0.000000 0.000000 0.000000 0.003823 0.000000 0.027197
#
#
# Mechanical properties :
#
#
# Convention : Reuss Voigt Hill
#
# Bulk Modulus (GPa) = 47.73032 59.48603 53.60817
# Shear Modulus (GPa) = 34.42781 37.93894 36.18338
#
# Velocity S-wave (km/s) = 3.84317 4.03438 3.93993
# Velocity P-wave (km/s) = 6.33799 6.87181 6.61029
#
# Compressibility (1/GPa) = 0.02095104
#
# Stress axis : x y z
#
# Youngs Moduli (GPa) = 51.59515 93.08467 116.10893
#
# Poissons Ratio (x) = 0.44124 0.07976
# Poissons Ratio (y) = 0.24457 0.40242
# Poissons Ratio (z) = 0.03544 0.32262
#
# Static dielectric constant tensor:
#      x y z
#    x 4.224980 0.000000 -0.151780 
#    y 0.000000 4.698250 0.000000 
#    z -0.151780 0.000000 4.424420 
# 
# 
# High freq. dielectric constant tensor:
#      x y z
#    x 1.912660 0.000000 -0.009690 
#    y 0.000000 1.940690 0.000000 
#    z -0.009690 0.000000 1.929880 
# 
# From -- ./inp_files/77605.got.cif
#   From: 2010.06.25/outbox.cif.g09.slc.cpg/sg13_39_cif.got.tgz:77605.got - 2010.06.28 04:50:58.
