data_PCOD8121865
_publ_section_title
;
Structure prediction by ZEFSAII (Michael W. Deem and Ramdas Pophale) SiO2 
 PCOD8121865
Probable space group: P 2/C
;
_chemical_formula_sum "Si O2"
_cell_formula_units_Z 22
_cell_length_a 11.246218
_cell_length_b 6.257044
_cell_length_c 14.264953
_cell_angle_alpha 90.000000
_cell_angle_beta 83.266919
_cell_angle_gamma 90.000000
_cell_volume 996.874298
_symmetry_space_group_name_H-M "P 2/C"
_symmetry_group_IT_number 13
_symmetry_cell_setting 'monoclinic'
loop_
_space_group_symop_operation_xyz
x,y,z
-x,y,1/2-z
-x,-y,-z
x,-y,1/2+z
loop_
_atom_site_type_symbol
_atom_site_label
_atom_site_fract_x
_atom_site_fract_y
_atom_site_fract_z
Si Si1 0.759488 0.160399 0.121969
Si Si2 0.306494 0.606651 0.704043
Si Si3 0.073401 0.186730 0.946994
Si Si4 0.147511 0.435575 0.560336
Si Si5 0.500000 0.310046 0.750000
Si Si6 0.506853 0.945201 0.891428
O O1 0.789313 0.277656 0.217898
O O2 0.616543 0.149384 0.134881
O O3 0.820566 0.924691 0.122724
O O4 0.800622 0.287616 0.026704
O O5 0.236467 0.450771 0.639422
O O6 0.384163 0.460741 0.767066
O O7 0.386857 0.778024 0.639325
O O8 0.981650 0.336519 0.895764
O O9 0.131836 0.324832 0.024311
O O10 0.000000 0.000000 0.000000
O O11 0.524706 0.170455 0.839388
O O12 0.500000 0.000000 0.000000
#
# Coordination Sequence:
#
# PCOD8121865 Si02
#       6
#     4   4   4   4   2   4
#     4  11  22  42  66  98 137 172 225 288 331 409
#     4  12  25  42  65 106 138 177 233 272 350 423
#     4   9  21  45  67  93 128 174 234 282 336 399
#     4  10  23  43  70  94 131 182 225 285 343 402
#     4  12  24  44  64 100 146 172 232 278 336 422
#     4  12  25  42  68 100 137 183 220 281 347 414
#
# _framework density 22.068981000000001
#
# number of rings (size 3 to 8) (size 9 to 14) (size 15 to 20)
#    0.000    1.091    3.636    2.182    5.091    2.909 
#    0.000   10.000    0.000    0.000    0.000    0.000 
#    0.000    0.000    0.000    0.000    0.000    0.000 
#
# Total GULP energy -272708.241010 kJ/mol
# GULP energy per Si atom -12395.829137 kJ/mol
# Density = 2.201875 g / cm^3
# Si number density = 22.068981 Si / 1000 Ang^3
#
#
#
# Elastic Constant Matrix: (Units=GPa)
#
#
# Indices 1 2 3 4 5 6 
#
# 1 106.1613 40.8552 35.5007 0.0000 13.2030 0.0000
# 2 40.8552 118.7313 42.6637 0.0000 4.7366 0.0000
# 3 35.5007 42.6637 116.6909 0.0000 5.6015 0.0000
# 4 0.0000 0.0000 0.0000 41.5391 0.0000 -5.3801
# 5 13.2030 4.7366 5.6015 0.0000 22.7848 0.0000
# 6 0.0000 0.0000 0.0000 -5.3801 0.0000 42.4540
#
#
#
# Elastic Compliance Matrix: (Units=1/GPa)
#
#
# Indices 1 2 3 4 5 6 
#
# 1 0.012098 -0.003119 -0.002262 0.000000 -0.005806 0.000000
# 2 -0.003119 0.010530 -0.002917 0.000000 0.000335 0.000000
# 3 -0.002262 -0.002917 0.010355 0.000000 -0.000629 0.000000
# 4 0.000000 0.000000 0.000000 0.024475 0.000000 0.003102
# 5 -0.005806 0.000335 -0.000629 0.000000 0.047338 0.000000
# 6 0.000000 0.000000 0.000000 0.003102 0.000000 0.023948
#
#
# Mechanical properties :
#
#
# Convention : Reuss Voigt Hill
#
# Bulk Modulus (GPa) = 61.02120 64.40252 62.71186
# Shear Modulus (GPa) = 33.15589 36.19317 34.67453
#
# Velocity S-wave (km/s) = 3.88025 4.05409 3.96812
# Velocity P-wave (km/s) = 6.91270 7.15261 7.03368
#
# Compressibility (1/GPa) = 0.01638775
#
# Stress axis : x y z
#
# Youngs Moduli (GPa) = 82.65673 94.96292 96.57619
#
# Poissons Ratio (x) = 0.29616 0.21843
# Poissons Ratio (y) = 0.25778 0.28175
# Poissons Ratio (z) = 0.18694 0.27704
#
# Static dielectric constant tensor:
#      x y z
#    x 4.344480 0.000000 -0.255150 
#    y 0.000000 4.508890 0.000000 
#    z -0.255150 0.000000 3.825460 
# 
# 
# High freq. dielectric constant tensor:
#      x y z
#    x 1.873260 0.000000 -0.004050 
#    y 0.000000 1.890850 0.000000 
#    z -0.004050 0.000000 1.850580 
# 
# From -- ./inp_files/48864.got.cif
#   From: 2010.06.25/outbox.cif.g09.slc.cpg/sg13_25_cif.got.tgz:48864.got - 2010.06.28 04:50:58.
