data_PCOD8121587
_publ_section_title
;
Structure prediction by ZEFSAII (Michael W. Deem and Ramdas Pophale) SiO2 
 PCOD8121587
Probable space group: P 2/C
;
_chemical_formula_sum "Si O2"
_cell_formula_units_Z 22
_cell_length_a 6.493754
_cell_length_b 8.358420
_cell_length_c 23.153655
_cell_angle_alpha 90.000000
_cell_angle_beta 59.778163
_cell_angle_gamma 90.000000
_cell_volume 1085.913053
_symmetry_space_group_name_H-M "P 2/C"
_symmetry_group_IT_number 13
_symmetry_cell_setting 'monoclinic'
loop_
_space_group_symop_operation_xyz
x,y,z
-x,y,1/2-z
-x,-y,-z
x,-y,1/2+z
loop_
_atom_site_type_symbol
_atom_site_label
_atom_site_fract_x
_atom_site_fract_y
_atom_site_fract_z
Si Si1 0.254970 0.102443 0.037424
Si Si2 0.981069 0.831362 0.135443
Si Si3 0.983036 0.315078 0.986269
Si Si4 0.762151 0.387689 0.814488
Si Si5 0.532518 0.612750 0.939610
Si Si6 0.500000 0.234448 0.750000
O O1 0.270846 0.253962 0.076827
O O2 0.056774 0.992129 0.093265
O O3 0.156587 0.182935 0.991700
O O4 0.500000 0.000000 0.000000
O O5 0.727172 0.872020 0.200347
O O6 0.960371 0.693313 0.089921
O O7 0.166060 0.768227 0.157673
O O8 0.705349 0.280802 0.038634
O O9 0.000000 0.500000 0.000000
O O10 0.622937 0.515864 0.872213
O O11 0.569424 0.344511 0.793916
O O12 0.000000 0.458577 0.750000
O O13 0.500000 0.500000 0.000000
#
# Coordination Sequence:
#
# PCOD8121587 Si02
#       6
#     4   4   4   4   4   2
#     4  12  25  40  64 101 138 170 216 288 342 403
#     4  11  23  40  64  96 131 172 224 268 340 399
#     4  12  23  38  68 100 131 173 222 270 338 399
#     4  10  22  44  67  96 131 182 228 274 337 411
#     4  12  22  41  67  98 134 171 224 285 333 404
#     4  10  24  40  70  88 132 180 228 268 332 420
#
# _framework density 20.259447999999999
#
# number of rings (size 3 to 8) (size 9 to 14) (size 15 to 20)
#    0.000    0.727    5.455    1.636    2.545    1.455 
#    0.000    4.545    0.000    2.182    0.000    0.000 
#    0.000    0.000    0.000    0.000    0.000    0.000 
#
# Total GULP energy -272572.847243 kJ/mol
# GULP energy per Si atom -12389.674875 kJ/mol
# Density = 2.021334 g / cm^3
# Si number density = 20.259448 Si / 1000 Ang^3
#
#
#
# Elastic Constant Matrix: (Units=GPa)
#
#
# Indices 1 2 3 4 5 6 
#
# 1 120.6453 39.8204 47.3104 0.0000 11.4429 0.0000
# 2 39.8204 101.8731 48.4686 0.0000 6.6361 0.0000
# 3 47.3104 48.4686 123.9442 0.0000 4.0477 0.0000
# 4 0.0000 0.0000 0.0000 33.8437 0.0000 -1.0722
# 5 11.4429 6.6361 4.0477 0.0000 41.3633 0.0000
# 6 0.0000 0.0000 0.0000 -1.0722 0.0000 35.9106
#
#
#
# Elastic Compliance Matrix: (Units=1/GPa)
#
#
# Indices 1 2 3 4 5 6 
#
# 1 0.010493 -0.002564 -0.002931 0.000000 -0.002205 0.000000
# 2 -0.002564 0.012777 -0.003987 0.000000 -0.000951 0.000000
# 3 -0.002931 -0.003987 0.010733 0.000000 0.000400 0.000000
# 4 0.000000 0.000000 0.000000 0.029576 0.000000 0.000883
# 5 -0.002205 -0.000951 0.000400 0.000000 0.024899 0.000000
# 6 0.000000 0.000000 0.000000 0.000883 0.000000 0.027873
#
#
# Mechanical properties :
#
#
# Convention : Reuss Voigt Hill
#
# Bulk Modulus (GPa) = 66.48715 68.62906 67.55811
# Shear Modulus (GPa) = 35.63089 36.28105 35.95597
#
# Velocity S-wave (km/s) = 4.19827 4.23640 4.21738
# Velocity P-wave (km/s) = 7.50931 7.60776 7.55870
#
# Compressibility (1/GPa) = 0.01504050
#
# Stress axis : x y z
#
# Youngs Moduli (GPa) = 95.29835 78.26585 93.17153
#
# Poissons Ratio (x) = 0.20064 0.27308
# Poissons Ratio (y) = 0.24431 0.37146
# Poissons Ratio (z) = 0.27931 0.31204
#
# Static dielectric constant tensor:
#      x y z
#    x 3.810060 0.000000 0.129050 
#    y 0.000000 3.696660 0.000000 
#    z 0.129050 0.000000 4.034090 
# 
# 
# High freq. dielectric constant tensor:
#      x y z
#    x 1.816900 0.000000 0.002480 
#    y 0.000000 1.774230 0.000000 
#    z 0.002480 0.000000 1.790690 
# 
# From -- ./inp_files/72995.got.cif
#   From: 2010.06.25/outbox.cif.g09.slc.cpg/sg13_37_cif.got.tgz:72995.got - 2010.06.28 04:50:58.
