data_PCOD8121263
_publ_section_title
;
Structure prediction by ZEFSAII (Michael W. Deem and Ramdas Pophale) SiO2 
 PCOD8121263
Probable space group: P 2/C
;
_chemical_formula_sum "Si O2"
_cell_formula_units_Z 18
_cell_length_a 10.277353
_cell_length_b 7.361416
_cell_length_c 23.051545
_cell_angle_alpha 90.000000
_cell_angle_beta 157.300992
_cell_angle_gamma 90.000000
_cell_volume 672.986382
_symmetry_space_group_name_H-M "P 2/C"
_symmetry_group_IT_number 13
_symmetry_cell_setting 'monoclinic'
loop_
_space_group_symop_operation_xyz
x,y,z
-x,y,1/2-z
-x,-y,-z
x,-y,1/2+z
loop_
_atom_site_type_symbol
_atom_site_label
_atom_site_fract_x
_atom_site_fract_y
_atom_site_fract_z
Si Si1 0.370259 0.249014 0.866117
Si Si2 0.363512 0.576211 0.136790
Si Si3 0.328294 0.236043 0.285104
Si Si4 0.000000 0.570598 0.750000
Si Si5 0.160156 0.057479 0.923328
O O1 0.602606 0.291638 0.904754
O O2 0.330267 0.437127 0.885245
O O3 0.987248 0.183781 0.689304
O O4 0.546824 0.087127 0.974995
O O5 0.500000 0.682072 0.250000
O O6 0.607635 0.399984 0.231831
O O7 0.000000 0.500000 0.000000
O O8 0.029392 0.299710 0.206437
O O9 0.681435 0.186795 0.462272
O O10 0.166009 0.058384 0.187539
#
# Coordination Sequence:
#
# PCOD8121263 Si02
#       5
#     4   4   4   2   4
#     4  10  23  41  62  89 120 157 199 243 297 351
#     4  11  22  41  64  87 118 159 202 244 290 353
#     4  10  23  41  62  89 120 157 199 243 297 351
#     4  10  24  40  64  90 120 158 200 244 292 358
#     4  10  22  41  60  90 124 154 196 245 300 352
#
# _framework density 26.746455999999998
#
# number of rings (size 3 to 8) (size 9 to 14) (size 15 to 20)
#    0.000    1.778    0.000    2.667    0.000   14.222 
#    0.000   22.222    0.000    0.000    0.000    0.000 
#    0.000    0.000    0.000    0.000    0.000    0.000 
#
# Total GULP energy -223024.399799 kJ/mol
# GULP energy per Si atom -12390.244433 kJ/mol
# Density = 2.668558 g / cm^3
# Si number density = 26.746456 Si / 1000 Ang^3
#
#
#
# Elastic Constant Matrix: (Units=GPa)
#
#
# Indices 1 2 3 4 5 6 
#
# 1 111.9864 29.0908 32.8689 0.0000 9.0864 0.0000
# 2 29.0908 103.5454 29.0383 0.0000 -2.5219 0.0000
# 3 32.8689 29.0383 134.8196 0.0000 0.9108 0.0000
# 4 0.0000 0.0000 0.0000 55.3535 0.0000 2.1557
# 5 9.0864 -2.5219 0.9108 0.0000 37.5910 0.0000
# 6 0.0000 0.0000 0.0000 2.1557 0.0000 30.1360
#
#
#
# Elastic Compliance Matrix: (Units=1/GPa)
#
#
# Indices 1 2 3 4 5 6 
#
# 1 0.010352 -0.002415 -0.001986 0.000000 -0.002616 0.000000
# 2 -0.002415 0.010863 -0.001760 0.000000 0.001355 0.000000
# 3 -0.001986 -0.001760 0.008279 0.000000 0.000161 0.000000
# 4 0.000000 0.000000 0.000000 0.018116 0.000000 -0.001296
# 5 -0.002616 0.001355 0.000161 0.000000 0.027322 0.000000
# 6 0.000000 0.000000 0.000000 -0.001296 0.000000 0.033276
#
#
# Mechanical properties :
#
#
# Convention : Reuss Voigt Hill
#
# Bulk Modulus (GPa) = 58.23418 59.14972 58.69195
# Shear Modulus (GPa) = 39.60265 41.90632 40.75448
#
# Velocity S-wave (km/s) = 3.85212 3.96258 3.90774
# Velocity P-wave (km/s) = 6.45020 6.56498 6.50784
#
# Compressibility (1/GPa) = 0.01717205
#
# Stress axis : x y z
#
# Youngs Moduli (GPa) = 96.59745 92.05786 120.78035
#
# Poissons Ratio (x) = 0.22234 0.23987
# Poissons Ratio (y) = 0.23330 0.21258
# Poissons Ratio (z) = 0.19184 0.16202
#
# Static dielectric constant tensor:
#      x y z
#    x 6.007420 0.000000 0.030920 
#    y 0.000000 5.014370 0.000000 
#    z 0.030920 0.000000 4.808800 
# 
# 
# High freq. dielectric constant tensor:
#      x y z
#    x 2.044070 0.000000 0.012920 
#    y 0.000000 2.089380 0.000000 
#    z 0.012920 0.000000 2.084950 
# 
# From -- ./inp_files/14775.got.cif
#   From: 2010.06.25/outbox.cif.g09.slc.cpg/sg13_8_cif.got.tgz:14775.got - 2010.06.28 04:50:58.
