data_PCOD8121408
_publ_section_title
;
Structure prediction by ZEFSAII (Michael W. Deem and Ramdas Pophale) SiO2 
 PCOD8121408
Probable space group: P 2/C
;
_chemical_formula_sum "Si O2"
_cell_formula_units_Z 28
_cell_length_a 8.861414
_cell_length_b 8.935833
_cell_length_c 26.554952
_cell_angle_alpha 90.000000
_cell_angle_beta 140.299403
_cell_angle_gamma 90.000000
_cell_volume 1343.173359
_symmetry_space_group_name_H-M "P 2/C"
_symmetry_group_IT_number 13
_symmetry_cell_setting 'monoclinic'
loop_
_space_group_symop_operation_xyz
x,y,z
-x,y,1/2-z
-x,-y,-z
x,-y,1/2+z
loop_
_atom_site_type_symbol
_atom_site_label
_atom_site_fract_x
_atom_site_fract_y
_atom_site_fract_z
Si Si1 0.664851 0.381302 0.366627
Si Si2 0.006122 0.172401 0.994219
Si Si3 0.367944 0.629606 0.063430
Si Si4 0.844185 0.406838 0.303381
Si Si5 0.246792 0.209002 0.435485
Si Si6 0.886360 0.689270 0.171815
Si Si7 0.758226 0.129493 0.543877
O O1 0.809384 0.231264 0.416134
O O2 0.722420 0.483561 0.430276
O O3 0.771481 0.445611 0.342053
O O4 0.384774 0.355949 0.287628
O O5 0.092777 0.213148 0.960340
O O6 0.739646 0.233114 0.932000
O O7 0.000000 0.000000 0.000000
O O8 0.646722 0.621015 0.132075
O O9 0.273763 0.653400 0.982266
O O10 0.028785 0.267187 0.345580
O O11 0.953226 0.556592 0.308262
O O12 0.486626 0.182049 0.465272
O O13 0.200002 0.049333 0.450472
O O14 0.844380 0.819329 0.120827
O O15 0.000000 0.766722 0.250000
#
# Coordination Sequence:
#
# PCOD8121408 Si02
#       7
#     4   4   4   4   4   4   4
#     4  11  24  40  66  98 131 173 214 273 330 387
#     4  12  23  43  68  98 128 170 222 272 322 392
#     4  11  22  41  66  93 127 167 220 265 322 385
#     4  11  23  43  63  94 137 170 215 270 333 384
#     4  10  22  42  64  95 129 171 219 269 319 396
#     4  11  24  43  64  95 133 171 216 273 320 392
#     4  10  23  41  67  94 130 175 219 269 329 379
#
# _framework density 20.846155
#
# number of rings (size 3 to 8) (size 9 to 14) (size 15 to 20)
#    0.000    1.143    4.286    1.286    4.000    1.143 
#    2.571    0.714    0.000    0.000    0.000    0.000 
#    0.000    0.000    0.000    0.000    0.000    0.000 
#
# Total GULP energy -346997.955845 kJ/mol
# GULP energy per Si atom -12392.784137 kJ/mol
# Density = 2.079871 g / cm^3
# Si number density = 20.846155 Si / 1000 Ang^3
#
#
#
# Elastic Constant Matrix: (Units=GPa)
#
#
# Indices 1 2 3 4 5 6 
#
# 1 108.5735 24.4973 39.6200 0.0000 2.6266 0.0000
# 2 24.4973 87.2885 46.5593 0.0000 4.3078 0.0000
# 3 39.6200 46.5593 108.2660 0.0000 9.0437 0.0000
# 4 0.0000 0.0000 0.0000 23.0820 0.0000 3.2582
# 5 2.6266 4.3078 9.0437 0.0000 31.2345 0.0000
# 6 0.0000 0.0000 0.0000 3.2582 0.0000 26.1866
#
#
#
# Elastic Compliance Matrix: (Units=1/GPa)
#
#
# Indices 1 2 3 4 5 6 
#
# 1 0.010726 -0.001191 -0.003435 0.000000 0.000257 0.000000
# 2 -0.001191 0.015000 -0.005995 0.000000 -0.000233 0.000000
# 3 -0.003435 -0.005995 0.013300 0.000000 -0.002735 0.000000
# 4 0.000000 0.000000 0.000000 0.044098 0.000000 -0.005487
# 5 0.000257 -0.000233 -0.002735 0.000000 0.032818 0.000000
# 6 0.000000 0.000000 0.000000 -0.005487 0.000000 0.038870
#
#
# Mechanical properties :
#
#
# Convention : Reuss Voigt Hill
#
# Bulk Modulus (GPa) = 56.22883 58.38682 57.30782
# Shear Modulus (GPa) = 27.47512 28.99739 28.23626
#
# Velocity S-wave (km/s) = 3.63436 3.73368 3.68435
# Velocity P-wave (km/s) = 6.68156 6.83055 6.75646
#
# Compressibility (1/GPa) = 0.01778447
#
# Stress axis : x y z
#
# Youngs Moduli (GPa) = 93.23005 66.66717 75.18724
#
# Poissons Ratio (x) = 0.07940 0.25823
# Poissons Ratio (y) = 0.11104 0.45077
# Poissons Ratio (z) = 0.32020 0.39969
#
# Static dielectric constant tensor:
#      x y z
#    x 4.328950 0.000000 0.076520 
#    y 0.000000 3.568230 0.000000 
#    z 0.076520 0.000000 3.919910 
# 
# 
# High freq. dielectric constant tensor:
#      x y z
#    x 1.843460 0.000000 0.008470 
#    y 0.000000 1.799310 0.000000 
#    z 0.008470 0.000000 1.808140 
# 
# From -- ./inp_files/91477.got.cif
#   From: 2010.06.25/outbox.cif.g09.slc.cpg/sg13_46_cif.got.tgz:91477.got - 2010.06.28 04:50:58.
