data_PCOD8121819
_publ_section_title
;
Structure prediction by ZEFSAII (Michael W. Deem and Ramdas Pophale) SiO2 
 PCOD8121819
Probable space group: P 2/C
;
_chemical_formula_sum "Si O2"
_cell_formula_units_Z 18
_cell_length_a 8.960143
_cell_length_b 12.698471
_cell_length_c 8.485176
_cell_angle_alpha 90.000000
_cell_angle_beta 112.783290
_cell_angle_gamma 90.000000
_cell_volume 890.116608
_symmetry_space_group_name_H-M "P 2/C"
_symmetry_group_IT_number 13
_symmetry_cell_setting 'monoclinic'
loop_
_space_group_symop_operation_xyz
x,y,z
-x,y,1/2-z
-x,-y,-z
x,-y,1/2+z
loop_
_atom_site_type_symbol
_atom_site_label
_atom_site_fract_x
_atom_site_fract_y
_atom_site_fract_z
Si Si1 0.000000 0.200888 0.750000
Si Si2 0.500000 0.729347 0.750000
Si Si3 0.000000 0.467248 0.250000
Si Si4 0.167097 0.367509 0.027486
Si Si5 0.170359 0.949677 0.105656
Si Si6 0.373325 0.087442 0.396774
O O1 0.923705 0.265471 0.575734
O O2 0.852462 0.132281 0.760533
O O3 0.643263 0.653940 0.870207
O O4 0.550350 0.800952 0.620695
O O5 0.089915 0.392939 0.164053
O O6 0.137698 0.537516 0.392361
O O7 0.286360 0.044272 0.205190
O O8 0.245963 0.891431 0.985246
O O9 0.000000 0.000000 0.000000
O O10 0.500000 0.000000 0.500000
#
# Coordination Sequence:
#
# PCOD8121819 Si02
#       6
#     2   2   2   4   4   4
#     4  11  22  38  63  94 118 164 221 244 284 367
#     4  12  24  38  62  98 124 160 212 250 300 372
#     4   9  22  48  69  88 116 156 193 266 336 367
#     4  10  23  42  68  91 120 151 204 260 315 383
#     4  12  22  38  59  86 125 176 214 246 284 344
#     4  12  23  39  56  86 133 172 202 249 299 339
#
# _framework density 20.222069999999999
#
# number of rings (size 3 to 8) (size 9 to 14) (size 15 to 20)
#    0.000    0.889    4.444    2.667    3.111    0.889 
#    0.000    0.000    0.000    0.000    0.000    0.000 
#    0.000    0.000    0.000    0.000    0.000    0.000 
#
# Total GULP energy -223259.322293 kJ/mol
# GULP energy per Si atom -12403.295683 kJ/mol
# Density = 2.017604 g / cm^3
# Si number density = 20.222070 Si / 1000 Ang^3
#
#
#
# Elastic Constant Matrix: (Units=GPa)
#
#
# Indices 1 2 3 4 5 6 
#
# 1 142.9654 61.1399 70.1982 0.0000 -10.8422 0.0000
# 2 61.1399 93.5212 52.6307 0.0000 -0.3228 0.0000
# 3 70.1982 52.6307 125.3249 0.0000 5.9807 0.0000
# 4 0.0000 0.0000 0.0000 36.9306 0.0000 -3.2480
# 5 -10.8422 -0.3228 5.9807 0.0000 57.9099 0.0000
# 6 0.0000 0.0000 0.0000 -3.2480 0.0000 43.0929
#
#
#
# Elastic Compliance Matrix: (Units=1/GPa)
#
#
# Indices 1 2 3 4 5 6 
#
# 1 0.011534 -0.005010 -0.004480 0.000000 0.002594 0.000000
# 2 -0.005010 0.016206 -0.003978 0.000000 -0.000437 0.000000
# 3 -0.004480 -0.003978 0.012261 0.000000 -0.002127 0.000000
# 4 0.000000 0.000000 0.000000 0.027259 0.000000 0.002055
# 5 0.002594 -0.000437 -0.002127 0.000000 0.017971 0.000000
# 6 0.000000 0.000000 0.000000 0.002055 0.000000 0.023361
#
#
# Mechanical properties :
#
#
# Convention : Reuss Voigt Hill
#
# Bulk Modulus (GPa) = 76.55239 81.08321 78.81780
# Shear Modulus (GPa) = 35.74425 39.44287 37.59356
#
# Velocity S-wave (km/s) = 4.20883 4.42122 4.31633
# Velocity P-wave (km/s) = 7.84583 8.13919 7.99385
#
# Compressibility (1/GPa) = 0.01306295
#
# Stress axis : x y z
#
# Youngs Moduli (GPa) = 86.70100 61.70730 81.55870
#
# Poissons Ratio (x) = 0.30915 0.36541
# Poissons Ratio (y) = 0.43437 0.32448
# Poissons Ratio (z) = 0.38845 0.24550
#
# Static dielectric constant tensor:
#      x y z
#    x 4.118310 0.000000 -0.244150 
#    y 0.000000 3.679270 0.000000 
#    z -0.244150 0.000000 3.858210 
# 
# 
# High freq. dielectric constant tensor:
#      x y z
#    x 1.796300 0.000000 -0.004750 
#    y 0.000000 1.778840 0.000000 
#    z -0.004750 0.000000 1.806410 
# 
# From -- ./inp_files/11203.got.cif
#   From: 2010.06.25/outbox.cif.g09.slc.cpg/sg13_6_cif.got.tgz:11203.got - 2010.06.28 04:50:58.
