data_PCOD8121213
_publ_section_title
;
Structure prediction by ZEFSAII (Michael W. Deem and Ramdas Pophale) SiO2 
 PCOD8121213
Probable space group: P 2/C
;
_chemical_formula_sum "Si O2"
_cell_formula_units_Z 26
_cell_length_a 19.960470
_cell_length_b 5.058356
_cell_length_c 12.513396
_cell_angle_alpha 90.000000
_cell_angle_beta 63.648152
_cell_angle_gamma 90.000000
_cell_volume 1132.151662
_symmetry_space_group_name_H-M "P 2/C"
_symmetry_group_IT_number 13
_symmetry_cell_setting 'monoclinic'
loop_
_space_group_symop_operation_xyz
x,y,z
-x,y,1/2-z
-x,-y,-z
x,-y,1/2+z
loop_
_atom_site_type_symbol
_atom_site_label
_atom_site_fract_x
_atom_site_fract_y
_atom_site_fract_z
Si Si1 0.052253 0.749102 0.956585
Si Si2 0.362929 0.127755 0.739820
Si Si3 0.319162 0.597305 0.889304
Si Si4 0.439497 0.681558 0.978375
Si Si5 0.500000 0.968953 0.250000
Si Si6 0.087586 0.120458 0.209723
Si Si7 0.845971 0.632686 0.425415
O O1 0.099419 0.744575 0.815136
O O2 0.114939 0.765744 0.001233
O O3 0.000000 0.500000 0.000000
O O4 0.000000 0.000000 0.000000
O O5 0.303720 0.348329 0.820691
O O6 0.387452 0.151380 0.598499
O O7 0.340122 0.833510 0.792139
O O8 0.431582 0.217877 0.768401
O O9 0.380906 0.540889 0.938599
O O10 0.242676 0.653885 0.004685
O O11 0.500000 0.500000 0.000000
O O12 0.488684 0.868707 0.868237
O O13 0.126038 0.330740 0.102858
O O14 0.000000 0.079468 0.250000
O O15 0.127923 0.834365 0.186303
#
# Coordination Sequence:
#
# PCOD8121213 Si02
#       7
#     4   4   4   4   2   4   4
#     4  12  23  39  66  94 124 166 213 267 328 393
#     4  11  23  42  65  92 133 171 222 266 333 390
#     4  11  27  43  64  96 136 178 220 275 332 397
#     4  11  22  42  71  99 134 176 225 272 331 393
#     4  10  22  40  66 106 128 170 222 284 324 388
#     4  12  23  41  70  97 130 173 222 278 336 396
#     4  12  25  44  64  97 137 169 223 279 332 395
#
# _framework density 22.965121
#
# number of rings (size 3 to 8) (size 9 to 14) (size 15 to 20)
#    0.000    0.615    3.077    5.538    0.000    6.769 
#    0.000    0.000    0.000    0.000    0.000    0.000 
#    0.000    0.000    0.000    0.000    0.000    0.000 
#
# Total GULP energy -322137.611998 kJ/mol
# GULP energy per Si atom -12389.908154 kJ/mol
# Density = 2.291285 g / cm^3
# Si number density = 22.965121 Si / 1000 Ang^3
#
#
#
# Elastic Constant Matrix: (Units=GPa)
#
#
# Indices 1 2 3 4 5 6 
#
# 1 83.6016 19.3676 28.7830 0.0000 -11.0337 0.0000
# 2 19.3676 105.7622 38.3602 0.0000 3.5154 0.0000
# 3 28.7830 38.3602 134.7598 0.0000 -1.1584 0.0000
# 4 0.0000 0.0000 0.0000 20.6722 0.0000 2.9294
# 5 -11.0337 3.5154 -1.1584 0.0000 35.6044 0.0000
# 6 0.0000 0.0000 0.0000 2.9294 0.0000 26.2193
#
#
#
# Elastic Compliance Matrix: (Units=1/GPa)
#
#
# Indices 1 2 3 4 5 6 
#
# 1 0.013779 -0.001801 -0.002393 0.000000 0.004370 0.000000
# 2 -0.001801 0.010825 -0.002712 0.000000 -0.001715 0.000000
# 3 -0.002393 -0.002712 0.008702 0.000000 -0.000191 0.000000
# 4 0.000000 0.000000 0.000000 0.049152 0.000000 -0.005492
# 5 0.004370 -0.001715 -0.000191 0.000000 0.029604 0.000000
# 6 0.000000 0.000000 0.000000 -0.005492 0.000000 0.038753
#
#
# Mechanical properties :
#
#
# Convention : Reuss Voigt Hill
#
# Bulk Modulus (GPa) = 51.29217 55.23835 53.26526
# Shear Modulus (GPa) = 29.21831 32.34002 30.77917
#
# Velocity S-wave (km/s) = 3.57079 3.75670 3.66492
# Velocity P-wave (km/s) = 6.27567 6.55152 6.41508
#
# Compressibility (1/GPa) = 0.01949615
#
# Stress axis : x y z
#
# Youngs Moduli (GPa) = 72.57282 92.37490 114.91645
#
# Poissons Ratio (x) = 0.16633 0.27499
# Poissons Ratio (y) = 0.13068 0.31162
# Poissons Ratio (z) = 0.17366 0.25049
#
# Static dielectric constant tensor:
#      x y z
#    x 4.087910 0.000000 0.095370 
#    y 0.000000 5.070800 0.000000 
#    z 0.095370 0.000000 4.490540 
# 
# 
# High freq. dielectric constant tensor:
#      x y z
#    x 1.893000 0.000000 0.001400 
#    y 0.000000 1.914650 0.000000 
#    z 0.001400 0.000000 1.925480 
# 
# From -- ./inp_files/40052.got.cif
#   From: 2010.06.25/outbox.cif.g09.slc.cpg/sg13_21_cif.got.tgz:40052.got - 2010.06.28 04:50:58.
