data_PCOD8121446
_publ_section_title
;
Structure prediction by ZEFSAII (Michael W. Deem and Ramdas Pophale) SiO2 
 PCOD8121446
Probable space group: P 2/C
;
_chemical_formula_sum "Si O2"
_cell_formula_units_Z 20
_cell_length_a 16.376887
_cell_length_b 5.044779
_cell_length_c 14.928800
_cell_angle_alpha 90.000000
_cell_angle_beta 49.093796
_cell_angle_gamma 90.000000
_cell_volume 932.170316
_symmetry_space_group_name_H-M "P 2/C"
_symmetry_group_IT_number 13
_symmetry_cell_setting 'monoclinic'
loop_
_space_group_symop_operation_xyz
x,y,z
-x,y,1/2-z
-x,-y,-z
x,-y,1/2+z
loop_
_atom_site_type_symbol
_atom_site_label
_atom_site_fract_x
_atom_site_fract_y
_atom_site_fract_z
Si Si1 0.845779 0.473594 0.958231
Si Si2 0.303186 0.490389 0.776119
Si Si3 0.022352 0.980613 0.588304
Si Si4 0.612166 0.986125 0.369290
Si Si5 0.812271 0.257217 0.795666
O O1 0.815115 0.462717 0.875925
O O2 0.941046 0.686643 0.907668
O O3 0.737942 0.529968 0.092678
O O4 0.881069 0.180113 0.960860
O O5 0.362459 0.761001 0.709459
O O6 0.198199 0.438915 0.786685
O O7 0.391612 0.260105 0.697178
O O8 0.917366 0.069634 0.719720
O O9 0.000000 0.000000 0.500000
O O10 0.500000 0.000000 0.500000
O O11 0.706740 0.934574 0.375295
#
# Coordination Sequence:
#
# PCOD8121446 Si02
#       5
#     4   4   4   4   4
#     4  12  25  41  66  96 138 173 222 276 332 410
#     4  10  22  42  68  92 132 170 220 277 341 396
#     4  12  24  42  64  95 136 182 220 270 335 405
#     4  10  22  44  71  92 129 173 225 283 343 391
#     4  10  26  39  68  98 132 175 229 269 336 409
#
# _framework density 21.455307000000001
#
# number of rings (size 3 to 8) (size 9 to 14) (size 15 to 20)
#    1.200    0.000    2.000    4.200    5.600    1.600 
#    0.000    1.000    0.000    0.000    0.000    0.000 
#    0.000    0.000    0.000    0.000    0.000    0.000 
#
# Total GULP energy -247925.382141 kJ/mol
# GULP energy per Si atom -12396.269107 kJ/mol
# Density = 2.140647 g / cm^3
# Si number density = 21.455307 Si / 1000 Ang^3
#
#
#
# Elastic Constant Matrix: (Units=GPa)
#
#
# Indices 1 2 3 4 5 6 
#
# 1 34.5414 23.6908 44.2839 0.0000 -6.0564 0.0000
# 2 23.6908 122.6251 46.4386 0.0000 1.9314 0.0000
# 3 44.2839 46.4386 173.5710 0.0000 -11.4597 0.0000
# 4 0.0000 0.0000 0.0000 39.8660 0.0000 -3.7783
# 5 -6.0564 1.9314 -11.4597 0.0000 38.0093 0.0000
# 6 0.0000 0.0000 0.0000 -3.7783 0.0000 18.2576
#
#
#
# Elastic Compliance Matrix: (Units=1/GPa)
#
#
# Indices 1 2 3 4 5 6 
#
# 1 0.046282 -0.005182 -0.010119 0.000000 0.004587 0.000000
# 2 -0.005182 0.009710 -0.001391 0.000000 -0.001738 0.000000
# 3 -0.010119 -0.001391 0.008788 0.000000 0.001108 0.000000
# 4 0.000000 0.000000 0.000000 0.025586 0.000000 0.005295
# 5 0.004587 -0.001738 0.001108 0.000000 0.027463 0.000000
# 6 0.000000 0.000000 0.000000 0.005295 0.000000 0.055867
#
#
# Mechanical properties :
#
#
# Convention : Reuss Voigt Hill
#
# Bulk Modulus (GPa) = 31.84940 62.17378 47.01159
# Shear Modulus (GPa) = 22.98377 33.64818 28.31598
#
# Velocity S-wave (km/s) = 3.27653 3.96446 3.63680
# Velocity P-wave (km/s) = 5.40287 7.07087 6.29238
#
# Compressibility (1/GPa) = 0.03139776
#
# Stress axis : x y z
#
# Youngs Moduli (GPa) = 21.60665 102.98607 113.78857
#
# Poissons Ratio (x) = 0.53364 1.15142
# Poissons Ratio (y) = 0.11196 0.15824
# Poissons Ratio (z) = 0.21864 0.14322
#
# Static dielectric constant tensor:
#      x y z
#    x 5.286480 0.000000 0.677790 
#    y 0.000000 4.060370 0.000000 
#    z 0.677790 0.000000 4.255300 
# 
# 
# High freq. dielectric constant tensor:
#      x y z
#    x 1.807410 0.000000 0.003410 
#    y 0.000000 1.857670 0.000000 
#    z 0.003410 0.000000 1.846390 
# 
# From -- ./inp_files/54226.got.cif
#   From: 2010.06.25/outbox.cif.g09.slc.cpg/sg13_28_cif.got.tgz:54226.got - 2010.06.28 04:50:58.
