data_PCOD8121149
_publ_section_title
;
Structure prediction by ZEFSAII (Michael W. Deem and Ramdas Pophale) SiO2 
 PCOD8121149
Probable space group: P 2/C
;
_chemical_formula_sum "Si O2"
_cell_formula_units_Z 18
_cell_length_a 7.934447
_cell_length_b 22.514576
_cell_length_c 5.134244
_cell_angle_alpha 90.000000
_cell_angle_beta 114.499558
_cell_angle_gamma 90.000000
_cell_volume 834.605756
_symmetry_space_group_name_H-M "P 2/C"
_symmetry_group_IT_number 13
_symmetry_cell_setting 'monoclinic'
loop_
_space_group_symop_operation_xyz
x,y,z
-x,y,1/2-z
-x,-y,-z
x,-y,1/2+z
loop_
_atom_site_type_symbol
_atom_site_label
_atom_site_fract_x
_atom_site_fract_y
_atom_site_fract_z
Si Si1 0.878437 0.612264 0.427945
Si Si2 0.388749 0.846920 0.419625
Si Si3 0.216314 0.031671 0.894695
Si Si4 0.117612 0.750476 0.075218
Si Si5 0.500000 0.540830 0.250000
O O1 0.829362 0.681598 0.407942
O O2 0.682354 0.580318 0.328089
O O3 0.000000 0.595817 0.250000
O O4 0.000000 0.591951 0.750000
O O5 0.500000 0.875573 0.250000
O O6 0.245623 0.897566 0.414479
O O7 0.301334 0.788831 0.227202
O O8 0.500000 0.827011 0.750000
O O9 0.000000 0.018982 0.750000
O O10 0.307953 0.996962 0.710524
O O11 0.000000 0.765069 0.250000
O O12 0.000000 0.771127 0.750000
O O13 0.500000 0.500000 0.500000
#
# Coordination Sequence:
#
# PCOD8121149 Si02
#       5
#     4   4   4   4   2
#     4  10  23  44  68  97 133 179 223 272 329 389
#     4  12  25  38  60  96 125 157 201 264 325 374
#     4  10  22  40  61  81 114 164 208 250 307 380
#     4  10  22  43  66  89 123 169 214 259 315 381
#     4  12  26  42  68 104 136 178 220 272 328 386
#
# _framework density 21.567070000000001
#
# number of rings (size 3 to 8) (size 9 to 14) (size 15 to 20)
#    0.000    1.333    0.000    4.667    1.556    8.000 
#    2.000    0.000    0.000    0.000    0.000    0.000 
#    0.000    0.000    0.000    0.000    0.000    0.000 
#
# Total GULP energy -223154.608228 kJ/mol
# GULP energy per Si atom -12397.478235 kJ/mol
# Density = 2.151798 g / cm^3
# Si number density = 21.567070 Si / 1000 Ang^3
#
#
#
# Elastic Constant Matrix: (Units=GPa)
#
#
# Indices 1 2 3 4 5 6 
#
# 1 109.5717 59.5339 75.2013 0.0000 -5.0400 0.0000
# 2 59.5339 104.8541 67.7927 0.0000 6.0703 0.0000
# 3 75.2013 67.7927 204.7291 0.0000 -25.7948 0.0000
# 4 0.0000 0.0000 0.0000 30.8434 0.0000 -4.0210
# 5 -5.0400 6.0703 -25.7948 0.0000 33.1327 0.0000
# 6 0.0000 0.0000 0.0000 -4.0210 0.0000 23.2306
#
#
#
# Elastic Compliance Matrix: (Units=1/GPa)
#
#
# Indices 1 2 3 4 5 6 
#
# 1 0.014862 -0.006411 -0.003219 0.000000 0.000929 0.000000
# 2 -0.006411 0.016052 -0.003830 0.000000 -0.006898 0.000000
# 3 -0.003219 -0.003830 0.008163 0.000000 0.006567 0.000000
# 4 0.000000 0.000000 0.000000 0.033170 0.000000 0.005741
# 5 0.000929 -0.006898 0.006567 0.000000 0.036699 0.000000
# 6 0.000000 0.000000 0.000000 0.005741 0.000000 0.044041
#
#
# Mechanical properties :
#
#
# Convention : Reuss Voigt Hill
#
# Bulk Modulus (GPa) = 82.25469 91.57897 86.91683
# Shear Modulus (GPa) = 27.18010 31.88312 29.53161
#
# Velocity S-wave (km/s) = 3.55386 3.84907 3.70441
# Velocity P-wave (km/s) = 7.42036 7.89357 7.66062
#
# Compressibility (1/GPa) = 0.01215736
#
# Stress axis : x y z
#
# Youngs Moduli (GPa) = 67.28736 62.29636 122.51085
#
# Poissons Ratio (x) = 0.39935 0.39439
# Poissons Ratio (y) = 0.43135 0.46919
# Poissons Ratio (z) = 0.21661 0.23858
#
# Static dielectric constant tensor:
#      x y z
#    x 3.948600 0.000000 -0.291540 
#    y 0.000000 3.860910 0.000000 
#    z -0.291540 0.000000 4.268610 
# 
# 
# High freq. dielectric constant tensor:
#      x y z
#    x 1.854580 0.000000 -0.012970 
#    y 0.000000 1.849370 0.000000 
#    z -0.012970 0.000000 1.866990 
# 
# From -- ./inp_files/1686.got.cif
#   From: 2010.06.25/outbox.cif.g09.slc.cpg/sg13_1_cif.got.tgz:1686.got - 2010.06.28 04:50:58.
