data_PCOD8121516
_publ_section_title
;
Structure prediction by ZEFSAII (Michael W. Deem and Ramdas Pophale) SiO2 
 PCOD8121516
Probable space group: P 2/C
;
_chemical_formula_sum "Si O2"
_cell_formula_units_Z 22
_cell_length_a 5.160299
_cell_length_b 13.672301
_cell_length_c 15.520801
_cell_angle_alpha 90.000000
_cell_angle_beta 119.147241
_cell_angle_gamma 90.000000
_cell_volume 956.377486
_symmetry_space_group_name_H-M "P 2/C"
_symmetry_group_IT_number 13
_symmetry_cell_setting 'monoclinic'
loop_
_space_group_symop_operation_xyz
x,y,z
-x,y,1/2-z
-x,-y,-z
x,-y,1/2+z
loop_
_atom_site_type_symbol
_atom_site_label
_atom_site_fract_x
_atom_site_fract_y
_atom_site_fract_z
Si Si1 0.480128 0.826320 0.563068
Si Si2 0.701901 0.218373 0.646411
Si Si3 0.053280 0.055177 0.097960
Si Si4 0.650979 0.423962 0.684558
Si Si5 0.349057 0.362426 0.316672
Si Si6 0.500000 0.078846 0.750000
O O1 0.267188 0.825741 0.444254
O O2 0.296089 0.862061 0.615483
O O3 0.576192 0.716103 0.598364
O O4 0.759485 0.897414 0.590929
O O5 0.568059 0.328636 0.613771
O O6 0.485503 0.145934 0.662540
O O7 0.000000 0.222950 0.750000
O O8 0.199716 0.985909 0.194858
O O9 0.000000 0.000000 0.000000
O O10 0.500000 0.400703 0.750000
O O11 0.538428 0.529873 0.631598
O O12 0.000000 0.431704 0.750000
O O13 0.500000 0.337453 0.250000
O O14 0.000000 0.362183 0.250000
#
# Coordination Sequence:
#
# PCOD8121516 Si02
#       6
#     4   4   4   4   4   2
#     4  12  27  44  68  99 134 173 225 277 327 404
#     4  11  24  43  70  97 133 175 223 274 337 390
#     4  12  27  46  64  98 131 173 227 275 329 390
#     4   9  19  38  66  97 131 169 218 267 327 397
#     4  10  22  43  67  98 137 176 215 272 333 394
#     4  12  26  42  72  90 134 182 218 280 332 384
#
# _framework density 23.003468999999999
#
# number of rings (size 3 to 8) (size 9 to 14) (size 15 to 20)
#    0.000    1.091    2.727    2.727    6.364    0.727 
#    0.000    0.000    0.000   10.909    0.000    0.000 
#    0.000    0.000    0.000    0.000    0.000    0.000 
#
# Total GULP energy -272648.473065 kJ/mol
# GULP energy per Si atom -12393.112412 kJ/mol
# Density = 2.295111 g / cm^3
# Si number density = 23.003469 Si / 1000 Ang^3
#
#
#
# Elastic Constant Matrix: (Units=GPa)
#
#
# Indices 1 2 3 4 5 6 
#
# 1 97.2039 8.3622 5.8227 0.0000 1.3989 0.0000
# 2 8.3622 134.7447 38.2673 0.0000 7.8332 0.0000
# 3 5.8227 38.2673 74.3795 0.0000 6.2551 0.0000
# 4 0.0000 0.0000 0.0000 30.4914 0.0000 -5.3499
# 5 1.3989 7.8332 6.2551 0.0000 26.3551 0.0000
# 6 0.0000 0.0000 0.0000 -5.3499 0.0000 26.9769
#
#
#
# Elastic Compliance Matrix: (Units=1/GPa)
#
#
# Indices 1 2 3 4 5 6 
#
# 1 0.010365 -0.000472 -0.000545 0.000000 -0.000281 0.000000
# 2 -0.000472 0.008776 -0.004348 0.000000 -0.001551 0.000000
# 3 -0.000545 -0.004348 0.015931 0.000000 -0.002460 0.000000
# 4 0.000000 0.000000 0.000000 0.033978 0.000000 0.006738
# 5 -0.000281 -0.001551 -0.002460 0.000000 0.039003 0.000000
# 6 0.000000 0.000000 0.000000 0.006738 0.000000 0.038405
#
#
# Mechanical properties :
#
#
# Convention : Reuss Voigt Hill
#
# Bulk Modulus (GPa) = 41.08088 45.69251 43.38669
# Shear Modulus (GPa) = 30.24779 33.68973 31.96876
#
# Velocity S-wave (km/s) = 3.63012 3.83110 3.73196
# Velocity P-wave (km/s) = 5.95548 6.28301 6.12143
#
# Compressibility (1/GPa) = 0.02434223
#
# Stress axis : x y z
#
# Youngs Moduli (GPa) = 96.47899 113.95208 62.77137
#
# Poissons Ratio (x) = 0.05381 0.03420
# Poissons Ratio (y) = 0.04556 0.27290
# Poissons Ratio (z) = 0.05257 0.49541
#
# Static dielectric constant tensor:
#      x y z
#    x 4.194810 0.000000 -0.047870 
#    y 0.000000 5.138500 0.000000 
#    z -0.047870 0.000000 3.735330 
# 
# 
# High freq. dielectric constant tensor:
#      x y z
#    x 1.913220 0.000000 -0.006460 
#    y 0.000000 1.942830 0.000000 
#    z -0.006460 0.000000 1.875860 
# 
# From -- ./inp_files/44122.got.cif
#   From: 2010.06.25/outbox.cif.g09.slc.cpg/sg13_23_cif.got.tgz:44122.got - 2010.06.28 04:50:58.
