data_PCOD8121136
_publ_section_title
;
Structure prediction by ZEFSAII (Michael W. Deem and Ramdas Pophale) SiO2 
 PCOD8121136
Probable space group: P 2/C
;
_chemical_formula_sum "Si O2"
_cell_formula_units_Z 32
_cell_length_a 9.041209
_cell_length_b 11.648733
_cell_length_c 30.230404
_cell_angle_alpha 90.000000
_cell_angle_beta 28.584023
_cell_angle_gamma 90.000000
_cell_volume 1523.291427
_symmetry_space_group_name_H-M "P 2/C"
_symmetry_group_IT_number 13
_symmetry_cell_setting 'monoclinic'
loop_
_space_group_symop_operation_xyz
x,y,z
-x,y,1/2-z
-x,-y,-z
x,-y,1/2+z
loop_
_atom_site_type_symbol
_atom_site_label
_atom_site_fract_x
_atom_site_fract_y
_atom_site_fract_z
Si Si1 0.861716 0.487222 0.413287
Si Si2 0.855504 0.385985 0.740664
Si Si3 0.295356 0.981428 0.468935
Si Si4 0.911031 0.133016 0.823188
Si Si5 0.849519 0.816547 0.543461
Si Si6 0.150738 0.981593 0.835170
Si Si7 0.114916 0.593961 0.434637
Si Si8 0.187802 0.732820 0.849194
O O1 0.500000 0.500000 0.500000
O O2 0.040959 0.517450 0.321219
O O3 0.006562 0.563720 0.413956
O O4 0.908883 0.355411 0.415967
O O5 0.483545 0.386468 0.841361
O O6 0.000000 0.419309 0.750000
O O7 0.998470 0.263418 0.687535
O O8 0.553096 0.900476 0.423508
O O9 0.146060 0.897663 0.471858
O O10 0.062190 0.023955 0.568571
O O11 0.400647 0.099847 0.416026
O O12 0.000000 0.107878 0.750000
O O13 0.084114 0.041942 0.807038
O O14 0.739177 0.769608 0.619660
O O15 0.939066 0.711778 0.489114
O O16 0.500000 0.017561 0.750000
O O17 0.111379 0.844547 0.840180
O O18 0.000000 0.500000 0.500000
O O19 0.500000 0.671851 0.750000
#
# Coordination Sequence:
#
# PCOD8121136 Si02
#       8
#     4   4   4   4   4   4   4   4
#     4  12  27  44  69  98 137 181 234 289 348 417
#     4  11  26  45  70 100 137 184 231 294 351 410
#     4  10  23  41  68  97 138 180 225 290 352 418
#     4  11  25  41  68  98 140 170 230 291 347 407
#     4  10  22  39  71  98 133 176 234 274 357 409
#     4  10  24  40  67  95 133 180 225 276 349 420
#     4  12  24  44  73 102 140 186 237 291 354 426
#     4  10  22  43  66  93 138 178 220 279 345 410
#
# _framework density 21.007142000000002
#
# number of rings (size 3 to 8) (size 9 to 14) (size 15 to 20)
#    0.000    1.250    1.250    3.750   14.000    1.000 
#    0.000    0.625    0.000    0.000    0.000    0.000 
#    0.000    0.000    0.000    0.000    0.000    0.000 
#
# Total GULP energy -396610.135404 kJ/mol
# GULP energy per Si atom -12394.066731 kJ/mol
# Density = 2.095933 g / cm^3
# Si number density = 21.007142 Si / 1000 Ang^3
#
#
#
# Elastic Constant Matrix: (Units=GPa)
#
#
# Indices 1 2 3 4 5 6 
#
# 1 109.5695 51.7908 33.4132 0.0000 -2.8577 0.0000
# 2 51.7908 109.8089 38.9664 0.0000 2.9703 0.0000
# 3 33.4132 38.9664 99.6943 0.0000 -5.5466 0.0000
# 4 0.0000 0.0000 0.0000 -41.4501 0.0000 46.1109
# 5 -2.8577 2.9703 -5.5466 0.0000 39.4716 0.0000
# 6 0.0000 0.0000 0.0000 46.1109 0.0000 5.0766
#
#
#
# Elastic Compliance Matrix: (Units=1/GPa)
#
#
# Indices 1 2 3 4 5 6 
#
# 1 0.012156 -0.005031 -0.002054 0.000000 0.000970 0.000000
# 2 -0.005031 0.012731 -0.003390 0.000000 -0.001799 0.000000
# 3 -0.002054 -0.003390 0.012145 0.000000 0.001813 0.000000
# 4 0.000000 0.000000 0.000000 -0.002173 0.000000 0.019734
# 5 0.000970 -0.001799 0.001813 0.000000 0.025795 0.000000
# 6 0.000000 0.000000 0.000000 0.019734 0.000000 0.017739
#
#
# Mechanical properties :
#
#
# Convention : Reuss Voigt Hill
#
# Bulk Modulus (GPa) = 62.17847 63.04595 62.61221
# Shear Modulus (GPa) = 47.75353 13.61310 30.68332
#
# Velocity S-wave (km/s) = 4.77299 2.54839 3.82594
# Velocity P-wave (km/s) = 7.74843 6.22382 7.02759
#
# Compressibility (1/GPa) = 0.01608274
#
# Stress axis : x y z
#
# Youngs Moduli (GPa) = 82.26255 78.54777 82.33881
#
# Poissons Ratio (x) = 0.39516 0.16912
# Poissons Ratio (y) = 0.41385 0.27913
# Poissons Ratio (z) = 0.16896 0.26628
#
# Static dielectric constant tensor:
#      x y z
#    x 3.433900 0.000000 0.080140 
#    y 0.000000 4.133610 0.000000 
#    z 0.080140 0.000000 3.951230 
# 
# 
# High freq. dielectric constant tensor:
#      x y z
#    x 1.825850 0.000000 0.008790 
#    y 0.000000 1.832490 0.000000 
#    z 0.008790 0.000000 1.824370 
# 
# From -- ./inp_files/96126.got.cif
#   From: 2010.06.25/outbox.cif.g09.slc.cpg/sg13_49_cif.got.tgz:96126.got - 2010.06.28 04:50:58.
