data_PCOD8121951
_publ_section_title
;
Structure prediction by ZEFSAII (Michael W. Deem and Ramdas Pophale) SiO2 
 PCOD8121951
Probable space group: P 2/C
;
_chemical_formula_sum "Si O2"
_cell_formula_units_Z 28
_cell_length_a 8.969806
_cell_length_b 20.313366
_cell_length_c 15.011182
_cell_angle_alpha 90.000000
_cell_angle_beta 151.486193
_cell_angle_gamma 90.000000
_cell_volume 1305.676030
_symmetry_space_group_name_H-M "P 2/C"
_symmetry_group_IT_number 13
_symmetry_cell_setting 'monoclinic'
loop_
_space_group_symop_operation_xyz
x,y,z
-x,y,1/2-z
-x,-y,-z
x,-y,1/2+z
loop_
_atom_site_type_symbol
_atom_site_label
_atom_site_fract_x
_atom_site_fract_y
_atom_site_fract_z
Si Si1 0.132938 0.287064 0.548575
Si Si2 0.095261 0.352331 0.706367
Si Si3 0.846828 0.057192 0.076811
Si Si4 0.114105 0.083443 0.713738
Si Si5 0.773718 0.526924 0.954046
Si Si6 0.862940 0.849285 0.918392
Si Si7 0.779409 0.607583 0.549085
O O1 0.500000 0.272711 0.750000
O O2 0.997457 0.305766 0.574027
O O3 0.058450 0.347604 0.442400
O O4 0.945496 0.222184 0.420771
O O5 0.000000 0.320465 0.750000
O O6 0.923935 0.422042 0.601569
O O7 0.464913 0.356627 0.910388
O O8 0.000000 0.077749 0.250000
O O9 0.008888 0.098673 0.084794
O O10 0.479139 0.067392 0.896851
O O11 0.909717 0.981335 0.085414
O O12 0.000000 0.109957 0.750000
O O13 0.044840 0.140394 0.606451
O O14 0.500000 0.558579 0.750000
O O15 0.671568 0.463913 0.958280
O O16 0.000000 0.500000 0.000000
O O17 0.500000 0.857756 0.750000
O O18 0.000000 0.601074 0.750000
#
# Coordination Sequence:
#
# PCOD8121951 Si02
#       7
#     4   4   4   4   4   4   4
#     4  10  23  46  62  83 123 165 207 259 309 364
#     4  11  25  41  64  93 121 159 204 254 308 372
#     4  11  22  40  65  96 131 167 207 259 313 368
#     4  11  22  40  65  96 131 167 207 259 312 369
#     4  12  22  40  66  92 126 161 198 254 310 367
#     4  12  25  41  64  93 125 167 215 257 313 372
#     4  11  24  42  64  90 123 162 203 249 312 372
#
# _framework density 21.44483
#
# number of rings (size 3 to 8) (size 9 to 14) (size 15 to 20)
#    0.000    0.857    2.857    6.000    2.000    4.000 
#    0.000    2.857    0.000    0.000    0.000    0.000 
#    0.000    0.000    0.000    0.000    0.000    0.000 
#
# Total GULP energy -347144.574191 kJ/mol
# GULP energy per Si atom -12398.020507 kJ/mol
# Density = 2.139602 g / cm^3
# Si number density = 21.444830 Si / 1000 Ang^3
#
#
#
# Elastic Constant Matrix: (Units=GPa)
#
#
# Indices 1 2 3 4 5 6 
#
# 1 128.1275 23.1076 26.2277 0.0000 -7.9914 0.0000
# 2 23.1076 66.0096 11.4249 0.0000 -11.1126 0.0000
# 3 26.2277 11.4249 113.3444 0.0000 0.1806 0.0000
# 4 0.0000 0.0000 0.0000 26.6798 0.0000 13.2990
# 5 -7.9914 -11.1126 0.1806 0.0000 44.8893 0.0000
# 6 0.0000 0.0000 0.0000 13.2990 0.0000 -23.4973
#
#
#
# Elastic Compliance Matrix: (Units=1/GPa)
#
#
# Indices 1 2 3 4 5 6 
#
# 1 0.008686 -0.002584 -0.001751 0.000000 0.000914 0.000000
# 2 -0.002584 0.016872 -0.001109 0.000000 0.003721 0.000000
# 3 -0.001751 -0.001109 0.009341 0.000000 -0.000624 0.000000
# 4 0.000000 0.000000 0.000000 0.029234 0.000000 0.016546
# 5 0.000914 0.003721 -0.000624 0.000000 0.023363 0.000000
# 6 0.000000 0.000000 0.000000 0.016546 0.000000 -0.033193
#
#
# Mechanical properties :
#
#
# Convention : Reuss Voigt Hill
#
# Bulk Modulus (GPa) = 41.64605 47.66687 44.65646
# Shear Modulus (GPa) = 68.31175 26.06245 47.18710
#
# Velocity S-wave (km/s) = 5.65011 3.48993 4.69593
# Velocity P-wave (km/s) = 7.87574 6.20608 7.09023
#
# Compressibility (1/GPa) = 0.02401188
#
# Stress axis : x y z
#
# Youngs Moduli (GPa) = 115.12611 59.26921 107.05961
#
# Poissons Ratio (x) = 0.15314 0.18746
# Poissons Ratio (y) = 0.29746 0.11870
# Poissons Ratio (z) = 0.20158 0.06571
#
# Static dielectric constant tensor:
#      x y z
#    x 4.118430 0.000000 -0.010600 
#    y 0.000000 3.544600 0.000000 
#    z -0.010600 0.000000 3.798380 
# 
# 
# High freq. dielectric constant tensor:
#      x y z
#    x 1.860440 0.000000 0.002410 
#    y 0.000000 1.828650 0.000000 
#    z 0.002410 0.000000 1.846200 
# 
# From -- ./inp_files/48240.got.cif
#   From: 2010.06.25/outbox.cif.g09.slc.cpg/sg13_25_cif.got.tgz:48240.got - 2010.06.28 04:50:58.
