data_PCOD8121128
_publ_section_title
;
Structure prediction by ZEFSAII (Michael W. Deem and Ramdas Pophale) SiO2 
 PCOD8121128
Probable space group: P 2/C
;
_chemical_formula_sum "Si O2"
_cell_formula_units_Z 30
_cell_length_a 15.407416
_cell_length_b 5.494152
_cell_length_c 18.843389
_cell_angle_alpha 90.000000
_cell_angle_beta 61.057022
_cell_angle_gamma 90.000000
_cell_volume 1395.879899
_symmetry_space_group_name_H-M "P 2/C"
_symmetry_group_IT_number 13
_symmetry_cell_setting 'monoclinic'
loop_
_space_group_symop_operation_xyz
x,y,z
-x,y,1/2-z
-x,-y,-z
x,-y,1/2+z
loop_
_atom_site_type_symbol
_atom_site_label
_atom_site_fract_x
_atom_site_fract_y
_atom_site_fract_z
Si Si1 0.527442 0.338321 0.896661
Si Si2 0.512892 0.855759 0.661986
Si Si3 0.266034 0.835372 0.967254
Si Si4 0.917616 0.789972 0.541348
Si Si5 0.835860 0.852017 0.874827
Si Si6 0.335860 0.541653 0.548683
Si Si7 0.989727 0.494275 0.381817
Si Si8 0.000000 0.171873 0.750000
O O1 0.523129 0.601352 0.858675
O O2 0.620624 0.342225 0.913895
O O3 0.545544 0.099683 0.840730
O O4 0.426908 0.299117 0.981775
O O5 0.500000 0.823267 0.750000
O O6 0.626181 0.918324 0.599566
O O7 0.198910 0.846263 0.922172
O O8 0.276288 0.582984 0.006918
O O9 0.209368 0.024456 0.038572
O O10 0.933268 0.604344 0.470852
O O11 0.924465 0.673457 0.617346
O O12 0.000000 0.000000 0.500000
O O13 0.741743 0.712287 0.877051
O O14 0.916722 0.659229 0.864065
O O15 0.895700 0.030616 0.799660
O O16 0.030814 0.688994 0.309773
#
# Coordination Sequence:
#
# PCOD8121128 Si02
#       8
#     4   4   4   4   4   4   4   2
#     4  10  23  41  73 101 137 174 226 291 348 418
#     4  11  24  45  69 100 141 182 227 285 356 416
#     4  11  22  40  70  96 128 180 230 280 341 421
#     4  11  21  40  65  96 128 178 232 279 331 416
#     4  12  21  41  67  93 134 179 229 274 346 412
#     4  10  22  39  69 103 126 172 229 281 342 415
#     4  11  23  39  64  94 134 175 233 282 342 399
#     4  12  24  40  64  98 138 186 224 296 348 400
#
# _framework density 21.491821000000002
#
# number of rings (size 3 to 8) (size 9 to 14) (size 15 to 20)
#    0.000    1.067    5.333    0.800    1.867    1.600 
#    0.000    5.333    2.933    0.000    0.000    0.000 
#    0.000    0.000    0.000    0.000    0.000    0.000 
#
# Total GULP energy -371642.117819 kJ/mol
# GULP energy per Si atom -12388.070594 kJ/mol
# Density = 2.144290 g / cm^3
# Si number density = 21.491821 Si / 1000 Ang^3
#
#
#
# Elastic Constant Matrix: (Units=GPa)
#
#
# Indices 1 2 3 4 5 6 
#
# 1 125.1689 42.5113 32.9029 0.0000 6.9107 0.0000
# 2 42.5113 106.5909 38.6288 0.0000 1.1086 0.0000
# 3 32.9029 38.6288 101.5096 0.0000 -3.0436 0.0000
# 4 0.0000 0.0000 0.0000 29.9156 0.0000 3.4647
# 5 6.9107 1.1086 -3.0436 0.0000 22.6653 0.0000
# 6 0.0000 0.0000 0.0000 3.4647 0.0000 24.1921
#
#
#
# Elastic Compliance Matrix: (Units=1/GPa)
#
#
# Indices 1 2 3 4 5 6 
#
# 1 0.009762 -0.003109 -0.002074 0.000000 -0.003103 0.000000
# 2 -0.003109 0.011900 -0.003524 0.000000 -0.000107 0.000000
# 3 -0.002074 -0.003524 0.011937 0.000000 0.002408 0.000000
# 4 0.000000 0.000000 0.000000 0.033991 0.000000 -0.004868
# 5 -0.003103 -0.000107 0.002408 0.000000 0.045395 0.000000
# 6 0.000000 0.000000 0.000000 -0.004868 0.000000 0.042033
#
#
# Mechanical properties :
#
#
# Convention : Reuss Voigt Hill
#
# Bulk Modulus (GPa) = 61.78883 62.37281 62.08082
# Shear Modulus (GPa) = 28.11736 29.96972 29.04354
#
# Velocity S-wave (km/s) = 3.62094 3.73831 3.68010
# Velocity P-wave (km/s) = 6.80397 6.90782 6.85609
#
# Compressibility (1/GPa) = 0.01618416
#
# Stress axis : x y z
#
# Youngs Moduli (GPa) = 102.44103 84.03430 83.77557
#
# Poissons Ratio (x) = 0.26129 0.17374
# Poissons Ratio (y) = 0.31853 0.29521
# Poissons Ratio (z) = 0.21245 0.29612
#
# Static dielectric constant tensor:
#      x y z
#    x 4.377270 0.000000 -0.393960 
#    y 0.000000 4.203340 0.000000 
#    z -0.393960 0.000000 3.078400 
# 
# 
# High freq. dielectric constant tensor:
#      x y z
#    x 1.850370 0.000000 0.004290 
#    y 0.000000 1.853750 0.000000 
#    z 0.004290 0.000000 1.819560 
# 
# From -- ./inp_files/67559.got.cif
#   From: 2010.06.25/outbox.cif.g09.slc.cpg/sg13_34_cif.got.tgz:67559.got - 2010.06.28 04:50:58.
