data_PCOD8121411
_publ_section_title
;
Structure prediction by ZEFSAII (Michael W. Deem and Ramdas Pophale) SiO2 
 PCOD8121411
Probable space group: P 2/C
;
_chemical_formula_sum "Si O2"
_cell_formula_units_Z 26
_cell_length_a 16.355844
_cell_length_b 5.129369
_cell_length_c 19.028700
_cell_angle_alpha 90.000000
_cell_angle_beta 134.854610
_cell_angle_gamma 90.000000
_cell_volume 1131.697272
_symmetry_space_group_name_H-M "P 2/C"
_symmetry_group_IT_number 13
_symmetry_cell_setting 'monoclinic'
loop_
_space_group_symop_operation_xyz
x,y,z
-x,y,1/2-z
-x,-y,-z
x,-y,1/2+z
loop_
_atom_site_type_symbol
_atom_site_label
_atom_site_fract_x
_atom_site_fract_y
_atom_site_fract_z
Si Si1 0.316719 0.740891 0.973427
Si Si2 0.576397 0.228924 0.658966
Si Si3 0.500000 0.986682 0.750000
Si Si4 0.957196 0.434703 0.395050
Si Si5 0.712245 0.276131 0.201301
Si Si6 0.052923 0.065351 0.955342
Si Si7 0.713819 0.228467 0.456978
O O1 0.453757 0.779018 0.045624
O O2 0.262134 0.671325 0.865198
O O3 0.284635 0.516418 0.009687
O O4 0.267394 0.015218 0.970654
O O5 0.620523 0.521674 0.676459
O O6 0.563668 0.175280 0.733921
O O7 0.664507 0.017095 0.680343
O O8 0.407585 0.803239 0.655820
O O9 0.828216 0.324649 0.315440
O O10 0.974512 0.714618 0.367414
O O11 0.000000 0.500000 0.500000
O O12 0.039584 0.214100 0.408311
O O13 0.817084 0.178464 0.463811
O O14 0.000000 0.000000 0.000000
#
# Coordination Sequence:
#
# PCOD8121411 Si02
#       7
#     4   4   2   4   4   4   4
#     4  11  24  45  63 102 134 182 222 270 347 408
#     4  11  24  41  67 100 134 176 223 280 335 414
#     4  10  26  40  66 104 132 168 222 274 364 388
#     4  10  23  39  63  99 128 165 238 273 329 384
#     4  12  24  42  71  94 137 182 226 273 331 413
#     4  10  22  42  64  96 130 176 224 281 334 393
#     4  11  24  43  69  95 144 172 219 290 335 407
#
# _framework density 22.974340000000002
#
# number of rings (size 3 to 8) (size 9 to 14) (size 15 to 20)
#    0.000    1.231    0.000    5.538    8.615    5.538 
#    0.000    4.615    0.000    0.000    0.000    0.000 
#    0.000    0.000    0.000    0.000    0.000    0.000 
#
# Total GULP energy -322236.545377 kJ/mol
# GULP energy per Si atom -12393.713284 kJ/mol
# Density = 2.292205 g / cm^3
# Si number density = 22.974340 Si / 1000 Ang^3
#
#
#
# Elastic Constant Matrix: (Units=GPa)
#
#
# Indices 1 2 3 4 5 6 
#
# 1 97.8453 24.0540 38.2964 0.0000 10.2742 0.0000
# 2 24.0540 151.5308 15.4828 0.0000 10.1449 0.0000
# 3 38.2964 15.4828 95.6557 0.0000 -2.1691 0.0000
# 4 0.0000 0.0000 0.0000 22.4420 0.0000 6.6601
# 5 10.2742 10.1449 -2.1691 0.0000 35.2409 0.0000
# 6 0.0000 0.0000 0.0000 6.6601 0.0000 46.4514
#
#
#
# Elastic Compliance Matrix: (Units=1/GPa)
#
#
# Indices 1 2 3 4 5 6 
#
# 1 0.012897 -0.001285 -0.005039 0.000000 -0.003700 0.000000
# 2 -0.001285 0.006982 -0.000654 0.000000 -0.001676 0.000000
# 3 -0.005039 -0.000654 0.012633 0.000000 0.002435 0.000000
# 4 0.000000 0.000000 0.000000 0.046540 0.000000 -0.006673
# 5 -0.003700 -0.001676 0.002435 0.000000 0.030087 0.000000
# 6 0.000000 0.000000 0.000000 -0.006673 0.000000 0.022485
#
#
# Mechanical properties :
#
#
# Convention : Reuss Voigt Hill
#
# Bulk Modulus (GPa) = 53.89006 55.63314 54.76160
# Shear Modulus (GPa) = 32.94580 38.64010 35.79295
#
# Velocity S-wave (km/s) = 3.79096 4.10552 3.95137
# Velocity P-wave (km/s) = 6.53218 6.83679 6.68622
#
# Compressibility (1/GPa) = 0.01855630
#
# Stress axis : x y z
#
# Youngs Moduli (GPa) = 77.53762 143.22065 79.15938
#
# Poissons Ratio (x) = 0.18398 0.39891
# Poissons Ratio (y) = 0.09961 0.05176
# Poissons Ratio (z) = 0.39074 0.09364
#
# Static dielectric constant tensor:
#      x y z
#    x 3.951920 0.000000 0.251970 
#    y 0.000000 -5.046900 0.000000 
#    z 0.251970 0.000000 3.859530 
# 
# 
# High freq. dielectric constant tensor:
#      x y z
#    x 1.900360 0.000000 0.012090 
#    y 0.000000 1.941610 0.000000 
#    z 0.012090 0.000000 1.880310 
# 
# From -- ./inp_files/70238.got.cif
#   From: 2010.06.25/outbox.cif.g09.slc.cpg/sg13_36_cif.got.tgz:70238.got - 2010.06.28 04:50:58.
