data_PCOD8121561
_publ_section_title
;
Structure prediction by ZEFSAII (Michael W. Deem and Ramdas Pophale) SiO2 
 PCOD8121561
Probable space group: P 2/C
;
_chemical_formula_sum "Si O2"
_cell_formula_units_Z 18
_cell_length_a 18.309843
_cell_length_b 5.365224
_cell_length_c 12.498148
_cell_angle_alpha 90.000000
_cell_angle_beta 139.483484
_cell_angle_gamma 90.000000
_cell_volume 797.643982
_symmetry_space_group_name_H-M "P 2/C"
_symmetry_group_IT_number 13
_symmetry_cell_setting 'monoclinic'
loop_
_space_group_symop_operation_xyz
x,y,z
-x,y,1/2-z
-x,-y,-z
x,-y,1/2+z
loop_
_atom_site_type_symbol
_atom_site_label
_atom_site_fract_x
_atom_site_fract_y
_atom_site_fract_z
Si Si1 0.378196 0.626250 0.164625
Si Si2 0.111265 0.908393 0.063773
Si Si3 0.711694 0.865386 0.864960
Si Si4 0.000000 0.347680 0.250000
Si Si5 0.811521 0.390199 0.660937
O O1 0.500000 0.626692 0.250000
O O2 0.364879 0.385632 0.229671
O O3 0.361838 0.881521 0.212788
O O4 0.286129 0.598627 0.965646
O O5 0.174703 0.694259 0.201399
O O6 0.202253 0.127352 0.141004
O O7 0.085908 0.811503 0.916566
O O8 0.000000 0.000000 0.000000
O O9 0.781658 0.849309 0.054242
O O10 0.067611 0.511639 0.240967
#
# Coordination Sequence:
#
# PCOD8121561 Si02
#       5
#     4   4   4   2   4
#     4  10  22  45  70  91 133 180 225 282 331 380
#     4  12  23  38  68 102 138 179 216 273 341 408
#     4  10  22  44  64  98 135 168 228 276 325 396
#     4  12  22  44  62 100 142 178 220 278 328 412
#     4  10  24  40  67  96 134 176 222 270 338 393
#
# _framework density 22.566462000000001
#
# number of rings (size 3 to 8) (size 9 to 14) (size 15 to 20)
#    1.333    0.000    2.222    4.000    0.000    1.778 
#    0.000    2.222    0.000    0.000    0.000    0.000 
#    0.000    0.000    0.000    0.000    0.000    0.000 
#
# Total GULP energy -223027.301507 kJ/mol
# GULP energy per Si atom -12390.405639 kJ/mol
# Density = 2.251510 g / cm^3
# Si number density = 22.566462 Si / 1000 Ang^3
#
#
#
# Elastic Constant Matrix: (Units=GPa)
#
#
# Indices 1 2 3 4 5 6 
#
# 1 137.2579 42.0911 5.7127 0.0000 27.7548 0.0000
# 2 42.0911 130.9956 -3.4961 0.0000 11.0507 0.0000
# 3 5.7127 -3.4961 42.4561 0.0000 -1.2804 0.0000
# 4 0.0000 0.0000 0.0000 12.1464 0.0000 6.6616
# 5 27.7548 11.0507 -1.2804 0.0000 40.1883 0.0000
# 6 0.0000 0.0000 0.0000 6.6616 0.0000 38.9333
#
#
#
# Elastic Compliance Matrix: (Units=1/GPa)
#
#
# Indices 1 2 3 4 5 6 
#
# 1 0.009302 -0.002545 -0.001635 0.000000 -0.005776 0.000000
# 2 -0.002545 0.008526 0.001028 0.000000 -0.000554 0.000000
# 3 -0.001635 0.001028 0.023907 0.000000 0.001609 0.000000
# 4 0.000000 0.000000 0.000000 0.090855 0.000000 -0.015546
# 5 -0.005776 -0.000554 0.001609 0.000000 0.029076 0.000000
# 6 0.000000 0.000000 0.000000 -0.015546 0.000000 0.028345
#
#
# Mechanical properties :
#
#
# Convention : Reuss Voigt Hill
#
# Bulk Modulus (GPa) = 28.22534 44.36946 36.29740
# Shear Modulus (GPa) = 24.02387 36.01372 30.01880
#
# Velocity S-wave (km/s) = 3.26633 3.99920 3.65120
# Velocity P-wave (km/s) = 5.17301 6.40540 5.82191
#
# Compressibility (1/GPa) = 0.03542916
#
# Stress axis : x y z
#
# Youngs Moduli (GPa) = 107.50123 117.29046 41.82884
#
# Poissons Ratio (x) = 0.29854 0.06841
# Poissons Ratio (y) = 0.27362 -0.04299
# Poissons Ratio (z) = 0.17582 -0.12056
#
# Static dielectric constant tensor:
#      x y z
#    x 3.966070 0.000000 0.054180 
#    y 0.000000 4.016100 0.000000 
#    z 0.054180 0.000000 3.760250 
# 
# 
# High freq. dielectric constant tensor:
#      x y z
#    x 1.892870 0.000000 0.007920 
#    y 0.000000 1.892160 0.000000 
#    z 0.007920 0.000000 1.857120 
# 
# From -- ./inp_files/31430.got.cif
#   From: 2010.06.25/outbox.cif.g09.slc.cpg/sg13_16_cif.got.tgz:31430.got - 2010.06.28 04:50:58.
