data_PCOD8121224
_publ_section_title
;
Structure prediction by ZEFSAII (Michael W. Deem and Ramdas Pophale) SiO2 
 PCOD8121224
Probable space group: P 2/C
;
_chemical_formula_sum "Si O2"
_cell_formula_units_Z 24
_cell_length_a 10.657184
_cell_length_b 12.212662
_cell_length_c 16.836145
_cell_angle_alpha 90.000000
_cell_angle_beta 31.479506
_cell_angle_gamma 90.000000
_cell_volume 1144.265922
_symmetry_space_group_name_H-M "P 2/C"
_symmetry_group_IT_number 13
_symmetry_cell_setting 'monoclinic'
loop_
_space_group_symop_operation_xyz
x,y,z
-x,y,1/2-z
-x,-y,-z
x,-y,1/2+z
loop_
_atom_site_type_symbol
_atom_site_label
_atom_site_fract_x
_atom_site_fract_y
_atom_site_fract_z
Si Si1 0.305466 0.421523 0.206676
Si Si2 0.000000 0.192404 0.750000
Si Si3 0.500000 0.299527 0.250000
Si Si4 0.604247 0.348300 0.899443
Si Si5 0.240585 0.115401 0.903893
Si Si6 0.839496 0.882159 0.496465
Si Si7 0.107672 0.264870 0.111941
O O1 0.365427 0.379564 0.261878
O O2 0.289414 0.552883 0.211314
O O3 0.046890 0.374329 0.320493
O O4 0.517347 0.385750 0.033000
O O5 0.181460 0.263790 0.704549
O O6 0.136604 0.117183 0.612071
O O7 0.309787 0.224144 0.397984
O O8 0.386597 0.293662 0.969229
O O9 0.500000 0.171271 0.750000
O O10 0.100648 0.117015 0.896530
O O11 0.079255 0.180211 0.055189
O O12 0.294132 0.993241 0.906758
O O13 0.000000 0.209131 0.250000
#
# Coordination Sequence:
#
# PCOD8121224 Si02
#       7
#     4   2   2   4   4   4   4
#     4  10  22  40  67  90 128 169 215 263 321 380
#     4  12  24  44  66  94 132 172 218 264 324 392
#     4  12  20  46  64  98 124 172 220 264 326 388
#     4  10  23  40  62  94 128 169 211 267 318 380
#     4  11  23  44  65  95 133 164 212 270 327 378
#     4  11  25  41  67  94 128 174 212 266 323 389
#     4  10  22  41  66  95 127 170 213 266 321 386
#
# _framework density 20.974145
#
# number of rings (size 3 to 8) (size 9 to 14) (size 15 to 20)
#    0.000    1.333    4.167    1.000    7.000    0.000 
#    4.500    3.333    0.000    0.000    0.000    0.000 
#    0.000    0.000    0.000    0.000    0.000    0.000 
#
# Total GULP energy -297683.383895 kJ/mol
# GULP energy per Si atom -12403.474329 kJ/mol
# Density = 2.092641 g / cm^3
# Si number density = 20.974145 Si / 1000 Ang^3
#
#
#
# Elastic Constant Matrix: (Units=GPa)
#
#
# Indices 1 2 3 4 5 6 
#
# 1 97.7131 36.8864 39.5832 0.0000 10.1281 0.0000
# 2 36.8864 73.5523 27.8522 0.0000 8.2774 0.0000
# 3 39.5832 27.8522 89.2400 0.0000 4.0737 0.0000
# 4 0.0000 0.0000 0.0000 28.0623 0.0000 3.0433
# 5 10.1281 8.2774 4.0737 0.0000 45.6086 0.0000
# 6 0.0000 0.0000 0.0000 3.0433 0.0000 30.4807
#
#
#
# Elastic Compliance Matrix: (Units=1/GPa)
#
#
# Indices 1 2 3 4 5 6 
#
# 1 0.014254 -0.005196 -0.004618 0.000000 -0.001810 0.000000
# 2 -0.005196 0.017573 -0.003100 0.000000 -0.001759 0.000000
# 3 -0.004618 -0.003100 0.014207 0.000000 0.000319 0.000000
# 4 0.000000 0.000000 0.000000 0.036025 0.000000 -0.003597
# 5 -0.001810 -0.001759 0.000319 0.000000 0.022618 0.000000
# 6 0.000000 0.000000 0.000000 -0.003597 0.000000 0.033167
#
#
# Mechanical properties :
#
#
# Convention : Reuss Voigt Hill
#
# Bulk Modulus (GPa) = 49.48879 52.12767 50.80823
# Shear Modulus (GPa) = 29.34150 31.24257 30.29204
#
# Velocity S-wave (km/s) = 3.74429 3.86369 3.80446
# Velocity P-wave (km/s) = 6.50687 6.69413 6.60116
#
# Compressibility (1/GPa) = 0.02020660
#
# Stress axis : x y z
#
# Youngs Moduli (GPa) = 70.15652 56.90489 70.38769
#
# Poissons Ratio (x) = 0.29567 0.32506
# Poissons Ratio (y) = 0.36452 0.21818
# Poissons Ratio (z) = 0.32399 0.17639
#
# Static dielectric constant tensor:
#      x y z
#    x 3.794250 0.000000 0.069840 
#    y 0.000000 3.662270 0.000000 
#    z 0.069840 0.000000 3.668740 
# 
# 
# High freq. dielectric constant tensor:
#      x y z
#    x 1.829410 0.000000 -0.000230 
#    y 0.000000 1.809880 0.000000 
#    z -0.000230 0.000000 1.823210 
# 
# From -- ./inp_files/33406.got.cif
#   From: 2010.06.25/outbox.cif.g09.slc.cpg/sg13_17_cif.got.tgz:33406.got - 2010.06.28 04:50:58.
