data_PCOD8121009
_publ_section_title
;
Structure prediction by ZEFSAII (Michael W. Deem and Ramdas Pophale) SiO2 
 PCOD8121009
Probable space group: P 2/C
;
_chemical_formula_sum "Si O2"
_cell_formula_units_Z 28
_cell_length_a 12.932221
_cell_length_b 12.984020
_cell_length_c 9.971566
_cell_angle_alpha 90.000000
_cell_angle_beta 123.930393
_cell_angle_gamma 90.000000
_cell_volume 1389.233629
_symmetry_space_group_name_H-M "P 2/C"
_symmetry_group_IT_number 13
_symmetry_cell_setting 'monoclinic'
loop_
_space_group_symop_operation_xyz
x,y,z
-x,y,1/2-z
-x,-y,-z
x,-y,1/2+z
loop_
_atom_site_type_symbol
_atom_site_label
_atom_site_fract_x
_atom_site_fract_y
_atom_site_fract_z
Si Si1 0.350905 0.593645 0.153287
Si Si2 0.758834 0.856085 0.762145
Si Si3 0.623282 0.057654 0.640908
Si Si4 0.376412 0.214294 0.089305
Si Si5 0.286211 0.181797 0.564213
Si Si6 0.378965 0.437692 0.961069
Si Si7 0.979942 0.911609 0.589996
O O1 0.500000 0.606010 0.250000
O O2 0.282954 0.696391 0.063723
O O3 0.301036 0.571779 0.267913
O O4 0.306281 0.502740 0.021421
O O5 0.721513 0.781751 0.858664
O O6 0.682176 0.840675 0.568049
O O7 0.905067 0.832033 0.847820
O O8 0.728450 0.976692 0.767760
O O9 0.670484 0.131855 0.554637
O O10 0.608208 0.131078 0.762067
O O11 0.500000 0.000000 0.500000
O O12 0.500000 0.170832 0.250000
O O13 0.405454 0.325043 0.043549
O O14 0.151052 0.145196 0.517523
O O15 0.500000 0.500000 0.000000
O O16 0.000000 0.962744 0.750000
O O17 0.000000 0.000000 0.500000
#
# Coordination Sequence:
#
# PCOD8121009 Si02
#       7
#     4   4   4   4   4   4   4
#     4  10  22  38  63  91 123 157 204 260 321 378
#     4  11  25  38  62  90 125 173 203 256 304 367
#     4  12  24  39  56  91 136 166 202 250 312 379
#     4  12  24  39  58  92 128 164 209 247 311 382
#     4  11  24  40  63  90 124 165 212 259 312 367
#     4  10  22  40  61  89 123 163 206 255 312 379
#     4  10  22  42  62  86 120 167 221 255 297 361
#
# _framework density 20.154997000000002
#
# number of rings (size 3 to 8) (size 9 to 14) (size 15 to 20)
#    0.000    1.143    4.286    2.143   10.000    0.000 
#    0.000    0.000    0.000    0.857    0.000    0.000 
#    0.000    0.000    0.000    0.000    0.000    0.000 
#
# Total GULP energy -346888.294577 kJ/mol
# GULP energy per Si atom -12388.867663 kJ/mol
# Density = 2.010912 g / cm^3
# Si number density = 20.154997 Si / 1000 Ang^3
#
#
#
# Elastic Constant Matrix: (Units=GPa)
#
#
# Indices 1 2 3 4 5 6 
#
# 1 81.9473 31.5303 42.1313 0.0000 -23.2890 0.0000
# 2 31.5303 104.6235 34.6886 0.0000 -13.7732 0.0000
# 3 42.1313 34.6886 100.4355 0.0000 -33.6659 0.0000
# 4 0.0000 0.0000 0.0000 25.4846 0.0000 -13.7456
# 5 -23.2890 -13.7732 -33.6659 0.0000 37.9317 0.0000
# 6 0.0000 0.0000 0.0000 -13.7456 0.0000 27.7950
#
#
#
# Elastic Compliance Matrix: (Units=1/GPa)
#
#
# Indices 1 2 3 4 5 6 
#
# 1 0.017162 -0.003014 -0.004261 0.000000 0.005661 0.000000
# 2 -0.003014 0.011344 -0.002695 0.000000 -0.000124 0.000000
# 3 -0.004261 -0.002695 0.016327 0.000000 0.010897 0.000000
# 4 0.000000 0.000000 0.000000 0.053513 0.000000 0.026464
# 5 0.005661 -0.000124 0.010897 0.000000 0.039465 0.000000
# 6 0.000000 0.000000 0.000000 0.026464 0.000000 0.049065
#
#
# Mechanical properties :
#
#
# Convention : Reuss Voigt Hill
#
# Bulk Modulus (GPa) = 40.17099 55.96741 48.06920
# Shear Modulus (GPa) = 23.24349 30.15267 26.69808
#
# Velocity S-wave (km/s) = 3.39962 3.87206 3.64351
# Velocity P-wave (km/s) = 5.94846 6.91515 6.44994
#
# Compressibility (1/GPa) = 0.02489359
#
# Stress axis : x y z
#
# Youngs Moduli (GPa) = 58.26805 88.15444 61.24745
#
# Poissons Ratio (x) = 0.26572 0.26095
# Poissons Ratio (y) = 0.17563 0.16506
# Poissons Ratio (z) = 0.24826 0.23757
#
# Static dielectric constant tensor:
#      x y z
#    x 3.842640 0.000000 -0.386380 
#    y 0.000000 3.796570 0.000000 
#    z -0.386380 0.000000 4.124080 
# 
# 
# High freq. dielectric constant tensor:
#      x y z
#    x 1.763520 0.000000 -0.035170 
#    y 0.000000 1.776970 0.000000 
#    z -0.035170 0.000000 1.801830 
# 
# From -- ./inp_files/16881.got.cif
#   From: 2010.06.25/outbox.cif.g09.slc.cpg/sg13_9_cif.got.tgz:16881.got - 2010.06.28 04:50:58.
