data_PCOD8121971
_publ_section_title
;
Structure prediction by ZEFSAII (Michael W. Deem and Ramdas Pophale) SiO2 
 PCOD8121971
Probable space group: P 2/C
;
_chemical_formula_sum "Si O2"
_cell_formula_units_Z 16
_cell_length_a 8.594356
_cell_length_b 9.405921
_cell_length_c 9.277692
_cell_angle_alpha 90.000000
_cell_angle_beta 127.892169
_cell_angle_gamma 90.000000
_cell_volume 591.866969
_symmetry_space_group_name_H-M "P 2/C"
_symmetry_group_IT_number 13
_symmetry_cell_setting 'monoclinic'
loop_
_space_group_symop_operation_xyz
x,y,z
-x,y,1/2-z
-x,-y,-z
x,-y,1/2+z
loop_
_atom_site_type_symbol
_atom_site_label
_atom_site_fract_x
_atom_site_fract_y
_atom_site_fract_z
Si Si1 0.457646 0.657378 0.522177
Si Si2 0.780549 0.137114 0.150165
Si Si3 0.925862 0.365755 0.547529
Si Si4 0.234556 0.851167 0.178132
O O1 0.500000 0.500000 0.500000
O O2 0.661318 0.742164 0.670327
O O3 0.313291 0.652051 0.579857
O O4 0.361057 0.731887 0.328582
O O5 0.000000 0.193624 0.250000
O O6 0.775249 0.989517 0.229733
O O7 0.683068 0.112911 0.934878
O O8 0.000000 0.394333 0.750000
O O9 0.000000 0.500000 0.500000
O O10 0.012855 0.216170 0.536281
#
# Coordination Sequence:
#
# PCOD8121971 Si02
#       4
#     4   4   4   4
#     4  11  25  46  75 111 148 196 254 316 383 457
#     4  12  26  49  76 110 154 204 256 319 387 464
#     4  10  23  47  75 108 146 193 251 315 381 456
#     4  11  26  50  76 109 153 205 258 318 388 461
#
# _framework density 27.033100000000001
#
# number of rings (size 3 to 8) (size 9 to 14) (size 15 to 20)
#    0.000    1.000    0.000    6.000    0.000   10.000 
#    0.000   21.250    0.000    0.000    0.000    0.000 
#    0.000    0.000    0.000    0.000    0.000    0.000 
#
# Total GULP energy -198441.353352 kJ/mol
# GULP energy per Si atom -12402.584585 kJ/mol
# Density = 2.697157 g / cm^3
# Si number density = 27.033100 Si / 1000 Ang^3
#
#
#
# Elastic Constant Matrix: (Units=GPa)
#
#
# Indices 1 2 3 4 5 6 
#
# 1 209.9492 123.9154 60.2573 0.0000 -1.4525 0.0000
# 2 123.9154 249.4986 60.3436 0.0000 7.4188 0.0000
# 3 60.2573 60.3436 32.9031 0.0000 -1.2807 0.0000
# 4 0.0000 0.0000 0.0000 35.7038 0.0000 14.8375
# 5 -1.4525 7.4188 -1.2807 0.0000 69.6544 0.0000
# 6 0.0000 0.0000 0.0000 14.8375 0.0000 52.5282
#
#
#
# Elastic Compliance Matrix: (Units=1/GPa)
#
#
# Indices 1 2 3 4 5 6 
#
# 1 0.010173 -0.000983 -0.016827 0.000000 0.000007 0.000000
# 2 -0.000983 0.007370 -0.011756 0.000000 -0.001022 0.000000
# 3 -0.016827 -0.011756 0.082864 0.000000 0.002425 0.000000
# 4 0.000000 0.000000 0.000000 0.031733 0.000000 -0.008964
# 5 0.000007 -0.001022 0.002425 0.000000 0.014510 0.000000
# 6 0.000000 0.000000 0.000000 -0.008964 0.000000 0.021569
#
#
# Mechanical properties :
#
#
# Convention : Reuss Voigt Hill
#
# Bulk Modulus (GPa) = 24.22820 109.04263 66.63542
# Shear Modulus (GPa) = 20.73745 48.09959 34.41852
#
# Velocity S-wave (km/s) = 2.77269 4.22273 3.57206
# Velocity P-wave (km/s) = 4.38546 8.01246 6.45879
#
# Compressibility (1/GPa) = 0.04127422
#
# Stress axis : x y z
#
# Youngs Moduli (GPa) = 98.30211 135.68810 12.06796
#
# Poissons Ratio (x) = 0.13335 0.20307
# Poissons Ratio (y) = 0.09661 0.14187
# Poissons Ratio (z) = 1.65416 1.59517
#
# Static dielectric constant tensor:
#      x y z
#    x 5.434080 0.000000 0.477540 
#    y 0.000000 4.894070 0.000000 
#    z 0.477540 0.000000 5.537960 
# 
# 
# High freq. dielectric constant tensor:
#      x y z
#    x 2.114020 0.000000 -0.004690 
#    y 0.000000 2.085390 0.000000 
#    z -0.004690 0.000000 2.116850 
# 
# From -- ./inp_files/28398.got.cif
#   From: 2010.06.25/outbox.cif.g09.slc.cpg/sg13_15_cif.got.tgz:28398.got - 2010.06.28 04:50:58.
