data_PCOD8121877
_publ_section_title
;
Structure prediction by ZEFSAII (Michael W. Deem and Ramdas Pophale) SiO2 
 PCOD8121877
Probable space group: P 2/C
;
_chemical_formula_sum "Si O2"
_cell_formula_units_Z 28
_cell_length_a 14.033597
_cell_length_b 8.319830
_cell_length_c 11.829679
_cell_angle_alpha 90.000000
_cell_angle_beta 114.280884
_cell_angle_gamma 90.000000
_cell_volume 1259.019316
_symmetry_space_group_name_H-M "P 2/C"
_symmetry_group_IT_number 13
_symmetry_cell_setting 'monoclinic'
loop_
_space_group_symop_operation_xyz
x,y,z
-x,y,1/2-z
-x,-y,-z
x,-y,1/2+z
loop_
_atom_site_type_symbol
_atom_site_label
_atom_site_fract_x
_atom_site_fract_y
_atom_site_fract_z
Si Si1 0.779997 0.768730 0.397219
Si Si2 0.247825 0.115877 0.210612
Si Si3 0.269204 0.562653 0.325022
Si Si4 0.653491 0.794962 0.957018
Si Si5 0.880307 0.698177 0.669616
Si Si6 0.561955 0.707653 0.614020
Si Si7 0.427133 0.145737 0.607064
O O1 0.790475 0.617442 0.318031
O O2 0.869329 0.771150 0.537712
O O3 0.669780 0.743487 0.404662
O O4 0.781944 0.932758 0.326476
O O5 0.257261 0.215163 0.096854
O O6 0.160540 0.182788 0.252414
O O7 0.365096 0.139210 0.317956
O O8 0.298207 0.723256 0.406090
O O9 0.187101 0.463693 0.359377
O O10 0.372841 0.457218 0.348261
O O11 0.546979 0.697350 0.868067
O O12 0.619733 0.978388 0.961699
O O13 0.000000 0.658875 0.750000
O O14 0.518874 0.752739 0.466712
O O15 0.500000 0.116409 0.750000
#
# Coordination Sequence:
#
# PCOD8121877 Si02
#       7
#     4   4   4   4   4   4   4
#     4  11  23  45  69  99 137 176 225 284 334 401
#     4  10  23  43  72  96 133 175 224 284 330 396
#     4  11  25  41  68 100 137 181 223 279 343 403
#     4  11  22  38  64  99 139 180 227 265 326 402
#     4  11  27  50  71  99 132 171 228 289 349 404
#     4  11  21  39  62  99 142 181 223 269 327 402
#     4  11  21  38  64  99 137 185 226 271 322 395
#
# _framework density 22.239533000000002
#
# number of rings (size 3 to 8) (size 9 to 14) (size 15 to 20)
#    0.000    1.143    2.857    4.714    6.000    1.143 
#    0.000    2.857    0.000    0.000    0.000    0.000 
#    0.000    0.000    0.000    0.000    0.000    0.000 
#
# Total GULP energy -347043.563462 kJ/mol
# GULP energy per Si atom -12394.412981 kJ/mol
# Density = 2.218892 g / cm^3
# Si number density = 22.239533 Si / 1000 Ang^3
#
#
#
# Elastic Constant Matrix: (Units=GPa)
#
#
# Indices 1 2 3 4 5 6 
#
# 1 62.6257 23.1004 16.8417 0.0000 12.1207 0.0000
# 2 23.1004 94.6977 58.0914 0.0000 -4.9843 0.0000
# 3 16.8417 58.0914 104.6708 0.0000 3.5076 0.0000
# 4 0.0000 0.0000 0.0000 36.9322 0.0000 -10.5370
# 5 12.1207 -4.9843 3.5076 0.0000 26.6793 0.0000
# 6 0.0000 0.0000 0.0000 -10.5370 0.0000 16.3413
#
#
#
# Elastic Compliance Matrix: (Units=1/GPa)
#
#
# Indices 1 2 3 4 5 6 
#
# 1 0.019900 -0.005502 0.000190 0.000000 -0.010094 0.000000
# 2 -0.005502 0.018010 -0.009348 0.000000 0.007093 0.000000
# 3 0.000190 -0.009348 0.014838 0.000000 -0.003783 0.000000
# 4 0.000000 0.000000 0.000000 0.033181 0.000000 0.021395
# 5 -0.010094 0.007093 -0.003783 0.000000 0.043891 0.000000
# 6 0.000000 0.000000 0.000000 0.021395 0.000000 0.074990
#
#
# Mechanical properties :
#
#
# Convention : Reuss Voigt Hill
#
# Bulk Modulus (GPa) = 42.68435 50.89569 46.79002
# Shear Modulus (GPa) = 20.66650 26.92128 23.79389
#
# Velocity S-wave (km/s) = 3.05170 3.48302 3.27447
# Velocity P-wave (km/s) = 5.62599 6.25381 5.94819
#
# Compressibility (1/GPa) = 0.02342779
#
# Stress axis : x y z
#
# Youngs Moduli (GPa) = 50.25161 55.52597 67.39546
#
# Poissons Ratio (x) = 0.30551 -0.01280
# Poissons Ratio (y) = 0.27649 0.62998
# Poissons Ratio (z) = -0.00954 0.51903
#
# Static dielectric constant tensor:
#      x y z
#    x 3.837510 0.000000 -0.328200 
#    y 0.000000 3.832090 0.000000 
#    z -0.328200 0.000000 4.268870 
# 
# 
# High freq. dielectric constant tensor:
#      x y z
#    x 1.846110 0.000000 -0.026020 
#    y 0.000000 1.871750 0.000000 
#    z -0.026020 0.000000 1.885240 
# 
# From -- ./inp_files/36531.got.cif
#   From: 2010.06.25/outbox.cif.g09.slc.cpg/sg13_19_cif.got.tgz:36531.got - 2010.06.28 04:50:58.
