data_PCOD8121275
_publ_section_title
;
Structure prediction by ZEFSAII (Michael W. Deem and Ramdas Pophale) SiO2 
 PCOD8121275
Probable space group: P 2/C
;
_chemical_formula_sum "Si O2"
_cell_formula_units_Z 28
_cell_length_a 19.499139
_cell_length_b 7.786659
_cell_length_c 18.418126
_cell_angle_alpha 90.000000
_cell_angle_beta 24.125855
_cell_angle_gamma 90.000000
_cell_volume 1143.040603
_symmetry_space_group_name_H-M "P 2/C"
_symmetry_group_IT_number 13
_symmetry_cell_setting 'monoclinic'
loop_
_space_group_symop_operation_xyz
x,y,z
-x,y,1/2-z
-x,-y,-z
x,-y,1/2+z
loop_
_atom_site_type_symbol
_atom_site_label
_atom_site_fract_x
_atom_site_fract_y
_atom_site_fract_z
Si Si1 0.814039 0.792489 0.420780
Si Si2 0.204175 0.704456 0.716970
Si Si3 0.820095 0.748836 0.046296
Si Si4 0.394198 0.426356 0.279432
Si Si5 0.322624 0.853888 0.456724
Si Si6 0.802985 0.029755 0.691481
Si Si7 0.301576 0.658676 0.105436
O O1 0.746550 0.711938 0.560832
O O2 0.692858 0.945203 0.509681
O O3 0.814168 0.653891 0.355442
O O4 0.000000 0.864357 0.250000
O O5 0.258189 0.515350 0.692133
O O6 0.301935 0.737253 0.547305
O O7 0.269991 0.844928 0.712311
O O8 0.004861 0.708156 0.897215
O O9 0.698702 0.585607 0.168293
O O10 0.743339 0.905052 0.169762
O O11 0.824804 0.812786 0.958867
O O12 0.500000 0.477742 0.250000
O O13 0.506303 0.340986 0.108020
O O14 0.500000 0.809511 0.250000
O O15 0.743415 0.175614 0.804676
O O16 0.000000 0.000000 0.500000
#
# Coordination Sequence:
#
# PCOD8121275 Si02
#       7
#     4   4   4   4   4   4   4
#     4  11  22  38  69 102 129 170 225 276 336 401
#     4  11  23  43  72  96 132 179 226 273 337 394
#     4  11  23  42  63  99 135 173 229 276 326 409
#     4  10  22  41  63 100 135 172 225 281 338 396
#     4  12  23  40  67 100 135 171 220 283 336 392
#     4  10  25  44  65  97 138 177 229 275 335 400
#     4  11  22  43  69  93 137 177 216 283 338 392
#
# _framework density 24.496067
#
# number of rings (size 3 to 8) (size 9 to 14) (size 15 to 20)
#    0.000    1.143    1.429    6.429    2.000    2.857 
#    2.571    2.857    0.000    0.000    0.000    0.000 
#    0.000    0.000    0.000    0.000    0.000    0.000 
#
# Total GULP energy -347104.805161 kJ/mol
# GULP energy per Si atom -12396.600184 kJ/mol
# Density = 2.444031 g / cm^3
# Si number density = 24.496067 Si / 1000 Ang^3
#
#
#
# Elastic Constant Matrix: (Units=GPa)
#
#
# Indices 1 2 3 4 5 6 
#
# 1 20.4698 -8.8789 8.8864 0.0000 -0.3847 0.0000
# 2 -8.8789 121.9988 32.9931 0.0000 -0.7619 0.0000
# 3 8.8864 32.9931 117.7070 0.0000 -0.4870 0.0000
# 4 0.0000 0.0000 0.0000 44.2193 0.0000 5.4091
# 5 -0.3847 -0.7619 -0.4870 0.0000 28.8666 0.0000
# 6 0.0000 0.0000 0.0000 5.4091 0.0000 29.4451
#
#
#
# Elastic Compliance Matrix: (Units=1/GPa)
#
#
# Indices 1 2 3 4 5 6 
#
# 1 0.053629 0.005412 -0.005563 0.000000 0.000764 0.000000
# 2 0.005412 0.009416 -0.003047 0.000000 0.000269 0.000000
# 3 -0.005563 -0.003047 0.009770 0.000000 0.000010 0.000000
# 4 0.000000 0.000000 0.000000 0.023134 0.000000 -0.004250
# 5 0.000764 0.000269 0.000010 0.000000 0.034660 0.000000
# 6 0.000000 0.000000 0.000000 -0.004250 0.000000 0.034742
#
#
# Mechanical properties :
#
#
# Convention : Reuss Voigt Hill
#
# Bulk Modulus (GPa) = 15.05554 36.24188 25.64871
# Shear Modulus (GPa) = 25.78827 35.65120 30.71974
#
# Velocity S-wave (km/s) = 3.24813 3.81909 3.54512
# Velocity P-wave (km/s) = 4.49740 5.85443 5.22020
#
# Compressibility (1/GPa) = 0.06642072
#
# Stress axis : x y z
#
# Youngs Moduli (GPa) = 18.64649 106.19804 102.35718
#
# Poissons Ratio (x) = -0.57476 0.56938
# Poissons Ratio (y) = -0.10092 0.31187
# Poissons Ratio (z) = 0.10372 0.32357
#
# Static dielectric constant tensor:
#      x y z
#    x 4.319120 0.000000 0.231230 
#    y 0.000000 4.572000 0.000000 
#    z 0.231230 0.000000 4.461650 
# 
# 
# High freq. dielectric constant tensor:
#      x y z
#    x 1.948810 0.000000 0.010960 
#    y 0.000000 1.988860 0.000000 
#    z 0.010960 0.000000 1.981660 
# 
# From -- ./inp_files/82144.got.cif
#   From: 2010.06.25/outbox.cif.g09.slc.cpg/sg13_42_cif.got.tgz:82144.got - 2010.06.28 04:50:58.
