data_PCOD8121579
_publ_section_title
;
Structure prediction by ZEFSAII (Michael W. Deem and Ramdas Pophale) SiO2 
 PCOD8121579
Probable space group: P 2/C
;
_chemical_formula_sum "Si O2"
_cell_formula_units_Z 26
_cell_length_a 25.602194
_cell_length_b 5.284657
_cell_length_c 18.313781
_cell_angle_alpha 90.000000
_cell_angle_beta 152.034039
_cell_angle_gamma 90.000000
_cell_volume 1161.972099
_symmetry_space_group_name_H-M "P 2/C"
_symmetry_group_IT_number 13
_symmetry_cell_setting 'monoclinic'
loop_
_space_group_symop_operation_xyz
x,y,z
-x,y,1/2-z
-x,-y,-z
x,-y,1/2+z
loop_
_atom_site_type_symbol
_atom_site_label
_atom_site_fract_x
_atom_site_fract_y
_atom_site_fract_z
Si Si1 0.000000 0.741773 0.250000
Si Si2 0.797356 0.893465 0.500018
Si Si3 0.058542 0.630210 0.930248
Si Si4 0.550089 0.704689 0.976398
Si Si5 0.147119 0.886774 0.775038
Si Si6 0.195866 0.387981 0.744778
Si Si7 0.444806 0.799130 0.348301
O O1 0.979617 0.592427 0.301902
O O2 0.117461 0.879518 0.409277
O O3 0.859712 0.659575 0.538563
O O4 0.771213 0.875585 0.554072
O O5 0.679677 0.906637 0.313809
O O6 0.979432 0.873182 0.849165
O O7 0.125860 0.566748 0.085523
O O8 0.676083 0.631206 0.117214
O O9 0.525247 0.750176 0.030686
O O10 0.472778 0.476726 0.847192
O O11 0.521054 0.979360 0.905549
O O12 0.173135 0.637728 0.761876
O O13 0.158086 0.136782 0.740313
#
# Coordination Sequence:
#
# PCOD8121579 Si02
#       7
#     2   4   4   4   4   4   4
#     4  12  24  42  74 100 148 168 254 288 340 418
#     4  12  25  44  71 104 138 187 234 296 346 413
#     4  12  25  44  70 102 139 191 236 284 341 424
#     4  10  22  44  67 104 130 177 237 297 330 421
#     4  12  26  45  65 106 146 184 225 290 358 430
#     4  12  27  45  71 100 146 185 230 286 365 415
#     4  10  23  41  73  98 132 174 242 288 348 392
#
# _framework density 22.375753
#
# number of rings (size 3 to 8) (size 9 to 14) (size 15 to 20)
#    0.000    0.615    4.615    2.769    4.308    1.231 
#    0.000    4.615    0.000    0.000    0.000    0.000 
#    0.000    0.000    0.000    0.000    0.000    0.000 
#
# Total GULP energy -322098.735308 kJ/mol
# GULP energy per Si atom -12388.412896 kJ/mol
# Density = 2.232482 g / cm^3
# Si number density = 22.375753 Si / 1000 Ang^3
#
#
#
# Elastic Constant Matrix: (Units=GPa)
#
#
# Indices 1 2 3 4 5 6 
#
# 1 91.6807 78.3029 65.7084 0.0000 -12.7172 0.0000
# 2 78.3029 182.3590 100.1435 0.0000 -13.0523 0.0000
# 3 65.7084 100.1435 200.4726 0.0000 13.4203 0.0000
# 4 0.0000 0.0000 0.0000 12.3448 0.0000 -0.3507
# 5 -12.7172 -13.0523 13.4203 0.0000 27.9684 0.0000
# 6 0.0000 0.0000 0.0000 -0.3507 0.0000 12.1863
#
#
#
# Elastic Compliance Matrix: (Units=1/GPa)
#
#
# Indices 1 2 3 4 5 6 
#
# 1 0.019963 -0.005585 -0.004326 0.000000 0.008546 0.000000
# 2 -0.005585 0.010043 -0.003441 0.000000 0.003798 0.000000
# 3 -0.004326 -0.003441 0.008641 0.000000 -0.007719 0.000000
# 4 0.000000 0.000000 0.000000 0.081072 0.000000 0.002333
# 5 0.008546 0.003798 -0.007719 0.000000 0.045117 0.000000
# 6 0.000000 0.000000 0.000000 0.002333 0.000000 0.082126
#
#
# Mechanical properties :
#
#
# Convention : Reuss Voigt Hill
#
# Bulk Modulus (GPa) = 83.71332 106.98022 95.34677
# Shear Modulus (GPa) = 18.00849 25.85707 21.93278
#
# Velocity S-wave (km/s) = 2.84002 3.40308 3.13422
# Velocity P-wave (km/s) = 6.94608 7.95964 7.47007
#
# Compressibility (1/GPa) = 0.01194553
#
# Stress axis : x y z
#
# Youngs Moduli (GPa) = 50.09294 99.57138 115.72137
#
# Poissons Ratio (x) = 0.55608 0.50056
# Poissons Ratio (y) = 0.27976 0.39816
# Poissons Ratio (z) = 0.21668 0.34259
#
# Static dielectric constant tensor:
#      x y z
#    x 2.719800 0.000000 -1.959950 
#    y 0.000000 4.451780 0.000000 
#    z -1.959950 0.000000 1.741880 
# 
# 
# High freq. dielectric constant tensor:
#      x y z
#    x 1.873650 0.000000 0.000660 
#    y 0.000000 1.900100 0.000000 
#    z 0.000660 0.000000 1.877250 
# 
# From -- ./inp_files/70992.got.cif
#   From: 2010.06.25/outbox.cif.g09.slc.cpg/sg13_36_cif.got.tgz:70992.got - 2010.06.28 04:50:58.
