data_PCOD8121414
_publ_section_title
;
Structure prediction by ZEFSAII (Michael W. Deem and Ramdas Pophale) SiO2 
 PCOD8121414
Probable space group: P 2/C
;
_chemical_formula_sum "Si O2"
_cell_formula_units_Z 32
_cell_length_a 15.620587
_cell_length_b 10.943092
_cell_length_c 14.099874
_cell_angle_alpha 90.000000
_cell_angle_beta 38.357207
_cell_angle_gamma 90.000000
_cell_volume 1495.677665
_symmetry_space_group_name_H-M "P 2/C"
_symmetry_group_IT_number 13
_symmetry_cell_setting 'monoclinic'
loop_
_space_group_symop_operation_xyz
x,y,z
-x,y,1/2-z
-x,-y,-z
x,-y,1/2+z
loop_
_atom_site_type_symbol
_atom_site_label
_atom_site_fract_x
_atom_site_fract_y
_atom_site_fract_z
Si Si1 0.145324 0.324517 0.580770
Si Si2 0.972610 0.098061 0.108167
Si Si3 0.416015 0.282507 0.914663
Si Si4 0.201369 0.324356 0.322424
Si Si5 0.801282 0.103472 0.436525
Si Si6 0.303118 0.483791 0.588985
Si Si7 0.511358 0.743512 0.524516
Si Si8 0.365310 0.124436 0.422183
O O1 0.138298 0.368814 0.477587
O O2 0.203743 0.432064 0.594724
O O3 0.235991 0.203122 0.501732
O O4 0.000000 0.284851 0.750000
O O5 0.902063 0.219970 0.127895
O O6 0.882138 0.046609 0.275307
O O7 0.116775 0.125694 0.036540
O O8 0.000000 0.000000 0.000000
O O9 0.500000 0.254014 0.750000
O O10 0.495461 0.212925 0.930273
O O11 0.259263 0.234727 0.041048
O O12 0.409274 0.424972 0.945373
O O13 0.209687 0.443325 0.247007
O O14 0.357371 0.274458 0.201395
O O15 0.670930 0.015298 0.567848
O O16 0.398854 0.380525 0.551504
O O17 0.597106 0.850481 0.500792
O O18 0.500000 0.167929 0.250000
#
# Coordination Sequence:
#
# PCOD8121414 Si02
#       8
#     4   4   4   4   4   4   4   4
#     4  11  26  42  68 103 132 178 231 278 336 409
#     4  11  25  43  67  97 134 188 224 279 350 410
#     4  11  23  40  64  96 133 173 222 282 341 402
#     4  11  21  45  71  94 141 181 226 281 347 401
#     4  11  25  43  65  99 133 175 234 281 341 411
#     4  10  24  41  69 101 137 177 225 281 342 408
#     4  10  22  42  65 102 129 178 227 276 344 407
#     4  11  23  42  71  94 137 176 224 287 339 406
#
# _framework density 21.394984000000001
#
# number of rings (size 3 to 8) (size 9 to 14) (size 15 to 20)
#    0.000    1.250    3.750    2.625    7.000    3.000 
#    2.250    0.000    0.000    0.000    0.000    0.000 
#    0.000    0.000    0.000    0.000    0.000    0.000 
#
# Total GULP energy -396612.664771 kJ/mol
# GULP energy per Si atom -12394.145774 kJ/mol
# Density = 2.134629 g / cm^3
# Si number density = 21.394984 Si / 1000 Ang^3
#
#
#
# Elastic Constant Matrix: (Units=GPa)
#
#
# Indices 1 2 3 4 5 6 
#
# 1 171.1256 60.6969 63.9385 0.0000 4.0137 0.0000
# 2 60.6969 65.7361 34.2880 0.0000 -7.4497 0.0000
# 3 63.9385 34.2880 131.4050 0.0000 14.1903 0.0000
# 4 0.0000 0.0000 0.0000 19.1159 0.0000 -19.1446
# 5 4.0137 -7.4497 14.1903 0.0000 35.7826 0.0000
# 6 0.0000 0.0000 0.0000 -19.1446 0.0000 23.6550
#
#
#
# Elastic Compliance Matrix: (Units=1/GPa)
#
#
# Indices 1 2 3 4 5 6 
#
# 1 0.009536 -0.007726 -0.002439 0.000000 -0.001711 0.000000
# 2 -0.007726 0.025072 -0.003594 0.000000 0.007512 0.000000
# 3 -0.002439 -0.003594 0.010224 0.000000 -0.004529 0.000000
# 4 0.000000 0.000000 0.000000 0.276115 0.000000 0.223467
# 5 -0.001711 0.007512 -0.004529 0.000000 0.031498 0.000000
# 6 0.000000 0.000000 0.000000 0.223467 0.000000 0.223131
#
#
# Mechanical properties :
#
#
# Convention : Reuss Voigt Hill
#
# Bulk Modulus (GPa) = 57.75990 76.23485 66.99737
# Shear Modulus (GPa) = 8.21199 29.66692 18.93945
#
# Velocity S-wave (km/s) = 1.96128 3.72779 2.97851
# Velocity P-wave (km/s) = 5.67313 7.36465 6.57352
#
# Compressibility (1/GPa) = 0.01731305
#
# Stress axis : x y z
#
# Youngs Moduli (GPa) = 104.87109 39.88474 97.81231
#
# Poissons Ratio (x) = 0.30816 0.23856
# Poissons Ratio (y) = 0.81026 0.35153
# Poissons Ratio (z) = 0.25577 0.14334
#
# Static dielectric constant tensor:
#      x y z
#    x 3.904760 0.000000 0.410330 
#    y 0.000000 3.629400 0.000000 
#    z 0.410330 0.000000 3.336140 
# 
# 
# High freq. dielectric constant tensor:
#      x y z
#    x 1.861950 0.000000 0.003260 
#    y 0.000000 1.825520 0.000000 
#    z 0.003260 0.000000 1.837100 
# 
# From -- ./inp_files/53704.got.cif
#   From: 2010.06.25/outbox.cif.g09.slc.cpg/sg13_27_cif.got.tgz:53704.got - 2010.06.28 04:50:58.
