data_PCOD8121997
_publ_section_title
;
Structure prediction by ZEFSAII (Michael W. Deem and Ramdas Pophale) SiO2 
 PCOD8121997
Probable space group: P 2/C
;
_chemical_formula_sum "Si O2"
_cell_formula_units_Z 16
_cell_length_a 26.292673
_cell_length_b 4.631026
_cell_length_c 8.355231
_cell_angle_alpha 90.000000
_cell_angle_beta 147.960081
_cell_angle_gamma 90.000000
_cell_volume 539.714373
_symmetry_space_group_name_H-M "P 2/C"
_symmetry_group_IT_number 13
_symmetry_cell_setting 'monoclinic'
loop_
_space_group_symop_operation_xyz
x,y,z
-x,y,1/2-z
-x,-y,-z
x,-y,1/2+z
loop_
_atom_site_type_symbol
_atom_site_label
_atom_site_fract_x
_atom_site_fract_y
_atom_site_fract_z
Si Si1 0.866314 0.864069 0.647470
Si Si2 0.622506 0.207639 0.302299
Si Si3 0.500000 0.562376 0.750000
Si Si4 0.752785 0.299224 0.134246
Si Si5 0.000000 0.163335 0.250000
O O1 0.794772 0.679463 0.566683
O O2 0.917842 0.670368 0.639332
O O3 0.818169 0.149270 0.442665
O O4 0.949048 0.957614 0.988527
O O5 0.543179 0.227188 0.229428
O O6 0.723815 0.376089 0.613433
O O7 0.650843 0.875774 0.347937
O O8 0.583640 0.352992 0.037024
#
# Coordination Sequence:
#
# PCOD8121997 Si02
#       5
#     4   4   2   4   2
#     4   9  18  34  62  87 120 154 192 239 286 344
#     4  11  24  40  60  87 116 154 196 239 292 344
#     4  10  24  40  60  84 120 154 192 244 292 344
#     4  11  22  38  62  87 116 154 196 239 286 342
#     4   8  16  34  60  90 120 154 192 234 292 344
#
# _framework density 29.645309999999998
#
# number of rings (size 3 to 8) (size 9 to 14) (size 15 to 20)
#    0.000    2.000    0.000    3.000    0.000    6.000 
#    0.000    0.000    0.000  105.000    0.000    0.000 
#    0.000    0.000    0.000    0.000    0.000    0.000 
#
# Total GULP energy -198339.480247 kJ/mol
# GULP energy per Si atom -12396.217515 kJ/mol
# Density = 2.957784 g / cm^3
# Si number density = 29.645310 Si / 1000 Ang^3
#
#
#
# Elastic Constant Matrix: (Units=GPa)
#
#
# Indices 1 2 3 4 5 6 
#
# 1 209.6882 23.7045 26.6894 0.0000 21.1600 0.0000
# 2 23.7045 76.1679 -8.6888 0.0000 -0.2471 0.0000
# 3 26.6894 -8.6888 80.5703 0.0000 -4.9627 0.0000
# 4 0.0000 0.0000 0.0000 3.7518 0.0000 -15.4053
# 5 21.1600 -0.2471 -4.9627 0.0000 53.1346 0.0000
# 6 0.0000 0.0000 0.0000 -15.4053 0.0000 17.8302
#
#
#
# Elastic Compliance Matrix: (Units=1/GPa)
#
#
# Indices 1 2 3 4 5 6 
#
# 1 0.005514 -0.001973 -0.002188 0.000000 -0.002409 0.000000
# 2 -0.001973 0.014001 0.002229 0.000000 0.001059 0.000000
# 3 -0.002188 0.002229 0.013509 0.000000 0.002143 0.000000
# 4 0.000000 0.000000 0.000000 -0.104621 0.000000 -0.090393
# 5 -0.002409 0.001059 0.002143 0.000000 0.019985 0.000000
# 6 0.000000 0.000000 0.000000 -0.090393 0.000000 -0.022014
#
#
# Mechanical properties :
#
#
# Convention : Reuss Voigt Hill
#
# Bulk Modulus (GPa) = 34.29529 49.98187 42.13858
# Shear Modulus (GPa) = -83.27174 36.59142 -23.34016
#
# Velocity S-wave (km/s) = -5.30569 3.51708 -2.80896
# Velocity P-wave (km/s) = 5.09314 5.77838 1.92997
#
# Compressibility (1/GPa) = 0.02915852
#
# Stress axis : x y z
#
# Youngs Moduli (GPa) = 181.36913 71.42513 74.02725
#
# Poissons Ratio (x) = 0.14094 0.16194
# Poissons Ratio (y) = 0.35789 -0.16499
# Poissons Ratio (z) = 0.39677 -0.15919
#
# Static dielectric constant tensor:
#      x y z
#    x 6.380840 0.000000 0.256060 
#    y 0.000000 4.659680 0.000000 
#    z 0.256060 0.000000 6.027410 
# 
# 
# High freq. dielectric constant tensor:
#      x y z
#    x 2.235370 0.000000 0.002790 
#    y 0.000000 2.164990 0.000000 
#    z 0.002790 0.000000 2.253760 
# 
# From -- ./inp_files/17436.got.cif
#   From: 2010.06.25/outbox.cif.g09.slc.cpg/sg13_9_cif.got.tgz:17436.got - 2010.06.28 04:50:58.
