data_PCOD8121180
_publ_section_title
;
Structure prediction by ZEFSAII (Michael W. Deem and Ramdas Pophale) SiO2 
 PCOD8121180
Probable space group: P 2/C
;
_chemical_formula_sum "Si O2"
_cell_formula_units_Z 22
_cell_length_a 13.225790
_cell_length_b 9.396321
_cell_length_c 8.838824
_cell_angle_alpha 90.000000
_cell_angle_beta 109.878832
_cell_angle_gamma 90.000000
_cell_volume 1032.982478
_symmetry_space_group_name_H-M "P 2/C"
_symmetry_group_IT_number 13
_symmetry_cell_setting 'monoclinic'
loop_
_space_group_symop_operation_xyz
x,y,z
-x,y,1/2-z
-x,-y,-z
x,-y,1/2+z
loop_
_atom_site_type_symbol
_atom_site_label
_atom_site_fract_x
_atom_site_fract_y
_atom_site_fract_z
Si Si1 0.460179 0.197446 0.488599
Si Si2 0.695361 0.313217 0.637097
Si Si3 0.110197 0.106662 0.720983
Si Si4 0.890368 0.818180 0.626095
Si Si5 0.500000 0.986454 0.750000
Si Si6 0.294906 0.599506 0.018455
O O1 0.587796 0.224793 0.547552
O O2 0.426413 0.115403 0.317665
O O3 0.397679 0.343965 0.476665
O O4 0.427209 0.090677 0.609087
O O5 0.796356 0.210463 0.676901
O O6 0.716776 0.433940 0.523135
O O7 0.684711 0.387536 0.793859
O O8 0.091982 0.118586 0.532281
O O9 0.000000 0.147992 0.750000
O O10 0.146565 0.946896 0.783271
O O11 0.807276 0.689251 0.587464
O O12 0.000000 0.753602 0.750000
#
# Coordination Sequence:
#
# PCOD8121180 Si02
#       6
#     4   4   4   4   2   4
#     4  11  23  42  61  96 125 157 202 249 305 356
#     4  11  25  41  62  89 126 164 203 246 302 366
#     4  10  22  40  63  92 119 156 203 254 302 356
#     4  10  22  40  63  92 119 156 203 254 302 356
#     4  10  24  38  66  92 122 162 200 254 296 358
#     4  11  25  41  62  89 126 164 203 246 302 366
#
# _framework density 21.297553000000001
#
# number of rings (size 3 to 8) (size 9 to 14) (size 15 to 20)
#    0.000    1.455    1.818    2.727    7.636    3.636 
#    0.000    3.636    0.000    0.000    0.000    0.000 
#    0.000    0.000    0.000    0.000    0.000    0.000 
#
# Total GULP energy -272807.549530 kJ/mol
# GULP energy per Si atom -12400.343160 kJ/mol
# Density = 2.124908 g / cm^3
# Si number density = 21.297553 Si / 1000 Ang^3
#
#
#
# Elastic Constant Matrix: (Units=GPa)
#
#
# Indices 1 2 3 4 5 6 
#
# 1 91.7633 36.3356 28.0750 0.0000 7.6570 0.0000
# 2 36.3356 83.3625 27.9030 0.0000 5.3716 0.0000
# 3 28.0750 27.9030 96.2505 0.0000 -1.0508 0.0000
# 4 0.0000 0.0000 0.0000 32.8564 0.0000 -6.8758
# 5 7.6570 5.3716 -1.0508 0.0000 24.1732 0.0000
# 6 0.0000 0.0000 0.0000 -6.8758 0.0000 27.1091
#
#
#
# Elastic Compliance Matrix: (Units=1/GPa)
#
#
# Indices 1 2 3 4 5 6 
#
# 1 0.013971 -0.004974 -0.002671 0.000000 -0.003436 0.000000
# 2 -0.004974 0.015296 -0.003005 0.000000 -0.001954 0.000000
# 3 -0.002671 -0.003005 0.012062 0.000000 0.002038 0.000000
# 4 0.000000 0.000000 0.000000 0.032142 0.000000 0.008152
# 5 -0.003436 -0.001954 0.002038 0.000000 0.042979 0.000000
# 6 0.000000 0.000000 0.000000 0.008152 0.000000 0.038956
#
#
# Mechanical properties :
#
#
# Convention : Reuss Voigt Hill
#
# Bulk Modulus (GPa) = 49.92655 50.66704 50.29679
# Shear Modulus (GPa) = 27.26572 28.76525 28.01548
#
# Velocity S-wave (km/s) = 3.58191 3.67909 3.63082
# Velocity P-wave (km/s) = 6.37182 6.47219 6.42220
#
# Compressibility (1/GPa) = 0.02002942
#
# Stress axis : x y z
#
# Youngs Moduli (GPa) = 71.57639 65.37851 82.90626
#
# Poissons Ratio (x) = 0.32521 0.22141
# Poissons Ratio (y) = 0.35604 0.24910
# Poissons Ratio (z) = 0.19115 0.19643
#
# Static dielectric constant tensor:
#      x y z
#    x 3.706230 0.000000 -0.036440 
#    y 0.000000 3.767200 0.000000 
#    z -0.036440 0.000000 4.056200 
# 
# 
# High freq. dielectric constant tensor:
#      x y z
#    x 1.824680 0.000000 -0.001840 
#    y 0.000000 1.837800 0.000000 
#    z -0.001840 0.000000 1.851350 
# 
# From -- ./inp_files/17992.got.cif
#   From: 2010.06.25/outbox.cif.g09.slc.cpg/sg13_9_cif.got.tgz:17992.got - 2010.06.28 04:50:58.
