data_PCOD8121712
_publ_section_title
;
Structure prediction by ZEFSAII (Michael W. Deem and Ramdas Pophale) SiO2 
 PCOD8121712
Probable space group: P 2/C
;
_chemical_formula_sum "Si O2"
_cell_formula_units_Z 22
_cell_length_a 5.936007
_cell_length_b 19.818891
_cell_length_c 8.903340
_cell_angle_alpha 90.000000
_cell_angle_beta 88.813385
_cell_angle_gamma 90.000000
_cell_volume 1047.209485
_symmetry_space_group_name_H-M "P 2/C"
_symmetry_group_IT_number 13
_symmetry_cell_setting 'monoclinic'
loop_
_space_group_symop_operation_xyz
x,y,z
-x,y,1/2-z
-x,-y,-z
x,-y,1/2+z
loop_
_atom_site_type_symbol
_atom_site_label
_atom_site_fract_x
_atom_site_fract_y
_atom_site_fract_z
Si Si1 0.500000 0.109087 0.250000
Si Si2 0.795641 0.334522 0.498048
Si Si3 0.875827 0.808495 0.899870
Si Si4 0.822816 0.439745 0.996512
Si Si5 0.500000 0.601582 0.750000
Si Si6 0.500000 0.597875 0.250000
Si Si7 0.101483 0.062708 0.412168
O O1 0.354948 0.157092 0.146548
O O2 0.368790 0.061470 0.373880
O O3 0.833644 0.254407 0.509736
O O4 0.664010 0.351763 0.346646
O O5 0.646334 0.354706 0.641437
O O6 0.040395 0.369838 0.501153
O O7 0.000000 0.780297 0.750000
O O8 0.026498 0.865370 0.986179
O O9 0.672218 0.447038 0.847627
O O10 0.654540 0.445403 0.140854
O O11 0.000000 0.500000 0.000000
O O12 0.000000 0.063458 0.250000
O O13 0.000000 0.000000 0.500000
#
# Coordination Sequence:
#
# PCOD8121712 Si02
#       7
#     2   4   4   4   2   2   4
#     4   8  17  34  56  80 119 154 194 250 291 346
#     4  11  22  40  63  90 123 155 200 252 301 362
#     4   9  18  33  57  85 114 155 199 239 292 354
#     4  11  25  44  65  88 124 159 198 253 302 359
#     4  10  23  39  66  94 111 155 210 242 299 371
#     4  10  26  43  60  90 124 159 198 246 312 361
#     4   9  19  34  54  83 115 153 199 243 293 350
#
# _framework density 21.008215
#
# number of rings (size 3 to 8) (size 9 to 14) (size 15 to 20)
#    0.000    2.545    0.000    2.727    0.000   14.545 
#    0.000    7.273    0.000    0.000    0.000    0.000 
#    0.000    0.000    0.000    0.000    0.000    0.000 
#
# Total GULP energy -272647.856093 kJ/mol
# GULP energy per Si atom -12393.084368 kJ/mol
# Density = 2.096040 g / cm^3
# Si number density = 21.008215 Si / 1000 Ang^3
#
#
#
# Elastic Constant Matrix: (Units=GPa)
#
#
# Indices 1 2 3 4 5 6 
#
# 1 148.9598 63.5014 56.7833 0.0000 -14.8918 0.0000
# 2 63.5014 150.3428 56.1815 0.0000 -16.9896 0.0000
# 3 56.7833 56.1815 103.6903 0.0000 -2.9425 0.0000
# 4 0.0000 0.0000 0.0000 20.5019 0.0000 -13.3224
# 5 -14.8918 -16.9896 -2.9425 0.0000 28.0059 0.0000
# 6 0.0000 0.0000 0.0000 -13.3224 0.0000 23.4376
#
#
#
# Elastic Compliance Matrix: (Units=1/GPa)
#
#
# Indices 1 2 3 4 5 6 
#
# 1 0.009456 -0.002157 -0.003916 0.000000 0.003308 0.000000
# 2 -0.002157 0.009467 -0.003829 0.000000 0.004194 0.000000
# 3 -0.003916 -0.003829 0.013780 0.000000 -0.002958 0.000000
# 4 0.000000 0.000000 0.000000 0.077344 0.000000 0.043964
# 5 0.003308 0.004194 -0.002958 0.000000 0.039700 0.000000
# 6 0.000000 0.000000 0.000000 0.043964 0.000000 0.067657
#
#
# Mechanical properties :
#
#
# Convention : Reuss Voigt Hill
#
# Bulk Modulus (GPa) = 77.52771 83.99169 80.75970
# Shear Modulus (GPa) = 20.70327 29.49087 25.09707
#
# Velocity S-wave (km/s) = 3.14265 3.75077 3.46009
# Velocity P-wave (km/s) = 7.08180 7.66974 7.38163
#
# Compressibility (1/GPa) = 0.01289861
#
# Stress axis : x y z
#
# Youngs Moduli (GPa) = 105.75106 105.62461 72.57152
#
# Poissons Ratio (x) = 0.22782 0.28418
# Poissons Ratio (y) = 0.22809 0.27791
# Poissons Ratio (z) = 0.41411 0.40449
#
# Static dielectric constant tensor:
#      x y z
#    x 3.603740 0.000000 0.426250 
#    y 0.000000 2.693260 0.000000 
#    z 0.426250 0.000000 3.315030 
# 
# 
# High freq. dielectric constant tensor:
#      x y z
#    x 1.846870 0.000000 -0.015200 
#    y 0.000000 1.814710 0.000000 
#    z -0.015200 0.000000 1.802570 
# 
# From -- ./inp_files/10006.got.cif
#   From: 2010.06.25/outbox.cif.g09.slc.cpg/sg13_6_cif.got.tgz:10006.got - 2010.06.28 04:50:58.
