data_PCOD8121776
_publ_section_title
;
Structure prediction by ZEFSAII (Michael W. Deem and Ramdas Pophale) SiO2 
 PCOD8121776
Probable space group: P 2/C
;
_chemical_formula_sum "Si O2"
_cell_formula_units_Z 20
_cell_length_a 14.926469
_cell_length_b 12.275750
_cell_length_c 11.599589
_cell_angle_alpha 90.000000
_cell_angle_beta 28.287671
_cell_angle_gamma 90.000000
_cell_volume 1007.240709
_symmetry_space_group_name_H-M "P 2/C"
_symmetry_group_IT_number 13
_symmetry_cell_setting 'monoclinic'
loop_
_space_group_symop_operation_xyz
x,y,z
-x,y,1/2-z
-x,-y,-z
x,-y,1/2+z
loop_
_atom_site_type_symbol
_atom_site_label
_atom_site_fract_x
_atom_site_fract_y
_atom_site_fract_z
Si Si1 0.000000 0.762223 0.750000
Si Si2 0.191168 0.359772 0.830940
Si Si3 0.327971 0.861214 0.516486
Si Si4 0.585512 0.241732 0.338914
Si Si5 0.500000 0.929300 0.750000
Si Si6 0.892811 0.587685 0.485604
O O1 0.128514 0.688700 0.523446
O O2 0.127670 0.837534 0.686050
O O3 0.381147 0.298639 0.577432
O O4 0.034936 0.346229 0.908207
O O5 0.212073 0.489503 0.827870
O O6 0.339555 0.810243 0.628760
O O7 0.350446 0.993121 0.487844
O O8 0.500000 0.806401 0.250000
O O9 0.598419 0.145176 0.232937
O O10 0.729359 0.331790 0.130407
O O11 0.000000 0.544905 0.250000
#
# Coordination Sequence:
#
# PCOD8121776 Si02
#       6
#     2   4   4   4   2   4
#     4  12  20  44  66  94 124 170 218 258 318 372
#     4  11  23  40  65  93 129 169 210 259 314 388
#     4  10  23  41  66  90 122 170 214 264 307 374
#     4  12  22  44  66  92 129 172 207 259 329 365
#     4  10  24  44  62  94 132 158 220 270 302 378
#     4  11  24  40  62  97 132 163 211 262 313 382
#
# _framework density 19.856227000000001
#
# number of rings (size 3 to 8) (size 9 to 14) (size 15 to 20)
#    0.600    0.400    5.000    2.400    0.000    0.000 
#    5.400    2.000    0.000    0.000    0.000    0.000 
#    0.000    0.000    0.000    0.000    0.000    0.000 
#
# Total GULP energy -247945.670672 kJ/mol
# GULP energy per Si atom -12397.283534 kJ/mol
# Density = 1.981103 g / cm^3
# Si number density = 19.856227 Si / 1000 Ang^3
#
#
#
# Elastic Constant Matrix: (Units=GPa)
#
#
# Indices 1 2 3 4 5 6 
#
# 1 101.0821 30.4446 16.7797 0.0000 -15.9052 0.0000
# 2 30.4446 100.7181 32.5984 0.0000 -19.6545 0.0000
# 3 16.7797 32.5984 69.7130 0.0000 -10.9459 0.0000
# 4 0.0000 0.0000 0.0000 19.2593 0.0000 3.1674
# 5 -15.9052 -19.6545 -10.9459 0.0000 34.8037 0.0000
# 6 0.0000 0.0000 0.0000 3.1674 0.0000 32.6441
#
#
#
# Elastic Compliance Matrix: (Units=1/GPa)
#
#
# Indices 1 2 3 4 5 6 
#
# 1 0.011342 -0.002405 -0.001057 0.000000 0.003493 0.000000
# 2 -0.002405 0.013154 -0.004816 0.000000 0.004815 0.000000
# 3 -0.001057 -0.004816 0.017197 0.000000 0.002206 0.000000
# 4 0.000000 0.000000 0.000000 0.052765 0.000000 -0.005120
# 5 0.003493 0.004815 0.002206 0.000000 0.033742 0.000000
# 6 0.000000 0.000000 0.000000 -0.005120 0.000000 0.031130
#
#
# Mechanical properties :
#
#
# Convention : Reuss Voigt Hill
#
# Bulk Modulus (GPa) = 39.78097 47.90652 43.84374
# Shear Modulus (GPa) = 27.13476 30.12078 28.62777
#
# Velocity S-wave (km/s) = 3.70071 3.89902 3.80116
# Velocity P-wave (km/s) = 6.19180 6.66700 6.43379
#
# Compressibility (1/GPa) = 0.02513765
#
# Stress axis : x y z
#
# Youngs Moduli (GPa) = 88.16538 76.02296 58.14841
#
# Poissons Ratio (x) = 0.18281 0.06147
# Poissons Ratio (y) = 0.21201 0.28005
# Poissons Ratio (z) = 0.09320 0.36613
#
# Static dielectric constant tensor:
#      x y z
#    x 4.029830 0.000000 0.074990 
#    y 0.000000 3.566820 0.000000 
#    z 0.074990 0.000000 3.538110 
# 
# 
# High freq. dielectric constant tensor:
#      x y z
#    x 1.789700 0.000000 0.002870 
#    y 0.000000 1.776590 0.000000 
#    z 0.002870 0.000000 1.764190 
# 
# From -- ./inp_files/37104.got.cif
#   From: 2010.06.25/outbox.cif.g09.slc.cpg/sg13_19_cif.got.tgz:37104.got - 2010.06.28 04:50:58.
