data_PCOD8121158
_publ_section_title
;
Structure prediction by ZEFSAII (Michael W. Deem and Ramdas Pophale) SiO2 
 PCOD8121158
Probable space group: P 2/C
;
_chemical_formula_sum "Si O2"
_cell_formula_units_Z 18
_cell_length_a 8.137980
_cell_length_b 4.960626
_cell_length_c 26.193152
_cell_angle_alpha 90.000000
_cell_angle_beta 125.550317
_cell_angle_gamma 90.000000
_cell_volume 860.309264
_symmetry_space_group_name_H-M "P 2/C"
_symmetry_group_IT_number 13
_symmetry_cell_setting 'monoclinic'
loop_
_space_group_symop_operation_xyz
x,y,z
-x,y,1/2-z
-x,-y,-z
x,-y,1/2+z
loop_
_atom_site_type_symbol
_atom_site_label
_atom_site_fract_x
_atom_site_fract_y
_atom_site_fract_z
Si Si1 0.360408 0.915688 0.928543
Si Si2 0.333128 0.558104 0.177766
Si Si3 0.613151 0.572163 0.134953
Si Si4 0.000000 0.290060 0.250000
Si Si5 0.915136 0.940931 0.841672
O O1 0.444904 0.638926 0.920037
O O2 0.130946 0.876418 0.906842
O O3 0.350098 0.136814 0.882250
O O4 0.500000 0.000000 0.000000
O O5 0.500000 0.617860 0.250000
O O6 0.424373 0.602951 0.138494
O O7 0.254426 0.253596 0.165795
O O8 0.145397 0.754770 0.155351
O O9 0.814745 0.480287 0.200520
O O10 0.927751 0.099208 0.282936
#
# Coordination Sequence:
#
# PCOD8121158 Si02
#       5
#     4   4   4   2   4
#     4  11  25  46  67  90 125 175 225 261 299 372
#     4  12  24  39  61 100 136 159 197 260 333 388
#     4  11  24  41  67  94 131 165 214 261 323 374
#     4  10  22  40  62 100 122 172 204 264 318 386
#     4  11  24  39  64  92 131 164 211 254 320 373
#
# _framework density 20.922709999999999
#
# number of rings (size 3 to 8) (size 9 to 14) (size 15 to 20)
#    0.000    0.889    2.222    5.333    6.222    1.778 
#    0.000    6.667    0.000    0.000    0.000    0.000 
#    0.000    0.000    0.000    0.000    0.000    0.000 
#
# Total GULP energy -223320.845700 kJ/mol
# GULP energy per Si atom -12406.713650 kJ/mol
# Density = 2.087509 g / cm^3
# Si number density = 20.922710 Si / 1000 Ang^3
#
#
#
# Elastic Constant Matrix: (Units=GPa)
#
#
# Indices 1 2 3 4 5 6 
#
# 1 113.5462 13.0815 25.8837 0.0000 -0.3435 0.0000
# 2 13.0815 63.3631 -13.4805 0.0000 1.4591 0.0000
# 3 25.8837 -13.4805 82.6971 0.0000 12.3721 0.0000
# 4 0.0000 0.0000 0.0000 22.5249 0.0000 -4.0306
# 5 -0.3435 1.4591 12.3721 0.0000 15.9717 0.0000
# 6 0.0000 0.0000 0.0000 -4.0306 0.0000 52.1835
#
#
#
# Elastic Compliance Matrix: (Units=1/GPa)
#
#
# Indices 1 2 3 4 5 6 
#
# 1 0.010141 -0.003084 -0.004243 0.000000 0.003787 0.000000
# 2 -0.003084 0.017519 0.004604 0.000000 -0.005233 0.000000
# 3 -0.004243 0.004604 0.016115 0.000000 -0.012995 0.000000
# 4 0.000000 0.000000 0.000000 0.045017 0.000000 0.003477
# 5 0.003787 -0.005233 -0.012995 0.000000 0.073236 0.000000
# 6 0.000000 0.000000 0.000000 0.003477 0.000000 0.019432
#
#
# Mechanical properties :
#
#
# Convention : Reuss Voigt Hill
#
# Bulk Modulus (GPa) = 26.09027 34.50843 30.29935
# Shear Modulus (GPa) = 25.03977 33.74415 29.39196
#
# Velocity S-wave (km/s) = 3.46320 4.02032 3.75212
# Velocity P-wave (km/s) = 5.33747 6.17088 5.76924
#
# Compressibility (1/GPa) = 0.03832846
#
# Stress axis : x y z
#
# Youngs Moduli (GPa) = 98.60982 57.08212 62.05387
#
# Poissons Ratio (x) = 0.17602 0.26331
# Poissons Ratio (y) = 0.30407 -0.28568
# Poissons Ratio (z) = 0.41843 -0.26279
#
# Static dielectric constant tensor:
#      x y z
#    x 4.039760 0.000000 0.031350 
#    y 0.000000 3.860840 0.000000 
#    z 0.031350 0.000000 3.683200 
# 
# 
# High freq. dielectric constant tensor:
#      x y z
#    x 1.831120 0.000000 0.004870 
#    y 0.000000 1.836130 0.000000 
#    z 0.004870 0.000000 1.796900 
# 
# From -- ./inp_files/62151.got.cif
#   From: 2010.06.25/outbox.cif.g09.slc.cpg/sg13_32_cif.got.tgz:62151.got - 2010.06.28 04:50:58.
