data_PCOD8121373
_publ_section_title
;
Structure prediction by ZEFSAII (Michael W. Deem and Ramdas Pophale) SiO2 
 PCOD8121373
Probable space group: P 2/C
;
_chemical_formula_sum "Si O2"
_cell_formula_units_Z 32
_cell_length_a 19.451928
_cell_length_b 11.936215
_cell_length_c 19.833423
_cell_angle_alpha 90.000000
_cell_angle_beta 159.287913
_cell_angle_gamma 90.000000
_cell_volume 1628.650340
_symmetry_space_group_name_H-M "P 2/C"
_symmetry_group_IT_number 13
_symmetry_cell_setting 'monoclinic'
loop_
_space_group_symop_operation_xyz
x,y,z
-x,y,1/2-z
-x,-y,-z
x,-y,1/2+z
loop_
_atom_site_type_symbol
_atom_site_label
_atom_site_fract_x
_atom_site_fract_y
_atom_site_fract_z
Si Si1 0.076400 0.202460 0.999389
Si Si2 0.134328 0.548844 0.507811
Si Si3 0.703316 0.858910 0.229068
Si Si4 0.145901 0.128712 0.834572
Si Si5 0.530869 0.919473 0.619691
Si Si6 0.686986 0.653771 0.956282
Si Si7 0.288662 0.470197 0.886503
Si Si8 0.630227 0.617832 0.180456
O O1 0.086410 0.336595 0.003900
O O2 0.937429 0.157174 0.932741
O O3 0.973918 0.145679 0.842513
O O4 0.302176 0.169763 0.211204
O O5 0.228751 0.567481 0.521374
O O6 0.250507 0.464457 0.661767
O O7 0.930610 0.490155 0.303299
O O8 0.638181 0.747303 0.209383
O O9 0.648262 0.963688 0.225284
O O10 0.577049 0.877585 0.046084
O O11 0.000000 0.057333 0.750000
O O12 0.359152 0.073669 0.018661
O O13 0.166739 0.248125 0.891129
O O14 0.500000 0.709610 0.750000
O O15 0.625411 0.589994 0.968272
O O16 0.298561 0.385804 0.831822
O O17 0.406389 0.582114 0.978082
#
# Coordination Sequence:
#
# PCOD8121373 Si02
#       8
#     4   4   4   4   4   4   4   4
#     4  11  21  36  62  90 125 155 202 257 319 373
#     4  12  22  36  60  93 127 158 200 256 320 381
#     4  10  22  42  58  87 127 161 213 253 304 379
#     4  11  21  36  57  91 123 151 201 262 312 372
#     4  10  23  38  63  88 119 166 202 263 318 361
#     4  12  21  38  59  90 126 163 200 255 321 379
#     4  11  22  37  56  88 126 160 199 248 305 371
#     4  11  24  37  59  89 128 167 202 253 308 377
#
# _framework density 19.648171000000001
#
# number of rings (size 3 to 8) (size 9 to 14) (size 15 to 20)
#    0.000    1.000    5.000    2.625    3.500    0.000 
#    0.000    0.000    0.000    4.500    0.000    0.000 
#    0.000    0.000    0.000    0.000    0.000    0.000 
#
# Total GULP energy -396519.086470 kJ/mol
# GULP energy per Si atom -12391.221452 kJ/mol
# Density = 1.960345 g / cm^3
# Si number density = 19.648171 Si / 1000 Ang^3
#
#
#
# Elastic Constant Matrix: (Units=GPa)
#
#
# Indices 1 2 3 4 5 6 
#
# 1 99.5760 36.0347 23.2045 0.0000 5.8214 0.0000
# 2 36.0347 81.8168 12.9929 0.0000 5.6442 0.0000
# 3 23.2045 12.9929 80.7661 0.0000 11.1603 0.0000
# 4 0.0000 0.0000 0.0000 25.8608 0.0000 1.5188
# 5 5.8214 5.6442 11.1603 0.0000 29.6493 0.0000
# 6 0.0000 0.0000 0.0000 1.5188 0.0000 19.7794
#
#
#
# Elastic Compliance Matrix: (Units=1/GPa)
#
#
# Indices 1 2 3 4 5 6 
#
# 1 0.012534 -0.005055 -0.002722 0.000000 -0.000474 0.000000
# 2 -0.005055 0.014665 -0.000694 0.000000 -0.001538 0.000000
# 3 -0.002722 -0.000694 0.013906 0.000000 -0.004568 0.000000
# 4 0.000000 0.000000 0.000000 0.038844 0.000000 -0.002983
# 5 -0.000474 -0.001538 -0.004568 0.000000 0.035833 0.000000
# 6 0.000000 0.000000 0.000000 -0.002983 0.000000 0.050787
#
#
# Mechanical properties :
#
#
# Convention : Reuss Voigt Hill
#
# Bulk Modulus (GPa) = 41.38760 45.18031 43.28395
# Shear Modulus (GPa) = 26.10052 27.71970 26.91011
#
# Velocity S-wave (km/s) = 3.64867 3.76014 3.70482
# Velocity P-wave (km/s) = 6.23382 6.47272 6.35439
#
# Compressibility (1/GPa) = 0.02416183
#
# Stress axis : x y z
#
# Youngs Moduli (GPa) = 79.78202 68.18799 71.90903
#
# Poissons Ratio (x) = 0.34472 0.19576
# Poissons Ratio (y) = 0.40333 0.04992
# Poissons Ratio (z) = 0.21720 0.04734
#
# Static dielectric constant tensor:
#      x y z
#    x 3.928490 0.000000 0.285480 
#    y 0.000000 3.361440 0.000000 
#    z 0.285480 0.000000 3.849550 
# 
# 
# High freq. dielectric constant tensor:
#      x y z
#    x 1.762190 0.000000 0.019340 
#    y 0.000000 1.726050 0.000000 
#    z 0.019340 0.000000 1.790240 
# 
# From -- ./inp_files/81820.got.cif
#   From: 2010.06.25/outbox.cif.g09.slc.cpg/sg13_41_cif.got.tgz:81820.got - 2010.06.28 04:50:58.
