data_PCOD8121900
_publ_section_title
;
Structure prediction by ZEFSAII (Michael W. Deem and Ramdas Pophale) SiO2 
 PCOD8121900
Probable space group: P 2/C
;
_chemical_formula_sum "Si O2"
_cell_formula_units_Z 28
_cell_length_a 16.342187
_cell_length_b 5.322180
_cell_length_c 14.462075
_cell_angle_alpha 90.000000
_cell_angle_beta 69.840740
_cell_angle_gamma 90.000000
_cell_volume 1180.796032
_symmetry_space_group_name_H-M "P 2/C"
_symmetry_group_IT_number 13
_symmetry_cell_setting 'monoclinic'
loop_
_space_group_symop_operation_xyz
x,y,z
-x,y,1/2-z
-x,-y,-z
x,-y,1/2+z
loop_
_atom_site_type_symbol
_atom_site_label
_atom_site_fract_x
_atom_site_fract_y
_atom_site_fract_z
Si Si1 0.293900 0.509103 0.635807
Si Si2 0.651764 0.795580 0.719147
Si Si3 0.500000 0.867900 0.250000
Si Si4 0.623778 0.557619 0.080215
Si Si5 0.000000 0.868992 0.250000
Si Si6 0.215761 0.115429 0.921382
Si Si7 0.812111 0.008284 0.865970
Si Si8 0.966991 0.254244 0.562211
O O1 0.339523 0.551661 0.717816
O O2 0.373400 0.511257 0.530923
O O3 0.238150 0.252716 0.655612
O O4 0.234946 0.753437 0.643534
O O5 0.622298 0.714391 0.627937
O O6 0.573257 0.978817 0.779124
O O7 0.744528 0.934810 0.673303
O O8 0.540935 0.709231 0.149713
O O9 0.714311 0.683100 0.073970
O O10 0.089903 0.026659 0.211783
O O11 0.002312 0.709640 0.343714
O O12 0.137335 0.258644 0.901982
O O13 0.183711 0.959704 0.024243
O O14 0.000000 0.500000 0.500000
O O15 0.000000 0.000000 0.500000
#
# Coordination Sequence:
#
# PCOD8121900 Si02
#       8
#     4   4   2   4   2   4   4   4
#     4  11  26  44  74 103 139 188 238 284 356 433
#     4  11  23  44  75 100 141 189 232 294 359 434
#     4  10  24  44  68 108 136 184 230 294 362 426
#     4  10  23  44  70 100 143 178 234 294 347 436
#     4  12  28  46  72 104 152 190 248 318 356 426
#     4  10  23  46  71  97 146 188 240 292 367 417
#     4  11  25  46  68 105 140 187 244 293 356 426
#     4  12  29  46  71 107 146 195 247 308 366 430
#
# _framework density 23.712817000000001
#
# number of rings (size 3 to 8) (size 9 to 14) (size 15 to 20)
#    0.000    1.143    2.857    1.286   12.000    2.857 
#    0.000    2.857    0.000    0.000    0.000    0.000 
#    0.000    0.000    0.000    0.000    0.000    0.000 
#
# Total GULP energy -347101.938204 kJ/mol
# GULP energy per Si atom -12396.497793 kJ/mol
# Density = 2.365885 g / cm^3
# Si number density = 23.712817 Si / 1000 Ang^3
#
#
#
# Elastic Constant Matrix: (Units=GPa)
#
#
# Indices 1 2 3 4 5 6 
#
# 1 76.9757 25.4519 43.1473 0.0000 -20.0067 0.0000
# 2 25.4519 113.8467 33.7213 0.0000 -12.5293 0.0000
# 3 43.1473 33.7213 134.4642 0.0000 -9.7889 0.0000
# 4 0.0000 0.0000 0.0000 33.3067 0.0000 4.8111
# 5 -20.0067 -12.5293 -9.7889 0.0000 50.3539 0.0000
# 6 0.0000 0.0000 0.0000 4.8111 0.0000 16.8171
#
#
#
# Elastic Compliance Matrix: (Units=1/GPa)
#
#
# Indices 1 2 3 4 5 6 
#
# 1 0.017798 -0.001930 -0.004815 0.000000 0.005655 0.000000
# 2 -0.001930 0.009886 -0.001761 0.000000 0.001350 0.000000
# 3 -0.004815 -0.001761 0.009385 0.000000 -0.000527 0.000000
# 4 0.000000 0.000000 0.000000 0.031318 0.000000 -0.008960
# 5 0.005655 0.001350 -0.000527 0.000000 0.022340 0.000000
# 6 0.000000 0.000000 0.000000 -0.008960 0.000000 0.062026
#
#
# Mechanical properties :
#
#
# Convention : Reuss Voigt Hill
#
# Bulk Modulus (GPa) = 49.86247 58.88083 54.37165
# Shear Modulus (GPa) = 28.33608 34.95995 31.64802
#
# Velocity S-wave (km/s) = 3.46058 3.84384 3.65723
# Velocity P-wave (km/s) = 6.08612 6.67719 6.38849
#
# Compressibility (1/GPa) = 0.02005516
#
# Stress axis : x y z
#
# Youngs Moduli (GPa) = 56.18475 101.15672 106.54758
#
# Poissons Ratio (x) = 0.19527 0.51307
# Poissons Ratio (y) = 0.10846 0.18768
# Poissons Ratio (z) = 0.27055 0.17818
#
# Static dielectric constant tensor:
#      x y z
#    x 4.241920 0.000000 -0.108170 
#    y 0.000000 4.094350 0.000000 
#    z -0.108170 0.000000 4.842740 
# 
# 
# High freq. dielectric constant tensor:
#      x y z
#    x 1.936370 0.000000 -0.009090 
#    y 0.000000 1.930630 0.000000 
#    z -0.009090 0.000000 1.958680 
# 
# From -- ./inp_files/54625.got.cif
#   From: 2010.06.25/outbox.cif.g09.slc.cpg/sg13_28_cif.got.tgz:54625.got - 2010.06.28 04:50:58.
