data_PCOD8121456
_publ_section_title
;
Structure prediction by ZEFSAII (Michael W. Deem and Ramdas Pophale) SiO2 
 PCOD8121456
Probable space group: P 2/C
;
_chemical_formula_sum "Si O2"
_cell_formula_units_Z 20
_cell_length_a 13.942922
_cell_length_b 12.062517
_cell_length_c 11.157848
_cell_angle_alpha 90.000000
_cell_angle_beta 150.384191
_cell_angle_gamma 90.000000
_cell_volume 927.382480
_symmetry_space_group_name_H-M "P 2/C"
_symmetry_group_IT_number 13
_symmetry_cell_setting 'monoclinic'
loop_
_space_group_symop_operation_xyz
x,y,z
-x,y,1/2-z
-x,-y,-z
x,-y,1/2+z
loop_
_atom_site_type_symbol
_atom_site_label
_atom_site_fract_x
_atom_site_fract_y
_atom_site_fract_z
Si Si1 0.791979 0.608621 0.965925
Si Si2 0.980916 0.084987 0.093267
Si Si3 0.261056 0.281277 0.330313
Si Si4 0.500000 0.560912 0.250000
Si Si5 0.500000 0.779913 0.750000
Si Si6 0.575687 0.877703 0.070416
O O1 0.840018 0.642829 0.881267
O O2 0.630466 0.510850 0.798630
O O3 0.689981 0.712002 0.918760
O O4 0.000000 0.577295 0.250000
O O5 0.000000 0.031993 0.250000
O O6 0.123341 0.188798 0.237687
O O7 0.769895 0.137405 0.856288
O O8 0.000000 0.000000 0.000000
O O9 0.336861 0.365383 0.511115
O O10 0.441296 0.218421 0.471356
O O11 0.403060 0.859874 0.547387
O O12 0.500000 0.000000 0.000000
#
# Coordination Sequence:
#
# PCOD8121456 Si02
#       6
#     4   4   4   2   2   4
#     4  10  22  42  68  97 130 178 225 282 339 402
#     4  12  27  43  67 100 137 182 232 281 341 408
#     4  11  24  45  66  97 138 176 225 279 338 407
#     4  11  24  41  68 100 134 173 230 279 342 398
#     4   9  22  39  64  94 132 177 230 279 342 402
#     4  11  23  40  65  94 133 181 225 279 338 403
#
# _framework density 21.566074
#
# number of rings (size 3 to 8) (size 9 to 14) (size 15 to 20)
#    0.000    1.200    2.000    3.000    2.800    4.800 
#    0.000    0.000    0.000    0.000    0.000    0.000 
#    0.000    0.000    0.000    0.000    0.000    0.000 
#
# Total GULP energy -247824.944942 kJ/mol
# GULP energy per Si atom -12391.247247 kJ/mol
# Density = 2.151699 g / cm^3
# Si number density = 21.566074 Si / 1000 Ang^3
#
#
#
# Elastic Constant Matrix: (Units=GPa)
#
#
# Indices 1 2 3 4 5 6 
#
# 1 95.9178 41.8981 46.5881 0.0000 -22.2190 0.0000
# 2 41.8981 115.2265 37.7403 0.0000 -16.1231 0.0000
# 3 46.5881 37.7403 146.3421 0.0000 -8.9464 0.0000
# 4 0.0000 0.0000 0.0000 0.8977 0.0000 -15.4936
# 5 -22.2190 -16.1231 -8.9464 0.0000 39.1923 0.0000
# 6 0.0000 0.0000 0.0000 -15.4936 0.0000 24.3491
#
#
#
# Elastic Compliance Matrix: (Units=1/GPa)
#
#
# Indices 1 2 3 4 5 6 
#
# 1 0.015121 -0.003452 -0.003535 0.000000 0.006345 0.000000
# 2 -0.003452 0.010733 -0.001540 0.000000 0.002107 0.000000
# 3 -0.003535 -0.001540 0.008311 0.000000 -0.000741 0.000000
# 4 0.000000 0.000000 0.000000 -0.111594 0.000000 -0.071009
# 5 0.006345 0.002107 -0.000741 0.000000 0.029810 0.000000
# 6 0.000000 0.000000 0.000000 -0.071009 0.000000 -0.004114
#
#
# Mechanical properties :
#
#
# Convention : Reuss Voigt Hill
#
# Bulk Modulus (GPa) = 58.45000 67.77105 63.11052
# Shear Modulus (GPa) = -172.55884 28.30514 -72.12685
#
# Velocity S-wave (km/s) = -8.95476 3.62675 -5.78940
# Velocity P-wave (km/s) = 8.93059 7.00220 3.91947
#
# Compressibility (1/GPa) = 0.01710864
#
# Stress axis : x y z
#
# Youngs Moduli (GPa) = 66.13509 93.16989 120.32667
#
# Poissons Ratio (x) = 0.32165 0.42541
# Poissons Ratio (y) = 0.22832 0.18532
# Poissons Ratio (z) = 0.23382 0.14349
#
# Static dielectric constant tensor:
#      x y z
#    x 4.383870 0.000000 -0.177840 
#    y 0.000000 3.986730 0.000000 
#    z -0.177840 0.000000 4.133830 
# 
# 
# High freq. dielectric constant tensor:
#      x y z
#    x 1.849060 0.000000 -0.002420 
#    y 0.000000 1.851290 0.000000 
#    z -0.002420 0.000000 1.860830 
# 
# From -- ./inp_files/36835.got.cif
#   From: 2010.06.25/outbox.cif.g09.slc.cpg/sg13_19_cif.got.tgz:36835.got - 2010.06.28 04:50:58.
