data_PCOD8121118
_publ_section_title
;
Structure prediction by ZEFSAII (Michael W. Deem and Ramdas Pophale) SiO2 
 PCOD8121118
Probable space group: P 2/C
;
_chemical_formula_sum "Si O2"
_cell_formula_units_Z 20
_cell_length_a 11.563426
_cell_length_b 5.491186
_cell_length_c 17.880209
_cell_angle_alpha 90.000000
_cell_angle_beta 128.078062
_cell_angle_gamma 90.000000
_cell_volume 893.705600
_symmetry_space_group_name_H-M "P 2/C"
_symmetry_group_IT_number 13
_symmetry_cell_setting 'monoclinic'
loop_
_space_group_symop_operation_xyz
x,y,z
-x,y,1/2-z
-x,-y,-z
x,-y,1/2+z
loop_
_atom_site_type_symbol
_atom_site_label
_atom_site_fract_x
_atom_site_fract_y
_atom_site_fract_z
Si Si1 0.512515 0.972236 0.169866
Si Si2 0.207973 0.286533 0.773863
Si Si3 0.747179 0.786995 0.511180
Si Si4 0.109725 0.727640 0.403394
Si Si5 0.406838 0.328006 0.409620
O O1 0.500000 0.057430 0.250000
O O2 0.680307 0.908086 0.216871
O O3 0.476344 0.188294 0.096393
O O4 0.389129 0.768258 0.102393
O O5 0.163503 0.228863 0.840762
O O6 0.293926 0.541681 0.808172
O O7 0.066536 0.297942 0.664270
O O8 0.829825 0.526966 0.538320
O O9 0.686872 0.838289 0.571086
O O10 0.847022 0.026817 0.532719
O O11 0.500000 0.500000 0.500000
#
# Coordination Sequence:
#
# PCOD8121118 Si02
#       5
#     4   4   4   4   4
#     4  12  25  41  66  99 138 178 225 283 345 406
#     4  10  22  39  65  98 132 168 224 288 335 399
#     4  11  22  42  66  99 128 176 228 282 332 401
#     4  10  23  39  70  98 132 169 228 284 337 392
#     4  11  21  41  68  97 131 175 233 283 329 400
#
# _framework density 22.378734000000001
#
# number of rings (size 3 to 8) (size 9 to 14) (size 15 to 20)
#    0.000    1.200    4.000    3.000    2.800    2.400 
#    0.000    2.000    0.000    0.000    0.000    0.000 
#    0.000    0.000    0.000    0.000    0.000    0.000 
#
# Total GULP energy -247827.311001 kJ/mol
# GULP energy per Si atom -12391.365550 kJ/mol
# Density = 2.232780 g / cm^3
# Si number density = 22.378734 Si / 1000 Ang^3
#
#
#
# Elastic Constant Matrix: (Units=GPa)
#
#
# Indices 1 2 3 4 5 6 
#
# 1 73.2763 39.7852 56.9756 0.0000 17.7854 0.0000
# 2 39.7852 140.4952 65.3936 0.0000 13.9918 0.0000
# 3 56.9756 65.3936 94.5204 0.0000 25.3664 0.0000
# 4 0.0000 0.0000 0.0000 31.4125 0.0000 6.2905
# 5 17.7854 13.9918 25.3664 0.0000 46.7337 0.0000
# 6 0.0000 0.0000 0.0000 6.2905 0.0000 12.1060
#
#
#
# Elastic Compliance Matrix: (Units=1/GPa)
#
#
# Indices 1 2 3 4 5 6 
#
# 1 0.025791 -0.000160 -0.015000 0.000000 -0.001626 0.000000
# 2 -0.000160 0.010534 -0.007446 0.000000 0.000949 0.000000
# 3 -0.015000 -0.007446 0.026503 0.000000 -0.006448 0.000000
# 4 0.000000 0.000000 0.000000 0.035532 0.000000 -0.018463
# 5 -0.001626 0.000949 -0.006448 0.000000 0.025232 0.000000
# 6 0.000000 0.000000 0.000000 -0.018463 0.000000 0.092197
#
#
# Mechanical properties :
#
#
# Convention : Reuss Voigt Hill
#
# Bulk Modulus (GPa) = 56.76264 70.28895 63.52580
# Shear Modulus (GPa) = 18.73538 27.79296 23.26417
#
# Velocity S-wave (km/s) = 2.89657 3.52793 3.22773
# Velocity P-wave (km/s) = 6.05033 6.93340 6.50686
#
# Compressibility (1/GPa) = 0.01761722
#
# Stress axis : x y z
#
# Youngs Moduli (GPa) = 38.77268 94.92688 37.73094
#
# Poissons Ratio (x) = 0.01519 0.56595
# Poissons Ratio (y) = 0.00621 0.28096
# Poissons Ratio (z) = 0.58158 0.70686
#
# Static dielectric constant tensor:
#      x y z
#    x 4.104290 0.000000 0.478860 
#    y 0.000000 4.036680 0.000000 
#    z 0.478860 0.000000 4.054290 
# 
# 
# High freq. dielectric constant tensor:
#      x y z
#    x 1.853430 0.000000 0.035000 
#    y 0.000000 1.885060 0.000000 
#    z 0.035000 0.000000 1.870000 
# 
# From -- ./inp_files/65239.got.cif
#   From: 2010.06.25/outbox.cif.g09.slc.cpg/sg13_33_cif.got.tgz:65239.got - 2010.06.28 04:50:58.
