data_PCOD8121420
_publ_section_title
;
Structure prediction by ZEFSAII (Michael W. Deem and Ramdas Pophale) SiO2 
 PCOD8121420
Probable space group: P 2/C
;
_chemical_formula_sum "Si O2"
_cell_formula_units_Z 32
_cell_length_a 12.022268
_cell_length_b 11.752451
_cell_length_c 11.474745
_cell_angle_alpha 90.000000
_cell_angle_beta 85.498443
_cell_angle_gamma 90.000000
_cell_volume 1616.278201
_symmetry_space_group_name_H-M "P 2/C"
_symmetry_group_IT_number 13
_symmetry_cell_setting 'monoclinic'
loop_
_space_group_symop_operation_xyz
x,y,z
-x,y,1/2-z
-x,-y,-z
x,-y,1/2+z
loop_
_atom_site_type_symbol
_atom_site_label
_atom_site_fract_x
_atom_site_fract_y
_atom_site_fract_z
Si Si1 0.074464 0.078075 0.837379
Si Si2 0.609617 0.657284 0.993760
Si Si3 0.793097 0.780561 0.564606
Si Si4 0.625582 0.276466 0.742280
Si Si5 0.033363 0.841269 0.580970
Si Si6 0.353420 0.604508 0.039286
Si Si7 0.271359 0.928582 0.151049
Si Si8 0.261643 0.177902 0.176693
O O1 0.189720 0.052323 0.766520
O O2 0.000000 0.148696 0.750000
O O3 0.093347 0.151538 0.950590
O O4 0.006494 0.963626 0.871474
O O5 0.666447 0.712858 0.105378
O O6 0.474907 0.660849 0.003522
O O7 0.650399 0.528330 0.982399
O O8 0.657003 0.725202 0.879547
O O9 0.738332 0.660573 0.536914
O O10 0.781036 0.873993 0.461705
O O11 0.728820 0.824738 0.684362
O O12 0.924776 0.760336 0.579910
O O13 0.500000 0.317157 0.750000
O O14 0.684853 0.366841 0.824396
O O15 0.633330 0.151456 0.801329
O O16 0.130762 0.795905 0.657613
O O17 0.307772 0.057891 0.119229
#
# Coordination Sequence:
#
# PCOD8121420 Si02
#       8
#     4   4   4   4   4   4   4   4
#     4  11  17  31  54  79 115 167 203 232 271 339
#     4  10  22  42  66  88 111 151 207 248 299 353
#     4  11  22  37  57  88 126 155 199 251 291 342
#     4   9  20  40  61  84 119 154 187 249 306 349
#     4  11  20  33  53  87 123 160 201 237 284 350
#     4   9  22  43  66  87 109 150 206 257 292 349
#     4  11  21  36  56  89 126 161 198 234 292 365
#     4  12  24  34  58  91 123 159 193 240 299 353
#
# _framework density 19.798570999999999
#
# number of rings (size 3 to 8) (size 9 to 14) (size 15 to 20)
#    0.000    1.500    3.750    1.875    3.500    0.500 
#    2.250    2.500    0.000    0.000    0.000    0.000 
#    0.000    0.000    0.000    0.000    0.000    0.000 
#
# Total GULP energy -396509.314259 kJ/mol
# GULP energy per Si atom -12390.916071 kJ/mol
# Density = 1.975351 g / cm^3
# Si number density = 19.798571 Si / 1000 Ang^3
#
#
#
# Elastic Constant Matrix: (Units=GPa)
#
#
# Indices 1 2 3 4 5 6 
#
# 1 48.8152 39.4428 30.0688 0.0000 4.2483 0.0000
# 2 39.4428 101.8729 37.3639 0.0000 4.2672 0.0000
# 3 30.0688 37.3639 133.8172 0.0000 -2.2010 0.0000
# 4 0.0000 0.0000 0.0000 17.6983 0.0000 -0.7445
# 5 4.2483 4.2672 -2.2010 0.0000 31.5626 0.0000
# 6 0.0000 0.0000 0.0000 -0.7445 0.0000 25.7358
#
#
#
# Elastic Compliance Matrix: (Units=1/GPa)
#
#
# Indices 1 2 3 4 5 6 
#
# 1 0.032038 -0.010709 -0.004261 0.000000 -0.003162 0.000000
# 2 -0.010709 0.014607 -0.001683 0.000000 -0.000651 0.000000
# 3 -0.004261 -0.001683 0.008924 0.000000 0.001423 0.000000
# 4 0.000000 0.000000 0.000000 0.056571 0.000000 0.001637
# 5 -0.003162 -0.000651 0.001423 0.000000 0.032296 0.000000
# 6 0.000000 0.000000 0.000000 0.001637 0.000000 0.038904
#
#
# Mechanical properties :
#
#
# Convention : Reuss Voigt Hill
#
# Bulk Modulus (GPa) = 44.91763 55.36182 50.13972
# Shear Modulus (GPa) = 22.31477 26.84132 24.57804
#
# Velocity S-wave (km/s) = 3.36086 3.68600 3.52718
# Velocity P-wave (km/s) = 6.14793 6.79255 6.47826
#
# Compressibility (1/GPa) = 0.02226297
#
# Stress axis : x y z
#
# Youngs Moduli (GPa) = 31.21263 68.46020 112.06279
#
# Poissons Ratio (x) = 0.73316 0.47748
# Poissons Ratio (y) = 0.33427 0.18858
# Poissons Ratio (z) = 0.13299 0.11521
#
# Static dielectric constant tensor:
#      x y z
#    x 3.612710 0.000000 0.109860 
#    y 0.000000 3.372740 0.000000 
#    z 0.109860 0.000000 4.140990 
# 
# 
# High freq. dielectric constant tensor:
#      x y z
#    x 1.753830 0.000000 0.006880 
#    y 0.000000 1.736010 0.000000 
#    z 0.006880 0.000000 1.801440 
# 
# From -- ./inp_files/33846.got.cif
#   From: 2010.06.25/outbox.cif.g09.slc.cpg/sg13_17_cif.got.tgz:33846.got - 2010.06.28 04:50:58.
