data_PCOD8121660
_publ_section_title
;
Structure prediction by ZEFSAII (Michael W. Deem and Ramdas Pophale) SiO2 
 PCOD8121660
Probable space group: P 2/C
;
_chemical_formula_sum "Si O2"
_cell_formula_units_Z 24
_cell_length_a 7.919502
_cell_length_b 8.175285
_cell_length_c 17.478198
_cell_angle_alpha 90.000000
_cell_angle_beta 73.329227
_cell_angle_gamma 90.000000
_cell_volume 1084.048878
_symmetry_space_group_name_H-M "P 2/C"
_symmetry_group_IT_number 13
_symmetry_cell_setting 'monoclinic'
loop_
_space_group_symop_operation_xyz
x,y,z
-x,y,1/2-z
-x,-y,-z
x,-y,1/2+z
loop_
_atom_site_type_symbol
_atom_site_label
_atom_site_fract_x
_atom_site_fract_y
_atom_site_fract_z
Si Si1 0.609209 0.758245 0.610272
Si Si2 0.500000 0.980098 0.250000
Si Si3 0.000000 0.957380 0.750000
Si Si4 0.066874 0.472311 0.404676
Si Si5 0.231792 0.749096 0.624828
Si Si6 0.795474 0.029182 0.514053
Si Si7 0.179302 0.185167 0.834826
O O1 0.751775 0.629790 0.622730
O O2 0.425155 0.667826 0.612655
O O3 0.561633 0.901887 0.674616
O O4 0.696948 0.853394 0.527111
O O5 0.661820 0.852963 0.246102
O O6 0.975328 0.065157 0.676055
O O7 0.831949 0.840206 0.789197
O O8 0.104602 0.632229 0.349022
O O9 0.000000 0.500000 0.500000
O O10 0.909929 0.384822 0.380443
O O11 0.256173 0.883859 0.556636
O O12 0.743079 0.145096 0.591679
O O13 0.000000 0.000000 0.500000
#
# Coordination Sequence:
#
# PCOD8121660 Si02
#       7
#     4   2   2   4   4   4   4
#     4  11  24  42  74 101 137 188 244 287 349 424
#     4  10  22  46  68  98 138 184 240 292 344 426
#     4  12  24  44  72 102 134 188 248 292 342 432
#     4  12  26  47  69 104 151 185 226 304 371 412
#     4  12  24  44  74 103 137 186 251 284 351 426
#     4  11  19  42  71  98 139 188 235 290 333 419
#     4  11  23  44  67 100 143 182 227 297 362 412
#
# _framework density 22.139223999999999
#
# number of rings (size 3 to 8) (size 9 to 14) (size 15 to 20)
#    0.000    0.667    6.667    1.500    0.000    2.000 
#    3.000    0.000    0.000    0.000    0.000    0.000 
#    0.000    0.000    0.000    0.000    0.000    0.000 
#
# Total GULP energy -297366.333158 kJ/mol
# GULP energy per Si atom -12390.263882 kJ/mol
# Density = 2.208883 g / cm^3
# Si number density = 22.139224 Si / 1000 Ang^3
#
#
#
# Elastic Constant Matrix: (Units=GPa)
#
#
# Indices 1 2 3 4 5 6 
#
# 1 177.1539 65.3362 24.2973 0.0000 -25.9900 0.0000
# 2 65.3362 121.3288 40.0812 0.0000 -16.1806 0.0000
# 3 24.2973 40.0812 77.8624 0.0000 -9.5042 0.0000
# 4 0.0000 0.0000 0.0000 42.7508 0.0000 -6.9741
# 5 -25.9900 -16.1806 -9.5042 0.0000 32.8360 0.0000
# 6 0.0000 0.0000 0.0000 -6.9741 0.0000 31.9298
#
#
#
# Elastic Compliance Matrix: (Units=1/GPa)
#
#
# Indices 1 2 3 4 5 6 
#
# 1 0.007562 -0.003491 -0.000044 0.000000 0.004253 0.000000
# 2 -0.003491 0.011955 -0.004855 0.000000 0.001723 0.000000
# 3 -0.000044 -0.004855 0.015611 0.000000 0.002092 0.000000
# 4 0.000000 0.000000 0.000000 0.024256 0.000000 0.005298
# 5 0.004253 0.001723 0.002092 0.000000 0.035275 0.000000
# 6 0.000000 0.000000 0.000000 0.005298 0.000000 0.032476
#
#
# Mechanical properties :
#
#
# Convention : Reuss Voigt Hill
#
# Bulk Modulus (GPa) = 54.49449 70.64162 62.56806
# Shear Modulus (GPa) = 33.32665 37.94536 35.63600
#
# Velocity S-wave (km/s) = 3.88406 4.14447 4.01637
# Velocity P-wave (km/s) = 6.69197 7.40806 7.05910
#
# Compressibility (1/GPa) = 0.01835048
#
# Stress axis : x y z
#
# Youngs Moduli (GPa) = 132.23846 83.64469 64.05658
#
# Poissons Ratio (x) = 0.29197 0.00281
# Poissons Ratio (y) = 0.46159 0.31097
# Poissons Ratio (z) = 0.00580 0.40607
#
# Static dielectric constant tensor:
#      x y z
#    x 4.700630 0.000000 -0.262190 
#    y 0.000000 3.907090 0.000000 
#    z -0.262190 0.000000 4.667340 
# 
# 
# High freq. dielectric constant tensor:
#      x y z
#    x 1.881410 0.000000 -0.018880 
#    y 0.000000 1.854760 0.000000 
#    z -0.018880 0.000000 1.873110 
# 
# From -- ./inp_files/63329.got.cif
#   From: 2010.06.25/outbox.cif.g09.slc.cpg/sg13_32_cif.got.tgz:63329.got - 2010.06.28 04:50:58.
