data_PCOD8121002
_publ_section_title
;
Structure prediction by ZEFSAII (Michael W. Deem and Ramdas Pophale) SiO2 
 PCOD8121002
Probable space group: P 2/C
;
_chemical_formula_sum "Si O2"
_cell_formula_units_Z 22
_cell_length_a 23.528949
_cell_length_b 6.400373
_cell_length_c 14.294504
_cell_angle_alpha 90.000000
_cell_angle_beta 28.421392
_cell_angle_gamma 90.000000
_cell_volume 1024.567579
_symmetry_space_group_name_H-M "P 2/C"
_symmetry_group_IT_number 13
_symmetry_cell_setting 'monoclinic'
loop_
_space_group_symop_operation_xyz
x,y,z
-x,y,1/2-z
-x,-y,-z
x,-y,1/2+z
loop_
_atom_site_type_symbol
_atom_site_label
_atom_site_fract_x
_atom_site_fract_y
_atom_site_fract_z
Si Si1 0.315220 0.103602 0.944897
Si Si2 0.313134 0.362715 0.768510
Si Si3 0.079270 0.194051 0.373787
Si Si4 0.500000 0.393553 0.750000
Si Si5 0.062442 0.485267 0.059666
Si Si6 0.451849 0.289450 0.161721
O O1 0.275714 0.240890 0.914593
O O2 0.387784 0.241767 0.913324
O O3 0.385348 0.893452 0.813909
O O4 0.197177 0.066029 0.174144
O O5 0.422945 0.220362 0.567847
O O6 0.359851 0.599158 0.723102
O O7 0.192524 0.374931 0.881795
O O8 0.088578 0.309402 0.460246
O O9 0.030630 0.342999 0.362108
O O10 0.000000 0.000000 0.500000
O O11 0.496907 0.532817 0.845554
O O12 0.000000 0.541741 0.250000
#
# Coordination Sequence:
#
# PCOD8121002 Si02
#       6
#     4   4   4   2   4   4
#     4  11  22  40  63  96 132 171 228 277 334 410
#     4  10  22  41  64  95 130 172 227 268 348 401
#     4  11  27  42  67 102 134 181 234 276 341 407
#     4  10  22  38  62  90 130 168 216 266 346 394
#     4  11  24  46  70  94 142 187 227 285 338 409
#     4  10  22  38  66  95 129 174 214 288 336 397
#
# _framework density 21.472473000000001
#
# number of rings (size 3 to 8) (size 9 to 14) (size 15 to 20)
#    0.000    1.455    1.818    2.182    2.545    6.545 
#    0.000    0.000    0.000    0.000    0.000    0.000 
#    0.000    0.000    0.000    0.000    0.000    0.000 
#
# Total GULP energy -272569.373159 kJ/mol
# GULP energy per Si atom -12389.516962 kJ/mol
# Density = 2.142360 g / cm^3
# Si number density = 21.472473 Si / 1000 Ang^3
#
#
#
# Elastic Constant Matrix: (Units=GPa)
#
#
# Indices 1 2 3 4 5 6 
#
# 1 103.9713 34.0637 47.9220 0.0000 -2.9836 0.0000
# 2 34.0637 101.9597 58.1499 0.0000 2.2068 0.0000
# 3 47.9220 58.1499 173.7834 0.0000 4.9963 0.0000
# 4 0.0000 0.0000 0.0000 -12.8550 0.0000 -107.0394
# 5 -2.9836 2.2068 4.9963 0.0000 32.0397 0.0000
# 6 0.0000 0.0000 0.0000 -107.0394 0.0000 -198.0796
#
#
#
# Elastic Compliance Matrix: (Units=1/GPa)
#
#
# Indices 1 2 3 4 5 6 
#
# 1 0.011603 -0.002546 -0.002394 0.000000 0.001629 0.000000
# 2 -0.002546 0.012681 -0.003525 0.000000 -0.000561 0.000000
# 3 -0.002394 -0.003525 0.007628 0.000000 -0.001170 0.000000
# 4 0.000000 0.000000 0.000000 0.022228 0.000000 -0.012012
# 5 0.001629 -0.000561 -0.001170 0.000000 0.031584 0.000000
# 6 0.000000 0.000000 0.000000 -0.012012 0.000000 0.001443
#
#
# Mechanical properties :
#
#
# Convention : Reuss Voigt Hill
#
# Bulk Modulus (GPa) = 66.75387 73.33174 70.04280
# Shear Modulus (GPa) = 45.83364 -19.80704 13.01330
#
# Velocity S-wave (km/s) = 4.62511 -3.04046 2.46447
# Velocity P-wave (km/s) = 7.72514 4.67972 6.38661
#
# Compressibility (1/GPa) = 0.01498040
#
# Stress axis : x y z
#
# Youngs Moduli (GPa) = 86.18799 78.85883 131.10134
#
# Poissons Ratio (x) = 0.20077 0.31391
# Poissons Ratio (y) = 0.21943 0.46213
# Poissons Ratio (z) = 0.20637 0.27798
#
# Static dielectric constant tensor:
#      x y z
#    x 3.804520 0.000000 -0.035500 
#    y 0.000000 5.613960 0.000000 
#    z -0.035500 0.000000 3.732680 
# 
# 
# High freq. dielectric constant tensor:
#      x y z
#    x 1.852210 0.000000 -0.002700 
#    y 0.000000 1.831720 0.000000 
#    z -0.002700 0.000000 1.860670 
# 
# From -- ./inp_files/58174.got.cif
#   From: 2010.06.25/outbox.cif.g09.slc.cpg/sg13_30_cif.got.tgz:58174.got - 2010.06.28 04:50:58.
