data_PCOD8121610
_publ_section_title
;
Structure prediction by ZEFSAII (Michael W. Deem and Ramdas Pophale) SiO2 
 PCOD8121610
Probable space group: P 2/C
;
_chemical_formula_sum "Si O2"
_cell_formula_units_Z 16
_cell_length_a 15.908880
_cell_length_b 7.491711
_cell_length_c 16.991539
_cell_angle_alpha 90.000000
_cell_angle_beta 162.042564
_cell_angle_gamma 90.000000
_cell_volume 624.369233
_symmetry_space_group_name_H-M "P 2/C"
_symmetry_group_IT_number 13
_symmetry_cell_setting 'monoclinic'
loop_
_space_group_symop_operation_xyz
x,y,z
-x,y,1/2-z
-x,-y,-z
x,-y,1/2+z
loop_
_atom_site_type_symbol
_atom_site_label
_atom_site_fract_x
_atom_site_fract_y
_atom_site_fract_z
Si Si1 0.877744 0.176269 0.541956
Si Si2 0.426169 0.657548 0.036615
Si Si3 0.500000 0.113998 0.750000
Si Si4 0.491038 0.739956 0.924288
Si Si5 0.000000 0.479671 0.750000
O O1 0.203663 0.191045 0.821353
O O2 0.787295 0.349617 0.513698
O O3 0.773538 0.008302 0.501276
O O4 0.725157 0.157180 0.322504
O O5 0.560578 0.764307 0.227939
O O6 0.423913 0.779810 0.956184
O O7 0.572542 0.469315 0.148570
O O8 0.122383 0.608062 0.792865
#
# Coordination Sequence:
#
# PCOD8121610 Si02
#       5
#     4   4   2   4   2
#     4  11  24  43  67  94 141 181 216 273 354 406
#     4  10  23  40  70 100 132 175 237 282 326 400
#     4  12  24  40  68 108 138 176 230 288 338 404
#     4  10  24  47  67  95 136 185 222 275 342 407
#     4  10  22  44  72 100 136 186 232 280 338 406
#
# _framework density 25.625864
#
# number of rings (size 3 to 8) (size 9 to 14) (size 15 to 20)
#    0.000    1.500    0.000    4.500    0.000   16.000 
#    0.000    0.000    0.000    0.000    0.000    0.000 
#    0.000    0.000    0.000    0.000    0.000    0.000 
#
# Total GULP energy -198227.169451 kJ/mol
# GULP energy per Si atom -12389.198091 kJ/mol
# Density = 2.556754 g / cm^3
# Si number density = 25.625864 Si / 1000 Ang^3
#
#
#
# Elastic Constant Matrix: (Units=GPa)
#
#
# Indices 1 2 3 4 5 6 
#
# 1 187.0685 38.3628 60.7163 0.0000 -20.8391 0.0000
# 2 38.3628 83.3280 34.5610 0.0000 9.2410 0.0000
# 3 60.7163 34.5610 136.6129 0.0000 -15.4982 0.0000
# 4 0.0000 0.0000 0.0000 61.6425 0.0000 -20.4075
# 5 -20.8391 9.2410 -15.4982 0.0000 36.0640 0.0000
# 6 0.0000 0.0000 0.0000 -20.4075 0.0000 42.8539
#
#
#
# Elastic Compliance Matrix: (Units=1/GPa)
#
#
# Indices 1 2 3 4 5 6 
#
# 1 0.007000 -0.002855 -0.001942 0.000000 0.003942 0.000000
# 2 -0.002855 0.015545 -0.003472 0.000000 -0.007125 0.000000
# 3 -0.001942 -0.003472 0.009498 0.000000 0.003849 0.000000
# 4 0.000000 0.000000 0.000000 0.019259 0.000000 0.009171
# 5 0.003942 -0.007125 0.003849 0.000000 0.033486 0.000000
# 6 0.000000 0.000000 0.000000 0.009171 0.000000 0.027703
#
#
# Mechanical properties :
#
#
# Convention : Reuss Voigt Hill
#
# Bulk Modulus (GPa) = 64.49023 74.92108 69.70566
# Shear Modulus (GPa) = 37.25834 46.33670 41.79752
#
# Velocity S-wave (km/s) = 3.81719 4.25691 4.04303
# Velocity P-wave (km/s) = 6.68196 7.31175 7.00394
#
# Compressibility (1/GPa) = 0.01550622
#
# Stress axis : x y z
#
# Youngs Moduli (GPa) = 142.84766 64.32799 105.28361
#
# Poissons Ratio (x) = 0.18363 0.20445
# Poissons Ratio (y) = 0.40778 0.36558
# Poissons Ratio (z) = 0.27740 0.22337
#
# Static dielectric constant tensor:
#      x y z
#    x 5.080520 0.000000 -0.265700 
#    y 0.000000 4.842650 0.000000 
#    z -0.265700 0.000000 4.114500 
# 
# 
# High freq. dielectric constant tensor:
#      x y z
#    x 2.045070 0.000000 -0.016370 
#    y 0.000000 2.021740 0.000000 
#    z -0.016370 0.000000 1.996810 
# 
# From -- ./inp_files/69362.got.cif
#   From: 2010.06.25/outbox.cif.g09.slc.cpg/sg13_35_cif.got.tgz:69362.got - 2010.06.28 04:50:58.
