data_PCOD8121787
_publ_section_title
;
Structure prediction by ZEFSAII (Michael W. Deem and Ramdas Pophale) SiO2 
 PCOD8121787
Probable space group: P 2/C
;
_chemical_formula_sum "Si O2"
_cell_formula_units_Z 16
_cell_length_a 4.935510
_cell_length_b 8.246886
_cell_length_c 16.456762
_cell_angle_alpha 90.000000
_cell_angle_beta 107.488727
_cell_angle_gamma 90.000000
_cell_volume 638.870522
_symmetry_space_group_name_H-M "P 2/C"
_symmetry_group_IT_number 13
_symmetry_cell_setting 'monoclinic'
loop_
_space_group_symop_operation_xyz
x,y,z
-x,y,1/2-z
-x,-y,-z
x,-y,1/2+z
loop_
_atom_site_type_symbol
_atom_site_label
_atom_site_fract_x
_atom_site_fract_y
_atom_site_fract_z
Si Si1 0.000000 0.360651 0.250000
Si Si2 0.041218 0.190153 0.008827
Si Si3 0.444745 0.218357 0.906980
Si Si4 0.500000 0.423004 0.750000
Si Si5 0.464311 0.864801 0.840573
O O1 0.219696 0.465682 0.215548
O O2 0.187365 0.248546 0.327872
O O3 0.173634 0.262548 0.936912
O O4 0.724631 0.264673 0.985729
O O5 0.253780 0.230471 0.102551
O O6 0.000000 0.000000 0.000000
O O7 0.446459 0.313632 0.823381
O O8 0.422248 0.026312 0.888592
O O9 0.500000 0.910045 0.750000
#
# Coordination Sequence:
#
# PCOD8121787 Si02
#       5
#     2   4   4   2   4
#     4  12  28  42  68 102 144 182 230 284 338 418
#     4  10  23  41  69 109 135 166 231 302 333 396
#     4  11  24  45  73 100 136 179 235 283 340 408
#     4  12  26  48  66 102 142 192 226 278 348 414
#     4  11  24  43  73 101 132 180 232 281 346 406
#
# _framework density 25.044197
#
# number of rings (size 3 to 8) (size 9 to 14) (size 15 to 20)
#    0.000    1.000    2.500    4.500   10.500    1.000 
#    0.000    7.500    0.000    0.000    0.000    0.000 
#    0.000    0.000    0.000    0.000    0.000    0.000 
#
# Total GULP energy -198326.503151 kJ/mol
# GULP energy per Si atom -12395.406447 kJ/mol
# Density = 2.498720 g / cm^3
# Si number density = 25.044197 Si / 1000 Ang^3
#
#
#
# Elastic Constant Matrix: (Units=GPa)
#
#
# Indices 1 2 3 4 5 6 
#
# 1 148.7664 34.5235 21.6615 0.0000 16.9248 0.0000
# 2 34.5235 74.6805 25.1611 0.0000 19.0211 0.0000
# 3 21.6615 25.1611 127.5396 0.0000 23.4043 0.0000
# 4 0.0000 0.0000 0.0000 6.9763 0.0000 17.9139
# 5 16.9248 19.0211 23.4043 0.0000 46.5542 0.0000
# 6 0.0000 0.0000 0.0000 17.9139 0.0000 0.3855
#
#
#
# Elastic Compliance Matrix: (Units=1/GPa)
#
#
# Indices 1 2 3 4 5 6 
#
# 1 0.007644 -0.003047 -0.000458 0.000000 -0.001304 0.000000
# 2 -0.003047 0.016645 -0.001896 0.000000 -0.004740 0.000000
# 3 -0.000458 -0.001896 0.008945 0.000000 -0.003556 0.000000
# 4 0.000000 0.000000 0.000000 -0.001211 0.000000 0.056294
# 5 -0.001304 -0.004740 -0.003556 0.000000 0.025678 0.000000
# 6 0.000000 0.000000 0.000000 0.056294 0.000000 -0.021923
#
#
# Mechanical properties :
#
#
# Convention : Reuss Voigt Hill
#
# Bulk Modulus (GPa) = 44.58112 57.07541 50.82827
# Shear Modulus (GPa) = 92.49151 28.75923 60.62537
#
# Velocity S-wave (km/s) = 6.08371 3.39239 4.92543
# Velocity P-wave (km/s) = 8.19685 6.17930 7.25851
#
# Compressibility (1/GPa) = 0.02243102
#
# Stress axis : x y z
#
# Youngs Moduli (GPa) = 130.81925 60.07711 111.79315
#
# Poissons Ratio (x) = 0.18308 0.05118
# Poissons Ratio (y) = 0.39866 0.21201
# Poissons Ratio (z) = 0.05990 0.11393
#
# Static dielectric constant tensor:
#      x y z
#    x 5.028730 0.000000 0.574180 
#    y 0.000000 4.374070 0.000000 
#    z 0.574180 0.000000 4.822560 
# 
# 
# High freq. dielectric constant tensor:
#      x y z
#    x 2.022790 0.000000 0.006710 
#    y 0.000000 1.967510 0.000000 
#    z 0.006710 0.000000 2.005280 
# 
# From -- ./inp_files/72884.got.cif
#   From: 2010.06.25/outbox.cif.g09.slc.cpg/sg13_37_cif.got.tgz:72884.got - 2010.06.28 04:50:58.
