data_PCOD8121796
_publ_section_title
;
Structure prediction by ZEFSAII (Michael W. Deem and Ramdas Pophale) SiO2 
 PCOD8121796
Probable space group: P 2/C
;
_chemical_formula_sum "Si O2"
_cell_formula_units_Z 22
_cell_length_a 12.549790
_cell_length_b 6.310962
_cell_length_c 13.985025
_cell_angle_alpha 90.000000
_cell_angle_beta 103.002726
_cell_angle_gamma 90.000000
_cell_volume 1079.231053
_symmetry_space_group_name_H-M "P 2/C"
_symmetry_group_IT_number 13
_symmetry_cell_setting 'monoclinic'
loop_
_space_group_symop_operation_xyz
x,y,z
-x,y,1/2-z
-x,-y,-z
x,-y,1/2+z
loop_
_atom_site_type_symbol
_atom_site_label
_atom_site_fract_x
_atom_site_fract_y
_atom_site_fract_z
Si Si1 0.732494 0.381939 0.944145
Si Si2 0.876757 0.522038 0.302716
Si Si3 0.419241 0.308358 0.000126
Si Si4 0.000000 0.098795 0.750000
Si Si5 0.528423 0.924297 0.365987
Si Si6 0.089601 0.280467 0.375053
O O1 0.772367 0.471324 0.850386
O O2 0.697769 0.586488 0.000582
O O3 0.635407 0.215148 0.909763
O O4 0.831990 0.267129 0.017920
O O5 0.847641 0.378959 0.204461
O O6 0.904328 0.760589 0.276705
O O7 0.982957 0.422405 0.376952
O O8 0.452975 0.166270 0.098444
O O9 0.500000 0.500000 0.000000
O O10 0.423797 0.164880 0.905068
O O11 0.946821 0.957814 0.655649
O O12 0.500000 0.916562 0.250000
#
# Coordination Sequence:
#
# PCOD8121796 Si02
#       6
#     4   4   4   2   4   4
#     4  11  22  37  64  93 116 160 202 245 299 359
#     4   9  20  37  57  90 122 163 195 238 294 350
#     4   9  22  44  59  86 121 154 196 249 303 355
#     4   8  18  38  54  80 134 158 190 248 286 338
#     4  10  23  42  63  90 119 155 200 251 306 353
#     4   9  20  37  58  88 125 159 197 239 292 356
#
# _framework density 20.384885000000001
#
# number of rings (size 3 to 8) (size 9 to 14) (size 15 to 20)
#    0.000    2.909    0.000    0.545    2.545    9.455 
#   13.091    0.000    0.000    0.000    0.000    0.000 
#    0.000    0.000    0.000    0.000    0.000    0.000 
#
# Total GULP energy -272709.638489 kJ/mol
# GULP energy per Si atom -12395.892659 kJ/mol
# Density = 2.033849 g / cm^3
# Si number density = 20.384885 Si / 1000 Ang^3
#
#
#
# Elastic Constant Matrix: (Units=GPa)
#
#
# Indices 1 2 3 4 5 6 
#
# 1 69.6246 24.7331 14.6526 0.0000 -21.5347 0.0000
# 2 24.7331 103.5609 21.5223 0.0000 -1.3756 0.0000
# 3 14.6526 21.5223 89.7794 0.0000 0.2400 0.0000
# 4 0.0000 0.0000 0.0000 20.6302 0.0000 -3.3213
# 5 -21.5347 -1.3756 0.2400 0.0000 37.6562 0.0000
# 6 0.0000 0.0000 0.0000 -3.3213 0.0000 13.4953
#
#
#
# Elastic Compliance Matrix: (Units=1/GPa)
#
#
# Indices 1 2 3 4 5 6 
#
# 1 0.019747 -0.004096 -0.002271 0.000000 0.011157 0.000000
# 2 -0.004096 0.011018 -0.001968 0.000000 -0.001927 0.000000
# 3 -0.002271 -0.001968 0.011985 0.000000 -0.001447 0.000000
# 4 0.000000 0.000000 0.000000 0.050473 0.000000 0.012422
# 5 0.011157 -0.001927 -0.001447 0.000000 0.032876 0.000000
# 6 0.000000 0.000000 0.000000 0.012422 0.000000 0.077157
#
#
# Mechanical properties :
#
#
# Convention : Reuss Voigt Hill
#
# Bulk Modulus (GPa) = 38.34291 42.75343 40.54817
# Shear Modulus (GPa) = 21.87080 27.82681 24.84880
#
# Velocity S-wave (km/s) = 3.27906 3.69869 3.49518
# Velocity P-wave (km/s) = 5.76078 6.26571 6.01854
#
# Compressibility (1/GPa) = 0.02608044
#
# Stress axis : x y z
#
# Youngs Moduli (GPa) = 50.64167 90.76329 83.44080
#
# Poissons Ratio (x) = 0.37176 0.18947
# Poissons Ratio (y) = 0.20742 0.16418
# Poissons Ratio (z) = 0.11499 0.17858
#
# Static dielectric constant tensor:
#      x y z
#    x 3.714720 0.000000 -0.299050 
#    y 0.000000 3.906900 0.000000 
#    z -0.299050 0.000000 3.507390 
# 
# 
# High freq. dielectric constant tensor:
#      x y z
#    x 1.784990 0.000000 -0.018220 
#    y 0.000000 1.808200 0.000000 
#    z -0.018220 0.000000 1.785500 
# 
# From -- ./inp_files/49035.got.cif
#   From: 2010.06.25/outbox.cif.g09.slc.cpg/sg13_25_cif.got.tgz:49035.got - 2010.06.28 04:50:58.
