data_PCOD8121614
_publ_section_title
;
Structure prediction by ZEFSAII (Michael W. Deem and Ramdas Pophale) SiO2 
 PCOD8121614
Probable space group: P 2/C
;
_chemical_formula_sum "Si O2"
_cell_formula_units_Z 18
_cell_length_a 8.435754
_cell_length_b 21.332608
_cell_length_c 5.447533
_cell_angle_alpha 90.000000
_cell_angle_beta 56.131692
_cell_angle_gamma 90.000000
_cell_volume 813.979702
_symmetry_space_group_name_H-M "P 2/C"
_symmetry_group_IT_number 13
_symmetry_cell_setting 'monoclinic'
loop_
_space_group_symop_operation_xyz
x,y,z
-x,y,1/2-z
-x,-y,-z
x,-y,1/2+z
loop_
_atom_site_type_symbol
_atom_site_label
_atom_site_fract_x
_atom_site_fract_y
_atom_site_fract_z
Si Si1 0.224002 0.033854 0.535149
Si Si2 0.500000 0.143200 0.250000
Si Si3 0.794048 0.353210 0.040318
Si Si4 0.500000 0.539532 0.750000
Si Si5 0.645886 0.252118 0.817718
Si Si6 0.000000 0.718105 0.750000
O O1 0.313671 0.100211 0.380942
O O2 0.000000 0.042510 0.750000
O O3 0.290650 0.989111 0.249667
O O4 0.456922 0.187323 0.519299
O O5 0.663376 0.301095 0.023234
O O6 0.000000 0.363689 0.750000
O O7 0.689184 0.419160 0.117148
O O8 0.838135 0.326834 0.272159
O O9 0.500000 0.500000 0.500000
O O10 0.500000 0.283114 0.750000
O O11 0.866214 0.238638 0.538547
#
# Coordination Sequence:
#
# PCOD8121614 Si02
#       6
#     4   2   4   2   4   2
#     4  10  24  46  68  94 134 184 230 279 340 406
#     4  12  25  38  68 102 133 168 226 286 342 406
#     4  10  24  46  70  94 136 184 225 279 347 412
#     4  12  29  44  70 106 139 178 234 290 340 404
#     4  11  24  41  68 102 135 175 225 283 350 418
#     4  10  22  44  72  92 138 182 226 276 356 418
#
# _framework density 22.113574
#
# number of rings (size 3 to 8) (size 9 to 14) (size 15 to 20)
#    0.000    1.333    0.000    4.000   10.889    5.333 
#    2.000    0.000    0.000    0.000    0.000    0.000 
#    0.000    0.000    0.000    0.000    0.000    0.000 
#
# Total GULP energy -222994.901947 kJ/mol
# GULP energy per Si atom -12388.605664 kJ/mol
# Density = 2.206324 g / cm^3
# Si number density = 22.113574 Si / 1000 Ang^3
#
#
#
# Elastic Constant Matrix: (Units=GPa)
#
#
# Indices 1 2 3 4 5 6 
#
# 1 128.7320 61.8739 56.9937 0.0000 15.2353 0.0000
# 2 61.8739 138.7787 68.5695 0.0000 -2.3035 0.0000
# 3 56.9937 68.5695 131.7871 0.0000 -2.3731 0.0000
# 4 0.0000 0.0000 0.0000 20.3118 0.0000 -10.3829
# 5 15.2353 -2.3035 -2.3731 0.0000 51.6633 0.0000
# 6 0.0000 0.0000 0.0000 -10.3829 0.0000 21.3867
#
#
#
# Elastic Compliance Matrix: (Units=1/GPa)
#
#
# Indices 1 2 3 4 5 6 
#
# 1 0.011277 -0.003562 -0.003089 0.000000 -0.003626 0.000000
# 2 -0.003562 0.010826 -0.004068 0.000000 0.001346 0.000000
# 3 -0.003089 -0.004068 0.011063 0.000000 0.001238 0.000000
# 4 0.000000 0.000000 0.000000 0.065484 0.000000 0.031791
# 5 -0.003626 0.001346 0.001238 0.000000 0.020542 0.000000
# 6 0.000000 0.000000 0.000000 0.031791 0.000000 0.062192
#
#
# Mechanical properties :
#
#
# Convention : Reuss Voigt Hill
#
# Bulk Modulus (GPa) = 85.26703 86.01911 85.64307
# Shear Modulus (GPa) = 24.18598 32.79639 28.49118
#
# Velocity S-wave (km/s) = 3.31073 3.85527 3.59333
# Velocity P-wave (km/s) = 7.29773 7.66816 7.48524
#
# Compressibility (1/GPa) = 0.01172786
#
# Stress axis : x y z
#
# Youngs Moduli (GPa) = 88.67863 92.36903 90.39176
#
# Poissons Ratio (x) = 0.32898 0.27922
# Poissons Ratio (y) = 0.31584 0.36775
# Poissons Ratio (z) = 0.27393 0.37579
#
# Static dielectric constant tensor:
#      x y z
#    x 4.688430 0.000000 -0.028830 
#    y 0.000000 3.815950 0.000000 
#    z -0.028830 0.000000 4.893750 
# 
# 
# High freq. dielectric constant tensor:
#      x y z
#    x 1.886540 0.000000 -0.014490 
#    y 0.000000 1.844770 0.000000 
#    z -0.014490 0.000000 1.899270 
# 
# From -- ./inp_files/1515.got.cif
#   From: 2010.06.25/outbox.cif.g09.slc.cpg/sg13_1_cif.got.tgz:1515.got - 2010.06.28 04:50:58.
