data_PCOD8121482
_publ_section_title
;
Structure prediction by ZEFSAII (Michael W. Deem and Ramdas Pophale) SiO2 
 PCOD8121482
Probable space group: P 2/C
;
_chemical_formula_sum "Si O2"
_cell_formula_units_Z 20
_cell_length_a 7.524274
_cell_length_b 11.714651
_cell_length_c 15.011204
_cell_angle_alpha 90.000000
_cell_angle_beta 38.805552
_cell_angle_gamma 90.000000
_cell_volume 829.191520
_symmetry_space_group_name_H-M "P 2/C"
_symmetry_group_IT_number 13
_symmetry_cell_setting 'monoclinic'
loop_
_space_group_symop_operation_xyz
x,y,z
-x,y,1/2-z
-x,-y,-z
x,-y,1/2+z
loop_
_atom_site_type_symbol
_atom_site_label
_atom_site_fract_x
_atom_site_fract_y
_atom_site_fract_z
Si Si1 0.000000 0.802314 0.250000
Si Si2 0.023069 0.248504 0.404851
Si Si3 0.654437 0.553017 0.781331
Si Si4 0.465551 0.922780 0.426430
Si Si5 0.500000 0.927868 0.750000
Si Si6 0.903612 0.365577 0.932966
O O1 0.221291 0.878134 0.218253
O O2 0.168748 0.731580 0.109511
O O3 0.733209 0.188956 0.486436
O O4 0.117403 0.344331 0.295547
O O5 0.251804 0.149294 0.309630
O O6 0.001670 0.310809 0.509877
O O7 0.500000 0.578679 0.750000
O O8 0.827682 0.435010 0.712650
O O9 0.383623 0.556265 0.954139
O O10 0.500000 0.000000 0.500000
O O11 0.365765 0.996820 0.381493
#
# Coordination Sequence:
#
# PCOD8121482 Si02
#       6
#     2   4   4   4   2   4
#     4  12  28  44  64 100 152 182 238 294 354 430
#     4  11  22  44  75  99 137 183 234 298 356 421
#     4  10  22  42  74 104 136 177 238 290 355 437
#     4  12  27  45  69 104 141 194 241 297 350 421
#     4  12  22  46  72 104 136 184 246 296 356 422
#     4  11  24  45  70 107 140 185 235 288 368 428
#
# _framework density 24.119880999999999
#
# number of rings (size 3 to 8) (size 9 to 14) (size 15 to 20)
#    0.000    0.800    3.000    6.600    5.600    0.800 
#    0.000    0.000    0.000    0.000    0.000    0.000 
#    0.000    0.000    0.000    0.000    0.000    0.000 
#
# Total GULP energy -247887.003025 kJ/mol
# GULP energy per Si atom -12394.350151 kJ/mol
# Density = 2.406498 g / cm^3
# Si number density = 24.119881 Si / 1000 Ang^3
#
#
#
# Elastic Constant Matrix: (Units=GPa)
#
#
# Indices 1 2 3 4 5 6 
#
# 1 62.8603 26.9614 20.4031 0.0000 -5.1362 0.0000
# 2 26.9614 102.5501 36.1859 0.0000 -10.7903 0.0000
# 3 20.4031 36.1859 111.0105 0.0000 -13.8330 0.0000
# 4 0.0000 0.0000 0.0000 56.3918 0.0000 -26.0540
# 5 -5.1362 -10.7903 -13.8330 0.0000 40.1630 0.0000
# 6 0.0000 0.0000 0.0000 -26.0540 0.0000 65.2154
#
#
#
# Elastic Compliance Matrix: (Units=1/GPa)
#
#
# Indices 1 2 3 4 5 6 
#
# 1 0.018339 -0.004065 -0.001974 0.000000 0.000573 0.000000
# 2 -0.004065 0.012046 -0.002968 0.000000 0.001694 0.000000
# 3 -0.001974 -0.002968 0.010666 0.000000 0.002623 0.000000
# 4 0.000000 0.000000 0.000000 0.021747 0.000000 0.008688
# 5 0.000573 0.001694 0.002623 0.000000 0.026331 0.000000
# 6 0.000000 0.000000 0.000000 0.008688 0.000000 0.018805
#
#
# Mechanical properties :
#
#
# Convention : Reuss Voigt Hill
#
# Bulk Modulus (GPa) = 43.41041 49.28018 46.34529
# Shear Modulus (GPa) = 37.41787 45.21209 41.31498
#
# Velocity S-wave (km/s) = 3.94296 4.33422 4.14321
# Velocity P-wave (km/s) = 6.22625 6.74707 6.49188
#
# Compressibility (1/GPa) = 0.02303595
#
# Stress axis : x y z
#
# Youngs Moduli (GPa) = 54.52776 83.01783 93.76008
#
# Poissons Ratio (x) = 0.33743 0.18511
# Poissons Ratio (y) = 0.22163 0.27831
# Poissons Ratio (z) = 0.10765 0.24642
#
# Static dielectric constant tensor:
#      x y z
#    x 4.190860 0.000000 -0.272090 
#    y 0.000000 4.552290 0.000000 
#    z -0.272090 0.000000 4.701520 
# 
# 
# High freq. dielectric constant tensor:
#      x y z
#    x 1.943070 0.000000 -0.011270 
#    y 0.000000 1.969970 0.000000 
#    z -0.011270 0.000000 1.964970 
# 
# From -- ./inp_files/11882.got.cif
#   From: 2010.06.25/outbox.cif.g09.slc.cpg/sg13_6_cif.got.tgz:11882.got - 2010.06.28 04:50:58.
