data_PCOD8121934
_publ_section_title
;
Structure prediction by ZEFSAII (Michael W. Deem and Ramdas Pophale) SiO2 
 PCOD8121934
Probable space group: P 2/C
;
_chemical_formula_sum "Si O2"
_cell_formula_units_Z 26
_cell_length_a 10.956016
_cell_length_b 8.004202
_cell_length_c 23.808065
_cell_angle_alpha 90.000000
_cell_angle_beta 145.124200
_cell_angle_gamma 90.000000
_cell_volume 1193.819049
_symmetry_space_group_name_H-M "P 2/C"
_symmetry_group_IT_number 13
_symmetry_cell_setting 'monoclinic'
loop_
_space_group_symop_operation_xyz
x,y,z
-x,y,1/2-z
-x,-y,-z
x,-y,1/2+z
loop_
_atom_site_type_symbol
_atom_site_label
_atom_site_fract_x
_atom_site_fract_y
_atom_site_fract_z
Si Si1 0.205254 0.562398 0.428774
Si Si2 0.130064 0.953354 0.994436
Si Si3 0.500000 0.682062 0.250000
Si Si4 0.442822 0.988771 0.386316
Si Si5 0.798017 0.426243 0.955078
Si Si6 0.390453 0.754588 0.955812
Si Si7 0.860255 0.171457 0.813578
O O1 0.267554 0.543194 0.517790
O O2 0.379267 0.671210 0.463019
O O3 0.203382 0.380972 0.397182
O O4 0.978479 0.656764 0.340377
O O5 0.370538 0.033896 0.088521
O O6 0.144106 0.753624 0.997630
O O7 0.000000 0.000000 0.000000
O O8 0.018052 0.028798 0.896348
O O9 0.404732 0.571916 0.163359
O O10 0.309627 0.796146 0.201324
O O11 0.584093 0.877422 0.482165
O O12 0.250121 0.891532 0.284761
O O13 0.337604 0.145624 0.378585
O O14 0.000000 0.500000 0.000000
#
# Coordination Sequence:
#
# PCOD8121934 Si02
#       7
#     4   4   2   4   4   4   4
#     4  11  22  43  72  99 138 181 223 293 361 404
#     4  12  22  42  70  98 138 182 224 290 355 416
#     4  12  22  42  72  98 134 180 230 288 360 424
#     4  11  23  45  70 100 138 186 237 282 348 428
#     4  12  24  44  68 100 140 178 229 293 356 418
#     4  10  23  45  70  96 142 184 228 291 344 417
#     4  12  23  42  72 103 134 186 237 284 357 423
#
# _framework density 21.778843999999999
#
# number of rings (size 3 to 8) (size 9 to 14) (size 15 to 20)
#    0.000    0.615    7.692    0.000    0.000    0.615 
#    2.769    3.077    3.385    0.000    0.000    0.000 
#    0.000    0.000    0.000    0.000    0.000    0.000 
#
# Total GULP energy -322350.373394 kJ/mol
# GULP energy per Si atom -12398.091284 kJ/mol
# Density = 2.172927 g / cm^3
# Si number density = 21.778844 Si / 1000 Ang^3
#
#
#
# Elastic Constant Matrix: (Units=GPa)
#
#
# Indices 1 2 3 4 5 6 
#
# 1 114.0476 46.9162 38.0024 0.0000 7.7755 0.0000
# 2 46.9162 99.7487 55.9154 0.0000 3.0794 0.0000
# 3 38.0024 55.9154 123.6229 0.0000 0.8116 0.0000
# 4 0.0000 0.0000 0.0000 38.6391 0.0000 -4.2814
# 5 7.7755 3.0794 0.8116 0.0000 27.9810 0.0000
# 6 0.0000 0.0000 0.0000 -4.2814 0.0000 46.4614
#
#
#
# Elastic Compliance Matrix: (Units=1/GPa)
#
#
# Indices 1 2 3 4 5 6 
#
# 1 0.011235 -0.004391 -0.001451 0.000000 -0.002597 0.000000
# 2 -0.004391 0.015194 -0.005521 0.000000 -0.000292 0.000000
# 3 -0.001451 -0.005521 0.011028 0.000000 0.000691 0.000000
# 4 0.000000 0.000000 0.000000 0.026147 0.000000 0.002409
# 5 -0.002597 -0.000292 0.000691 0.000000 0.036472 0.000000
# 6 0.000000 0.000000 0.000000 0.002409 0.000000 0.021745
#
#
# Mechanical properties :
#
#
# Convention : Reuss Voigt Hill
#
# Bulk Modulus (GPa) = 67.87863 68.78747 68.33305
# Shear Modulus (GPa) = 33.45446 35.72199 34.58823
#
# Velocity S-wave (km/s) = 3.92356 4.05435 3.98949
# Velocity P-wave (km/s) = 7.19449 7.31916 7.25709
#
# Compressibility (1/GPa) = 0.01473218
#
# Stress axis : x y z
#
# Youngs Moduli (GPa) = 89.00747 65.81471 90.68215
#
# Poissons Ratio (x) = 0.28899 0.13154
# Poissons Ratio (y) = 0.39083 0.50063
# Poissons Ratio (z) = 0.12911 0.36334
#
# Static dielectric constant tensor:
#      x y z
#    x 4.444760 0.000000 0.042510 
#    y 0.000000 4.137310 0.000000 
#    z 0.042510 0.000000 3.799040 
# 
# 
# High freq. dielectric constant tensor:
#      x y z
#    x 1.888090 0.000000 0.006710 
#    y 0.000000 1.853000 0.000000 
#    z 0.006710 0.000000 1.830160 
# 
# From -- ./inp_files/92250.got.cif
#   From: 2010.06.25/outbox.cif.g09.slc.cpg/sg13_47_cif.got.tgz:92250.got - 2010.06.28 04:50:58.
