data_PCOD8121387
_publ_section_title
;
Structure prediction by ZEFSAII (Michael W. Deem and Ramdas Pophale) SiO2 
 PCOD8121387
Probable space group: P 2/C
;
_chemical_formula_sum "Si O2"
_cell_formula_units_Z 20
_cell_length_a 17.993991
_cell_length_b 11.416540
_cell_length_c 7.645680
_cell_angle_alpha 90.000000
_cell_angle_beta 35.267127
_cell_angle_gamma 90.000000
_cell_volume 906.873753
_symmetry_space_group_name_H-M "P 2/C"
_symmetry_group_IT_number 13
_symmetry_cell_setting 'monoclinic'
loop_
_space_group_symop_operation_xyz
x,y,z
-x,y,1/2-z
-x,-y,-z
x,-y,1/2+z
loop_
_atom_site_type_symbol
_atom_site_label
_atom_site_fract_x
_atom_site_fract_y
_atom_site_fract_z
Si Si1 0.000000 0.711544 0.750000
Si Si2 0.655275 0.137597 0.140186
Si Si3 0.950422 0.876462 0.154409
Si Si4 0.500000 0.052142 0.750000
Si Si5 0.591937 0.578783 0.210804
Si Si6 0.281513 0.638235 0.200562
O O1 0.986560 0.787305 0.601662
O O2 0.127772 0.635104 0.488777
O O3 0.550768 0.135833 0.497316
O O4 0.619282 0.031170 0.079045
O O5 0.796497 0.121269 0.947010
O O6 0.650720 0.262085 0.048325
O O7 0.000000 0.841413 0.250000
O O8 0.000000 0.000000 0.000000
O O9 0.500000 0.650088 0.250000
O O10 0.500000 0.500000 0.500000
O O11 0.672511 0.661977 0.186612
O O12 0.684668 0.492101 0.924927
#
# Coordination Sequence:
#
# PCOD8121387 Si02
#       6
#     2   4   4   2   4   4
#     4  10  24  42  64  96 128 174 216 266 334 374
#     4  10  23  41  63  96 132 169 216 264 320 387
#     4  11  21  40  64  92 129 175 220 265 312 385
#     4  10  22  42  62  96 132 178 206 260 334 372
#     4   9  20  42  66  94 121 164 211 264 328 376
#     4  10  22  44  65  97 131 163 220 270 319 393
#
# _framework density 22.053785000000001
#
# number of rings (size 3 to 8) (size 9 to 14) (size 15 to 20)
#    0.000    2.000    1.000    1.200    7.000    0.800 
#   19.800    0.000    0.000    0.000    0.000    0.000 
#    0.000    0.000    0.000    0.000    0.000    0.000 
#
# Total GULP energy -247908.813253 kJ/mol
# GULP energy per Si atom -12395.440663 kJ/mol
# Density = 2.200359 g / cm^3
# Si number density = 22.053785 Si / 1000 Ang^3
#
#
#
# Elastic Constant Matrix: (Units=GPa)
#
#
# Indices 1 2 3 4 5 6 
#
# 1 197.1986 52.5851 49.2964 0.0000 -1.2712 0.0000
# 2 52.5851 69.1142 39.1926 0.0000 -2.7937 0.0000
# 3 49.2964 39.1926 99.9566 0.0000 -0.5947 0.0000
# 4 0.0000 0.0000 0.0000 25.0691 0.0000 0.2209
# 5 -1.2712 -2.7937 -0.5947 0.0000 38.4131 0.0000
# 6 0.0000 0.0000 0.0000 0.2209 0.0000 35.9732
#
#
#
# Elastic Compliance Matrix: (Units=1/GPa)
#
#
# Indices 1 2 3 4 5 6 
#
# 1 0.006566 -0.004068 -0.001644 0.000000 -0.000104 0.000000
# 2 -0.004068 0.021185 -0.006293 0.000000 0.001309 0.000000
# 3 -0.001644 -0.006293 0.013281 0.000000 -0.000306 0.000000
# 4 0.000000 0.000000 0.000000 0.039892 0.000000 -0.000245
# 5 -0.000104 0.001309 -0.000306 0.000000 0.026120 0.000000
# 6 0.000000 0.000000 0.000000 -0.000245 0.000000 0.027800
#
#
# Mechanical properties :
#
#
# Convention : Reuss Voigt Hill
#
# Bulk Modulus (GPa) = 58.74391 72.04640 65.39515
# Shear Modulus (GPa) = 30.39031 34.90409 32.64720
#
# Velocity S-wave (km/s) = 3.71618 3.98261 3.85170
# Velocity P-wave (km/s) = 6.71624 7.34082 7.03546
#
# Compressibility (1/GPa) = 0.01702304
#
# Stress axis : x y z
#
# Youngs Moduli (GPa) = 152.29966 47.20327 75.29789
#
# Poissons Ratio (x) = 0.19201 0.12378
# Poissons Ratio (y) = 0.61951 0.47382
# Poissons Ratio (z) = 0.25037 0.29703
#
# Static dielectric constant tensor:
#      x y z
#    x 7.048200 0.000000 -0.265270 
#    y 0.000000 3.575360 0.000000 
#    z -0.265270 0.000000 4.353970 
# 
# 
# High freq. dielectric constant tensor:
#      x y z
#    x 1.893110 0.000000 0.001130 
#    y 0.000000 1.844620 0.000000 
#    z 0.001130 0.000000 1.873480 
# 
# From -- ./inp_files/21709.got.cif
#   From: 2010.06.25/outbox.cif.g09.slc.cpg/sg13_11_cif.got.tgz:21709.got - 2010.06.28 04:50:58.
