data_PCOD8121679
_publ_section_title
;
Structure prediction by ZEFSAII (Michael W. Deem and Ramdas Pophale) SiO2 
 PCOD8121679
Probable space group: P 2/C
;
_chemical_formula_sum "Si O2"
_cell_formula_units_Z 20
_cell_length_a 18.999214
_cell_length_b 5.496243
_cell_length_c 14.664736
_cell_angle_alpha 90.000000
_cell_angle_beta 31.014119
_cell_angle_gamma 90.000000
_cell_volume 789.029438
_symmetry_space_group_name_H-M "P 2/C"
_symmetry_group_IT_number 13
_symmetry_cell_setting 'monoclinic'
loop_
_space_group_symop_operation_xyz
x,y,z
-x,y,1/2-z
-x,-y,-z
x,-y,1/2+z
loop_
_atom_site_type_symbol
_atom_site_label
_atom_site_fract_x
_atom_site_fract_y
_atom_site_fract_z
Si Si1 0.139359 0.965647 0.054267
Si Si2 0.352915 0.378791 0.094929
Si Si3 0.073064 0.246969 0.446358
Si Si4 0.640684 0.661689 0.231962
Si Si5 0.353739 0.297635 0.430877
O O1 0.000000 0.083533 0.250000
O O2 0.096248 0.753857 0.030634
O O3 0.227833 0.869406 0.040981
O O4 0.233557 0.154530 0.893255
O O5 0.215532 0.225523 0.232366
O O6 0.352916 0.445150 0.201766
O O7 0.487806 0.222453 0.916547
O O8 0.342700 0.630494 0.048883
O O9 0.000000 0.500000 0.500000
O O10 0.000000 0.000000 0.500000
O O11 0.650667 0.550275 0.120477
O O12 0.500000 0.165040 0.250000
#
# Coordination Sequence:
#
# PCOD8121679 Si02
#       5
#     4   4   4   4   4
#     4  12  27  45  73 108 156 203 255 326 389 484
#     4  10  22  48  78 105 151 197 262 328 384 475
#     4  12  27  48  74 113 152 206 260 318 393 460
#     4  10  23  47  74 109 145 203 258 322 398 460
#     4  10  23  46  73 108 148 196 256 323 395 466
#
# _framework density 25.347597
#
# number of rings (size 3 to 8) (size 9 to 14) (size 15 to 20)
#    0.000    1.200    2.000    2.400    2.800    4.000 
#    7.200    0.000    0.000    0.000    0.000    0.000 
#    0.000    0.000    0.000    0.000    0.000    0.000 
#
# Total GULP energy -247880.720595 kJ/mol
# GULP energy per Si atom -12394.036030 kJ/mol
# Density = 2.528991 g / cm^3
# Si number density = 25.347597 Si / 1000 Ang^3
#
#
#
# Elastic Constant Matrix: (Units=GPa)
#
#
# Indices 1 2 3 4 5 6 
#
# 1 108.9833 25.1294 41.5632 0.0000 -23.1614 0.0000
# 2 25.1294 90.3811 55.1173 0.0000 -27.3704 0.0000
# 3 41.5632 55.1173 207.8805 0.0000 -57.4819 0.0000
# 4 0.0000 0.0000 0.0000 36.3247 0.0000 -4.9516
# 5 -23.1614 -27.3704 -57.4819 0.0000 54.2391 0.0000
# 6 0.0000 0.0000 0.0000 -4.9516 0.0000 24.2663
#
#
#
# Elastic Compliance Matrix: (Units=1/GPa)
#
#
# Indices 1 2 3 4 5 6 
#
# 1 0.010459 -0.001515 -0.000942 0.000000 0.002703 0.000000
# 2 -0.001515 0.014122 -0.002334 0.000000 0.004006 0.000000
# 3 -0.000942 -0.002334 0.007328 0.000000 0.006186 0.000000
# 4 0.000000 0.000000 0.000000 0.028317 0.000000 0.005778
# 5 0.002703 0.004006 0.006186 0.000000 0.028169 0.000000
# 6 0.000000 0.000000 0.000000 0.005778 0.000000 0.042388
#
#
# Mechanical properties :
#
#
# Convention : Reuss Voigt Hill
#
# Bulk Modulus (GPa) = 44.78676 72.31832 58.55254
# Shear Modulus (GPa) = 33.82793 41.99503 37.91148
#
# Velocity S-wave (km/s) = 3.65713 4.07475 3.87158
# Velocity P-wave (km/s) = 5.96156 7.12255 6.56776
#
# Compressibility (1/GPa) = 0.02232803
#
# Stress axis : x y z
#
# Youngs Moduli (GPa) = 95.61346 70.81273 136.46007
#
# Poissons Ratio (x) = 0.10727 0.12853
# Poissons Ratio (y) = 0.14484 0.31844
# Poissons Ratio (z) = 0.09006 0.16525
#
# Static dielectric constant tensor:
#      x y z
#    x 5.039900 0.000000 -0.334570 
#    y 0.000000 3.870710 0.000000 
#    z -0.334570 0.000000 5.067500 
# 
# 
# High freq. dielectric constant tensor:
#      x y z
#    x 2.034350 0.000000 -0.012740 
#    y 0.000000 1.964540 0.000000 
#    z -0.012740 0.000000 2.032740 
# 
# From -- ./inp_files/56385.got.cif
#   From: 2010.06.25/outbox.cif.g09.slc.cpg/sg13_29_cif.got.tgz:56385.got - 2010.06.28 04:50:58.
