data_PCOD8121484
_publ_section_title
;
Structure prediction by ZEFSAII (Michael W. Deem and Ramdas Pophale) SiO2 
 PCOD8121484
Probable space group: P 2/C
;
_chemical_formula_sum "Si O2"
_cell_formula_units_Z 20
_cell_length_a 6.437866
_cell_length_b 7.600013
_cell_length_c 17.855607
_cell_angle_alpha 90.000000
_cell_angle_beta 99.807048
_cell_angle_gamma 90.000000
_cell_volume 860.870240
_symmetry_space_group_name_H-M "P 2/C"
_symmetry_group_IT_number 13
_symmetry_cell_setting 'monoclinic'
loop_
_space_group_symop_operation_xyz
x,y,z
-x,y,1/2-z
-x,-y,-z
x,-y,1/2+z
loop_
_atom_site_type_symbol
_atom_site_label
_atom_site_fract_x
_atom_site_fract_y
_atom_site_fract_z
Si Si1 0.047491 0.183769 0.167239
Si Si2 0.921838 0.801996 0.376328
Si Si3 0.662170 0.641375 0.064477
Si Si4 0.250326 0.721021 0.977219
Si Si5 0.637161 0.486589 0.330114
O O1 0.832690 0.196645 0.105358
O O2 0.000000 0.233994 0.250000
O O3 0.219317 0.316583 0.143380
O O4 0.134966 0.985700 0.166500
O O5 0.876432 0.807815 0.462172
O O6 0.787249 0.654774 0.324953
O O7 0.171935 0.764441 0.382503
O O8 0.784767 0.492285 0.023680
O O9 0.519920 0.526595 0.112194
O O10 0.502196 0.758512 0.004000
O O11 0.500000 0.443210 0.250000
#
# Coordination Sequence:
#
# PCOD8121484 Si02
#       5
#     4   4   4   4   4
#     4  12  27  45  69 101 144 183 230 287 355 415
#     4  11  25  46  74 101 138 182 236 288 346 413
#     4  10  22  42  78  98 134 184 233 283 353 410
#     4  10  22  45  70 106 135 179 231 290 344 416
#     4  11  26  45  69 101 142 186 231 288 347 415
#
# _framework density 23.232305
#
# number of rings (size 3 to 8) (size 9 to 14) (size 15 to 20)
#    0.000    1.200    2.000    2.400    8.400    1.600 
#   10.800    0.000    0.000    0.000    0.000    0.000 
#    0.000    0.000    0.000    0.000    0.000    0.000 
#
# Total GULP energy -248005.267943 kJ/mol
# GULP energy per Si atom -12400.263397 kJ/mol
# Density = 2.317943 g / cm^3
# Si number density = 23.232305 Si / 1000 Ang^3
#
#
#
# Elastic Constant Matrix: (Units=GPa)
#
#
# Indices 1 2 3 4 5 6 
#
# 1 106.7841 43.8711 25.9247 0.0000 3.7287 0.0000
# 2 43.8711 130.8580 5.5015 0.0000 6.3318 0.0000
# 3 25.9247 5.5015 83.4220 0.0000 -0.4021 0.0000
# 4 0.0000 0.0000 0.0000 25.0517 0.0000 -0.8729
# 5 3.7287 6.3318 -0.4021 0.0000 35.4855 0.0000
# 6 0.0000 0.0000 0.0000 -0.8729 0.0000 18.1275
#
#
#
# Elastic Compliance Matrix: (Units=1/GPa)
#
#
# Indices 1 2 3 4 5 6 
#
# 1 0.011763 -0.003771 -0.003410 0.000000 -0.000602 0.000000
# 2 -0.003771 0.008940 0.000577 0.000000 -0.001192 0.000000
# 3 -0.003410 0.000577 0.013011 0.000000 0.000403 0.000000
# 4 0.000000 0.000000 0.000000 0.039985 0.000000 0.001925
# 5 -0.000602 -0.001192 0.000403 0.000000 0.028461 0.000000
# 6 0.000000 0.000000 0.000000 0.001925 0.000000 0.055258
#
#
# Mechanical properties :
#
#
# Convention : Reuss Voigt Hill
#
# Bulk Modulus (GPa) = 48.76886 52.40652 50.58769
# Shear Modulus (GPa) = 28.17544 32.11740 30.14642
#
# Velocity S-wave (km/s) = 3.48626 3.72216 3.60614
# Velocity P-wave (km/s) = 6.10269 6.40931 6.25787
#
# Compressibility (1/GPa) = 0.02050489
#
# Stress axis : x y z
#
# Youngs Moduli (GPa) = 85.01368 111.86168 76.85944
#
# Poissons Ratio (x) = 0.42184 0.26207
# Poissons Ratio (y) = 0.32060 -0.04432
# Poissons Ratio (z) = 0.28987 -0.06450
#
# Static dielectric constant tensor:
#      x y z
#    x 4.237250 0.000000 0.284460 
#    y 0.000000 4.025700 0.000000 
#    z 0.284460 0.000000 4.260820 
# 
# 
# High freq. dielectric constant tensor:
#      x y z
#    x 1.917950 0.000000 0.015380 
#    y 0.000000 1.906010 0.000000 
#    z 0.015380 0.000000 1.923470 
# 
# From -- ./inp_files/73135.got.cif
#   From: 2010.06.25/outbox.cif.g09.slc.cpg/sg13_37_cif.got.tgz:73135.got - 2010.06.28 04:50:58.
