data_PCOD8121301
_publ_section_title
;
Structure prediction by ZEFSAII (Michael W. Deem and Ramdas Pophale) SiO2 
 PCOD8121301
Probable space group: P 2/C
;
_chemical_formula_sum "Si O2"
_cell_formula_units_Z 28
_cell_length_a 21.872107
_cell_length_b 11.207244
_cell_length_c 12.632995
_cell_angle_alpha 90.000000
_cell_angle_beta 24.852686
_cell_angle_gamma 90.000000
_cell_volume 1301.491587
_symmetry_space_group_name_H-M "P 2/C"
_symmetry_group_IT_number 13
_symmetry_cell_setting 'monoclinic'
loop_
_space_group_symop_operation_xyz
x,y,z
-x,y,1/2-z
-x,-y,-z
x,-y,1/2+z
loop_
_atom_site_type_symbol
_atom_site_label
_atom_site_fract_x
_atom_site_fract_y
_atom_site_fract_z
Si Si1 0.598230 0.421732 0.501045
Si Si2 0.138499 0.153172 0.217419
Si Si3 0.147497 0.568813 0.743535
Si Si4 0.860771 0.968606 0.097753
Si Si5 0.659379 0.181965 0.043863
Si Si6 0.333171 0.994936 0.291948
Si Si7 0.639625 0.589686 0.701901
O O1 0.500000 0.357798 0.750000
O O2 0.755522 0.445278 0.303028
O O3 0.517591 0.543142 0.591566
O O4 0.623350 0.355714 0.347302
O O5 0.113359 0.293254 0.272407
O O6 0.019382 0.088585 0.328240
O O7 0.131626 0.084914 0.339696
O O8 0.292963 0.129996 0.915098
O O9 0.235900 0.513071 0.504056
O O10 0.000000 0.500000 0.000000
O O11 0.771882 0.852689 0.276716
O O12 0.776607 0.019869 0.130319
O O13 0.500000 0.158024 0.250000
O O14 0.686633 0.314549 0.041259
O O15 0.699638 0.100805 0.078428
O O16 0.500000 0.000000 0.000000
#
# Coordination Sequence:
#
# PCOD8121301 Si02
#       7
#     4   4   4   4   4   4   4
#     4   9  21  42  62  91 133 170 221 274 332 398
#     4  10  24  42  66  92 132 178 215 283 333 405
#     4  11  23  43  64  98 134 178 223 274 339 414
#     4  10  22  45  62  92 133 169 224 271 339 395
#     4  11  21  38  66  95 129 170 214 277 337 401
#     4  11  23  40  65  99 126 171 226 275 333 397
#     4  10  22  41  64  97 130 174 221 276 340 403
#
# _framework density 21.513777999999999
#
# number of rings (size 3 to 8) (size 9 to 14) (size 15 to 20)
#    0.000    1.714    1.429    2.571    2.000    4.000 
#   12.857    0.000    0.000    0.000    0.000    0.000 
#    0.000    0.000    0.000    0.000    0.000    0.000 
#
# Total GULP energy -346873.874482 kJ/mol
# GULP energy per Si atom -12388.352660 kJ/mol
# Density = 2.146481 g / cm^3
# Si number density = 21.513778 Si / 1000 Ang^3
#
#
#
# Elastic Constant Matrix: (Units=GPa)
#
#
# Indices 1 2 3 4 5 6 
#
# 1 141.6093 33.6197 44.3962 0.0000 -11.1132 0.0000
# 2 33.6197 111.3732 41.8866 0.0000 -8.3907 0.0000
# 3 44.3962 41.8866 121.0184 0.0000 -13.1155 0.0000
# 4 0.0000 0.0000 0.0000 13.0043 0.0000 -15.1758
# 5 -11.1132 -8.3907 -13.1155 0.0000 36.7225 0.0000
# 6 0.0000 0.0000 0.0000 -15.1758 0.0000 7.1467
#
#
#
# Elastic Compliance Matrix: (Units=1/GPa)
#
#
# Indices 1 2 3 4 5 6 
#
# 1 0.008265 -0.001505 -0.002369 0.000000 0.001311 0.000000
# 2 -0.001505 0.010642 -0.003034 0.000000 0.000892 0.000000
# 3 -0.002369 -0.003034 0.010434 0.000000 0.002316 0.000000
# 4 0.000000 0.000000 0.000000 -0.052027 0.000000 -0.110477
# 5 0.001311 0.000892 0.002316 0.000000 0.028659 0.000000
# 6 0.000000 0.000000 0.000000 -0.110477 0.000000 -0.094668
#
#
# Mechanical properties :
#
#
# Convention : Reuss Voigt Hill
#
# Bulk Modulus (GPa) = 64.42069 68.20068 66.31069
# Shear Modulus (GPa) = -71.73072 28.31458 -21.70807
#
# Velocity S-wave (km/s) = -5.78050 3.63176 -3.17997
# Velocity P-wave (km/s) = 3.81356 7.02538 4.17210
#
# Compressibility (1/GPa) = 0.01552296
#
# Stress axis : x y z
#
# Youngs Moduli (GPa) = 120.99833 93.97092 95.84498
#
# Poissons Ratio (x) = 0.14144 0.22704
# Poissons Ratio (y) = 0.18211 0.29083
# Poissons Ratio (z) = 0.28663 0.28514
#
# Static dielectric constant tensor:
#      x y z
#    x 4.115200 0.000000 0.056240 
#    y 0.000000 3.533110 0.000000 
#    z 0.056240 0.000000 4.183900 
# 
# 
# High freq. dielectric constant tensor:
#      x y z
#    x 1.855240 0.000000 -0.000030 
#    y 0.000000 1.822680 0.000000 
#    z -0.000030 0.000000 1.855810 
# 
# From -- ./inp_files/40767.got.cif
#   From: 2010.06.25/outbox.cif.g09.slc.cpg/sg13_21_cif.got.tgz:40767.got - 2010.06.28 04:50:58.
