data_PCOD8121208
_publ_section_title
;
Structure prediction by ZEFSAII (Michael W. Deem and Ramdas Pophale) SiO2 
 PCOD8121208
Probable space group: P 2/C
;
_chemical_formula_sum "Si O2"
_cell_formula_units_Z 20
_cell_length_a 8.139714
_cell_length_b 11.184369
_cell_length_c 11.363428
_cell_angle_alpha 90.000000
_cell_angle_beta 52.516775
_cell_angle_gamma 90.000000
_cell_volume 820.907436
_symmetry_space_group_name_H-M "P 2/C"
_symmetry_group_IT_number 13
_symmetry_cell_setting 'monoclinic'
loop_
_space_group_symop_operation_xyz
x,y,z
-x,y,1/2-z
-x,-y,-z
x,-y,1/2+z
loop_
_atom_site_type_symbol
_atom_site_label
_atom_site_fract_x
_atom_site_fract_y
_atom_site_fract_z
Si Si1 0.000000 0.053452 0.750000
Si Si2 0.049598 0.638109 0.595600
Si Si3 0.686441 0.570373 0.586497
Si Si4 0.790725 0.876717 0.010097
Si Si5 0.407555 0.811314 0.013251
Si Si6 0.500000 0.031450 0.250000
O O1 0.797282 0.138873 0.832503
O O2 0.957705 0.964949 0.877585
O O3 0.237925 0.542963 0.522868
O O4 0.095986 0.756904 0.498570
O O5 0.000000 0.677753 0.750000
O O6 0.856111 0.589281 0.611842
O O7 0.500000 0.531531 0.750000
O O8 0.635951 0.678636 0.518870
O O9 0.600559 0.823559 0.015481
O O10 0.702559 0.945762 0.162636
O O11 0.488101 0.891978 0.871526
#
# Coordination Sequence:
#
# PCOD8121208 Si02
#       6
#     2   4   4   4   4   2
#     4  10  22  40  66 100 134 174 218 266 324 390
#     4  11  26  46  69  99 131 172 220 272 330 390
#     4  11  26  46  69  99 131 172 220 272 330 390
#     4  11  24  43  68 100 135 175 221 271 327 389
#     4  11  24  43  68 100 135 175 221 271 327 389
#     4  10  22  40  66 100 134 174 218 266 324 390
#
# _framework density 24.363284
#
# number of rings (size 3 to 8) (size 9 to 14) (size 15 to 20)
#    0.000    1.200    2.000    3.600    2.800    8.000 
#    0.000   10.000    0.000    0.000    0.000    0.000 
#    0.000    0.000    0.000    0.000    0.000    0.000 
#
# Total GULP energy -247760.986812 kJ/mol
# GULP energy per Si atom -12388.049341 kJ/mol
# Density = 2.430783 g / cm^3
# Si number density = 24.363284 Si / 1000 Ang^3
#
#
#
# Elastic Constant Matrix: (Units=GPa)
#
#
# Indices 1 2 3 4 5 6 
#
# 1 47.0957 -13.0186 19.3619 0.0000 -13.5048 0.0000
# 2 -13.0186 92.0786 31.8155 0.0000 -20.7188 0.0000
# 3 19.3619 31.8155 128.0294 0.0000 -33.5241 0.0000
# 4 0.0000 0.0000 0.0000 8.3235 0.0000 -18.8713
# 5 -13.5048 -20.7188 -33.5241 0.0000 33.2709 0.0000
# 6 0.0000 0.0000 0.0000 -18.8713 0.0000 30.9253
#
#
#
# Elastic Compliance Matrix: (Units=1/GPa)
#
#
# Indices 1 2 3 4 5 6 
#
# 1 0.028575 0.008105 -0.002685 0.000000 0.013940 0.000000
# 2 0.008105 0.015135 -0.002251 0.000000 0.010446 0.000000
# 3 -0.002685 -0.002251 0.011035 0.000000 0.008627 0.000000
# 4 0.000000 0.000000 0.000000 -0.313267 0.000000 -0.191162
# 5 0.013940 0.010446 0.008627 0.000000 0.050913 0.000000
# 6 0.000000 0.000000 0.000000 -0.191162 0.000000 -0.084315
#
#
# Mechanical properties :
#
#
# Convention : Reuss Voigt Hill
#
# Bulk Modulus (GPa) = 16.37179 38.16902 27.27040
# Shear Modulus (GPa) = -17.99206 29.77358 5.89076
#
# Velocity S-wave (km/s) = -2.72047 3.49960 1.55664
# Velocity P-wave (km/s) = 1.77016 5.65953 3.80110
#
# Compressibility (1/GPa) = 0.06108069
#
# Stress axis : x y z
#
# Youngs Moduli (GPa) = 34.99569 66.07410 90.61810
#
# Poissons Ratio (x) = -0.53550 0.24333
# Poissons Ratio (y) = -0.28362 0.20402
# Poissons Ratio (z) = 0.09397 0.14876
#
# Static dielectric constant tensor:
#      x y z
#    x 4.437590 0.000000 -0.294560 
#    y 0.000000 4.796540 0.000000 
#    z -0.294560 0.000000 4.877290 
# 
# 
# High freq. dielectric constant tensor:
#      x y z
#    x 1.966510 0.000000 -0.018210 
#    y 0.000000 1.979000 0.000000 
#    z -0.018210 0.000000 1.984030 
# 
# From -- ./inp_files/29286.got.cif
#   From: 2010.06.25/outbox.cif.g09.slc.cpg/sg13_15_cif.got.tgz:29286.got - 2010.06.28 04:50:58.
