data_PCOD8121768
_publ_section_title
;
Structure prediction by ZEFSAII (Michael W. Deem and Ramdas Pophale) SiO2 
 PCOD8121768
Probable space group: P 2/C
;
_chemical_formula_sum "Si O2"
_cell_formula_units_Z 24
_cell_length_a 21.948161
_cell_length_b 7.894866
_cell_length_c 11.562364
_cell_angle_alpha 90.000000
_cell_angle_beta 34.458119
_cell_angle_gamma 90.000000
_cell_volume 1133.588174
_symmetry_space_group_name_H-M "P 2/C"
_symmetry_group_IT_number 13
_symmetry_cell_setting 'monoclinic'
loop_
_space_group_symop_operation_xyz
x,y,z
-x,y,1/2-z
-x,-y,-z
x,-y,1/2+z
loop_
_atom_site_type_symbol
_atom_site_label
_atom_site_fract_x
_atom_site_fract_y
_atom_site_fract_z
Si Si1 0.623074 0.095809 0.024472
Si Si2 0.200748 0.863928 0.061817
Si Si3 0.729288 0.612500 0.233057
Si Si4 0.162316 0.239326 0.141619
Si Si5 0.726383 0.249741 0.292834
Si Si6 0.941695 0.666257 0.046928
O O1 0.500000 0.108860 0.250000
O O2 0.692851 0.151835 0.025613
O O3 0.648597 0.231669 0.883882
O O4 0.643723 0.903876 0.946311
O O5 0.096099 0.788925 0.289770
O O6 0.190705 0.058968 0.044873
O O7 0.209604 0.771116 0.926270
O O8 0.670662 0.435216 0.360958
O O9 0.839435 0.624638 0.130852
O O10 0.766810 0.621284 0.039583
O O11 0.188879 0.257647 0.235477
O O12 0.033676 0.246429 0.325865
O O13 0.000000 0.500000 0.000000
#
# Coordination Sequence:
#
# PCOD8121768 Si02
#       6
#     4   4   4   4   4   4
#     4  10  24  46  68  92 124 166 215 271 326 373
#     4  10  23  41  64  92 132 167 217 264 309 380
#     4  11  23  42  66  93 132 166 214 265 311 379
#     4  11  22  41  62  95 133 174 210 252 321 378
#     4  11  23  42  66  93 129 167 211 265 316 376
#     4  11  21  39  62  95 130 175 212 254 309 377
#
# _framework density 21.171711999999999
#
# number of rings (size 3 to 8) (size 9 to 14) (size 15 to 20)
#    0.000    1.333    3.333    2.000    2.333    2.000 
#    3.000    0.833    0.000    0.000    0.000    0.000 
#    0.000    0.000    0.000    0.000    0.000    0.000 
#
# Total GULP energy -297454.305033 kJ/mol
# GULP energy per Si atom -12393.929376 kJ/mol
# Density = 2.112352 g / cm^3
# Si number density = 21.171712 Si / 1000 Ang^3
#
#
#
# Elastic Constant Matrix: (Units=GPa)
#
#
# Indices 1 2 3 4 5 6 
#
# 1 49.1700 36.4175 44.5631 0.0000 15.8710 0.0000
# 2 36.4175 141.1553 59.1323 0.0000 1.9341 0.0000
# 3 44.5631 59.1323 146.6251 0.0000 -3.0328 0.0000
# 4 0.0000 0.0000 0.0000 29.9016 0.0000 5.9423
# 5 15.8710 1.9341 -3.0328 0.0000 36.4750 0.0000
# 6 0.0000 0.0000 0.0000 5.9423 0.0000 23.8559
#
#
#
# Elastic Compliance Matrix: (Units=1/GPa)
#
#
# Indices 1 2 3 4 5 6 
#
# 1 0.039346 -0.005712 -0.010020 0.000000 -0.017651 0.000000
# 2 -0.005712 0.009374 -0.002007 0.000000 0.001821 0.000000
# 3 -0.010020 -0.002007 0.010786 0.000000 0.005363 0.000000
# 4 0.000000 0.000000 0.000000 0.035185 0.000000 -0.008764
# 5 -0.017651 0.001821 0.005363 0.000000 0.035446 0.000000
# 6 0.000000 0.000000 0.000000 -0.008764 0.000000 0.044102
#
#
# Mechanical properties :
#
#
# Convention : Reuss Voigt Hill
#
# Bulk Modulus (GPa) = 41.61663 68.57513 55.09588
# Shear Modulus (GPa) = 22.96485 31.16901 27.06693
#
# Velocity S-wave (km/s) = 3.29704 3.84109 3.57942
# Velocity P-wave (km/s) = 5.84751 7.22027 6.56984
#
# Compressibility (1/GPa) = 0.02402886
#
# Stress axis : x y z
#
# Youngs Moduli (GPa) = 25.41525 106.68148 92.71597
#
# Poissons Ratio (x) = 0.60935 0.92901
# Poissons Ratio (y) = 0.14517 0.18605
# Poissons Ratio (z) = 0.25466 0.21407
#
# Static dielectric constant tensor:
#      x y z
#    x 2.522900 0.000000 2.003040 
#    y 0.000000 4.384160 0.000000 
#    z 2.003040 0.000000 0.918280 
# 
# 
# High freq. dielectric constant tensor:
#      x y z
#    x 1.813530 0.000000 0.022220 
#    y 0.000000 1.851500 0.000000 
#    z 0.022220 0.000000 1.821820 
# 
# From -- ./inp_files/41544.got.cif
#   From: 2010.06.25/outbox.cif.g09.slc.cpg/sg13_21_cif.got.tgz:41544.got - 2010.06.28 04:50:58.
