data_PCOD8121612
_publ_section_title
;
Structure prediction by ZEFSAII (Michael W. Deem and Ramdas Pophale) SiO2 
 PCOD8121612
Probable space group: P 2/C
;
_chemical_formula_sum "Si O2"
_cell_formula_units_Z 20
_cell_length_a 8.997870
_cell_length_b 4.981624
_cell_length_c 17.918094
_cell_angle_alpha 90.000000
_cell_angle_beta 73.988338
_cell_angle_gamma 90.000000
_cell_volume 772.002577
_symmetry_space_group_name_H-M "P 2/C"
_symmetry_group_IT_number 13
_symmetry_cell_setting 'monoclinic'
loop_
_space_group_symop_operation_xyz
x,y,z
-x,y,1/2-z
-x,-y,-z
x,-y,1/2+z
loop_
_atom_site_type_symbol
_atom_site_label
_atom_site_fract_x
_atom_site_fract_y
_atom_site_fract_z
Si Si1 0.066377 0.600603 0.394224
Si Si2 0.282944 0.268617 0.548789
Si Si3 0.698256 0.257443 0.358060
Si Si4 0.500000 0.153843 0.250000
Si Si5 0.000000 0.494628 0.250000
Si Si6 0.744067 0.077025 0.101412
O O1 0.075989 0.678447 0.304351
O O2 0.130801 0.298679 0.391573
O O3 0.893025 0.644549 0.447845
O O4 0.169570 0.800807 0.429175
O O5 0.363179 0.536362 0.569698
O O6 0.351832 0.166366 0.459832
O O7 0.302640 0.044554 0.610333
O O8 0.592511 0.319694 0.300219
O O9 0.875184 0.315740 0.311412
O O10 0.626679 0.992711 0.184231
#
# Coordination Sequence:
#
# PCOD8121612 Si02
#       6
#     4   4   4   2   2   4
#     4  11  23  41  75 103 138 178 231 297 339 398
#     4  11  25  45  74 102 137 184 234 288 346 401
#     4  11  26  45  72 103 141 184 229 285 346 412
#     4  12  30  46  70 104 144 190 224 284 352 416
#     4  10  22  44  72 106 136 176 238 290 338 404
#     4  12  26  45  69 105 144 180 232 284 347 419
#
# _framework density 25.906648000000001
#
# number of rings (size 3 to 8) (size 9 to 14) (size 15 to 20)
#    0.000    0.800    2.000    4.800    5.600    6.400 
#    0.000    0.000    0.000    0.000    0.000    0.000 
#    0.000    0.000    0.000    0.000    0.000    0.000 
#
# Total GULP energy -247832.247570 kJ/mol
# GULP energy per Si atom -12391.612379 kJ/mol
# Density = 2.584768 g / cm^3
# Si number density = 25.906648 Si / 1000 Ang^3
#
#
#
# Elastic Constant Matrix: (Units=GPa)
#
#
# Indices 1 2 3 4 5 6 
#
# 1 81.0453 19.2847 14.1912 0.0000 23.0848 0.0000
# 2 19.2847 85.8705 -12.5235 0.0000 -6.9270 0.0000
# 3 14.1912 -12.5235 122.5825 0.0000 8.0239 0.0000
# 4 0.0000 0.0000 0.0000 31.4710 0.0000 10.5941
# 5 23.0848 -6.9270 8.0239 0.0000 29.8926 0.0000
# 6 0.0000 0.0000 0.0000 10.5941 0.0000 16.0260
#
#
#
# Elastic Compliance Matrix: (Units=1/GPa)
#
#
# Indices 1 2 3 4 5 6 
#
# 1 0.018189 -0.005532 -0.001697 0.000000 -0.014873 0.000000
# 2 -0.005532 0.013684 0.001579 0.000000 0.007019 0.000000
# 3 -0.001697 0.001579 0.008556 0.000000 -0.000620 0.000000
# 4 0.000000 0.000000 0.000000 0.040870 0.000000 -0.027018
# 5 -0.014873 0.007019 -0.000620 0.000000 0.046732 0.000000
# 6 0.000000 0.000000 0.000000 -0.027018 0.000000 0.080259
#
#
# Mechanical properties :
#
#
# Convention : Reuss Voigt Hill
#
# Bulk Modulus (GPa) = 34.33078 36.82258 35.57668
# Shear Modulus (GPa) = 21.80548 33.38098 27.59323
#
# Velocity S-wave (km/s) = 2.90434 3.59348 3.26713
# Velocity P-wave (km/s) = 4.95252 5.60909 5.29100
#
# Compressibility (1/GPa) = 0.02912838
#
# Stress axis : x y z
#
# Youngs Moduli (GPa) = 54.97941 73.07619 116.87475
#
# Poissons Ratio (x) = 0.40426 0.19837
# Poissons Ratio (y) = 0.30415 -0.18455
# Poissons Ratio (z) = 0.09332 -0.11539
#
# Static dielectric constant tensor:
#      x y z
#    x 4.759630 0.000000 0.196640 
#    y 0.000000 4.225760 0.000000 
#    z 0.196640 0.000000 5.135280 
# 
# 
# High freq. dielectric constant tensor:
#      x y z
#    x 2.039430 0.000000 0.013330 
#    y 0.000000 2.008170 0.000000 
#    z 0.013330 0.000000 2.063640 
# 
# From -- ./inp_files/62135.got.cif
#   From: 2010.06.25/outbox.cif.g09.slc.cpg/sg13_32_cif.got.tgz:62135.got - 2010.06.28 04:50:58.
