data_PCOD8121593
_publ_section_title
;
Structure prediction by ZEFSAII (Michael W. Deem and Ramdas Pophale) SiO2 
 PCOD8121593
Probable space group: P 2/C
;
_chemical_formula_sum "Si O2"
_cell_formula_units_Z 18
_cell_length_a 19.487632
_cell_length_b 6.039577
_cell_length_c 12.270639
_cell_angle_alpha 90.000000
_cell_angle_beta 147.507068
_cell_angle_gamma 90.000000
_cell_volume 775.827535
_symmetry_space_group_name_H-M "P 2/C"
_symmetry_group_IT_number 13
_symmetry_cell_setting 'monoclinic'
loop_
_space_group_symop_operation_xyz
x,y,z
-x,y,1/2-z
-x,-y,-z
x,-y,1/2+z
loop_
_atom_site_type_symbol
_atom_site_label
_atom_site_fract_x
_atom_site_fract_y
_atom_site_fract_z
Si Si1 0.212294 0.875667 0.522005
Si Si2 0.663185 0.564819 0.632292
Si Si3 0.421550 0.184883 0.836208
Si Si4 0.000000 0.178878 0.250000
Si Si5 0.881526 0.493024 0.760215
O O1 0.273624 0.708559 0.688449
O O2 0.146234 0.745327 0.332707
O O3 0.319228 0.054551 0.622475
O O4 0.104596 0.014617 0.443849
O O5 0.652133 0.320841 0.668214
O O6 0.522227 0.655473 0.407940
O O7 0.750762 0.563435 0.643290
O O8 0.500000 0.000000 0.000000
O O9 0.082568 0.325919 0.280020
O O10 0.000000 0.500000 0.000000
#
# Coordination Sequence:
#
# PCOD8121593 Si02
#       5
#     4   4   4   2   4
#     4  11  23  42  66  95 130 171 221 274 329 397
#     4  10  22  44  68  96 133 172 217 272 333 398
#     4   9  20  42  68  94 129 168 212 270 329 392
#     4  12  26  44  64  92 128 168 220 274 328 394
#     4  12  25  42  66  96 133 176 222 274 332 400
#
# _framework density 23.201031
#
# number of rings (size 3 to 8) (size 9 to 14) (size 15 to 20)
#    0.000    1.333    0.000    6.000    0.000    7.111 
#    0.000   26.667    0.000    0.000    0.000    0.000 
#    0.000    0.000    0.000    0.000    0.000    0.000 
#
# Total GULP energy -222985.730444 kJ/mol
# GULP energy per Si atom -12388.096136 kJ/mol
# Density = 2.314822 g / cm^3
# Si number density = 23.201031 Si / 1000 Ang^3
#
#
#
# Elastic Constant Matrix: (Units=GPa)
#
#
# Indices 1 2 3 4 5 6 
#
# 1 144.2282 61.0380 49.5895 0.0000 34.9901 0.0000
# 2 61.0380 152.7647 84.8063 0.0000 13.2495 0.0000
# 3 49.5895 84.8063 138.2980 0.0000 20.4745 0.0000
# 4 0.0000 0.0000 0.0000 60.0220 0.0000 22.9364
# 5 34.9901 13.2495 20.4745 0.0000 37.7822 0.0000
# 6 0.0000 0.0000 0.0000 22.9364 0.0000 14.1997
#
#
#
# Elastic Compliance Matrix: (Units=1/GPa)
#
#
# Indices 1 2 3 4 5 6 
#
# 1 0.010474 -0.003127 -0.000614 0.000000 -0.008271 0.000000
# 2 -0.003127 0.010859 -0.005874 0.000000 0.002271 0.000000
# 3 -0.000614 -0.005874 0.011594 0.000000 -0.003655 0.000000
# 4 0.000000 0.000000 0.000000 0.043529 0.000000 -0.070311
# 5 -0.008271 0.002271 -0.003655 0.000000 0.035312 0.000000
# 6 0.000000 0.000000 0.000000 -0.070311 0.000000 0.183995
#
#
# Mechanical properties :
#
#
# Convention : Reuss Voigt Hill
#
# Bulk Modulus (GPa) = 73.00304 91.79539 82.39921
# Shear Modulus (GPa) = 15.64657 38.39124 27.01891
#
# Velocity S-wave (km/s) = 2.59972 4.07224 3.41626
# Velocity P-wave (km/s) = 6.36751 7.85888 7.15217
#
# Compressibility (1/GPa) = 0.01369806
#
# Stress axis : x y z
#
# Youngs Moduli (GPa) = 95.47018 92.08565 86.25171
#
# Poissons Ratio (x) = 0.28796 0.05294
# Poissons Ratio (y) = 0.29854 0.50665
# Poissons Ratio (z) = 0.05860 0.54092
#
# Static dielectric constant tensor:
#      x y z
#    x 3.951780 0.000000 0.635780 
#    y 0.000000 4.964520 0.000000 
#    z 0.635780 0.000000 4.852140 
# 
# 
# High freq. dielectric constant tensor:
#      x y z
#    x 1.880130 0.000000 0.034770 
#    y 0.000000 1.944360 0.000000 
#    z 0.034770 0.000000 1.941840 
# 
# From -- ./inp_files/41368.got.cif
#   From: 2010.06.25/outbox.cif.g09.slc.cpg/sg13_21_cif.got.tgz:41368.got - 2010.06.28 04:50:58.
