data_PCOD8121826
_publ_section_title
;
Structure prediction by ZEFSAII (Michael W. Deem and Ramdas Pophale) SiO2 
 PCOD8121826
Probable space group: P 2/C
;
_chemical_formula_sum "Si O2"
_cell_formula_units_Z 18
_cell_length_a 7.629217
_cell_length_b 6.678067
_cell_length_c 18.131659
_cell_angle_alpha 90.000000
_cell_angle_beta 118.762150
_cell_angle_gamma 90.000000
_cell_volume 809.807892
_symmetry_space_group_name_H-M "P 2/C"
_symmetry_group_IT_number 13
_symmetry_cell_setting 'monoclinic'
loop_
_space_group_symop_operation_xyz
x,y,z
-x,y,1/2-z
-x,-y,-z
x,-y,1/2+z
loop_
_atom_site_type_symbol
_atom_site_label
_atom_site_fract_x
_atom_site_fract_y
_atom_site_fract_z
Si Si1 0.730338 0.163880 0.270882
Si Si2 0.703047 0.540006 0.477624
Si Si3 0.000000 0.833804 0.250000
Si Si4 0.072383 0.785376 0.536018
Si Si5 0.712807 0.494768 0.644738
O O1 0.500000 0.124013 0.250000
O O2 0.864375 0.233797 0.366142
O O3 0.753557 0.340507 0.215702
O O4 0.835688 0.963168 0.261016
O O5 0.743986 0.299363 0.476151
O O6 0.692856 0.604004 0.561228
O O7 0.507632 0.601895 0.390626
O O8 0.881622 0.654657 0.475289
O O9 0.875079 0.682402 0.172655
O O10 0.000000 0.000000 0.500000
#
# Coordination Sequence:
#
# PCOD8121826 Si02
#       5
#     4   4   2   4   4
#     4  12  26  46  69 105 142 182 234 295 344 409
#     4  10  23  42  69  96 131 183 226 280 356 411
#     4  12  26  42  70 100 136 184 236 282 348 414
#     4  11  23  42  67 101 137 176 229 286 341 415
#     4  11  24  46  68  96 139 182 229 288 347 417
#
# _framework density 22.227492999999999
#
# number of rings (size 3 to 8) (size 9 to 14) (size 15 to 20)
#    0.000    0.889    2.222    4.667    3.111    2.667 
#    0.000    5.556    0.000    0.000    0.000    0.000 
#    0.000    0.000    0.000    0.000    0.000    0.000 
#
# Total GULP energy -223008.653996 kJ/mol
# GULP energy per Si atom -12389.369666 kJ/mol
# Density = 2.217690 g / cm^3
# Si number density = 22.227493 Si / 1000 Ang^3
#
#
#
# Elastic Constant Matrix: (Units=GPa)
#
#
# Indices 1 2 3 4 5 6 
#
# 1 100.9570 58.5906 29.9309 0.0000 17.3779 0.0000
# 2 58.5906 120.0771 54.3124 0.0000 11.0875 0.0000
# 3 29.9309 54.3124 142.6406 0.0000 8.9925 0.0000
# 4 0.0000 0.0000 0.0000 26.4503 0.0000 4.3189
# 5 17.3779 11.0875 8.9925 0.0000 45.0624 0.0000
# 6 0.0000 0.0000 0.0000 4.3189 0.0000 43.1065
#
#
#
# Elastic Compliance Matrix: (Units=1/GPa)
#
#
# Indices 1 2 3 4 5 6 
#
# 1 0.014478 -0.006573 -0.000289 0.000000 -0.003909 0.000000
# 2 -0.006573 0.013180 -0.003640 0.000000 0.000018 0.000000
# 3 -0.000289 -0.003640 0.008501 0.000000 -0.000689 0.000000
# 4 0.000000 0.000000 0.000000 0.038435 0.000000 -0.003851
# 5 -0.003909 0.000018 -0.000689 0.000000 0.023832 0.000000
# 6 0.000000 0.000000 0.000000 -0.003851 0.000000 0.023584
#
#
# Mechanical properties :
#
#
# Convention : Reuss Voigt Hill
#
# Bulk Modulus (GPa) = 65.98637 72.14917 69.06777
# Shear Modulus (GPa) = 33.76853 37.64656 35.70755
#
# Velocity S-wave (km/s) = 3.90195 4.11992 4.01241
# Velocity P-wave (km/s) = 7.07471 7.42708 7.25304
#
# Compressibility (1/GPa) = 0.01515464
#
# Stress axis : x y z
#
# Youngs Moduli (GPa) = 69.06901 75.87181 117.63538
#
# Poissons Ratio (x) = 0.49870 0.03398
# Poissons Ratio (y) = 0.45399 0.42824
# Poissons Ratio (z) = 0.01995 0.27621
#
# Static dielectric constant tensor:
#      x y z
#    x 4.240070 0.000000 0.587200 
#    y 0.000000 1.623180 0.000000 
#    z 0.587200 0.000000 3.993730 
# 
# 
# High freq. dielectric constant tensor:
#      x y z
#    x 1.889260 0.000000 0.019810 
#    y 0.000000 1.862840 0.000000 
#    z 0.019810 0.000000 1.890800 
# 
# From -- ./inp_files/62256.got.cif
#   From: 2010.06.25/outbox.cif.g09.slc.cpg/sg13_32_cif.got.tgz:62256.got - 2010.06.28 04:50:58.
