data_PCOD8121905
_publ_section_title
;
Structure prediction by ZEFSAII (Michael W. Deem and Ramdas Pophale) SiO2 
 PCOD8121905
Probable space group: P 2/C
;
_chemical_formula_sum "Si O2"
_cell_formula_units_Z 18
_cell_length_a 7.455103
_cell_length_b 12.866095
_cell_length_c 7.771007
_cell_angle_alpha 90.000000
_cell_angle_beta 85.301098
_cell_angle_gamma 90.000000
_cell_volume 742.874688
_symmetry_space_group_name_H-M "P 2/C"
_symmetry_group_IT_number 13
_symmetry_cell_setting 'monoclinic'
loop_
_space_group_symop_operation_xyz
x,y,z
-x,y,1/2-z
-x,-y,-z
x,-y,1/2+z
loop_
_atom_site_type_symbol
_atom_site_label
_atom_site_fract_x
_atom_site_fract_y
_atom_site_fract_z
Si Si1 0.063730 0.613044 0.553557
Si Si2 0.384952 0.253791 0.085741
Si Si3 0.317261 0.131357 0.622805
Si Si4 0.000000 0.251900 0.750000
Si Si5 0.799365 0.070631 0.236826
O O1 0.280306 0.640531 0.531307
O O2 0.959847 0.683212 0.424990
O O3 0.000000 0.637622 0.750000
O O4 0.000000 0.500000 0.500000
O O5 0.500000 0.277778 0.250000
O O6 0.232535 0.168910 0.137541
O O7 0.505188 0.202057 0.922585
O O8 0.216115 0.109371 0.454472
O O9 0.182557 0.188281 0.765149
O O10 0.350130 0.018561 0.708863
O O11 0.000000 0.026648 0.250000
#
# Coordination Sequence:
#
# PCOD8121905 Si02
#       5
#     4   4   4   2   4
#     4  12  26  52  82 104 140 192 252 318 384 451
#     4  10  23  44  71 108 155 196 245 311 374 440
#     4  11  24  40  65 108 152 199 249 294 362 439
#     4  12  26  48  76 108 146 202 256 302 378 448
#     4  11  21  39  66 104 153 207 244 288 359 450
#
# _framework density 24.230197
#
# number of rings (size 3 to 8) (size 9 to 14) (size 15 to 20)
#    0.000    0.889    2.222    6.000    3.111    0.889 
#    0.000    4.444    0.000    0.000    0.000    0.000 
#    0.000    0.000    0.000    0.000    0.000    0.000 
#
# Total GULP energy -223077.337626 kJ/mol
# GULP energy per Si atom -12393.185424 kJ/mol
# Density = 2.417505 g / cm^3
# Si number density = 24.230197 Si / 1000 Ang^3
#
#
#
# Elastic Constant Matrix: (Units=GPa)
#
#
# Indices 1 2 3 4 5 6 
#
# 1 150.2303 66.1835 28.1394 0.0000 -8.8127 0.0000
# 2 66.1835 141.8531 46.7687 0.0000 -3.8412 0.0000
# 3 28.1394 46.7687 112.2466 0.0000 -15.5952 0.0000
# 4 0.0000 0.0000 0.0000 14.9252 0.0000 -44.1445
# 5 -8.8127 -3.8412 -15.5952 0.0000 31.5617 0.0000
# 6 0.0000 0.0000 0.0000 -44.1445 0.0000 -46.3043
#
#
#
# Elastic Compliance Matrix: (Units=1/GPa)
#
#
# Indices 1 2 3 4 5 6 
#
# 1 0.008498 -0.003820 -0.000294 0.000000 0.001763 0.000000
# 2 -0.003820 0.009906 -0.003383 0.000000 -0.001533 0.000000
# 3 -0.000294 -0.003383 0.011084 0.000000 0.004983 0.000000
# 4 0.000000 0.000000 0.000000 0.017541 0.000000 -0.016722
# 5 0.001763 -0.001533 0.004983 0.000000 0.034452 0.000000
# 6 0.000000 0.000000 0.000000 -0.016722 0.000000 -0.005654
#
#
# Mechanical properties :
#
#
# Convention : Reuss Voigt Hill
#
# Bulk Modulus (GPa) = 68.98966 76.27924 72.63445
# Shear Modulus (GPa) = 52.27335 17.58575 34.92955
#
# Velocity S-wave (km/s) = 4.64978 2.69695 3.80092
# Velocity P-wave (km/s) = 7.57375 6.42242 7.02172
#
# Compressibility (1/GPa) = 0.01449493
#
# Stress axis : x y z
#
# Youngs Moduli (GPa) = 117.67684 100.95269 90.21763
#
# Poissons Ratio (x) = 0.38566 0.02650
# Poissons Ratio (y) = 0.44955 0.30516
# Poissons Ratio (z) = 0.03456 0.34147
#
# Static dielectric constant tensor:
#      x y z
#    x 4.279810 0.000000 -0.052560 
#    y 0.000000 4.311090 0.000000 
#    z -0.052560 0.000000 4.572040 
# 
# 
# High freq. dielectric constant tensor:
#      x y z
#    x 1.963910 0.000000 0.008610 
#    y 0.000000 1.941740 0.000000 
#    z 0.008610 0.000000 1.987990 
# 
# From -- ./inp_files/11234.got.cif
#   From: 2010.06.25/outbox.cif.g09.slc.cpg/sg13_6_cif.got.tgz:11234.got - 2010.06.28 04:50:58.
