data_PCOD8121106
_publ_section_title
;
Structure prediction by ZEFSAII (Michael W. Deem and Ramdas Pophale) SiO2 
 PCOD8121106
Probable space group: P 2/C
;
_chemical_formula_sum "Si O2"
_cell_formula_units_Z 30
_cell_length_a 14.698601
_cell_length_b 15.726130
_cell_length_c 18.061903
_cell_angle_alpha 90.000000
_cell_angle_beta 159.316070
_cell_angle_gamma 90.000000
_cell_volume 1474.678626
_symmetry_space_group_name_H-M "P 2/C"
_symmetry_group_IT_number 13
_symmetry_cell_setting 'monoclinic'
loop_
_space_group_symop_operation_xyz
x,y,z
-x,y,1/2-z
-x,-y,-z
x,-y,1/2+z
loop_
_atom_site_type_symbol
_atom_site_label
_atom_site_fract_x
_atom_site_fract_y
_atom_site_fract_z
Si Si1 0.057303 0.831742 0.067039
Si Si2 0.691550 0.764744 0.097088
Si Si3 0.788528 0.469804 0.283132
Si Si4 0.765458 0.574788 0.121653
Si Si5 0.501053 0.110980 0.166866
Si Si6 0.000000 0.802555 0.750000
Si Si7 0.122483 0.282835 0.195662
Si Si8 0.468893 0.915918 0.141599
O O1 0.112629 0.797193 0.191256
O O2 0.271024 0.898627 0.204870
O O3 0.793591 0.883936 0.861805
O O4 0.040271 0.752163 0.997903
O O5 0.789018 0.676225 0.137905
O O6 0.687353 0.831209 0.026035
O O7 0.409048 0.755023 0.916795
O O8 0.776855 0.544688 0.214723
O O9 0.872022 0.384167 0.305111
O O10 0.000000 0.500000 0.500000
O O11 0.517774 0.456412 0.121730
O O12 0.000000 0.537745 0.250000
O O13 0.500000 0.144756 0.250000
O O14 0.398698 0.015063 0.082702
O O15 0.982268 0.742712 0.664745
O O16 0.752927 0.862673 0.566776
O O17 0.500000 0.887355 0.250000
#
# Coordination Sequence:
#
# PCOD8121106 Si02
#       8
#     4   4   4   4   4   2   4   4
#     4  11  21  40  63  89 124 167 208 257 320 366
#     4  10  22  41  63  90 125 165 209 258 316 365
#     4  10  22  44  65  96 130 163 206 261 317 379
#     4  10  23  41  65  94 129 165 209 256 310 382
#     4  10  25  40  59  91 123 165 218 265 306 381
#     4  12  22  40  64  90 128 166 212 260 318 368
#     4  10  22  39  64  95 123 163 209 255 312 387
#     4  11  23  41  61  90 128 164 212 263 316 375
#
# _framework density 20.343415
#
# number of rings (size 3 to 8) (size 9 to 14) (size 15 to 20)
#    0.000    1.600    2.667    1.200    2.800    3.200 
#    0.000    1.333    0.000    0.000    0.000    0.000 
#    0.000    0.000    0.000    0.000    0.000    0.000 
#
# Total GULP energy -372097.410104 kJ/mol
# GULP energy per Si atom -12403.247003 kJ/mol
# Density = 2.029711 g / cm^3
# Si number density = 20.343415 Si / 1000 Ang^3
#
#
#
# Elastic Constant Matrix: (Units=GPa)
#
#
# Indices 1 2 3 4 5 6 
#
# 1 104.7748 35.1453 47.7075 0.0000 2.0446 0.0000
# 2 35.1453 89.9741 52.6730 0.0000 -0.7626 0.0000
# 3 47.7075 52.6730 102.1490 0.0000 -16.4972 0.0000
# 4 0.0000 0.0000 0.0000 26.6100 0.0000 -2.6609
# 5 2.0446 -0.7626 -16.4972 0.0000 33.4126 0.0000
# 6 0.0000 0.0000 0.0000 -2.6609 0.0000 25.0883
#
#
#
# Elastic Compliance Matrix: (Units=1/GPa)
#
#
# Indices 1 2 3 4 5 6 
#
# 1 0.012767 -0.001697 -0.005672 0.000000 -0.003621 0.000000
# 2 -0.001697 0.016656 -0.008387 0.000000 -0.003657 0.000000
# 3 -0.005672 -0.008387 0.018243 0.000000 0.009163 0.000000
# 4 0.000000 0.000000 0.000000 0.037983 0.000000 0.004028
# 5 -0.003621 -0.003657 0.009163 0.000000 0.034591 0.000000
# 6 0.000000 0.000000 0.000000 0.004028 0.000000 0.040286
#
#
# Mechanical properties :
#
#
# Convention : Reuss Voigt Hill
#
# Bulk Modulus (GPa) = 61.90333 63.10549 62.50441
# Shear Modulus (GPa) = 25.32631 27.78032 26.55331
#
# Velocity S-wave (km/s) = 3.53220 3.69937 3.61675
# Velocity P-wave (km/s) = 6.86516 7.02386 6.94496
#
# Compressibility (1/GPa) = 0.01615422
#
# Stress axis : x y z
#
# Youngs Moduli (GPa) = 78.32709 60.03878 54.81472
#
# Poissons Ratio (x) = 0.10188 0.31093
# Poissons Ratio (y) = 0.13291 0.45971
# Poissons Ratio (z) = 0.44430 0.50352
#
# Static dielectric constant tensor:
#      x y z
#    x 3.591610 0.000000 0.025210 
#    y 0.000000 3.681690 0.000000 
#    z 0.025210 0.000000 3.788600 
# 
# 
# High freq. dielectric constant tensor:
#      x y z
#    x 1.793530 0.000000 0.001880 
#    y 0.000000 1.796040 0.000000 
#    z 0.001880 0.000000 1.801270 
# 
# From -- ./inp_files/68799.got.cif
#   From: 2010.06.25/outbox.cif.g09.slc.cpg/sg13_35_cif.got.tgz:68799.got - 2010.06.28 04:50:58.
