data_PCOD8121194
_publ_section_title
;
Structure prediction by ZEFSAII (Michael W. Deem and Ramdas Pophale) SiO2 
 PCOD8121194
Probable space group: P 2/C
;
_chemical_formula_sum "Si O2"
_cell_formula_units_Z 26
_cell_length_a 16.508559
_cell_length_b 9.044291
_cell_length_c 13.692292
_cell_angle_alpha 90.000000
_cell_angle_beta 141.197737
_cell_angle_gamma 90.000000
_cell_volume 1281.073983
_symmetry_space_group_name_H-M "P 2/C"
_symmetry_group_IT_number 13
_symmetry_cell_setting 'monoclinic'
loop_
_space_group_symop_operation_xyz
x,y,z
-x,y,1/2-z
-x,-y,-z
x,-y,1/2+z
loop_
_atom_site_type_symbol
_atom_site_label
_atom_site_fract_x
_atom_site_fract_y
_atom_site_fract_z
Si Si1 0.500000 0.737129 0.750000
Si Si2 0.000000 0.056622 0.750000
Si Si3 0.574118 0.025318 0.471255
Si Si4 0.629409 0.729817 0.410314
Si Si5 0.000000 0.560548 0.750000
Si Si6 0.825162 0.816874 0.248902
Si Si7 0.872626 0.801221 0.515846
Si Si8 0.266093 0.439144 0.948306
O O1 0.501046 0.844085 0.656477
O O2 0.368249 0.638550 0.619724
O O3 0.931602 0.161685 0.764812
O O4 0.900038 0.953971 0.597442
O O5 0.721431 0.055446 0.637157
O O6 0.500000 0.000000 0.500000
O O7 0.580740 0.876819 0.415819
O O8 0.500000 0.652270 0.250000
O O9 0.728693 0.756146 0.414347
O O10 0.688974 0.605230 0.538859
O O11 0.022188 0.673089 0.862134
O O12 0.123933 0.454531 0.861623
O O13 0.884717 0.826853 0.411928
O O14 0.752232 0.659220 0.165971
#
# Coordination Sequence:
#
# PCOD8121194 Si02
#       8
#     2   2   4   4   2   4   4   4
#     4  10  22  42  64  94 132 160 220 268 314 384
#     4  11  21  42  64  92 134 164 212 276 322 372
#     4  11  23  40  64  95 126 168 216 268 321 382
#     4  11  20  41  65  86 132 174 210 261 326 381
#     4   9  21  42  68  84 134 170 210 262 322 390
#     4  11  23  38  64  97 127 163 221 268 319 381
#     4  10  22  40  64  96 124 171 218 261 319 392
#     4  10  22  41  61  95 129 170 209 265 323 376
#
# _framework density 20.295472
#
# number of rings (size 3 to 8) (size 9 to 14) (size 15 to 20)
#    0.000    1.538    3.077    1.846    0.000    0.615 
#    5.538    3.846    0.000    0.000    0.000    0.000 
#    0.000    0.000    0.000    0.000    0.000    0.000 
#
# Total GULP energy -322179.413766 kJ/mol
# GULP energy per Si atom -12391.515914 kJ/mol
# Density = 2.024928 g / cm^3
# Si number density = 20.295472 Si / 1000 Ang^3
#
#
#
# Elastic Constant Matrix: (Units=GPa)
#
#
# Indices 1 2 3 4 5 6 
#
# 1 125.3723 37.0077 52.4603 0.0000 -3.4125 0.0000
# 2 37.0077 96.8063 39.2562 0.0000 3.2851 0.0000
# 3 52.4603 39.2562 123.7633 0.0000 0.4553 0.0000
# 4 0.0000 0.0000 0.0000 27.5069 0.0000 7.1394
# 5 -3.4125 3.2851 0.4553 0.0000 40.6481 0.0000
# 6 0.0000 0.0000 0.0000 7.1394 0.0000 20.7836
#
#
#
# Elastic Compliance Matrix: (Units=1/GPa)
#
#
# Indices 1 2 3 4 5 6 
#
# 1 0.010230 -0.002511 -0.003544 0.000000 0.001102 0.000000
# 2 -0.002511 0.012505 -0.002898 0.000000 -0.001189 0.000000
# 3 -0.003544 -0.002898 0.010502 0.000000 -0.000181 0.000000
# 4 0.000000 0.000000 0.000000 0.039913 0.000000 -0.013711
# 5 0.001102 -0.001189 -0.000181 0.000000 0.024792 0.000000
# 6 0.000000 0.000000 0.000000 -0.013711 0.000000 0.052825
#
#
# Mechanical properties :
#
#
# Convention : Reuss Voigt Hill
#
# Bulk Modulus (GPa) = 65.22353 67.04338 66.13346
# Shear Modulus (GPa) = 28.77140 32.26891 30.52015
#
# Velocity S-wave (km/s) = 3.76922 3.99175 3.88208
# Velocity P-wave (km/s) = 7.15189 7.37230 7.26293
#
# Compressibility (1/GPa) = 0.01533189
#
# Stress axis : x y z
#
# Youngs Moduli (GPa) = 97.74786 79.96598 95.22070
#
# Poissons Ratio (x) = 0.20081 0.33746
# Poissons Ratio (y) = 0.24546 0.27592
# Poissons Ratio (z) = 0.34641 0.23172
#
# Static dielectric constant tensor:
#      x y z
#    x 3.440950 0.000000 0.273040 
#    y 0.000000 3.964510 0.000000 
#    z 0.273040 0.000000 4.067730 
# 
# 
# High freq. dielectric constant tensor:
#      x y z
#    x 1.761010 0.000000 0.015600 
#    y 0.000000 1.811770 0.000000 
#    z 0.015600 0.000000 1.807640 
# 
# From -- ./inp_files/53406.got.cif
#   From: 2010.06.25/outbox.cif.g09.slc.cpg/sg13_27_cif.got.tgz:53406.got - 2010.06.28 04:50:58.
