data_PCOD8121000
_publ_section_title
;
Structure prediction by ZEFSAII (Michael W. Deem and Ramdas Pophale) SiO2 
 PCOD8121000
Probable space group: P 2/C
;
_chemical_formula_sum "Si O2"
_cell_formula_units_Z 30
_cell_length_a 18.191653
_cell_length_b 11.177306
_cell_length_c 11.928289
_cell_angle_alpha 90.000000
_cell_angle_beta 37.642759
_cell_angle_gamma 90.000000
_cell_volume 1481.293673
_symmetry_space_group_name_H-M "P 2/C"
_symmetry_group_IT_number 13
_symmetry_cell_setting 'monoclinic'
loop_
_space_group_symop_operation_xyz
x,y,z
-x,y,1/2-z
-x,-y,-z
x,-y,1/2+z
loop_
_atom_site_type_symbol
_atom_site_label
_atom_site_fract_x
_atom_site_fract_y
_atom_site_fract_z
Si Si1 0.045811 0.235212 0.072332
Si Si2 0.630594 0.658714 0.136629
Si Si3 0.358508 0.392177 0.428872
Si Si4 0.748437 0.597864 0.210608
Si Si5 0.000000 0.212075 0.750000
Si Si6 0.777365 0.672891 0.619966
Si Si7 0.887357 0.068040 0.683928
Si Si8 0.208857 0.819779 0.693181
O O1 0.000000 0.188055 0.250000
O O2 0.925231 0.239109 0.143331
O O3 0.118648 0.359544 0.992314
O O4 0.143709 0.154878 0.884009
O O5 0.500000 0.695055 0.250000
O O6 0.671474 0.532818 0.035072
O O7 0.641190 0.641155 0.257422
O O8 0.719954 0.766001 0.997641
O O9 0.500000 0.368700 0.250000
O O10 0.294032 0.346961 0.619740
O O11 0.301743 0.317866 0.396260
O O12 0.759814 0.455030 0.199643
O O13 0.919168 0.130886 0.763693
O O14 0.084762 0.300033 0.577273
O O15 0.731278 0.774453 0.762870
O O16 0.786668 0.964455 0.823667
O O17 0.000000 0.000000 0.500000
#
# Coordination Sequence:
#
# PCOD8121000 Si02
#       8
#     4   4   4   4   2   4   4   4
#     4  11  22  38  60  92 126 165 202 248 317 379
#     4  10  22  38  62  88 121 164 214 257 305 369
#     4  10  23  39  61  88 124 172 207 254 311 373
#     4  11  23  38  60  92 130 161 203 257 314 379
#     4  12  22  40  58  96 124 166 200 254 314 380
#     4  11  24  37  60  91 127 158 205 252 314 371
#     4  10  23  37  60  84 119 160 209 249 298 366
#     4  11  22  40  60  90 119 164 210 258 309 367
#
# _framework density 20.252566999999999
#
# number of rings (size 3 to 8) (size 9 to 14) (size 15 to 20)
#    0.000    1.333    5.333    0.800    6.533    2.133 
#    0.000    0.000    0.000    4.000    0.000    0.000 
#    0.000    0.000    0.000    0.000    0.000    0.000 
#
# Total GULP energy -371714.958368 kJ/mol
# GULP energy per Si atom -12390.498612 kJ/mol
# Density = 2.020647 g / cm^3
# Si number density = 20.252567 Si / 1000 Ang^3
#
#
#
# Elastic Constant Matrix: (Units=GPa)
#
#
# Indices 1 2 3 4 5 6 
#
# 1 116.5609 53.2339 40.5206 0.0000 16.5672 0.0000
# 2 53.2339 78.4854 36.5304 0.0000 5.2528 0.0000
# 3 40.5206 36.5304 76.3306 0.0000 15.9298 0.0000
# 4 0.0000 0.0000 0.0000 28.0808 0.0000 1.5728
# 5 16.5672 5.2528 15.9298 0.0000 33.6444 0.0000
# 6 0.0000 0.0000 0.0000 1.5728 0.0000 14.4856
#
#
#
# Elastic Compliance Matrix: (Units=1/GPa)
#
#
# Indices 1 2 3 4 5 6 
#
# 1 0.013636 -0.007730 -0.002652 0.000000 -0.004252 0.000000
# 2 -0.007730 0.020824 -0.006634 0.000000 0.003696 0.000000
# 3 -0.002652 -0.006634 0.019080 0.000000 -0.006693 0.000000
# 4 0.000000 0.000000 0.000000 0.035829 0.000000 -0.003890
# 5 -0.004252 0.003696 -0.006693 0.000000 0.034408 0.000000
# 6 0.000000 0.000000 0.000000 -0.003890 0.000000 0.069456
#
#
# Mechanical properties :
#
#
# Convention : Reuss Voigt Hill
#
# Bulk Modulus (GPa) = 51.25868 59.10518 55.18193
# Shear Modulus (GPa) = 21.38865 24.64831 23.01848
#
# Velocity S-wave (km/s) = 3.25329 3.49240 3.37496
# Velocity P-wave (km/s) = 6.28303 6.74610 6.51868
#
# Compressibility (1/GPa) = 0.01950889
#
# Stress axis : x y z
#
# Youngs Moduli (GPa) = 73.33718 48.02048 52.40982
#
# Poissons Ratio (x) = 0.37118 0.13899
# Poissons Ratio (y) = 0.56687 0.34770
# Poissons Ratio (z) = 0.19448 0.31858
#
# Static dielectric constant tensor:
#      x y z
#    x 3.691800 0.000000 0.102410 
#    y 0.000000 3.269810 0.000000 
#    z 0.102410 0.000000 3.466290 
# 
# 
# High freq. dielectric constant tensor:
#      x y z
#    x 1.794610 0.000000 0.026630 
#    y 0.000000 1.774730 0.000000 
#    z 0.026630 0.000000 1.779360 
# 
# From -- ./inp_files/39189.got.cif
#   From: 2010.06.25/outbox.cif.g09.slc.cpg/sg13_20_cif.got.tgz:39189.got - 2010.06.28 04:50:58.
