data_PCOD8121209
_publ_section_title
;
Structure prediction by ZEFSAII (Michael W. Deem and Ramdas Pophale) SiO2 
 PCOD8121209
Probable space group: P 2/C
;
_chemical_formula_sum "Si O2"
_cell_formula_units_Z 28
_cell_length_a 21.369009
_cell_length_b 8.989391
_cell_length_c 15.082029
_cell_angle_alpha 90.000000
_cell_angle_beta 27.910203
_cell_angle_gamma 90.000000
_cell_volume 1356.129537
_symmetry_space_group_name_H-M "P 2/C"
_symmetry_group_IT_number 13
_symmetry_cell_setting 'monoclinic'
loop_
_space_group_symop_operation_xyz
x,y,z
-x,y,1/2-z
-x,-y,-z
x,-y,1/2+z
loop_
_atom_site_type_symbol
_atom_site_label
_atom_site_fract_x
_atom_site_fract_y
_atom_site_fract_z
Si Si1 0.882126 0.489584 0.546908
Si Si2 0.000502 0.754133 0.024180
Si Si3 0.269801 0.812242 0.467513
Si Si4 0.802757 0.999214 0.288532
Si Si5 0.500000 0.407593 0.750000
Si Si6 0.000000 0.680611 0.750000
Si Si7 0.412627 0.570183 0.033703
Si Si8 0.376847 0.105639 0.639808
O O1 0.969771 0.376157 0.494090
O O2 0.896392 0.425631 0.431170
O O3 0.734262 0.490768 0.768404
O O4 0.929365 0.662180 0.484664
O O5 0.871033 0.840006 0.224006
O O6 0.092133 0.871064 0.859736
O O7 0.284911 0.952970 0.515952
O O8 0.371609 0.688375 0.378730
O O9 0.109575 0.774529 0.669119
O O10 0.308807 0.854835 0.318573
O O11 0.722402 0.986370 0.297872
O O12 0.540467 0.517417 0.620791
O O13 0.421104 0.747943 0.030950
O O14 0.500000 0.500000 0.000000
O O15 0.500000 0.000000 0.500000
#
# Coordination Sequence:
#
# PCOD8121209 Si02
#       8
#     4   4   4   4   2   2   4   4
#     4  11  22  43  69  99 143 174 236 299 354 418
#     4  10  22  40  66 100 135 179 222 288 354 424
#     4  12  25  46  73 103 143 194 238 297 372 433
#     4  11  23  44  70 100 142 186 231 281 370 438
#     4  12  26  46  80 102 138 204 248 292 372 424
#     4  12  22  42  70 106 136 184 236 300 366 424
#     4  12  25  47  71 105 141 188 247 297 348 439
#     4  12  27  47  69 102 146 188 237 302 360 424
#
# _framework density 20.646996000000001
#
# number of rings (size 3 to 8) (size 9 to 14) (size 15 to 20)
#    0.000    0.571    5.714    1.714    6.000    1.143 
#    2.571    0.000    0.000    0.000    0.000    0.000 
#    0.000    0.000    0.000    0.000    0.000    0.000 
#
# Total GULP energy -347009.162697 kJ/mol
# GULP energy per Si atom -12393.184382 kJ/mol
# Density = 2.060000 g / cm^3
# Si number density = 20.646996 Si / 1000 Ang^3
#
#
#
# Elastic Constant Matrix: (Units=GPa)
#
#
# Indices 1 2 3 4 5 6 
#
# 1 126.0065 55.8624 61.0167 0.0000 5.4539 0.0000
# 2 55.8624 125.8851 58.9750 0.0000 3.7292 0.0000
# 3 61.0167 58.9750 112.1496 0.0000 5.3809 0.0000
# 4 0.0000 0.0000 0.0000 38.2239 0.0000 -0.6692
# 5 5.4539 3.7292 5.3809 0.0000 50.7398 0.0000
# 6 0.0000 0.0000 0.0000 -0.6692 0.0000 38.6816
#
#
#
# Elastic Compliance Matrix: (Units=1/GPa)
#
#
# Indices 1 2 3 4 5 6 
#
# 1 0.011528 -0.002884 -0.004730 0.000000 -0.000526 0.000000
# 2 -0.002884 0.011264 -0.004351 0.000000 -0.000056 0.000000
# 3 -0.004730 -0.004351 0.013809 0.000000 -0.000636 0.000000
# 4 0.000000 0.000000 0.000000 0.026170 0.000000 0.000453
# 5 -0.000526 -0.000056 -0.000636 0.000000 0.019836 0.000000
# 6 0.000000 0.000000 0.000000 0.000453 0.000000 0.025860
#
#
# Mechanical properties :
#
#
# Convention : Reuss Voigt Hill
#
# Bulk Modulus (GPa) = 78.92952 79.52772 79.22862
# Shear Modulus (GPa) = 36.59765 38.07487 37.33626
#
# Velocity S-wave (km/s) = 4.21472 4.29894 4.25704
# Velocity P-wave (km/s) = 7.87377 7.95252 7.91325
#
# Compressibility (1/GPa) = 0.01266953
#
# Stress axis : x y z
#
# Youngs Moduli (GPa) = 86.74598 88.78018 72.41714
#
# Poissons Ratio (x) = 0.25605 0.34254
# Poissons Ratio (y) = 0.25018 0.31511
# Poissons Ratio (z) = 0.41032 0.38631
#
# Static dielectric constant tensor:
#      x y z
#    x 4.148940 0.000000 0.279890 
#    y 0.000000 4.026210 0.000000 
#    z 0.279890 0.000000 4.296260 
# 
# 
# High freq. dielectric constant tensor:
#      x y z
#    x 1.818660 0.000000 -0.006290 
#    y 0.000000 1.815170 0.000000 
#    z -0.006290 0.000000 1.810180 
# 
# From -- ./inp_files/57476.got.cif
#   From: 2010.06.25/outbox.cif.g09.slc.cpg/sg13_29_cif.got.tgz:57476.got - 2010.06.28 04:50:58.
