data_PCOD8121066
_publ_section_title
;
Structure prediction by ZEFSAII (Michael W. Deem and Ramdas Pophale) SiO2 
 PCOD8121066
Probable space group: P 2/C
;
_chemical_formula_sum "Si O2"
_cell_formula_units_Z 16
_cell_length_a 5.195795
_cell_length_b 15.901437
_cell_length_c 9.015918
_cell_angle_alpha 90.000000
_cell_angle_beta 94.829269
_cell_angle_gamma 90.000000
_cell_volume 742.256207
_symmetry_space_group_name_H-M "P 2/C"
_symmetry_group_IT_number 13
_symmetry_cell_setting 'monoclinic'
loop_
_space_group_symop_operation_xyz
x,y,z
-x,y,1/2-z
-x,-y,-z
x,-y,1/2+z
loop_
_atom_site_type_symbol
_atom_site_label
_atom_site_fract_x
_atom_site_fract_y
_atom_site_fract_z
Si Si1 0.020297 0.089410 0.925388
Si Si2 0.462394 0.635691 0.916958
Si Si3 0.528275 0.191138 0.925202
Si Si4 0.255263 0.532478 0.348042
O O1 0.276953 0.143170 0.978667
O O2 0.000000 0.075824 0.750000
O O3 0.775139 0.136891 0.978250
O O4 0.000000 0.000000 0.000000
O O5 0.500000 0.663254 0.750000
O O6 0.237460 0.563771 0.908804
O O7 0.401373 0.719495 0.002162
O O8 0.713243 0.593400 0.008014
O O9 0.500000 0.205902 0.750000
O O10 0.500000 0.540502 0.250000
O O11 0.000000 0.560196 0.250000
#
# Coordination Sequence:
#
# PCOD8121066 Si02
#       4
#     4   4   4   4
#     4  10  22  40  62  87 116 153 195 241 298 359
#     4  10  23  39  62  93 122 158 209 255 296 350
#     4  10  22  39  60  87 121 158 194 239 300 362
#     4  10  23  42  62  85 123 167 203 248 306 359
#
# _framework density 21.555897999999999
#
# number of rings (size 3 to 8) (size 9 to 14) (size 15 to 20)
#    0.000    2.000    0.000    1.500    0.000   21.000 
#    0.000    0.000    0.000    0.000    0.000    0.000 
#    0.000    0.000    0.000    0.000    0.000    0.000 
#
# Total GULP energy -198295.724418 kJ/mol
# GULP energy per Si atom -12393.482776 kJ/mol
# Density = 2.150684 g / cm^3
# Si number density = 21.555898 Si / 1000 Ang^3
#
#
#
# Elastic Constant Matrix: (Units=GPa)
#
#
# Indices 1 2 3 4 5 6 
#
# 1 137.9997 50.3109 52.0004 0.0000 23.9714 0.0000
# 2 50.3109 167.5389 58.0656 0.0000 2.6604 0.0000
# 3 52.0004 58.0656 81.3589 0.0000 18.3701 0.0000
# 4 0.0000 0.0000 0.0000 -15.5815 0.0000 43.0385
# 5 23.9714 2.6604 18.3701 0.0000 24.1413 0.0000
# 6 0.0000 0.0000 0.0000 43.0385 0.0000 -19.5769
#
#
#
# Elastic Compliance Matrix: (Units=1/GPa)
#
#
# Indices 1 2 3 4 5 6 
#
# 1 0.010627 -0.001726 -0.003889 0.000000 -0.007403 0.000000
# 2 -0.001726 0.008570 -0.006263 0.000000 0.005535 0.000000
# 3 -0.003889 -0.006263 0.021999 0.000000 -0.012188 0.000000
# 4 0.000000 0.000000 0.000000 0.012653 0.000000 0.027816
# 5 -0.007403 0.005535 -0.012188 0.000000 0.057437 0.000000
# 6 0.000000 0.000000 0.000000 0.027816 0.000000 0.010070
#
#
# Mechanical properties :
#
#
# Convention : Reuss Voigt Hill
#
# Bulk Modulus (GPa) = 57.34022 78.62794 67.98408
# Shear Modulus (GPa) = 33.12926 12.89794 23.01360
#
# Velocity S-wave (km/s) = 3.92458 2.44877 3.27100
# Velocity P-wave (km/s) = 6.86986 6.67464 6.77295
#
# Compressibility (1/GPa) = 0.01743976
#
# Stress axis : x y z
#
# Youngs Moduli (GPa) = 94.10096 116.69026 45.45747
#
# Poissons Ratio (x) = 0.20138 0.17679
# Poissons Ratio (y) = 0.16240 0.28469
# Poissons Ratio (z) = 0.36596 0.73082
#
# Static dielectric constant tensor:
#      x y z
#    x 5.227330 0.000000 -0.216640 
#    y 0.000000 4.072260 0.000000 
#    z -0.216640 0.000000 4.173040 
# 
# 
# High freq. dielectric constant tensor:
#      x y z
#    x 1.835670 0.000000 0.007770 
#    y 0.000000 1.852290 0.000000 
#    z 0.007770 0.000000 1.857680 
# 
# From -- ./inp_files/8978.got.cif
#   From: 2010.06.25/outbox.cif.g09.slc.cpg/sg13_5_cif.got.tgz:8978.got - 2010.06.28 04:50:58.
