data_PCOD8121394
_publ_section_title
;
Structure prediction by ZEFSAII (Michael W. Deem and Ramdas Pophale) SiO2 
 PCOD8121394
Probable space group: P 2/C
;
_chemical_formula_sum "Si O2"
_cell_formula_units_Z 32
_cell_length_a 11.896639
_cell_length_b 8.594600
_cell_length_c 29.742422
_cell_angle_alpha 90.000000
_cell_angle_beta 149.416660
_cell_angle_gamma 90.000000
_cell_volume 1547.268920
_symmetry_space_group_name_H-M "P 2/C"
_symmetry_group_IT_number 13
_symmetry_cell_setting 'monoclinic'
loop_
_space_group_symop_operation_xyz
x,y,z
-x,y,1/2-z
-x,-y,-z
x,-y,1/2+z
loop_
_atom_site_type_symbol
_atom_site_label
_atom_site_fract_x
_atom_site_fract_y
_atom_site_fract_z
Si Si1 0.204924 0.350785 0.292473
Si Si2 0.884643 0.629754 0.296159
Si Si3 0.085890 0.662880 0.011619
Si Si4 0.342643 0.593306 0.414187
Si Si5 0.932486 0.809335 0.401793
Si Si6 0.403617 0.886921 0.590678
Si Si7 0.720743 0.125744 0.350226
Si Si8 0.498189 0.766397 0.392189
O O1 0.150050 0.443793 0.226525
O O2 0.287373 0.485787 0.352975
O O3 0.382104 0.219830 0.342148
O O4 0.000000 0.274078 0.250000
O O5 0.854410 0.681497 0.337977
O O6 0.724665 0.740730 0.212743
O O7 0.134954 0.666054 0.368270
O O8 0.147638 0.763507 0.076321
O O9 0.312299 0.650964 0.061858
O O10 0.000000 0.500000 0.000000
O O11 0.903701 0.738635 0.915799
O O12 0.500000 0.500000 0.500000
O O13 0.472439 0.735241 0.436415
O O14 0.199016 0.813299 0.492960
O O15 0.819853 0.979065 0.356183
O O16 0.342256 0.916067 0.620918
O O17 0.441239 0.055462 0.584561
O O18 0.500000 0.188016 0.250000
#
# Coordination Sequence:
#
# PCOD8121394 Si02
#       8
#     4   4   4   4   4   4   4   4
#     4   9  21  40  62  93 128 165 218 272 331 384
#     4  10  23  39  66  94 123 177 220 269 328 398
#     4  11  25  41  62  96 130 172 217 277 327 395
#     4  10  22  42  63  90 127 170 217 272 323 385
#     4  11  22  42  66  91 133 170 216 263 340 393
#     4  11  21  41  67  92 130 176 209 279 337 393
#     4  11  23  43  63  93 133 173 217 268 334 399
#     4  11  22  42  64  92 132 168 220 270 335 393
#
# _framework density 20.681601000000001
#
# number of rings (size 3 to 8) (size 9 to 14) (size 15 to 20)
#    0.000    1.500    2.500    3.375    8.750    2.000 
#    2.250    2.500    0.000    0.000    0.000    0.000 
#    0.000    0.000    0.000    0.000    0.000    0.000 
#
# Total GULP energy -396589.535347 kJ/mol
# GULP energy per Si atom -12393.422980 kJ/mol
# Density = 2.063453 g / cm^3
# Si number density = 20.681601 Si / 1000 Ang^3
#
#
#
# Elastic Constant Matrix: (Units=GPa)
#
#
# Indices 1 2 3 4 5 6 
#
# 1 75.7778 14.1117 38.4736 0.0000 13.5620 0.0000
# 2 14.1117 59.8282 16.7834 0.0000 7.0784 0.0000
# 3 38.4736 16.7834 115.6258 0.0000 -1.5239 0.0000
# 4 0.0000 0.0000 0.0000 32.5968 0.0000 1.1635
# 5 13.5620 7.0784 -1.5239 0.0000 34.9828 0.0000
# 6 0.0000 0.0000 0.0000 1.1635 0.0000 33.7443
#
#
#
# Elastic Compliance Matrix: (Units=1/GPa)
#
#
# Indices 1 2 3 4 5 6 
#
# 1 0.017619 -0.001763 -0.005695 0.000000 -0.006722 0.000000
# 2 -0.001763 0.018076 -0.002078 0.000000 -0.003065 0.000000
# 3 -0.005695 -0.002078 0.010886 0.000000 0.003103 0.000000
# 4 0.000000 0.000000 0.000000 0.030716 0.000000 -0.001059
# 5 -0.006722 -0.003065 0.003103 0.000000 0.031947 0.000000
# 6 0.000000 0.000000 0.000000 -0.001059 0.000000 0.029671
#
#
# Mechanical properties :
#
#
# Convention : Reuss Voigt Hill
#
# Bulk Modulus (GPa) = 36.35095 43.32991 39.84043
# Shear Modulus (GPa) = 29.91209 32.38899 31.15054
#
# Velocity S-wave (km/s) = 3.80717 3.96166 3.88518
# Velocity P-wave (km/s) = 6.07788 6.47478 6.27947
#
# Compressibility (1/GPa) = 0.02750960
#
# Stress axis : x y z
#
# Youngs Moduli (GPa) = 56.75531 55.32285 91.85978
#
# Poissons Ratio (x) = 0.09753 0.52318
# Poissons Ratio (y) = 0.10005 0.19084
# Poissons Ratio (z) = 0.32325 0.11494
#
# Static dielectric constant tensor:
#      x y z
#    x 4.056260 0.000000 0.195230 
#    y 0.000000 3.655250 0.000000 
#    z 0.195230 0.000000 3.862810 
# 
# 
# High freq. dielectric constant tensor:
#      x y z
#    x 1.813210 0.000000 0.010520 
#    y 0.000000 1.798940 0.000000 
#    z 0.010520 0.000000 1.816160 
# 
# From -- ./inp_files/96719.got.cif
#   From: 2010.06.25/outbox.cif.g09.slc.cpg/sg13_49_cif.got.tgz:96719.got - 2010.06.28 04:50:58.
