data_PCOD8121486
_publ_section_title
;
Structure prediction by ZEFSAII (Michael W. Deem and Ramdas Pophale) SiO2 
 PCOD8121486
Probable space group: P 2/C
;
_chemical_formula_sum "Si O2"
_cell_formula_units_Z 32
_cell_length_a 14.388214
_cell_length_b 9.503165
_cell_length_c 23.962580
_cell_angle_alpha 90.000000
_cell_angle_beta 150.758853
_cell_angle_gamma 90.000000
_cell_volume 1600.520465
_symmetry_space_group_name_H-M "P 2/C"
_symmetry_group_IT_number 13
_symmetry_cell_setting 'monoclinic'
loop_
_space_group_symop_operation_xyz
x,y,z
-x,y,1/2-z
-x,-y,-z
x,-y,1/2+z
loop_
_atom_site_type_symbol
_atom_site_label
_atom_site_fract_x
_atom_site_fract_y
_atom_site_fract_z
Si Si1 0.804197 0.608558 0.281780
Si Si2 0.294351 0.066139 0.168595
Si Si3 0.948732 0.345764 0.082031
Si Si4 0.207725 0.106043 0.248291
Si Si5 0.511114 0.720406 0.530346
Si Si6 0.084879 0.221509 0.551557
Si Si7 0.153868 0.827456 0.284325
Si Si8 0.398545 0.446962 0.528008
O O1 0.868207 0.690509 0.369643
O O2 0.892089 0.683335 0.272880
O O3 0.576911 0.610037 0.156751
O O4 0.869716 0.447861 0.319506
O O5 0.500000 0.098402 0.250000
O O6 0.313177 0.092338 0.244402
O O7 0.230619 0.907624 0.121865
O O8 0.134543 0.170505 0.059565
O O9 0.013214 0.195638 0.140731
O O10 0.881999 0.324267 0.983566
O O11 0.783876 0.417876 0.030556
O O12 0.344620 0.176022 0.364495
O O13 0.149184 0.951853 0.237081
O O14 0.356072 0.819508 0.420526
O O15 0.415882 0.613485 0.524885
O O16 0.624979 0.632203 0.543326
O O17 0.000000 0.858051 0.250000
#
# Coordination Sequence:
#
# PCOD8121486 Si02
#       8
#     4   4   4   4   4   4   4   4
#     4  11  22  45  63  92 134 162 214 268 312 384
#     4  10  23  42  67  92 132 171 204 268 328 369
#     4  11  24  40  68  93 129 167 212 263 320 376
#     4  11  23  44  61  98 132 160 219 263 304 390
#     4  10  22  43  62  92 132 162 219 256 312 382
#     4  10  23  43  62  99 126 164 219 263 312 390
#     4  11  24  39  64  95 128 171 210 260 319 373
#     4  10  23  40  66  96 124 174 205 266 321 370
#
# _framework density 19.993496
#
# number of rings (size 3 to 8) (size 9 to 14) (size 15 to 20)
#    0.000    1.500    2.500    1.500    3.500    2.000 
#    0.000    0.000    0.000    0.000    0.000    0.000 
#    0.000    0.000    0.000    0.000    0.000    0.000 
#
# Total GULP energy -396931.241028 kJ/mol
# GULP energy per Si atom -12404.101282 kJ/mol
# Density = 1.994799 g / cm^3
# Si number density = 19.993496 Si / 1000 Ang^3
#
#
#
# Elastic Constant Matrix: (Units=GPa)
#
#
# Indices 1 2 3 4 5 6 
#
# 1 91.7954 18.2475 33.4775 0.0000 1.4176 0.0000
# 2 18.2475 73.0167 22.2347 0.0000 -5.9784 0.0000
# 3 33.4775 22.2347 86.8205 0.0000 -21.0596 0.0000
# 4 0.0000 0.0000 0.0000 26.3402 0.0000 -8.4583
# 5 1.4176 -5.9784 -21.0596 0.0000 28.0540 0.0000
# 6 0.0000 0.0000 0.0000 -8.4583 0.0000 27.5951
#
#
#
# Elastic Compliance Matrix: (Units=1/GPa)
#
#
# Indices 1 2 3 4 5 6 
#
# 1 0.013613 -0.002006 -0.006120 0.000000 -0.005710 0.000000
# 2 -0.002006 0.015153 -0.002811 0.000000 0.001220 0.000000
# 3 -0.006120 -0.002811 0.017762 0.000000 0.013044 0.000000
# 4 0.000000 0.000000 0.000000 0.042109 0.000000 0.012907
# 5 -0.005710 0.001220 0.013044 0.000000 0.045986 0.000000
# 6 0.000000 0.000000 0.000000 0.012907 0.000000 0.040195
#
#
# Mechanical properties :
#
#
# Convention : Reuss Voigt Hill
#
# Bulk Modulus (GPa) = 40.56337 44.39464 42.47901
# Shear Modulus (GPa) = 24.40105 28.24273 26.32189
#
# Velocity S-wave (km/s) = 3.49728 3.76253 3.63233
# Velocity P-wave (km/s) = 6.05312 6.41313 6.23573
#
# Compressibility (1/GPa) = 0.02465279
#
# Stress axis : x y z
#
# Youngs Moduli (GPa) = 73.46071 65.99479 56.30034
#
# Poissons Ratio (x) = 0.13237 0.34458
# Poissons Ratio (y) = 0.14734 0.15828
# Poissons Ratio (z) = 0.44960 0.18553
#
# Static dielectric constant tensor:
#      x y z
#    x 3.477180 0.000000 -0.221940 
#    y 0.000000 3.791980 0.000000 
#    z -0.221940 0.000000 3.720810 
# 
# 
# High freq. dielectric constant tensor:
#      x y z
#    x 1.771540 0.000000 -0.016170 
#    y 0.000000 1.790230 0.000000 
#    z -0.016170 0.000000 1.791040 
# 
# From -- ./inp_files/87442.got.cif
#   From: 2010.06.25/outbox.cif.g09.slc.cpg/sg13_44_cif.got.tgz:87442.got - 2010.06.28 04:50:58.
