data_PCOD8121113
_publ_section_title
;
Structure prediction by ZEFSAII (Michael W. Deem and Ramdas Pophale) SiO2 
 PCOD8121113
Probable space group: P 2/C
;
_chemical_formula_sum "Si O2"
_cell_formula_units_Z 20
_cell_length_a 5.269919
_cell_length_b 4.962351
_cell_length_c 28.376590
_cell_angle_alpha 90.000000
_cell_angle_beta 108.022492
_cell_angle_gamma 90.000000
_cell_volume 705.671405
_symmetry_space_group_name_H-M "P 2/C"
_symmetry_group_IT_number 13
_symmetry_cell_setting 'monoclinic'
loop_
_space_group_symop_operation_xyz
x,y,z
-x,y,1/2-z
-x,-y,-z
x,-y,1/2+z
loop_
_atom_site_type_symbol
_atom_site_label
_atom_site_fract_x
_atom_site_fract_y
_atom_site_fract_z
Si Si1 0.420632 0.959958 0.856735
Si Si2 0.191490 0.702070 0.538062
Si Si3 0.845076 0.624824 0.379183
Si Si4 0.732448 0.934935 0.050511
Si Si5 0.115989 0.470669 0.808277
O O1 0.701031 0.092688 0.858255
O O2 0.436402 0.924579 0.915985
O O3 0.192308 0.162759 0.825105
O O4 0.368630 0.673182 0.828154
O O5 0.323716 0.548570 0.591120
O O6 0.402146 0.821695 0.508093
O O7 0.000000 0.500000 0.500000
O O8 0.004453 0.929065 0.549085
O O9 0.146009 0.671435 0.416323
O O10 0.886829 0.451529 0.333477
O O11 0.000000 0.491870 0.750000
#
# Coordination Sequence:
#
# PCOD8121113 Si02
#       5
#     4   4   4   4   4
#     4  11  24  41  70  97 125 178 226 275 351 415
#     4   9  17  35  60  90 133 178 211 271 332 398
#     4  10  22  39  65  93 131 171 225 277 331 416
#     4   9  19  37  59  91 137 171 217 273 332 398
#     4  11  25  46  66  94 133 171 221 294 355 411
#
# _framework density 28.341799000000002
#
# number of rings (size 3 to 8) (size 9 to 14) (size 15 to 20)
#    0.000    2.000    2.000    0.600    2.800    1.600 
#    0.000   11.000    0.000    0.000    0.000    0.000 
#    0.000    0.000    0.000    0.000    0.000    0.000 
#
# Total GULP energy -247806.323240 kJ/mol
# GULP energy per Si atom -12390.316162 kJ/mol
# Density = 2.827729 g / cm^3
# Si number density = 28.341799 Si / 1000 Ang^3
#
#
#
# Elastic Constant Matrix: (Units=GPa)
#
#
# Indices 1 2 3 4 5 6 
#
# 1 61.5469 24.2685 45.5647 0.0000 -14.2086 0.0000
# 2 24.2685 100.3909 62.8048 0.0000 -11.7741 0.0000
# 3 45.5647 62.8048 277.4789 0.0000 7.7206 0.0000
# 4 0.0000 0.0000 0.0000 43.1092 0.0000 3.3259
# 5 -14.2086 -11.7741 7.7206 0.0000 42.6341 0.0000
# 6 0.0000 0.0000 0.0000 3.3259 0.0000 49.6676
#
#
#
# Elastic Compliance Matrix: (Units=1/GPa)
#
#
# Indices 1 2 3 4 5 6 
#
# 1 0.021086 -0.002324 -0.003130 0.000000 0.006952 0.000000
# 2 -0.002324 0.012471 -0.002528 0.000000 0.003128 0.000000
# 3 -0.003130 -0.002528 0.004763 0.000000 -0.002604 0.000000
# 4 0.000000 0.000000 0.000000 0.023317 0.000000 -0.001561
# 5 0.006952 0.003128 -0.002604 0.000000 0.027108 0.000000
# 6 0.000000 0.000000 0.000000 -0.001561 0.000000 0.020238
#
#
# Mechanical properties :
#
#
# Convention : Reuss Voigt Hill
#
# Bulk Modulus (GPa) = 44.73070 78.29920 61.51495
# Shear Modulus (GPa) = 37.76440 47.53408 42.64924
#
# Velocity S-wave (km/s) = 3.65425 4.09977 3.88341
# Velocity P-wave (km/s) = 5.79841 7.07796 6.46990
#
# Compressibility (1/GPa) = 0.02235601
#
# Stress axis : x y z
#
# Youngs Moduli (GPa) = 47.42401 80.18427 209.97190
#
# Poissons Ratio (x) = 0.18634 0.65722
# Poissons Ratio (y) = 0.11021 0.53085
# Poissons Ratio (z) = 0.14844 0.20272
#
# Static dielectric constant tensor:
#      x y z
#    x 5.266960 0.000000 -0.352980 
#    y 0.000000 5.670900 0.000000 
#    z -0.352980 0.000000 6.002320 
# 
# 
# High freq. dielectric constant tensor:
#      x y z
#    x 2.151080 0.000000 0.007740 
#    y 0.000000 2.164450 0.000000 
#    z 0.007740 0.000000 2.167320 
# 
# From -- ./inp_files/89965.got.cif
#   From: 2010.06.25/outbox.cif.g09.slc.cpg/sg13_45_cif.got.tgz:89965.got - 2010.06.28 04:50:58.
