data_PCOD8121691
_publ_section_title
;
Structure prediction by ZEFSAII (Michael W. Deem and Ramdas Pophale) SiO2 
 PCOD8121691
Probable space group: P 2/C
;
_chemical_formula_sum "Si O2"
_cell_formula_units_Z 32
_cell_length_a 18.452139
_cell_length_b 11.317258
_cell_length_c 14.808576
_cell_angle_alpha 90.000000
_cell_angle_beta 149.405023
_cell_angle_gamma 90.000000
_cell_volume 1573.946497
_symmetry_space_group_name_H-M "P 2/C"
_symmetry_group_IT_number 13
_symmetry_cell_setting 'monoclinic'
loop_
_space_group_symop_operation_xyz
x,y,z
-x,y,1/2-z
-x,-y,-z
x,-y,1/2+z
loop_
_atom_site_type_symbol
_atom_site_label
_atom_site_fract_x
_atom_site_fract_y
_atom_site_fract_z
Si Si1 0.745778 0.889763 0.278023
Si Si2 0.717311 0.272885 0.075320
Si Si3 0.277502 0.577074 0.093971
Si Si4 0.968948 0.732409 0.619191
Si Si5 0.410907 0.337408 0.243955
Si Si6 0.526732 0.685190 0.052677
Si Si7 0.326832 0.003326 0.977883
Si Si8 0.349606 0.078969 0.192758
O O1 0.879178 0.814542 0.456065
O O2 0.599525 0.814860 0.127578
O O3 0.771234 0.935137 0.203457
O O4 0.738716 0.009045 0.327852
O O5 0.883937 0.300593 0.272649
O O6 0.695670 0.135373 0.033903
O O7 0.667942 0.346309 0.933381
O O8 0.628402 0.309359 0.067452
O O9 0.294612 0.437269 0.093585
O O10 0.376244 0.599171 0.285592
O O11 0.116547 0.611705 0.948151
O O12 0.000000 0.795732 0.750000
O O13 0.500000 0.307654 0.250000
O O14 0.513508 0.372006 0.438310
O O15 0.336492 0.217909 0.199799
O O16 0.278078 0.060531 0.019013
O O17 0.490349 0.030536 0.132268
#
# Coordination Sequence:
#
# PCOD8121691 Si02
#       8
#     4   4   4   4   4   4   4   4
#     4  11  20  37  60  91 126 156 196 249 312 367
#     4  11  21  38  63  89 118 156 204 252 303 351
#     4  10  23  38  60  86 116 154 208 249 297 350
#     4   9  21  40  60  86 120 162 206 255 293 358
#     4  12  22  37  55  87 125 156 192 251 306 354
#     4  11  20  35  61  92 116 152 200 253 303 361
#     4  11  20  33  58  89 123 155 186 248 310 371
#     4  11  20  33  55  92 127 149 193 246 314 368
#
# _framework density 20.331060000000001
#
# number of rings (size 3 to 8) (size 9 to 14) (size 15 to 20)
#    0.000    1.250    3.750    4.875    1.750    0.500 
#    0.000    0.625    0.000   14.250    0.000    0.000 
#    0.000    0.000    0.000    0.000    0.000    0.000 
#
# Total GULP energy -396712.288645 kJ/mol
# GULP energy per Si atom -12397.259020 kJ/mol
# Density = 2.028479 g / cm^3
# Si number density = 20.331060 Si / 1000 Ang^3
#
#
#
# Elastic Constant Matrix: (Units=GPa)
#
#
# Indices 1 2 3 4 5 6 
#
# 1 83.9029 12.1424 55.7049 0.0000 -12.7167 0.0000
# 2 12.1424 114.3480 32.8852 0.0000 7.0057 0.0000
# 3 55.7049 32.8852 102.9725 0.0000 -13.5161 0.0000
# 4 0.0000 0.0000 0.0000 17.5492 0.0000 -2.0226
# 5 -12.7167 7.0057 -13.5161 0.0000 37.8335 0.0000
# 6 0.0000 0.0000 0.0000 -2.0226 0.0000 16.9429
#
#
#
# Elastic Compliance Matrix: (Units=1/GPa)
#
#
# Indices 1 2 3 4 5 6 
#
# 1 0.018938 0.000746 -0.010142 0.000000 0.002604 0.000000
# 2 0.000746 0.010000 -0.003995 0.000000 -0.003028 0.000000
# 3 -0.010142 -0.003995 0.016916 0.000000 0.003374 0.000000
# 4 0.000000 0.000000 0.000000 0.057778 0.000000 0.006897
# 5 0.002604 -0.003028 0.003374 0.000000 0.029073 0.000000
# 6 0.000000 0.000000 0.000000 0.006897 0.000000 0.059845
#
#
# Mechanical properties :
#
#
# Convention : Reuss Voigt Hill
#
# Bulk Modulus (GPa) = 52.42585 55.85428 54.14007
# Shear Modulus (GPa) = 22.15430 27.83118 24.99274
#
# Velocity S-wave (km/s) = 3.30461 3.70388 3.50992
# Velocity P-wave (km/s) = 6.35631 6.76932 6.56606
#
# Compressibility (1/GPa) = 0.01907456
#
# Stress axis : x y z
#
# Youngs Moduli (GPa) = 52.80254 99.99611 59.11478
#
# Poissons Ratio (x) = -0.07460 0.59951
# Poissons Ratio (y) = -0.03939 0.23615
# Poissons Ratio (z) = 0.53550 0.39946
#
# Static dielectric constant tensor:
#      x y z
#    x 3.740070 0.000000 -0.231800 
#    y 0.000000 3.673390 0.000000 
#    z -0.231800 0.000000 3.748060 
# 
# 
# High freq. dielectric constant tensor:
#      x y z
#    x 1.788590 0.000000 -0.026630 
#    y 0.000000 1.791970 0.000000 
#    z -0.026630 0.000000 1.779950 
# 
# From -- ./inp_files/55851.got.cif
#   From: 2010.06.25/outbox.cif.g09.slc.cpg/sg13_28_cif.got.tgz:55851.got - 2010.06.28 04:50:58.
