data_PCOD8121661
_publ_section_title
;
Structure prediction by ZEFSAII (Michael W. Deem and Ramdas Pophale) SiO2 
 PCOD8121661
Probable space group: P 2/C
;
_chemical_formula_sum "Si O2"
_cell_formula_units_Z 20
_cell_length_a 10.283555
_cell_length_b 11.001191
_cell_length_c 13.296568
_cell_angle_alpha 90.000000
_cell_angle_beta 147.575714
_cell_angle_gamma 90.000000
_cell_volume 806.560412
_symmetry_space_group_name_H-M "P 2/C"
_symmetry_group_IT_number 13
_symmetry_cell_setting 'monoclinic'
loop_
_space_group_symop_operation_xyz
x,y,z
-x,y,1/2-z
-x,-y,-z
x,-y,1/2+z
loop_
_atom_site_type_symbol
_atom_site_label
_atom_site_fract_x
_atom_site_fract_y
_atom_site_fract_z
Si Si1 0.389227 0.092909 0.004859
Si Si2 0.202573 0.227841 0.710516
Si Si3 0.504939 0.546079 0.139767
Si Si4 0.781310 0.705386 0.799787
Si Si5 0.500000 0.934838 0.250000
Si Si6 0.000000 0.386381 0.250000
O O1 0.590649 0.189152 0.167502
O O2 0.322519 0.019186 0.063301
O O3 0.174992 0.159363 0.800819
O O4 0.500000 0.000000 0.000000
O O5 0.370884 0.345530 0.842076
O O6 0.322266 0.143646 0.702969
O O7 0.938119 0.270549 0.502553
O O8 0.500000 0.592250 0.250000
O O9 0.653423 0.423591 0.228464
O O10 0.233234 0.527640 0.920036
O O11 0.957781 0.701466 0.818068
#
# Coordination Sequence:
#
# PCOD8121661 Si02
#       6
#     4   4   4   4   2   2
#     4  10  25  44  70 102 144 192 250 297 349 433
#     4  11  22  46  72 103 146 194 239 296 369 437
#     4  12  25  43  73 112 146 189 242 299 372 441
#     4  12  26  43  74 108 148 190 247 295 367 440
#     4  10  22  46  70 104 148 192 250 298 356 428
#     4  12  24  42  74 104 152 196 230 306 366 438
#
# _framework density 24.796655000000001
#
# number of rings (size 3 to 8) (size 9 to 14) (size 15 to 20)
#    0.000    0.800    5.000    1.200    4.200    3.200 
#    0.000    5.000    4.400    0.000    0.000    0.000 
#    0.000    0.000    0.000    0.000    0.000    0.000 
#
# Total GULP energy -247938.373119 kJ/mol
# GULP energy per Si atom -12396.918656 kJ/mol
# Density = 2.474022 g / cm^3
# Si number density = 24.796655 Si / 1000 Ang^3
#
#
#
# Elastic Constant Matrix: (Units=GPa)
#
#
# Indices 1 2 3 4 5 6 
#
# 1 51.4192 30.8576 31.4005 0.0000 -14.5636 0.0000
# 2 30.8576 148.2623 65.8358 0.0000 -3.8067 0.0000
# 3 31.4005 65.8358 191.1687 0.0000 -19.4537 0.0000
# 4 0.0000 0.0000 0.0000 19.6447 0.0000 -31.3993
# 5 -14.5636 -3.8067 -19.4537 0.0000 24.5903 0.0000
# 6 0.0000 0.0000 0.0000 -31.3993 0.0000 -14.3863
#
#
#
# Elastic Compliance Matrix: (Units=1/GPa)
#
#
# Indices 1 2 3 4 5 6 
#
# 1 0.027133 -0.004658 -0.001404 0.000000 0.014238 0.000000
# 2 -0.004658 0.008786 -0.002613 0.000000 -0.003466 0.000000
# 3 -0.001404 -0.002613 0.006782 0.000000 0.004129 0.000000
# 4 0.000000 0.000000 0.000000 0.011341 0.000000 -0.024752
# 5 0.014238 -0.003466 0.004129 0.000000 0.051829 0.000000
# 6 0.000000 0.000000 0.000000 -0.024752 0.000000 -0.015486
#
#
# Mechanical properties :
#
#
# Convention : Reuss Voigt Hill
#
# Bulk Modulus (GPa) = 39.44712 71.89311 55.67011
# Shear Modulus (GPa) = 43.03463 23.48682 33.26072
#
# Velocity S-wave (km/s) = 4.17045 3.08096 3.66640
# Velocity P-wave (km/s) = 6.25564 6.45852 6.35789
#
# Compressibility (1/GPa) = 0.02535039
#
# Stress axis : x y z
#
# Youngs Moduli (GPa) = 36.85484 113.82053 147.45555
#
# Poissons Ratio (x) = 0.53022 0.20697
# Poissons Ratio (y) = 0.17168 0.38534
# Poissons Ratio (z) = 0.05173 0.29744
#
# Static dielectric constant tensor:
#      x y z
#    x 4.754300 0.000000 -0.667470 
#    y 0.000000 4.514040 0.000000 
#    z -0.667470 0.000000 4.865880 
# 
# 
# High freq. dielectric constant tensor:
#      x y z
#    x 1.979540 0.000000 -0.029060 
#    y 0.000000 1.998570 0.000000 
#    z -0.029060 0.000000 1.999530 
# 
# From -- ./inp_files/51276.got.cif
#   From: 2010.06.25/outbox.cif.g09.slc.cpg/sg13_26_cif.got.tgz:51276.got - 2010.06.28 04:50:58.
