data_PCOD8121947
_publ_section_title
;
Structure prediction by ZEFSAII (Michael W. Deem and Ramdas Pophale) SiO2 
 PCOD8121947
Probable space group: P 2/C
;
_chemical_formula_sum "Si O2"
_cell_formula_units_Z 20
_cell_length_a 7.982910
_cell_length_b 20.744967
_cell_length_c 5.147195
_cell_angle_alpha 90.000000
_cell_angle_beta 99.010495
_cell_angle_gamma 90.000000
_cell_volume 841.883355
_symmetry_space_group_name_H-M "P 2/C"
_symmetry_group_IT_number 13
_symmetry_cell_setting 'monoclinic'
loop_
_space_group_symop_operation_xyz
x,y,z
-x,y,1/2-z
-x,-y,-z
x,-y,1/2+z
loop_
_atom_site_type_symbol
_atom_site_label
_atom_site_fract_x
_atom_site_fract_y
_atom_site_fract_z
Si Si1 0.500000 0.294300 0.250000
Si Si2 0.827040 0.457683 0.900432
Si Si3 0.689473 0.042598 0.828336
Si Si4 0.000000 0.869377 0.250000
Si Si5 0.000000 0.344704 0.750000
Si Si6 0.500000 0.618537 0.250000
Si Si7 0.849875 0.756330 0.901570
O O1 0.539012 0.337650 0.509719
O O2 0.338558 0.246727 0.267751
O O3 0.866901 0.489208 0.626069
O O4 0.935479 0.391850 0.963474
O O5 0.638258 0.433177 0.865841
O O6 0.500000 0.074939 0.750000
O O7 0.849113 0.090586 0.847676
O O8 0.706709 0.986812 0.618943
O O9 0.100734 0.827152 0.486213
O O10 0.846658 0.297650 0.627184
O O11 0.000000 0.733191 0.750000
#
# Coordination Sequence:
#
# PCOD8121947 Si02
#       7
#     2   4   4   2   2   2   4
#     4  12  26  49  74  96 138 191 230 292 362 424
#     4  12  25  41  67  99 128 169 226 290 361 436
#     4  10  23  45  75 110 153 197 235 283 348 408
#     4  11  26  44  72 114 144 189 244 300 336 409
#     4  11  24  46  64  94 136 177 230 286 364 431
#     4  12  24  47  70  94 136 175 230 292 362 438
#     4  11  27  46  73 102 139 190 242 291 353 419
#
# _framework density 23.756260999999999
#
# number of rings (size 3 to 8) (size 9 to 14) (size 15 to 20)
#    0.000    0.800    2.000    4.200    8.400    1.600 
#    1.800    0.000    0.000    0.000    0.000    0.000 
#    0.000    0.000    0.000    0.000    0.000    0.000 
#
# Total GULP energy -247799.627211 kJ/mol
# GULP energy per Si atom -12389.981361 kJ/mol
# Density = 2.370219 g / cm^3
# Si number density = 23.756261 Si / 1000 Ang^3
#
#
#
# Elastic Constant Matrix: (Units=GPa)
#
#
# Indices 1 2 3 4 5 6 
#
# 1 180.6661 62.5743 25.5033 0.0000 14.0289 0.0000
# 2 62.5743 103.7822 17.2259 0.0000 9.4353 0.0000
# 3 25.5033 17.2259 80.2880 0.0000 -3.4881 0.0000
# 4 0.0000 0.0000 0.0000 22.2943 0.0000 -0.7249
# 5 14.0289 9.4353 -3.4881 0.0000 38.3844 0.0000
# 6 0.0000 0.0000 0.0000 -0.7249 0.0000 25.6569
#
#
#
# Elastic Compliance Matrix: (Units=1/GPa)
#
#
# Indices 1 2 3 4 5 6 
#
# 1 0.007265 -0.003960 -0.001537 0.000000 -0.001822 0.000000
# 2 -0.003960 0.012428 -0.001484 0.000000 -0.001743 0.000000
# 3 -0.001537 -0.001484 0.013355 0.000000 0.002140 0.000000
# 4 0.000000 0.000000 0.000000 0.044896 0.000000 0.001269
# 5 -0.001822 -0.001743 0.002140 0.000000 0.027341 0.000000
# 6 0.000000 0.000000 0.000000 0.001269 0.000000 0.039012
#
#
# Mechanical properties :
#
#
# Convention : Reuss Voigt Hill
#
# Bulk Modulus (GPa) = 52.39660 63.92703 58.16182
# Shear Modulus (GPa) = 30.37296 34.56264 32.46780
#
# Velocity S-wave (km/s) = 3.57952 3.81843 3.70091
# Velocity P-wave (km/s) = 6.26002 6.81238 6.54203
#
# Compressibility (1/GPa) = 0.01908521
#
# Stress axis : x y z
#
# Youngs Moduli (GPa) = 137.64762 80.46528 74.87863
#
# Poissons Ratio (x) = 0.31860 0.11511
# Poissons Ratio (y) = 0.54502 0.11115
# Poissons Ratio (z) = 0.21161 0.11944
#
# Static dielectric constant tensor:
#      x y z
#    x 4.759840 0.000000 0.086660 
#    y 0.000000 4.074050 0.000000 
#    z 0.086660 0.000000 4.360210 
# 
# 
# High freq. dielectric constant tensor:
#      x y z
#    x 1.974950 0.000000 0.005170 
#    y 0.000000 1.933480 0.000000 
#    z 0.005170 0.000000 1.936350 
# 
# From -- ./inp_files/1638.got.cif
#   From: 2010.06.25/outbox.cif.g09.slc.cpg/sg13_1_cif.got.tgz:1638.got - 2010.06.28 04:50:58.
