data_PCOD8121636
_publ_section_title
;
Structure prediction by ZEFSAII (Michael W. Deem and Ramdas Pophale) SiO2 
 PCOD8121636
Probable space group: P 2/C
;
_chemical_formula_sum "Si O2"
_cell_formula_units_Z 20
_cell_length_a 7.087727
_cell_length_b 10.625371
_cell_length_c 20.053952
_cell_angle_alpha 90.000000
_cell_angle_beta 40.913077
_cell_angle_gamma 90.000000
_cell_volume 989.087862
_symmetry_space_group_name_H-M "P 2/C"
_symmetry_group_IT_number 13
_symmetry_cell_setting 'monoclinic'
loop_
_space_group_symop_operation_xyz
x,y,z
-x,y,1/2-z
-x,-y,-z
x,-y,1/2+z
loop_
_atom_site_type_symbol
_atom_site_label
_atom_site_fract_x
_atom_site_fract_y
_atom_site_fract_z
Si Si1 0.034328 0.903903 0.930990
Si Si2 0.102157 0.939587 0.288962
Si Si3 0.642831 0.463316 0.530691
Si Si4 0.275593 0.635953 0.869769
Si Si5 0.433152 0.196091 0.602183
O O1 0.229185 0.784178 0.897990
O O2 0.181401 0.973046 0.829160
O O3 0.718898 0.859703 0.991962
O O4 0.000000 0.000000 0.000000
O O5 0.386152 0.861686 0.189705
O O6 0.000000 0.020020 0.250000
O O7 0.839198 0.839416 0.372957
O O8 0.500000 0.500000 0.500000
O O9 0.602436 0.574765 0.595047
O O10 0.466130 0.344008 0.604849
O O11 0.978289 0.431811 0.428986
O O12 0.500000 0.617291 0.750000
#
# Coordination Sequence:
#
# PCOD8121636 Si02
#       5
#     4   4   4   4   4
#     4  11  22  37  61  88 129 165 199 270 324 377
#     4   8  20  36  60  88 120 159 215 255 311 402
#     4  10  22  45  68  90 129 173 214 270 324 380
#     4  10  25  42  61 101 130 164 222 267 321 395
#     4   8  20  39  58  91 113 161 216 249 318 380
#
# _framework density 20.220652000000001
#
# number of rings (size 3 to 8) (size 9 to 14) (size 15 to 20)
#    1.200    1.200    0.000    0.600    5.600    4.000 
#   14.400    0.000    0.000    0.000    0.000    0.000 
#    0.000    0.000    0.000    0.000    0.000    0.000 
#
# Total GULP energy -247777.383210 kJ/mol
# GULP energy per Si atom -12388.869161 kJ/mol
# Density = 2.017463 g / cm^3
# Si number density = 20.220652 Si / 1000 Ang^3
#
#
#
# Elastic Constant Matrix: (Units=GPa)
#
#
# Indices 1 2 3 4 5 6 
#
# 1 85.5344 54.2596 40.9417 0.0000 22.6700 0.0000
# 2 54.2596 149.6370 71.8721 0.0000 24.8726 0.0000
# 3 40.9417 71.8721 123.5860 0.0000 18.2821 0.0000
# 4 0.0000 0.0000 0.0000 32.8078 0.0000 8.0755
# 5 22.6700 24.8726 18.2821 0.0000 38.8349 0.0000
# 6 0.0000 0.0000 0.0000 8.0755 0.0000 27.7727
#
#
#
# Elastic Compliance Matrix: (Units=1/GPa)
#
#
# Indices 1 2 3 4 5 6 
#
# 1 0.017023 -0.003980 -0.002399 0.000000 -0.006259 0.000000
# 2 -0.003980 0.010713 -0.004558 0.000000 -0.002392 0.000000
# 3 -0.002399 -0.004558 0.011714 0.000000 -0.001195 0.000000
# 4 0.000000 0.000000 0.000000 0.032830 0.000000 -0.009546
# 5 -0.006259 -0.002392 -0.001195 0.000000 0.031498 0.000000
# 6 0.000000 0.000000 0.000000 -0.009546 0.000000 0.038782
#
#
# Mechanical properties :
#
#
# Convention : Reuss Voigt Hill
#
# Bulk Modulus (GPa) = 56.89560 76.98934 66.94247
# Shear Modulus (GPa) = 29.36122 32.66200 31.01161
#
# Velocity S-wave (km/s) = 3.81470 4.02341 3.92045
# Velocity P-wave (km/s) = 6.89935 7.72924 7.32605
#
# Compressibility (1/GPa) = 0.01757605
#
# Stress axis : x y z
#
# Youngs Moduli (GPa) = 58.74349 93.34618 85.37137
#
# Poissons Ratio (x) = 0.37154 0.20480
# Poissons Ratio (y) = 0.23381 0.38909
# Poissons Ratio (z) = 0.14092 0.42544
#
# Static dielectric constant tensor:
#      x y z
#    x 3.188630 0.000000 0.043810 
#    y 0.000000 3.799230 0.000000 
#    z 0.043810 0.000000 3.690410 
# 
# 
# High freq. dielectric constant tensor:
#      x y z
#    x 1.772410 0.000000 -0.014640 
#    y 0.000000 1.785570 0.000000 
#    z -0.014640 0.000000 1.795790 
# 
# From -- ./inp_files/75146.got.cif
#   From: 2010.06.25/outbox.cif.g09.slc.cpg/sg13_38_cif.got.tgz:75146.got - 2010.06.28 04:50:58.
