data_PCOD8121667
_publ_section_title
;
Structure prediction by ZEFSAII (Michael W. Deem and Ramdas Pophale) SiO2 
 PCOD8121667
Probable space group: P 2/C
;
_chemical_formula_sum "Si O2"
_cell_formula_units_Z 20
_cell_length_a 14.622846
_cell_length_b 5.105559
_cell_length_c 21.010674
_cell_angle_alpha 90.000000
_cell_angle_beta 30.456147
_cell_angle_gamma 90.000000
_cell_volume 795.095448
_symmetry_space_group_name_H-M "P 2/C"
_symmetry_group_IT_number 13
_symmetry_cell_setting 'monoclinic'
loop_
_space_group_symop_operation_xyz
x,y,z
-x,y,1/2-z
-x,-y,-z
x,-y,1/2+z
loop_
_atom_site_type_symbol
_atom_site_label
_atom_site_fract_x
_atom_site_fract_y
_atom_site_fract_z
Si Si1 0.650419 0.812544 0.884222
Si Si2 0.931938 0.052329 0.121725
Si Si3 0.169278 0.551591 0.981543
Si Si4 0.593147 0.553598 0.043860
Si Si5 0.370979 0.827841 0.275228
O O1 0.566817 0.647989 0.876311
O O2 0.822656 0.971672 0.754022
O O3 0.701447 0.634314 0.914828
O O4 0.500000 0.000000 0.000000
O O5 0.802916 0.003183 0.137872
O O6 0.093550 0.844145 0.019948
O O7 0.003554 0.348057 0.076831
O O8 0.260230 0.560731 0.996150
O O9 0.310406 0.453643 0.842618
O O10 0.488184 0.792731 0.141012
O O11 0.500000 0.974311 0.250000
#
# Coordination Sequence:
#
# PCOD8121667 Si02
#       5
#     4   4   4   4   4
#     4  11  24  45  73  93 142 187 240 284 335 436
#     4  12  25  46  69 107 142 184 231 298 360 407
#     4  11  27  45  72 107 146 178 233 299 360 413
#     4  10  24  47  69 105 136 192 239 282 353 422
#     4  10  22  46  74 100 141 190 238 289 348 432
#
# _framework density 25.154214
#
# number of rings (size 3 to 8) (size 9 to 14) (size 15 to 20)
#    0.000    1.200    2.000    2.400    5.600    2.400 
#    0.000    7.000    0.000    0.000    0.000    0.000 
#    0.000    0.000    0.000    0.000    0.000    0.000 
#
# Total GULP energy -247931.938328 kJ/mol
# GULP energy per Si atom -12396.596916 kJ/mol
# Density = 2.509696 g / cm^3
# Si number density = 25.154214 Si / 1000 Ang^3
#
#
#
# Elastic Constant Matrix: (Units=GPa)
#
#
# Indices 1 2 3 4 5 6 
#
# 1 187.0939 24.2288 42.7772 0.0000 -2.7530 0.0000
# 2 24.2288 55.3310 12.7314 0.0000 11.0956 0.0000
# 3 42.7772 12.7314 109.9959 0.0000 16.2149 0.0000
# 4 0.0000 0.0000 0.0000 36.1563 0.0000 -1.3735
# 5 -2.7530 11.0956 16.2149 0.0000 40.7051 0.0000
# 6 0.0000 0.0000 0.0000 -1.3735 0.0000 14.9797
#
#
#
# Elastic Compliance Matrix: (Units=1/GPa)
#
#
# Indices 1 2 3 4 5 6 
#
# 1 0.006274 -0.002607 -0.002449 0.000000 0.002110 0.000000
# 2 -0.002607 0.020448 -0.000537 0.000000 -0.005536 0.000000
# 3 -0.002449 -0.000537 0.010739 0.000000 -0.004297 0.000000
# 4 0.000000 0.000000 0.000000 0.027754 0.000000 0.002545
# 5 0.002110 -0.005536 -0.004297 0.000000 0.027931 0.000000
# 6 0.000000 0.000000 0.000000 0.002545 0.000000 0.066990
#
#
# Mechanical properties :
#
#
# Convention : Reuss Voigt Hill
#
# Bulk Modulus (GPa) = 38.05825 56.87729 47.46777
# Shear Modulus (GPa) = 27.76534 36.54712 32.15623
#
# Velocity S-wave (km/s) = 3.32596 3.81586 3.57930
# Velocity P-wave (km/s) = 5.46920 6.48651 5.99946
#
# Compressibility (1/GPa) = 0.02627551
#
# Stress axis : x y z
#
# Youngs Moduli (GPa) = 159.40018 48.90393 93.11559
#
# Poissons Ratio (x) = 0.12748 0.22805
# Poissons Ratio (y) = 0.41552 0.04999
# Poissons Ratio (z) = 0.39040 0.02626
#
# Static dielectric constant tensor:
#      x y z
#    x 4.923450 0.000000 0.372450 
#    y 0.000000 3.726200 0.000000 
#    z 0.372450 0.000000 4.963750 
# 
# 
# High freq. dielectric constant tensor:
#      x y z
#    x 2.016290 0.000000 0.013170 
#    y 0.000000 1.987520 0.000000 
#    z 0.013170 0.000000 2.016160 
# 
# From -- ./inp_files/79192.got.cif
#   From: 2010.06.25/outbox.cif.g09.slc.cpg/sg13_40_cif.got.tgz:79192.got - 2010.06.28 04:50:58.
