data_PCOD8121737
_publ_section_title
;
Structure prediction by ZEFSAII (Michael W. Deem and Ramdas Pophale) SiO2 
 PCOD8121737
Probable space group: P 2/C
;
_chemical_formula_sum "Si O2"
_cell_formula_units_Z 28
_cell_length_a 17.045546
_cell_length_b 8.649538
_cell_length_c 17.447934
_cell_angle_alpha 90.000000
_cell_angle_beta 31.906620
_cell_angle_gamma 90.000000
_cell_volume 1359.636323
_symmetry_space_group_name_H-M "P 2/C"
_symmetry_group_IT_number 13
_symmetry_cell_setting 'monoclinic'
loop_
_space_group_symop_operation_xyz
x,y,z
-x,y,1/2-z
-x,-y,-z
x,-y,1/2+z
loop_
_atom_site_type_symbol
_atom_site_label
_atom_site_fract_x
_atom_site_fract_y
_atom_site_fract_z
Si Si1 0.077497 0.678806 0.605878
Si Si2 0.361071 0.146219 0.912326
Si Si3 0.668687 0.791888 0.601259
Si Si4 0.655253 0.945601 0.906474
Si Si5 0.920016 0.637880 0.474568
Si Si6 0.131959 0.189011 0.693218
Si Si7 0.072524 0.848594 0.898309
O O1 0.238613 0.730238 0.495859
O O2 0.099258 0.542133 0.525849
O O3 0.000000 0.630061 0.750000
O O4 0.996507 0.820962 0.629198
O O5 0.500000 0.208228 0.750000
O O6 0.318762 0.976532 0.916718
O O7 0.389432 0.149019 0.980372
O O8 0.500000 0.734953 0.750000
O O9 0.766499 0.733169 0.590556
O O10 0.747013 0.721925 0.460247
O O11 0.747978 0.857140 0.763437
O O12 0.777272 0.073657 0.828463
O O13 0.500000 0.000000 0.000000
O O14 0.961466 0.690776 0.526085
O O15 0.056065 0.683451 0.307716
O O16 0.000000 0.109651 0.750000
O O17 0.000000 0.000000 0.000000
#
# Coordination Sequence:
#
# PCOD8121737 Si02
#       7
#     4   4   4   4   4   4   4
#     4  12  25  44  66  95 134 181 226 275 333 417
#     4  10  23  40  66  95 131 170 228 278 332 393
#     4   9  19  35  63  93 124 166 219 274 325 391
#     4  11  24  39  66 102 133 168 218 288 344 388
#     4  11  23  40  64  95 132 176 217 276 337 398
#     4   9  19  37  62  93 130 166 222 269 325 388
#     4  12  25  42  70  98 132 171 227 283 340 390
#
# _framework density 20.593741999999999
#
# number of rings (size 3 to 8) (size 9 to 14) (size 15 to 20)
#    0.000    1.429    2.857    2.571   12.000    0.571 
#    0.000    0.000    0.000    1.714    0.000    0.000 
#    0.000    0.000    0.000    0.000    0.000    0.000 
#
# Total GULP energy -346877.987791 kJ/mol
# GULP energy per Si atom -12388.499564 kJ/mol
# Density = 2.054687 g / cm^3
# Si number density = 20.593742 Si / 1000 Ang^3
#
#
#
# Elastic Constant Matrix: (Units=GPa)
#
#
# Indices 1 2 3 4 5 6 
#
# 1 114.5626 48.9833 57.3478 0.0000 -3.9747 0.0000
# 2 48.9833 63.0272 37.1863 0.0000 1.2438 0.0000
# 3 57.3478 37.1863 180.7143 0.0000 -6.9861 0.0000
# 4 0.0000 0.0000 0.0000 22.0869 0.0000 8.2329
# 5 -3.9747 1.2438 -6.9861 0.0000 37.2322 0.0000
# 6 0.0000 0.0000 0.0000 8.2329 0.0000 7.8929
#
#
#
# Elastic Compliance Matrix: (Units=1/GPa)
#
#
# Indices 1 2 3 4 5 6 
#
# 1 0.014074 -0.009516 -0.002456 0.000000 0.001360 0.000000
# 2 -0.009516 0.024556 -0.002120 0.000000 -0.002234 0.000000
# 3 -0.002456 -0.002120 0.006791 0.000000 0.001083 0.000000
# 4 0.000000 0.000000 0.000000 0.074078 0.000000 -0.077268
# 5 0.001360 -0.002234 0.001083 0.000000 0.027281 0.000000
# 6 0.000000 0.000000 0.000000 -0.077268 0.000000 0.207292
#
#
# Mechanical properties :
#
#
# Convention : Reuss Voigt Hill
#
# Bulk Modulus (GPa) = 58.00815 71.70430 64.85623
# Shear Modulus (GPa) = 12.88655 27.76151 20.32403
#
# Velocity S-wave (km/s) = 2.50421 3.67557 3.14491
# Velocity P-wave (km/s) = 6.04900 7.27373 6.68946
#
# Compressibility (1/GPa) = 0.01723896
#
# Stress axis : x y z
#
# Youngs Moduli (GPa) = 71.05320 40.72243 147.25685
#
# Poissons Ratio (x) = 0.38752 0.36159
# Poissons Ratio (y) = 0.67614 0.31213
# Poissons Ratio (z) = 0.17447 0.08632
#
# Static dielectric constant tensor:
#      x y z
#    x 5.454440 0.000000 4.362470 
#    y 0.000000 3.363730 0.000000 
#    z 4.362470 0.000000 15.063310 
# 
# 
# High freq. dielectric constant tensor:
#      x y z
#    x 1.808940 0.000000 0.008660 
#    y 0.000000 1.770980 0.000000 
#    z 0.008660 0.000000 1.826790 
# 
# From -- ./inp_files/69645.got.cif
#   From: 2010.06.25/outbox.cif.g09.slc.cpg/sg13_35_cif.got.tgz:69645.got - 2010.06.28 04:50:58.
