data_PCOD8121064
_publ_section_title
;
Structure prediction by ZEFSAII (Michael W. Deem and Ramdas Pophale) SiO2 
 PCOD8121064
Probable space group: P 2/C
;
_chemical_formula_sum "Si O2"
_cell_formula_units_Z 20
_cell_length_a 17.358905
_cell_length_b 5.005722
_cell_length_c 25.864818
_cell_angle_alpha 90.000000
_cell_angle_beta 25.266449
_cell_angle_gamma 90.000000
_cell_volume 959.294092
_symmetry_space_group_name_H-M "P 2/C"
_symmetry_group_IT_number 13
_symmetry_cell_setting 'monoclinic'
loop_
_space_group_symop_operation_xyz
x,y,z
-x,y,1/2-z
-x,-y,-z
x,-y,1/2+z
loop_
_atom_site_type_symbol
_atom_site_label
_atom_site_fract_x
_atom_site_fract_y
_atom_site_fract_z
Si Si1 0.571947 0.033284 0.112320
Si Si2 0.021583 0.468284 0.357960
Si Si3 0.328771 0.446515 0.753844
Si Si4 0.948677 0.954429 0.339284
Si Si5 0.306041 0.646815 0.377955
O O1 0.454190 0.298363 0.189801
O O2 0.454843 0.794591 0.157884
O O3 0.652193 0.932604 0.119473
O O4 0.733842 0.082262 0.973813
O O5 0.046655 0.683171 0.297628
O O6 0.830123 0.523696 0.503513
O O7 0.183695 0.478201 0.299543
O O8 0.024628 0.178786 0.331182
O O9 0.225552 0.335199 0.868509
O O10 0.000000 0.024128 0.250000
O O11 0.500000 0.501877 0.250000
#
# Coordination Sequence:
#
# PCOD8121064 Si02
#       5
#     4   4   4   4   4
#     4  10  22  39  60  86 119 159 198 232 287 358
#     4  11  23  39  62  91 118 150 198 246 292 344
#     4  11  22  39  59  92 125 151 187 245 294 344
#     4  11  23  43  63  83 113 158 203 245 290 347
#     4   9  20  36  59  86 119 158 189 224 284 355
#
# _framework density 20.848665
#
# number of rings (size 3 to 8) (size 9 to 14) (size 15 to 20)
#    0.000    1.600    0.000    6.000    0.000   15.200 
#    0.000   16.000    0.000    0.000    0.000    0.000 
#    0.000    0.000    0.000    0.000    0.000    0.000 
#
# Total GULP energy -247830.253616 kJ/mol
# GULP energy per Si atom -12391.512681 kJ/mol
# Density = 2.080121 g / cm^3
# Si number density = 20.848665 Si / 1000 Ang^3
#
#
#
# Elastic Constant Matrix: (Units=GPa)
#
#
# Indices 1 2 3 4 5 6 
#
# 1 90.3969 0.2242 63.1438 0.0000 6.3440 0.0000
# 2 0.2242 79.7598 35.5305 0.0000 -0.7429 0.0000
# 3 63.1438 35.5305 96.5128 0.0000 11.1708 0.0000
# 4 0.0000 0.0000 0.0000 19.4857 0.0000 -9.2420
# 5 6.3440 -0.7429 11.1708 0.0000 19.8102 0.0000
# 6 0.0000 0.0000 0.0000 -9.2420 0.0000 23.3332
#
#
#
# Elastic Compliance Matrix: (Units=1/GPa)
#
#
# Indices 1 2 3 4 5 6 
#
# 1 0.024538 0.008732 -0.019682 0.000000 0.003568 0.000000
# 2 0.008732 0.018396 -0.013096 0.000000 0.005278 0.000000
# 3 -0.019682 -0.013096 0.029299 0.000000 -0.010710 0.000000
# 4 0.000000 0.000000 0.000000 0.063191 0.000000 0.025029
# 5 0.003568 0.005278 -0.010710 0.000000 0.055574 0.000000
# 6 0.000000 0.000000 0.000000 0.025029 0.000000 0.052771
#
#
# Mechanical properties :
#
#
# Convention : Reuss Voigt Hill
#
# Bulk Modulus (GPa) = 41.42279 51.60740 46.51509
# Shear Modulus (GPa) = 16.67173 23.71056 20.19114
#
# Velocity S-wave (km/s) = 2.83088 3.37600 3.11539
# Velocity P-wave (km/s) = 5.53142 6.32484 5.94139
#
# Compressibility (1/GPa) = 0.02414130
#
# Stress axis : x y z
#
# Youngs Moduli (GPa) = 40.75248 54.35893 34.13070
#
# Poissons Ratio (x) = -0.47466 0.67176
# Poissons Ratio (y) = -0.35585 0.44698
# Poissons Ratio (z) = 0.80208 0.71190
#
# Static dielectric constant tensor:
#      x y z
#    x 3.830960 0.000000 0.019860 
#    y 0.000000 3.754350 0.000000 
#    z 0.019860 0.000000 3.869910 
# 
# 
# High freq. dielectric constant tensor:
#      x y z
#    x 1.805310 0.000000 -0.002990 
#    y 0.000000 1.824180 0.000000 
#    z -0.002990 0.000000 1.808400 
# 
# From -- ./inp_files/86944.got.cif
#   From: 2010.06.25/outbox.cif.g09.slc.cpg/sg13_44_cif.got.tgz:86944.got - 2010.06.28 04:50:58.
