data_PCOD8121542
_publ_section_title
;
Structure prediction by ZEFSAII (Michael W. Deem and Ramdas Pophale) SiO2 
 PCOD8121542
Probable space group: P 2/C
;
_chemical_formula_sum "Si O2"
_cell_formula_units_Z 26
_cell_length_a 11.066617
_cell_length_b 9.573217
_cell_length_c 11.049267
_cell_angle_alpha 90.000000
_cell_angle_beta 88.127913
_cell_angle_gamma 90.000000
_cell_volume 1169.969081
_symmetry_space_group_name_H-M "P 2/C"
_symmetry_group_IT_number 13
_symmetry_cell_setting 'monoclinic'
loop_
_space_group_symop_operation_xyz
x,y,z
-x,y,1/2-z
-x,-y,-z
x,-y,1/2+z
loop_
_atom_site_type_symbol
_atom_site_label
_atom_site_fract_x
_atom_site_fract_y
_atom_site_fract_z
Si Si1 0.603266 0.927736 0.073769
Si Si2 0.371843 0.786501 0.823136
Si Si3 0.500000 0.303349 0.750000
Si Si4 0.667891 0.401803 0.945918
Si Si5 0.752286 0.307297 0.519130
Si Si6 0.133261 0.630901 0.241766
Si Si7 0.126564 0.318179 0.215695
O O1 0.568676 0.796545 0.156611
O O2 0.696429 0.845570 0.982895
O O3 0.656120 0.049893 0.154856
O O4 0.500000 0.000000 0.000000
O O5 0.500000 0.763462 0.750000
O O6 0.254495 0.744536 0.751627
O O7 0.377887 0.706254 0.951467
O O8 0.585024 0.403165 0.827937
O O9 0.801235 0.355302 0.891854
O O10 0.663802 0.558784 0.000254
O O11 0.788472 0.294977 0.657761
O O12 0.868992 0.328875 0.430111
O O13 0.120213 0.468642 0.279873
O O14 0.000000 0.700323 0.250000
O O15 0.000000 0.237251 0.250000
#
# Coordination Sequence:
#
# PCOD8121542 Si02
#       7
#     4   4   2   4   4   4   4
#     4  12  25  45  65  95 141 191 226 279 353 428
#     4  12  25  45  71 102 141 191 231 287 353 426
#     4  12  24  44  68 100 142 180 228 284 354 412
#     4  11  25  44  71 104 138 173 242 295 344 416
#     4  11  24  46  68 105 136 179 235 293 354 414
#     4  10  22  43  73 103 137 181 228 295 359 416
#     4  10  24  43  70 102 141 181 233 288 354 424
#
# _framework density 22.222809000000002
#
# number of rings (size 3 to 8) (size 9 to 14) (size 15 to 20)
#    0.000    0.923    5.385    0.923    2.154    2.462 
#   15.231    1.538    0.000    0.000    0.000    0.000 
#    0.000    0.000    0.000    0.000    0.000    0.000 
#
# Total GULP energy -322127.533731 kJ/mol
# GULP energy per Si atom -12389.520528 kJ/mol
# Density = 2.217223 g / cm^3
# Si number density = 22.222809 Si / 1000 Ang^3
#
#
#
# Elastic Constant Matrix: (Units=GPa)
#
#
# Indices 1 2 3 4 5 6 
#
# 1 149.4776 56.3779 53.5220 0.0000 -8.0036 0.0000
# 2 56.3779 97.5131 33.6359 0.0000 -0.2423 0.0000
# 3 53.5220 33.6359 105.2358 0.0000 -4.6827 0.0000
# 4 0.0000 0.0000 0.0000 26.6798 0.0000 -0.8264
# 5 -8.0036 -0.2423 -4.6827 0.0000 35.2905 0.0000
# 6 0.0000 0.0000 0.0000 -0.8264 0.0000 14.7997
#
#
#
# Elastic Compliance Matrix: (Units=1/GPa)
#
#
# Indices 1 2 3 4 5 6 
#
# 1 0.009672 -0.004403 -0.003436 0.000000 0.001707 0.000000
# 2 -0.004403 0.013536 -0.002140 0.000000 -0.001190 0.000000
# 3 -0.003436 -0.002140 0.011969 0.000000 0.000794 0.000000
# 4 0.000000 0.000000 0.000000 0.037546 0.000000 0.002097
# 5 0.001707 -0.001190 0.000794 0.000000 0.028821 0.000000
# 6 0.000000 0.000000 0.000000 0.002097 0.000000 0.067686
#
#
# Mechanical properties :
#
#
# Convention : Reuss Voigt Hill
#
# Bulk Modulus (GPa) = 65.70421 71.03312 68.36866
# Shear Modulus (GPa) = 25.73856 29.26673 27.50265
#
# Velocity S-wave (km/s) = 3.40693 3.63294 3.52175
# Velocity P-wave (km/s) = 6.71614 7.04494 6.88250
#
# Compressibility (1/GPa) = 0.01521973
#
# Stress axis : x y z
#
# Youngs Moduli (GPa) = 103.38893 73.87880 83.54637
#
# Poissons Ratio (x) = 0.32526 0.28707
# Poissons Ratio (y) = 0.45518 0.17880
# Poissons Ratio (z) = 0.35525 0.15811
#
# Static dielectric constant tensor:
#      x y z
#    x 4.553430 0.000000 -0.576300 
#    y 0.000000 4.150540 0.000000 
#    z -0.576300 0.000000 4.821480 
# 
# 
# High freq. dielectric constant tensor:
#      x y z
#    x 1.875040 0.000000 -0.012060 
#    y 0.000000 1.854620 0.000000 
#    z -0.012060 0.000000 1.890730 
# 
# From -- ./inp_files/32635.got.cif
#   From: 2010.06.25/outbox.cif.g09.slc.cpg/sg13_17_cif.got.tgz:32635.got - 2010.06.28 04:50:58.
