data_PCOD8121847
_publ_section_title
;
Structure prediction by ZEFSAII (Michael W. Deem and Ramdas Pophale) SiO2 
 PCOD8121847
Probable space group: P 2/C
;
_chemical_formula_sum "Si O2"
_cell_formula_units_Z 28
_cell_length_a 6.618258
_cell_length_b 16.117037
_cell_length_c 15.189278
_cell_angle_alpha 90.000000
_cell_angle_beta 123.468180
_cell_angle_gamma 90.000000
_cell_volume 1351.550140
_symmetry_space_group_name_H-M "P 2/C"
_symmetry_group_IT_number 13
_symmetry_cell_setting 'monoclinic'
loop_
_space_group_symop_operation_xyz
x,y,z
-x,y,1/2-z
-x,-y,-z
x,-y,1/2+z
loop_
_atom_site_type_symbol
_atom_site_label
_atom_site_fract_x
_atom_site_fract_y
_atom_site_fract_z
Si Si1 0.814425 0.101823 0.469349
Si Si2 0.504255 0.800199 0.030447
Si Si3 0.968506 0.802764 0.841986
Si Si4 0.255587 0.639084 0.649306
Si Si5 0.370789 0.629071 0.483146
Si Si6 0.650577 0.070148 0.872794
Si Si7 0.131030 0.467506 0.372941
O O1 0.640501 0.163094 0.479077
O O2 0.841018 0.128184 0.372954
O O3 0.076954 0.103045 0.581065
O O4 0.687587 0.011750 0.441293
O O5 0.612574 0.708677 0.078255
O O6 0.514610 0.862436 0.115511
O O7 0.229081 0.781940 0.941761
O O8 0.816231 0.717955 0.807942
O O9 0.000000 0.836591 0.750000
O O10 0.500000 0.601626 0.750000
O O11 0.284303 0.666203 0.555430
O O12 0.055546 0.566278 0.599103
O O13 0.177130 0.565306 0.396304
O O14 0.623058 0.583321 0.559917
O O15 0.500000 0.048424 0.750000
O O16 0.000000 0.449741 0.250000
#
# Coordination Sequence:
#
# PCOD8121847 Si02
#       7
#     4   4   4   4   4   4   4
#     4  10  23  43  66  95 131 167 217 259 325 379
#     4  11  22  43  64  94 129 171 213 265 315 387
#     4  11  23  35  61 101 129 163 215 270 323 387
#     4  12  21  37  62  91 129 169 207 267 332 378
#     4  11  23  40  67  86 130 170 206 272 317 374
#     4  10  24  44  65  96 131 169 214 266 311 388
#     4  11  23  42  60  94 124 163 219 262 322 384
#
# _framework density 20.716953
#
# number of rings (size 3 to 8) (size 9 to 14) (size 15 to 20)
#    0.000    1.143    4.286    2.143    2.000    0.571 
#    2.571    0.000    0.000    0.000    0.000    0.000 
#    0.000    0.000    0.000    0.000    0.000    0.000 
#
# Total GULP energy -347177.019752 kJ/mol
# GULP energy per Si atom -12399.179277 kJ/mol
# Density = 2.066980 g / cm^3
# Si number density = 20.716953 Si / 1000 Ang^3
#
#
#
# Elastic Constant Matrix: (Units=GPa)
#
#
# Indices 1 2 3 4 5 6 
#
# 1 90.6227 40.3658 23.9525 0.0000 2.0505 0.0000
# 2 40.3658 132.1898 20.7477 0.0000 3.9422 0.0000
# 3 23.9525 20.7477 66.7833 0.0000 5.3156 0.0000
# 4 0.0000 0.0000 0.0000 25.5502 0.0000 -1.2191
# 5 2.0505 3.9422 5.3156 0.0000 20.6036 0.0000
# 6 0.0000 0.0000 0.0000 -1.2191 0.0000 33.9458
#
#
#
# Elastic Compliance Matrix: (Units=1/GPa)
#
#
# Indices 1 2 3 4 5 6 
#
# 1 0.013624 -0.003573 -0.003801 0.000000 0.000308 0.000000
# 2 -0.003573 0.008906 -0.001407 0.000000 -0.000985 0.000000
# 3 -0.003801 -0.001407 0.017073 0.000000 -0.003757 0.000000
# 4 0.000000 0.000000 0.000000 0.039206 0.000000 0.001408
# 5 0.000308 -0.000985 -0.003757 0.000000 0.049662 0.000000
# 6 0.000000 0.000000 0.000000 0.001408 0.000000 0.029509
#
#
# Mechanical properties :
#
#
# Convention : Reuss Voigt Hill
#
# Bulk Modulus (GPa) = 45.36855 51.08086 48.22471
# Shear Modulus (GPa) = 27.33892 29.65524 28.49708
#
# Velocity S-wave (km/s) = 3.63663 3.78755 3.71286
# Velocity P-wave (km/s) = 6.29128 6.62099 6.45824
#
# Compressibility (1/GPa) = 0.02204170
#
# Stress axis : x y z
#
# Youngs Moduli (GPa) = 73.40078 112.28239 58.57131
#
# Poissons Ratio (x) = 0.40117 0.22262
# Poissons Ratio (y) = 0.26225 0.08241
# Poissons Ratio (z) = 0.27899 0.15798
#
# Static dielectric constant tensor:
#      x y z
#    x 4.078170 0.000000 0.080250 
#    y 0.000000 3.853700 0.000000 
#    z 0.080250 0.000000 3.448700 
# 
# 
# High freq. dielectric constant tensor:
#      x y z
#    x 1.824520 0.000000 0.008370 
#    y 0.000000 1.817740 0.000000 
#    z 0.008370 0.000000 1.783030 
# 
# From -- ./inp_files/44533.got.cif
#   From: 2010.06.25/outbox.cif.g09.slc.cpg/sg13_23_cif.got.tgz:44533.got - 2010.06.28 04:50:58.
