data_PCOD8121144
_publ_section_title
;
Structure prediction by ZEFSAII (Michael W. Deem and Ramdas Pophale) SiO2 
 PCOD8121144
Probable space group: P 2/C
;
_chemical_formula_sum "Si O2"
_cell_formula_units_Z 28
_cell_length_a 7.553838
_cell_length_b 18.274903
_cell_length_c 18.327808
_cell_angle_alpha 90.000000
_cell_angle_beta 145.518374
_cell_angle_gamma 90.000000
_cell_volume 1432.381121
_symmetry_space_group_name_H-M "P 2/C"
_symmetry_group_IT_number 13
_symmetry_cell_setting 'monoclinic'
loop_
_space_group_symop_operation_xyz
x,y,z
-x,y,1/2-z
-x,-y,-z
x,-y,1/2+z
loop_
_atom_site_type_symbol
_atom_site_label
_atom_site_fract_x
_atom_site_fract_y
_atom_site_fract_z
Si Si1 0.273273 0.335529 0.991763
Si Si2 0.200274 0.934350 0.100137
Si Si3 0.098230 0.819575 0.399357
Si Si4 0.211186 0.408970 0.250001
Si Si5 0.500800 0.819575 0.100642
Si Si6 0.788686 0.425532 0.749999
Si Si7 0.306218 0.664471 0.008235
O O1 0.187053 0.251039 0.978004
O O2 0.475525 0.339867 0.987763
O O3 0.964404 0.384555 0.875752
O O4 0.464191 0.366999 0.125149
O O5 0.500000 0.960768 0.250000
O O6 0.314207 0.887760 0.069649
O O7 0.964388 0.887760 0.069649
O O8 0.000000 0.000000 0.000000
O O9 0.376994 0.841254 0.438497
O O10 0.790135 0.797541 0.249999
O O11 0.283109 0.491669 0.250001
O O12 0.000000 0.408529 0.250000
O O13 0.036409 0.366998 0.125152
O O14 0.275037 0.748961 0.021995
O O15 0.461392 0.384554 0.624245
O O16 0.000000 0.424932 0.750000
#
# Coordination Sequence:
#
# PCOD8121144 Si02
#       7
#     4   4   4   4   4   4   4
#     4   9  15  25  41  65  98 134 175 215 252 301
#     4  10  22  40  60  84 109 133 168 210 257 317
#     4   9  17  33  57  80 105 140 177 211 251 307
#     4   9  16  22  34  65 103 134 171 221 264 294
#     4   9  17  33  57  80 105 140 177 211 251 307
#     4   9  14  22  38  61  95 138 177 215 258 300
#     4   9  15  25  41  65  98 134 175 215 252 301
#
# _framework density 19.547868999999999
#
# number of rings (size 3 to 8) (size 9 to 14) (size 15 to 20)
#    0.000    2.857    1.429    0.857    0.000    4.000 
#    2.571    0.000    0.000    0.000    0.000    6.000 
#    0.000    0.000    0.000    0.000    0.000    0.000 
#
# Total GULP energy -347140.783341 kJ/mol
# GULP energy per Si atom -12397.885119 kJ/mol
# Density = 1.950338 g / cm^3
# Si number density = 19.547869 Si / 1000 Ang^3
#
#
#
# Elastic Constant Matrix: (Units=GPa)
#
#
# Indices 1 2 3 4 5 6 
#
# 1 61.1902 48.5003 25.1395 0.0000 0.2208 0.0000
# 2 48.5003 173.5835 101.5460 0.0000 -0.4332 0.0000
# 3 25.1395 101.5460 161.0388 0.0000 -1.0369 0.0000
# 4 0.0000 0.0000 0.0000 41.7960 0.0000 -0.5991
# 5 0.2208 -0.4332 -1.0369 0.0000 4.4516 0.0000
# 6 0.0000 0.0000 0.0000 -0.5991 0.0000 -31.5981
#
#
#
# Elastic Compliance Matrix: (Units=1/GPa)
#
#
# Indices 1 2 3 4 5 6 
#
# 1 0.021047 -0.006269 0.000658 0.000000 -0.001501 0.000000
# 2 -0.006269 0.010996 -0.005955 0.000000 -0.000006 0.000000
# 3 0.000658 -0.005955 0.009873 0.000000 0.001688 0.000000
# 4 0.000000 0.000000 0.000000 0.023919 0.000000 -0.000453
# 5 -0.001501 -0.000006 0.001688 0.000000 0.225104 0.000000
# 6 0.000000 0.000000 0.000000 -0.000453 0.000000 -0.031639
#
#
# Mechanical properties :
#
#
# Convention : Reuss Voigt Hill
#
# Bulk Modulus (GPa) = 53.23983 82.90935 68.07459
# Shear Modulus (GPa) = 17.31931 17.63835 17.47883
#
# Velocity S-wave (km/s) = 2.97980 3.00712 2.99349
# Velocity P-wave (km/s) = 6.25569 7.38665 6.84457
#
# Compressibility (1/GPa) = 0.01878293
#
# Stress axis : x y z
#
# Youngs Moduli (GPa) = 47.51348 90.93858 101.28521
#
# Poissons Ratio (x) = 0.57011 -0.06664
# Poissons Ratio (y) = 0.29787 0.60319
# Poissons Ratio (z) = -0.03126 0.54157
#
# Static dielectric constant tensor:
#      x y z
#    x 3.333260 0.000000 -0.002880 
#    y 0.000000 3.466210 0.000000 
#    z -0.002880 0.000000 3.684660 
# 
# 
# High freq. dielectric constant tensor:
#      x y z
#    x 1.738500 0.000000 -0.000120 
#    y 0.000000 1.753760 0.000000 
#    z -0.000120 0.000000 1.752860 
# 
# From -- ./inp_files/76771.got.cif
#   From: 2010.06.25/outbox.cif.g09.slc.cpg/sg13_39_cif.got.tgz:76771.got - 2010.06.28 04:50:58.
