data_PCOD8121302
_publ_section_title
;
Structure prediction by ZEFSAII (Michael W. Deem and Ramdas Pophale) SiO2 
 PCOD8121302
Probable space group: P 2/C
;
_chemical_formula_sum "Si O2"
_cell_formula_units_Z 32
_cell_length_a 14.598856
_cell_length_b 8.068918
_cell_length_c 22.744210
_cell_angle_alpha 90.000000
_cell_angle_beta 30.763076
_cell_angle_gamma 90.000000
_cell_volume 1370.381403
_symmetry_space_group_name_H-M "P 2/C"
_symmetry_group_IT_number 13
_symmetry_cell_setting 'monoclinic'
loop_
_space_group_symop_operation_xyz
x,y,z
-x,y,1/2-z
-x,-y,-z
x,-y,1/2+z
loop_
_atom_site_type_symbol
_atom_site_label
_atom_site_fract_x
_atom_site_fract_y
_atom_site_fract_z
Si Si1 0.011417 0.255549 0.035770
Si Si2 0.850426 0.657092 0.290072
Si Si3 0.190036 0.710873 0.663541
Si Si4 0.019374 0.622018 0.070251
Si Si5 0.404737 0.251724 0.361729
Si Si6 0.529372 0.161675 0.913006
Si Si7 0.611011 0.857264 0.132609
Si Si8 0.694772 0.177245 0.282247
O O1 0.960948 0.442500 0.080484
O O2 0.843267 0.138540 0.149014
O O3 0.187969 0.207270 0.973587
O O4 0.031338 0.244824 0.953600
O O5 0.806315 0.486850 0.349733
O O6 0.660510 0.745937 0.386229
O O7 0.000000 0.747016 0.250000
O O8 0.919720 0.657929 0.185289
O O9 0.337074 0.822898 0.550146
O O10 0.201538 0.716601 0.727233
O O11 0.000000 0.787468 0.750000
O O12 0.230227 0.637813 0.966624
O O13 0.500000 0.310097 0.250000
O O14 0.537336 0.291114 0.342522
O O15 0.373244 0.054728 0.380439
O O16 0.492096 0.224307 0.866637
O O17 0.609417 0.979368 0.862178
O O18 0.500000 0.798580 0.250000
#
# Coordination Sequence:
#
# PCOD8121302 Si02
#       8
#     4   4   4   4   4   4   4   4
#     4  11  23  42  69 102 134 177 229 293 343 423
#     4  11  26  44  66 102 138 185 237 288 344 413
#     4  11  24  46  69  94 139 183 234 290 342 407
#     4  11  24  42  67  98 137 180 234 277 362 406
#     4  10  22  41  64  99 136 177 219 284 349 420
#     4  11  25  43  69 101 134 183 232 284 355 414
#     4  10  23  42  66  98 137 176 227 282 349 413
#     4  11  23  43  68 100 136 174 231 288 351 409
#
# _framework density 23.351161999999999
#
# number of rings (size 3 to 8) (size 9 to 14) (size 15 to 20)
#    0.000    1.250    2.500    2.250    5.250    2.500 
#    0.000    0.000    0.000    0.000    0.000    0.000 
#    0.000    0.000    0.000    0.000    0.000    0.000 
#
# Total GULP energy -396550.206450 kJ/mol
# GULP energy per Si atom -12392.193952 kJ/mol
# Density = 2.329801 g / cm^3
# Si number density = 23.351162 Si / 1000 Ang^3
#
#
#
# Elastic Constant Matrix: (Units=GPa)
#
#
# Indices 1 2 3 4 5 6 
#
# 1 179.0513 17.5548 36.3516 0.0000 -19.4844 0.0000
# 2 17.5548 40.6468 35.2392 0.0000 -4.7899 0.0000
# 3 36.3516 35.2392 118.4473 0.0000 -13.0250 0.0000
# 4 0.0000 0.0000 0.0000 31.8250 0.0000 -3.0512
# 5 -19.4844 -4.7899 -13.0250 0.0000 51.4224 0.0000
# 6 0.0000 0.0000 0.0000 -3.0512 0.0000 25.5763
#
#
#
# Elastic Compliance Matrix: (Units=1/GPa)
#
#
# Indices 1 2 3 4 5 6 
#
# 1 0.006184 -0.001324 -0.001296 0.000000 0.001891 0.000000
# 2 -0.001324 0.033455 -0.009525 0.000000 0.000202 0.000000
# 3 -0.001296 -0.009525 0.011853 0.000000 0.001624 0.000000
# 4 0.000000 0.000000 0.000000 0.031785 0.000000 0.003792
# 5 0.001891 0.000202 0.001624 0.000000 0.020594 0.000000
# 6 0.000000 0.000000 0.000000 0.003792 0.000000 0.039551
#
#
# Mechanical properties :
#
#
# Convention : Reuss Voigt Hill
#
# Bulk Modulus (GPa) = 36.76192 57.38188 47.07190
# Shear Modulus (GPa) = 28.28394 38.36472 33.32433
#
# Velocity S-wave (km/s) = 3.48407 4.05773 3.78179
# Velocity P-wave (km/s) = 5.65351 6.82498 6.26668
#
# Compressibility (1/GPa) = 0.02720206
#
# Stress axis : x y z
#
# Youngs Moduli (GPa) = 161.71426 29.89050 84.37035
#
# Poissons Ratio (x) = 0.03959 0.10933
# Poissons Ratio (y) = 0.21417 0.80360
# Poissons Ratio (z) = 0.20955 0.28470
#
# Static dielectric constant tensor:
#      x y z
#    x 4.895080 0.000000 -0.158820 
#    y 0.000000 3.803240 0.000000 
#    z -0.158820 0.000000 4.266250 
# 
# 
# High freq. dielectric constant tensor:
#      x y z
#    x 1.955280 0.000000 -0.005420 
#    y 0.000000 1.888620 0.000000 
#    z -0.005420 0.000000 1.928730 
# 
# From -- ./inp_files/87393.got.cif
#   From: 2010.06.25/outbox.cif.g09.slc.cpg/sg13_44_cif.got.tgz:87393.got - 2010.06.28 04:50:58.
