data_PCOD8121968
_publ_section_title
;
Structure prediction by ZEFSAII (Michael W. Deem and Ramdas Pophale) SiO2 
 PCOD8121968
Probable space group: P 2/C
;
_chemical_formula_sum "Si O2"
_cell_formula_units_Z 32
_cell_length_a 18.327483
_cell_length_b 12.793754
_cell_length_c 12.495568
_cell_angle_alpha 90.000000
_cell_angle_beta 149.807502
_cell_angle_gamma 90.000000
_cell_volume 1473.480229
_symmetry_space_group_name_H-M "P 2/C"
_symmetry_group_IT_number 13
_symmetry_cell_setting 'monoclinic'
loop_
_space_group_symop_operation_xyz
x,y,z
-x,y,1/2-z
-x,-y,-z
x,-y,1/2+z
loop_
_atom_site_type_symbol
_atom_site_label
_atom_site_fract_x
_atom_site_fract_y
_atom_site_fract_z
Si Si1 0.439534 0.633414 0.011275
Si Si2 0.315251 0.787228 0.122157
Si Si3 0.155974 0.733611 0.709671
Si Si4 0.556619 0.605501 0.936458
Si Si5 0.157829 0.042344 0.681351
Si Si6 0.646503 0.012877 0.385487
Si Si7 0.167159 0.275834 0.651030
Si Si8 0.850002 0.890908 0.996764
O O1 0.268907 0.644199 0.819349
O O2 0.466912 0.657485 0.920067
O O3 0.543448 0.712503 0.208712
O O4 0.476061 0.517036 0.094205
O O5 0.374914 0.906160 0.211485
O O6 0.210099 0.744697 0.082477
O O7 0.218072 0.789106 0.892966
O O8 0.149428 0.809378 0.598679
O O9 0.998608 0.684896 0.540946
O O10 0.500000 0.645368 0.750000
O O11 0.725929 0.638169 0.161529
O O12 0.177955 0.165288 0.725306
O O13 0.184682 0.007374 0.593260
O O14 0.000000 0.000000 0.500000
O O15 0.255801 0.981146 0.889554
O O16 0.500000 0.057230 0.250000
O O17 0.716193 0.112688 0.410652
O O18 0.000000 0.883923 0.250000
#
# Coordination Sequence:
#
# PCOD8121968 Si02
#       8
#     4   4   4   4   4   4   4   4
#     4  10  24  44  70  97 130 169 215 270 337 390
#     4  11  22  40  64  94 128 172 214 269 326 393
#     4  12  23  40  65  97 129 165 222 272 320 385
#     4  10  23  47  71  94 130 176 212 267 337 396
#     4  12  22  41  61  87 131 179 209 255 326 392
#     4  12  25  38  60  93 130 168 227 275 311 374
#     4  11  24  39  68  97 127 169 224 264 324 385
#     4  12  25  40  62  87 132 182 214 254 327 389
#
# _framework density 21.717290999999999
#
# number of rings (size 3 to 8) (size 9 to 14) (size 15 to 20)
#    0.000    0.750    5.000    2.250    0.000    5.500 
#    0.000    0.000    0.000    1.500    0.000    0.000 
#    0.000    0.000    0.000    0.000    0.000    0.000 
#
# Total GULP energy -396451.960772 kJ/mol
# GULP energy per Si atom -12389.123774 kJ/mol
# Density = 2.166786 g / cm^3
# Si number density = 21.717291 Si / 1000 Ang^3
#
#
#
# Elastic Constant Matrix: (Units=GPa)
#
#
# Indices 1 2 3 4 5 6 
#
# 1 147.1516 15.9145 73.6395 0.0000 18.6388 0.0000
# 2 15.9145 55.7134 28.0299 0.0000 2.1531 0.0000
# 3 73.6395 28.0299 124.6053 0.0000 4.5098 0.0000
# 4 0.0000 0.0000 0.0000 10.3558 0.0000 -1.8947
# 5 18.6388 2.1531 4.5098 0.0000 52.7087 0.0000
# 6 0.0000 0.0000 0.0000 -1.8947 0.0000 29.1523
#
#
#
# Elastic Compliance Matrix: (Units=1/GPa)
#
#
# Indices 1 2 3 4 5 6 
#
# 1 0.010126 0.000204 -0.005919 0.000000 -0.003083 0.000000
# 2 0.000204 0.020254 -0.004659 0.000000 -0.000501 0.000000
# 3 -0.005919 -0.004659 0.012527 0.000000 0.001211 0.000000
# 4 0.000000 0.000000 0.000000 0.097726 0.000000 0.006352
# 5 -0.003083 -0.000501 0.001211 0.000000 0.019979 0.000000
# 6 0.000000 0.000000 0.000000 0.006352 0.000000 0.034715
#
#
# Mechanical properties :
#
#
# Convention : Reuss Voigt Hill
#
# Bulk Modulus (GPa) = 45.12420 62.51534 53.81977
# Shear Modulus (GPa) = 22.37527 32.43578 27.40552
#
# Velocity S-wave (km/s) = 3.21331 3.86884 3.55621
# Velocity P-wave (km/s) = 5.88135 6.98610 6.45739
#
# Compressibility (1/GPa) = 0.02216106
#
# Stress axis : x y z
#
# Youngs Moduli (GPa) = 98.75593 49.37334 79.82556
#
# Poissons Ratio (x) = -0.01009 0.47246
# Poissons Ratio (y) = -0.02018 0.37189
# Poissons Ratio (z) = 0.58450 0.23002
#
# Static dielectric constant tensor:
#      x y z
#    x 4.301600 0.000000 0.078110 
#    y 0.000000 2.538540 0.000000 
#    z 0.078110 0.000000 3.787870 
# 
# 
# High freq. dielectric constant tensor:
#      x y z
#    x 1.881610 0.000000 -0.001040 
#    y 0.000000 1.826550 0.000000 
#    z -0.001040 0.000000 1.850490 
# 
# From -- ./inp_files/39495.got.cif
#   From: 2010.06.25/outbox.cif.g09.slc.cpg/sg13_20_cif.got.tgz:39495.got - 2010.06.28 04:50:58.
