data_PCOD8121107
_publ_section_title
;
Structure prediction by ZEFSAII (Michael W. Deem and Ramdas Pophale) SiO2 
 PCOD8121107
Probable space group: P 2/C
;
_chemical_formula_sum "Si O2"
_cell_formula_units_Z 24
_cell_length_a 5.104691
_cell_length_b 20.992427
_cell_length_c 10.954541
_cell_angle_alpha 90.000000
_cell_angle_beta 121.111764
_cell_angle_gamma 90.000000
_cell_volume 1005.036286
_symmetry_space_group_name_H-M "P 2/C"
_symmetry_group_IT_number 13
_symmetry_cell_setting 'monoclinic'
loop_
_space_group_symop_operation_xyz
x,y,z
-x,y,1/2-z
-x,-y,-z
x,-y,1/2+z
loop_
_atom_site_type_symbol
_atom_site_label
_atom_site_fract_x
_atom_site_fract_y
_atom_site_fract_z
Si Si1 0.346625 0.169225 0.371101
Si Si2 0.364346 0.027304 0.341259
Si Si3 0.336485 0.781853 0.336187
Si Si4 0.000000 0.490261 0.250000
Si Si5 0.500000 0.573830 0.250000
Si Si6 0.114004 0.622644 0.945596
Si Si7 0.593498 0.298633 0.433913
O O1 0.469932 0.101047 0.357487
O O2 0.414770 0.173376 0.533873
O O3 0.525403 0.229560 0.354856
O O4 0.000000 0.176525 0.250000
O O5 0.500000 0.994295 0.250000
O O6 0.000000 0.019029 0.250000
O O7 0.500000 0.000000 0.500000
O O8 0.500000 0.764867 0.250000
O O9 0.276417 0.716198 0.398279
O O10 0.000000 0.815485 0.250000
O O11 0.298071 0.532711 0.296147
O O12 0.044112 0.448269 0.382319
O O13 0.714309 0.618380 0.384056
O O14 0.294049 0.658078 0.880796
O O15 0.811316 0.663873 0.895695
#
# Coordination Sequence:
#
# PCOD8121107 Si02
#       7
#     4   4   4   2   2   4   4
#     4   9  24  44  70 101 152 190 229 293 366 422
#     4  11  25  47  74 108 147 200 256 301 359 429
#     4  10  22  39  64  96 141 181 229 277 353 421
#     4  12  26  48  64 100 126 178 230 276 342 416
#     4  12  26  46  72  88 138 174 228 278 346 404
#     4  12  25  43  71  99 129 177 222 284 341 419
#     4  10  25  41  68 101 143 168 232 279 362 412
#
# _framework density 23.879736000000001
#
# number of rings (size 3 to 8) (size 9 to 14) (size 15 to 20)
#    1.000    0.333    0.000    4.500    4.667    6.667 
#    0.000    0.000    0.000    0.000    0.000    0.000 
#    0.000    0.000    0.000    0.000    0.000    0.000 
#
# Total GULP energy -297346.167134 kJ/mol
# GULP energy per Si atom -12389.423631 kJ/mol
# Density = 2.382538 g / cm^3
# Si number density = 23.879736 Si / 1000 Ang^3
#
#
#
# Elastic Constant Matrix: (Units=GPa)
#
#
# Indices 1 2 3 4 5 6 
#
# 1 175.2974 56.6034 71.5644 0.0000 -7.7715 0.0000
# 2 56.6034 99.5312 21.3921 0.0000 3.6951 0.0000
# 3 71.5644 21.3921 120.2170 0.0000 -19.9518 0.0000
# 4 0.0000 0.0000 0.0000 10.4410 0.0000 7.9107
# 5 -7.7715 3.6951 -19.9518 0.0000 43.5495 0.0000
# 6 0.0000 0.0000 0.0000 7.9107 0.0000 22.0141
#
#
#
# Elastic Compliance Matrix: (Units=1/GPa)
#
#
# Indices 1 2 3 4 5 6 
#
# 1 0.008883 -0.004058 -0.004595 0.000000 -0.000176 0.000000
# 2 -0.004058 0.012444 -0.000102 0.000000 -0.001827 0.000000
# 3 -0.004595 -0.000102 0.011837 0.000000 0.004612 0.000000
# 4 0.000000 0.000000 0.000000 0.131607 0.000000 -0.047292
# 5 -0.000176 -0.001827 0.004612 0.000000 0.025199 0.000000
# 6 0.000000 0.000000 0.000000 -0.047292 0.000000 0.062420
#
#
# Mechanical properties :
#
#
# Convention : Reuss Voigt Hill
#
# Bulk Modulus (GPa) = 63.87741 77.12950 70.50346
# Shear Modulus (GPa) = 18.17401 31.56664 24.87033
#
# Velocity S-wave (km/s) = 2.76173 3.63974 3.23070
# Velocity P-wave (km/s) = 6.08089 7.07339 6.59584
#
# Compressibility (1/GPa) = 0.01565499
#
# Stress axis : x y z
#
# Youngs Moduli (GPa) = 112.57572 80.35722 84.47887
#
# Poissons Ratio (x) = 0.32606 0.38819
# Poissons Ratio (y) = 0.45679 0.00863
# Poissons Ratio (z) = 0.51729 0.00821
#
# Static dielectric constant tensor:
#      x y z
#    x 4.003270 0.000000 -0.036320 
#    y 0.000000 4.261270 0.000000 
#    z -0.036320 0.000000 4.166970 
# 
# 
# High freq. dielectric constant tensor:
#      x y z
#    x 1.943830 0.000000 -0.004780 
#    y 0.000000 1.930340 0.000000 
#    z -0.004780 0.000000 1.975230 
# 
# From -- ./inp_files/26672.got.cif
#   From: 2010.06.25/outbox.cif.g09.slc.cpg/sg13_14_cif.got.tgz:26672.got - 2010.06.28 04:50:58.
