data_PCOD8121820
_publ_section_title
;
Structure prediction by ZEFSAII (Michael W. Deem and Ramdas Pophale) SiO2 
 PCOD8121820
Probable space group: P 2/C
;
_chemical_formula_sum "Si O2"
_cell_formula_units_Z 28
_cell_length_a 21.351507
_cell_length_b 8.867369
_cell_length_c 15.211029
_cell_angle_alpha 90.000000
_cell_angle_beta 26.810446
_cell_angle_gamma 90.000000
_cell_volume 1298.964327
_symmetry_space_group_name_H-M "P 2/C"
_symmetry_group_IT_number 13
_symmetry_cell_setting 'monoclinic'
loop_
_space_group_symop_operation_xyz
x,y,z
-x,y,1/2-z
-x,-y,-z
x,-y,1/2+z
loop_
_atom_site_type_symbol
_atom_site_label
_atom_site_fract_x
_atom_site_fract_y
_atom_site_fract_z
Si Si1 0.000000 0.707082 0.750000
Si Si2 0.469454 0.813956 0.444369
Si Si3 0.761857 0.942744 0.065944
Si Si4 0.500000 0.591474 0.250000
Si Si5 0.995221 0.538683 0.403502
Si Si6 0.282893 0.342446 0.511548
Si Si7 0.650713 0.027233 0.026980
Si Si8 0.743158 0.262361 0.151572
O O1 0.130037 0.808256 0.557454
O O2 0.973325 0.605868 0.697214
O O3 0.609747 0.902261 0.296174
O O4 0.520768 0.692048 0.309559
O O5 0.398422 0.731805 0.615131
O O6 0.344196 0.926558 0.567589
O O7 0.760901 0.975867 0.962361
O O8 0.809102 0.094267 0.058575
O O9 0.362468 0.492950 0.440074
O O10 0.853169 0.621002 0.554586
O O11 0.000000 0.500000 0.500000
O O12 0.119219 0.653697 0.231427
O O13 0.338150 0.205821 0.503762
O O14 0.313321 0.314876 0.371547
O O15 0.500000 0.982320 0.250000
#
# Coordination Sequence:
#
# PCOD8121820 Si02
#       8
#     2   4   4   2   4   4   4   4
#     4  12  26  46  70 100 138 178 234 278 340 402
#     4  11  22  42  67 102 133 168 228 282 337 401
#     4  10  23  42  68  96 133 175 220 283 334 395
#     4  12  22  38  70  98 134 182 216 278 340 410
#     4  12  27  47  67  98 141 182 224 283 342 409
#     4  11  23  43  65  96 138 178 224 273 341 405
#     4   9  19  39  66  93 127 171 216 272 330 395
#     4  11  25  43  70  97 137 178 225 283 344 406
#
# _framework density 21.555634000000001
#
# number of rings (size 3 to 8) (size 9 to 14) (size 15 to 20)
#    0.000    1.143    4.286    2.143    6.000    1.714 
#    2.571    1.429    0.000    0.000    0.000    0.000 
#    0.000    0.000    0.000    0.000    0.000    0.000 
#
# Total GULP energy -347143.371997 kJ/mol
# GULP energy per Si atom -12397.977571 kJ/mol
# Density = 2.150657 g / cm^3
# Si number density = 21.555634 Si / 1000 Ang^3
#
#
#
# Elastic Constant Matrix: (Units=GPa)
#
#
# Indices 1 2 3 4 5 6 
#
# 1 53.5269 22.5846 16.3952 0.0000 1.5966 0.0000
# 2 22.5846 108.0410 23.5127 0.0000 -3.6472 0.0000
# 3 16.3952 23.5127 81.9073 0.0000 2.1020 0.0000
# 4 0.0000 0.0000 0.0000 35.0485 0.0000 -10.1307
# 5 1.5966 -3.6472 2.1020 0.0000 33.7718 0.0000
# 6 0.0000 0.0000 0.0000 -10.1307 0.0000 35.2036
#
#
#
# Elastic Compliance Matrix: (Units=1/GPa)
#
#
# Indices 1 2 3 4 5 6 
#
# 1 0.021286 -0.003808 -0.003136 0.000000 -0.001222 0.000000
# 2 -0.003808 0.010606 -0.002320 0.000000 0.001470 0.000000
# 3 -0.003136 -0.002320 0.013527 0.000000 -0.000944 0.000000
# 4 0.000000 0.000000 0.000000 0.031120 0.000000 0.008956
# 5 -0.001222 0.001470 -0.000944 0.000000 0.029886 0.000000
# 6 0.000000 0.000000 0.000000 0.008956 0.000000 0.030983
#
#
# Mechanical properties :
#
#
# Convention : Reuss Voigt Hill
#
# Bulk Modulus (GPa) = 37.18837 40.94002 39.06419
# Shear Modulus (GPa) = 30.32106 32.87028 31.59567
#
# Velocity S-wave (km/s) = 3.75459 3.90924 3.83270
# Velocity P-wave (km/s) = 6.00713 6.27775 6.14393
#
# Compressibility (1/GPa) = 0.02689013
#
# Stress axis : x y z
#
# Youngs Moduli (GPa) = 46.97897 94.28290 73.92651
#
# Poissons Ratio (x) = 0.35906 0.23185
# Poissons Ratio (y) = 0.17891 0.17152
# Poissons Ratio (z) = 0.14734 0.21875
#
# Static dielectric constant tensor:
#      x y z
#    x 4.004360 0.000000 0.072790 
#    y 0.000000 4.089810 0.000000 
#    z 0.072790 0.000000 3.720810 
# 
# 
# High freq. dielectric constant tensor:
#      x y z
#    x 1.840800 0.000000 -0.000200 
#    y 0.000000 1.862160 0.000000 
#    z -0.000200 0.000000 1.833880 
# 
# From -- ./inp_files/57482.got.cif
#   From: 2010.06.25/outbox.cif.g09.slc.cpg/sg13_29_cif.got.tgz:57482.got - 2010.06.28 04:50:58.
