data_PCOD8121369
_publ_section_title
;
Structure prediction by ZEFSAII (Michael W. Deem and Ramdas Pophale) SiO2 
 PCOD8121369
Probable space group: P 2/C
;
_chemical_formula_sum "Si O2"
_cell_formula_units_Z 32
_cell_length_a 11.518051
_cell_length_b 15.717873
_cell_length_c 18.289049
_cell_angle_alpha 90.000000
_cell_angle_beta 153.485056
_cell_angle_gamma 90.000000
_cell_volume 1478.149806
_symmetry_space_group_name_H-M "P 2/C"
_symmetry_group_IT_number 13
_symmetry_cell_setting 'monoclinic'
loop_
_space_group_symop_operation_xyz
x,y,z
-x,y,1/2-z
-x,-y,-z
x,-y,1/2+z
loop_
_atom_site_type_symbol
_atom_site_label
_atom_site_fract_x
_atom_site_fract_y
_atom_site_fract_z
Si Si1 0.799847 0.331439 0.695212
Si Si2 0.993631 0.774961 0.570804
Si Si3 0.658718 0.461411 0.733362
Si Si4 0.120030 0.584262 0.992310
Si Si5 0.584962 0.802992 0.572227
Si Si6 0.964298 0.185981 0.891633
Si Si7 0.223611 0.940550 0.430832
Si Si8 0.389015 0.123057 0.560769
O O1 0.668403 0.407204 0.665478
O O2 0.570779 0.284586 0.522889
O O3 0.961791 0.266939 0.837032
O O4 0.000000 0.371760 0.750000
O O5 0.240182 0.795607 0.758656
O O6 0.880935 0.682766 0.531279
O O7 0.078334 0.782963 0.533860
O O8 0.779038 0.846652 0.464982
O O9 0.349555 0.470392 0.579962
O O10 0.826556 0.547806 0.814127
O O11 0.812033 0.413251 0.883808
O O12 0.396221 0.882858 0.475785
O O13 0.725821 0.826266 0.574966
O O14 0.679398 0.149557 0.741943
O O15 0.138565 0.112523 0.954168
O O16 0.000000 0.972757 0.250000
O O17 0.377905 0.021764 0.547062
#
# Coordination Sequence:
#
# PCOD8121369 Si02
#       8
#     4   4   4   4   4   4   4   4
#     4  11  20  43  69  97 130 180 227 269 338 418
#     4  12  25  42  66  98 135 173 223 279 345 404
#     4  10  22  41  72 100 133 176 225 276 341 415
#     4  10  22  43  69 102 136 175 223 280 348 417
#     4  11  23  41  64  97 129 180 224 274 335 406
#     4  11  23  43  65  91 129 178 225 276 339 404
#     4  12  22  43  66  91 131 179 235 280 342 403
#     4  11  25  40  67  90 126 181 228 279 332 406
#
# _framework density 21.648685
#
# number of rings (size 3 to 8) (size 9 to 14) (size 15 to 20)
#    0.000    1.000    5.000    3.375    3.500    2.000 
#    2.250    5.000    0.000    0.000    0.000    0.000 
#    0.000    0.000    0.000    0.000    0.000    0.000 
#
# Total GULP energy -396759.329180 kJ/mol
# GULP energy per Si atom -12398.729037 kJ/mol
# Density = 2.159941 g / cm^3
# Si number density = 21.648685 Si / 1000 Ang^3
#
#
#
# Elastic Constant Matrix: (Units=GPa)
#
#
# Indices 1 2 3 4 5 6 
#
# 1 105.4160 20.2806 17.0909 0.0000 -0.2723 0.0000
# 2 20.2806 62.0647 26.7029 0.0000 -7.3740 0.0000
# 3 17.0909 26.7029 52.7691 0.0000 -0.8520 0.0000
# 4 0.0000 0.0000 0.0000 48.6295 0.0000 20.7206
# 5 -0.2723 -7.3740 -0.8520 0.0000 22.0078 0.0000
# 6 0.0000 0.0000 0.0000 20.7206 0.0000 56.5614
#
#
#
# Elastic Compliance Matrix: (Units=1/GPa)
#
#
# Indices 1 2 3 4 5 6 
#
# 1 0.010313 -0.002588 -0.002044 0.000000 -0.000819 0.000000
# 2 -0.002588 0.022219 -0.010292 0.000000 0.007014 0.000000
# 3 -0.002044 -0.010292 0.024780 0.000000 -0.002515 0.000000
# 4 0.000000 0.000000 0.000000 0.024367 0.000000 -0.008927
# 5 -0.000819 0.007014 -0.002515 0.000000 0.047681 0.000000
# 6 0.000000 0.000000 0.000000 -0.008927 0.000000 0.020950
#
#
# Mechanical properties :
#
#
# Convention : Reuss Voigt Hill
#
# Bulk Modulus (GPa) = 36.41058 38.71096 37.56077
# Shear Modulus (GPa) = 26.41103 35.85144 31.13123
#
# Velocity S-wave (km/s) = 3.49661 4.07388 3.79624
# Velocity P-wave (km/s) = 5.75822 6.32842 6.05004
#
# Compressibility (1/GPa) = 0.02746455
#
# Stress axis : x y z
#
# Youngs Moduli (GPa) = 96.96145 45.00553 40.35484
#
# Poissons Ratio (x) = 0.11647 0.08248
# Poissons Ratio (y) = 0.25093 0.41535
# Poissons Ratio (z) = 0.19818 0.46321
#
# Static dielectric constant tensor:
#      x y z
#    x 4.133370 0.000000 0.004450 
#    y 0.000000 3.769210 0.000000 
#    z 0.004450 0.000000 3.784110 
# 
# 
# High freq. dielectric constant tensor:
#      x y z
#    x 1.862890 0.000000 -0.001190 
#    y 0.000000 1.840980 0.000000 
#    z -0.001190 0.000000 1.838420 
# 
# From -- ./inp_files/66938.got.cif
#   From: 2010.06.25/outbox.cif.g09.slc.cpg/sg13_34_cif.got.tgz:66938.got - 2010.06.28 04:50:58.
