data_PCOD8121419
_publ_section_title
;
Structure prediction by ZEFSAII (Michael W. Deem and Ramdas Pophale) SiO2 
 PCOD8121419
Probable space group: P 2/C
;
_chemical_formula_sum "Si O2"
_cell_formula_units_Z 24
_cell_length_a 12.191120
_cell_length_b 8.413506
_cell_length_c 25.985364
_cell_angle_alpha 90.000000
_cell_angle_beta 24.462057
_cell_angle_gamma 90.000000
_cell_volume 1103.683975
_symmetry_space_group_name_H-M "P 2/C"
_symmetry_group_IT_number 13
_symmetry_cell_setting 'monoclinic'
loop_
_space_group_symop_operation_xyz
x,y,z
-x,y,1/2-z
-x,-y,-z
x,-y,1/2+z
loop_
_atom_site_type_symbol
_atom_site_label
_atom_site_fract_x
_atom_site_fract_y
_atom_site_fract_z
Si Si1 0.000000 0.499470 0.750000
Si Si2 0.860131 0.756360 0.885376
Si Si3 0.664010 0.746721 0.333986
Si Si4 0.295826 0.801006 0.777722
Si Si5 0.285413 0.172555 0.801700
Si Si6 0.128502 0.675999 0.951079
Si Si7 0.000000 0.005574 0.750000
O O1 0.837127 0.598194 0.861592
O O2 0.779384 0.403584 0.813791
O O3 0.810145 0.900660 0.867311
O O4 0.153094 0.769352 0.784675
O O5 0.646088 0.760607 0.021842
O O6 0.700377 0.729062 0.257348
O O7 0.815731 0.898864 0.290161
O O8 0.095576 0.752626 0.908960
O O9 0.558923 0.689972 0.667387
O O10 0.348759 0.988642 0.762479
O O11 0.500000 0.240545 0.750000
O O12 0.006665 0.213488 0.947586
O O13 0.000000 0.500000 0.000000
#
# Coordination Sequence:
#
# PCOD8121419 Si02
#       7
#     2   4   4   4   4   4   2
#     4  10  26  46  64 102 138 186 232 286 352 418
#     4  11  23  43  71  98 139 177 232 289 347 410
#     4  11  24  44  69 101 138 180 236 283 354 404
#     4  11  25  45  71 103 137 184 240 282 357 424
#     4  12  25  44  74 102 140 183 233 291 349 422
#     4  11  27  46  68 102 148 182 232 290 361 427
#     4  10  22  42  66 104 132 184 228 286 344 410
#
# _framework density 21.745356000000001
#
# number of rings (size 3 to 8) (size 9 to 14) (size 15 to 20)
#    0.000    1.000    3.333    2.500    7.000    1.333 
#   12.000    0.000    0.000    0.000    0.000    0.000 
#    0.000    0.000    0.000    0.000    0.000    0.000 
#
# Total GULP energy -297527.349554 kJ/mol
# GULP energy per Si atom -12396.972898 kJ/mol
# Density = 2.169586 g / cm^3
# Si number density = 21.745356 Si / 1000 Ang^3
#
#
#
# Elastic Constant Matrix: (Units=GPa)
#
#
# Indices 1 2 3 4 5 6 
#
# 1 156.0791 42.2893 48.4280 0.0000 11.0047 0.0000
# 2 42.2893 103.1202 36.4754 0.0000 -2.5596 0.0000
# 3 48.4280 36.4754 136.1143 0.0000 14.3574 0.0000
# 4 0.0000 0.0000 0.0000 68.4743 0.0000 60.5158
# 5 11.0047 -2.5596 14.3574 0.0000 37.5136 0.0000
# 6 0.0000 0.0000 0.0000 60.5158 0.0000 110.4292
#
#
#
# Elastic Compliance Matrix: (Units=1/GPa)
#
#
# Indices 1 2 3 4 5 6 
#
# 1 0.007819 -0.002575 -0.001909 0.000000 -0.001739 0.000000
# 2 -0.002575 0.011693 -0.002481 0.000000 0.002503 0.000000
# 3 -0.001909 -0.002481 0.009013 0.000000 -0.003059 0.000000
# 4 0.000000 0.000000 0.000000 0.028319 0.000000 -0.015519
# 5 -0.001739 0.002503 -0.003059 0.000000 0.028509 0.000000
# 6 0.000000 0.000000 0.000000 -0.015519 0.000000 0.017560
#
#
# Mechanical properties :
#
#
# Convention : Reuss Voigt Hill
#
# Bulk Modulus (GPa) = 68.51000 72.18875 70.34937
# Shear Modulus (GPa) = 41.08135 61.15815 51.11975
#
# Velocity S-wave (km/s) = 4.35121 5.30903 4.85380
# Velocity P-wave (km/s) = 7.53777 8.41727 7.98963
#
# Compressibility (1/GPa) = 0.01459641
#
# Stress axis : x y z
#
# Youngs Moduli (GPa) = 127.88591 85.51999 110.94487
#
# Poissons Ratio (x) = 0.22019 0.21176
# Poissons Ratio (y) = 0.32928 0.27530
# Poissons Ratio (z) = 0.24409 0.21221
#
# Static dielectric constant tensor:
#      x y z
#    x 4.036870 0.000000 0.155780 
#    y 0.000000 3.944360 0.000000 
#    z 0.155780 0.000000 3.805880 
# 
# 
# High freq. dielectric constant tensor:
#      x y z
#    x 1.871250 0.000000 0.010320 
#    y 0.000000 1.856150 0.000000 
#    z 0.010320 0.000000 1.852450 
# 
# From -- ./inp_files/86319.got.cif
#   From: 2010.06.25/outbox.cif.g09.slc.cpg/sg13_44_cif.got.tgz:86319.got - 2010.06.28 04:50:58.
