data_PCOD8121576
_publ_section_title
;
Structure prediction by ZEFSAII (Michael W. Deem and Ramdas Pophale) SiO2 
 PCOD8121576
Probable space group: P 2/C
;
_chemical_formula_sum "Si O2"
_cell_formula_units_Z 26
_cell_length_a 12.020438
_cell_length_b 8.467691
_cell_length_c 13.915432
_cell_angle_alpha 90.000000
_cell_angle_beta 116.366050
_cell_angle_gamma 90.000000
_cell_volume 1269.047600
_symmetry_space_group_name_H-M "P 2/C"
_symmetry_group_IT_number 13
_symmetry_cell_setting 'monoclinic'
loop_
_space_group_symop_operation_xyz
x,y,z
-x,y,1/2-z
-x,-y,-z
x,-y,1/2+z
loop_
_atom_site_type_symbol
_atom_site_label
_atom_site_fract_x
_atom_site_fract_y
_atom_site_fract_z
Si Si1 0.828111 0.405392 0.110309
Si Si2 0.000000 0.349906 0.750000
Si Si3 0.360330 0.935288 0.437949
Si Si4 0.500000 0.290906 0.750000
Si Si5 0.844236 0.911650 0.289459
Si Si6 0.606135 0.585517 0.098326
Si Si7 0.729379 0.838217 0.437875
Si Si8 0.000000 0.147570 0.250000
O O1 0.936665 0.537771 0.143189
O O2 0.725157 0.472733 0.142826
O O3 0.881609 0.246486 0.175418
O O4 0.766846 0.339079 0.988776
O O5 0.109160 0.250241 0.742352
O O6 0.287435 0.964949 0.309085
O O7 0.366907 0.746249 0.450743
O O8 0.500000 0.000000 0.500000
O O9 0.275828 0.021290 0.485745
O O10 0.427882 0.393793 0.802353
O O11 0.406941 0.176244 0.658788
O O12 0.828469 0.888829 0.396368
O O13 0.953606 0.039438 0.320365
O O14 0.500000 0.500000 0.000000
#
# Coordination Sequence:
#
# PCOD8121576 Si02
#       8
#     4   2   4   2   4   4   4   2
#     4  11  22  42  69  96 133 178 216 280 334 392
#     4  10  22  44  66  92 140 180 216 274 334 388
#     4  12  22  42  69  94 132 175 215 276 335 392
#     4  12  22  42  70 100 136 176 214 280 340 410
#     4  11  23  44  67  96 133 180 224 274 330 392
#     4  12  24  44  68  97 138 172 217 275 343 395
#     4  12  23  41  70  98 131 175 229 270 336 399
#     4  10  24  44  66  94 136 178 230 278 322 392
#
# _framework density 20.487805000000002
#
# number of rings (size 3 to 8) (size 9 to 14) (size 15 to 20)
#    0.000    0.615    7.692    0.000    0.000    1.231 
#    2.769    1.538    0.000    0.000    0.000    0.000 
#    0.000    0.000    0.000    0.000    0.000    0.000 
#
# Total GULP energy -322215.234800 kJ/mol
# GULP energy per Si atom -12392.893646 kJ/mol
# Density = 2.044117 g / cm^3
# Si number density = 20.487805 Si / 1000 Ang^3
#
#
#
# Elastic Constant Matrix: (Units=GPa)
#
#
# Indices 1 2 3 4 5 6 
#
# 1 127.0933 65.1133 46.1137 0.0000 -10.5213 0.0000
# 2 65.1133 130.9517 49.0737 0.0000 -1.9032 0.0000
# 3 46.1137 49.0737 87.8576 0.0000 -5.7483 0.0000
# 4 0.0000 0.0000 0.0000 37.7120 0.0000 11.2260
# 5 -10.5213 -1.9032 -5.7483 0.0000 40.9831 0.0000
# 6 0.0000 0.0000 0.0000 11.2260 0.0000 35.0573
#
#
#
# Elastic Compliance Matrix: (Units=1/GPa)
#
#
# Indices 1 2 3 4 5 6 
#
# 1 0.011580 -0.004431 -0.003454 0.000000 0.002283 0.000000
# 2 -0.004431 0.011357 -0.004096 0.000000 -0.001184 0.000000
# 3 -0.003454 -0.004096 0.015555 0.000000 0.001105 0.000000
# 4 0.000000 0.000000 0.000000 0.029311 0.000000 -0.009386
# 5 0.002283 -0.001184 0.001105 0.000000 0.025086 0.000000
# 6 0.000000 0.000000 0.000000 -0.009386 0.000000 0.031530
#
#
# Mechanical properties :
#
#
# Convention : Reuss Voigt Hill
#
# Bulk Modulus (GPa) = 68.81459 74.05602 71.43531
# Shear Modulus (GPa) = 32.63198 35.12394 33.87796
#
# Velocity S-wave (km/s) = 3.99526 4.14500 4.07082
# Velocity P-wave (km/s) = 7.41241 7.68979 7.55237
#
# Compressibility (1/GPa) = 0.01453180
#
# Stress axis : x y z
#
# Youngs Moduli (GPa) = 86.35321 88.05133 64.28832
#
# Poissons Ratio (x) = 0.39011 0.22206
# Poissons Ratio (y) = 0.38259 0.26330
# Poissons Ratio (z) = 0.29827 0.36062
#
# Static dielectric constant tensor:
#      x y z
#    x 4.190490 0.000000 0.319550 
#    y 0.000000 3.987070 0.000000 
#    z 0.319550 0.000000 4.081400 
# 
# 
# High freq. dielectric constant tensor:
#      x y z
#    x 1.807520 0.000000 0.028720 
#    y 0.000000 1.806690 0.000000 
#    z 0.028720 0.000000 1.795730 
# 
# From -- ./inp_files/50198.got.cif
#   From: 2010.06.25/outbox.cif.g09.slc.cpg/sg13_26_cif.got.tgz:50198.got - 2010.06.28 04:50:58.
