data_PCOD8121070
_publ_section_title
;
Structure prediction by ZEFSAII (Michael W. Deem and Ramdas Pophale) SiO2 
 PCOD8121070
Probable space group: P 2/C
;
_chemical_formula_sum "Si O2"
_cell_formula_units_Z 20
_cell_length_a 7.947921
_cell_length_b 4.993020
_cell_length_c 25.105220
_cell_angle_alpha 90.000000
_cell_angle_beta 106.063667
_cell_angle_gamma 90.000000
_cell_volume 957.378887
_symmetry_space_group_name_H-M "P 2/C"
_symmetry_group_IT_number 13
_symmetry_cell_setting 'monoclinic'
loop_
_space_group_symop_operation_xyz
x,y,z
-x,y,1/2-z
-x,-y,-z
x,-y,1/2+z
loop_
_atom_site_type_symbol
_atom_site_label
_atom_site_fract_x
_atom_site_fract_y
_atom_site_fract_z
Si Si1 0.336329 0.923770 0.332729
Si Si2 0.074942 0.432081 0.063609
Si Si3 0.742593 0.945835 0.381069
Si Si4 0.131144 0.170171 0.719337
Si Si5 0.866498 0.553970 0.647558
O O1 0.537057 0.991184 0.359008
O O2 0.310209 0.809703 0.269534
O O3 0.219018 0.184589 0.334240
O O4 0.274100 0.687716 0.366343
O O5 0.180151 0.153879 0.069766
O O6 0.914341 0.397180 0.090221
O O7 0.215147 0.650039 0.095395
O O8 0.000000 0.500000 0.000000
O O9 0.833258 0.000411 0.331108
O O10 0.000000 0.022323 0.750000
O O11 0.040697 0.455591 0.695701
#
# Coordination Sequence:
#
# PCOD8121070 Si02
#       5
#     4   4   4   4   4
#     4  11  22  39  59  92 125 151 187 245 294 344
#     4  11  23  43  63  83 113 158 203 245 290 347
#     4  11  23  39  62  91 118 150 198 246 292 344
#     4   9  20  36  60  86 119 158 189 224 284 355
#     4  10  22  39  61  86 118 159 198 232 286 358
#
# _framework density 20.890370999999998
#
# number of rings (size 3 to 8) (size 9 to 14) (size 15 to 20)
#    0.000    1.600    0.000    6.000    0.000   15.200 
#    0.000   14.000    0.000    0.000    0.000    0.000 
#    0.000    0.000    0.000    0.000    0.000    0.000 
#
# Total GULP energy -247827.022451 kJ/mol
# GULP energy per Si atom -12391.351123 kJ/mol
# Density = 2.084282 g / cm^3
# Si number density = 20.890371 Si / 1000 Ang^3
#
#
#
# Elastic Constant Matrix: (Units=GPa)
#
#
# Indices 1 2 3 4 5 6 
#
# 1 93.5280 29.3732 56.8080 0.0000 1.7219 0.0000
# 2 29.3732 90.4824 15.6062 0.0000 -14.1559 0.0000
# 3 56.8080 15.6062 106.0412 0.0000 -2.5518 0.0000
# 4 0.0000 0.0000 0.0000 17.0668 0.0000 -1.2212
# 5 1.7219 -14.1559 -2.5518 0.0000 15.0631 0.0000
# 6 0.0000 0.0000 0.0000 -1.2212 0.0000 30.8623
#
#
#
# Elastic Compliance Matrix: (Units=1/GPa)
#
#
# Indices 1 2 3 4 5 6 
#
# 1 0.018206 -0.005749 -0.009124 0.000000 -0.009030 0.000000
# 2 -0.005749 0.015056 0.001225 0.000000 0.015014 0.000000
# 3 -0.009124 0.001225 0.014249 0.000000 0.004608 0.000000
# 4 0.000000 0.000000 0.000000 0.058760 0.000000 0.002325
# 5 -0.009030 0.015014 0.004608 0.000000 0.082310 0.000000
# 6 0.000000 0.000000 0.000000 0.002325 0.000000 0.032494
#
#
# Mechanical properties :
#
#
# Convention : Reuss Voigt Hill
#
# Bulk Modulus (GPa) = 49.46965 54.84736 52.15851
# Shear Modulus (GPa) = 19.59954 25.14940 22.37447
#
# Velocity S-wave (km/s) = 3.06634 3.47345 3.27623
# Velocity P-wave (km/s) = 6.02234 6.51140 6.27164
#
# Compressibility (1/GPa) = 0.02021441
#
# Stress axis : x y z
#
# Youngs Moduli (GPa) = 54.92756 66.41991 70.18087
#
# Poissons Ratio (x) = 0.38185 0.64035
# Poissons Ratio (y) = 0.31578 -0.08600
# Poissons Ratio (z) = 0.50118 -0.08139
#
# Static dielectric constant tensor:
#      x y z
#    x 3.926780 0.000000 0.081880 
#    y 0.000000 3.844340 0.000000 
#    z 0.081880 0.000000 4.031720 
# 
# 
# High freq. dielectric constant tensor:
#      x y z
#    x 1.812910 0.000000 -0.003130 
#    y 0.000000 1.824340 0.000000 
#    z -0.003130 0.000000 1.805200 
# 
# From -- ./inp_files/84178.got.cif
#   From: 2010.06.25/outbox.cif.g09.slc.cpg/sg13_43_cif.got.tgz:84178.got - 2010.06.28 04:50:58.
