data_PCOD8121203
_publ_section_title
;
Structure prediction by ZEFSAII (Michael W. Deem and Ramdas Pophale) SiO2 
 PCOD8121203
Probable space group: P 2/C
;
_chemical_formula_sum "Si O2"
_cell_formula_units_Z 24
_cell_length_a 13.836091
_cell_length_b 8.946978
_cell_length_c 14.058395
_cell_angle_alpha 90.000000
_cell_angle_beta 139.636144
_cell_angle_gamma 90.000000
_cell_volume 1127.090430
_symmetry_space_group_name_H-M "P 2/C"
_symmetry_group_IT_number 13
_symmetry_cell_setting 'monoclinic'
loop_
_space_group_symop_operation_xyz
x,y,z
-x,y,1/2-z
-x,-y,-z
x,-y,1/2+z
loop_
_atom_site_type_symbol
_atom_site_label
_atom_site_fract_x
_atom_site_fract_y
_atom_site_fract_z
Si Si1 0.829301 0.287151 0.645258
Si Si2 0.171148 0.213134 0.401674
Si Si3 0.675737 0.998537 0.123434
Si Si4 0.144587 0.416865 0.641522
Si Si5 0.675723 0.500520 0.390009
Si Si6 0.855419 0.083216 0.924540
O O1 0.738279 0.144675 0.613973
O O2 0.829942 0.419085 0.725791
O O3 0.744450 0.352154 0.489717
O O4 0.000000 0.240845 0.750000
O O5 0.263352 0.355158 0.507880
O O6 0.170235 0.081442 0.481123
O O7 0.000000 0.259050 0.250000
O O8 0.257367 0.147888 0.374834
O O9 0.719681 0.994598 0.267507
O O10 0.500000 0.000000 0.000000
O O11 0.280519 0.494454 0.688287
O O12 0.122451 0.250012 0.591959
O O13 0.000000 0.500000 0.500000
O O14 0.500000 0.494983 0.250000
O O15 0.000000 0.000000 0.000000
#
# Coordination Sequence:
#
# PCOD8121203 Si02
#       6
#     4   4   4   4   4   4
#     4  11  23  45  71  95 133 177 225 271 328 403
#     4  11  23  42  70  93 130 179 220 269 331 404
#     4  11  26  44  64 100 134 170 218 280 336 387
#     4  10  22  40  68  94 129 170 218 275 323 391
#     4  11  26  44  64 101 137 172 220 278 341 391
#     4  10  22  40  65  95 127 170 219 266 325 396
#
# _framework density 21.293766000000002
#
# number of rings (size 3 to 8) (size 9 to 14) (size 15 to 20)
#    0.000    1.333    3.333    1.000   11.667    0.667 
#    6.000    0.000    0.000    0.000    0.000    0.000 
#    0.000    0.000    0.000    0.000    0.000    0.000 
#
# Total GULP energy -297515.412710 kJ/mol
# GULP energy per Si atom -12396.475530 kJ/mol
# Density = 2.124530 g / cm^3
# Si number density = 21.293766 Si / 1000 Ang^3
#
#
#
# Elastic Constant Matrix: (Units=GPa)
#
#
# Indices 1 2 3 4 5 6 
#
# 1 117.9369 18.0556 50.1368 0.0000 25.4039 0.0000
# 2 18.0556 23.7861 23.1276 0.0000 13.5149 0.0000
# 3 50.1368 23.1276 137.0322 0.0000 29.7499 0.0000
# 4 0.0000 0.0000 0.0000 27.3508 0.0000 -0.5175
# 5 25.4039 13.5149 29.7499 0.0000 54.0018 0.0000
# 6 0.0000 0.0000 0.0000 -0.5175 0.0000 27.5851
#
#
#
# Elastic Compliance Matrix: (Units=1/GPa)
#
#
# Indices 1 2 3 4 5 6 
#
# 1 0.010812 -0.004121 -0.002703 0.000000 -0.002566 0.000000
# 2 -0.004121 0.056021 -0.006048 0.000000 -0.008750 0.000000
# 3 -0.002703 -0.006048 0.009885 0.000000 -0.002660 0.000000
# 4 0.000000 0.000000 0.000000 0.036575 0.000000 0.000686
# 5 -0.002566 -0.008750 -0.002660 0.000000 0.023380 0.000000
# 6 0.000000 0.000000 0.000000 0.000686 0.000000 0.036264
#
#
# Mechanical properties :
#
#
# Convention : Reuss Voigt Hill
#
# Bulk Modulus (GPa) = 19.61766 51.26612 35.44189
# Shear Modulus (GPa) = 23.18328 34.28321 28.73325
#
# Velocity S-wave (km/s) = 3.30318 4.01685 3.67737
# Velocity P-wave (km/s) = 4.87656 6.75584 5.89161
#
# Compressibility (1/GPa) = 0.05097447
#
# Stress axis : x y z
#
# Youngs Moduli (GPa) = 92.49120 17.85037 101.16447
#
# Poissons Ratio (x) = 0.07356 0.27348
# Poissons Ratio (y) = 0.38114 0.61180
# Poissons Ratio (z) = 0.25003 0.10795
#
# Static dielectric constant tensor:
#      x y z
#    x 4.837730 0.000000 0.104160 
#    y 0.000000 3.474420 0.000000 
#    z 0.104160 0.000000 4.698350 
# 
# 
# High freq. dielectric constant tensor:
#      x y z
#    x 1.844770 0.000000 -0.008790 
#    y 0.000000 1.832700 0.000000 
#    z -0.008790 0.000000 1.841820 
# 
# From -- ./inp_files/53226.got.cif
#   From: 2010.06.25/outbox.cif.g09.slc.cpg/sg13_27_cif.got.tgz:53226.got - 2010.06.28 04:50:58.
