data_PCOD8121336
_publ_section_title
;
Structure prediction by ZEFSAII (Michael W. Deem and Ramdas Pophale) SiO2 
 PCOD8121336
Probable space group: P 2/C
;
_chemical_formula_sum "Si O2"
_cell_formula_units_Z 28
_cell_length_a 14.639897
_cell_length_b 8.857581
_cell_length_c 15.771107
_cell_angle_alpha 90.000000
_cell_angle_beta 41.163516
_cell_angle_gamma 90.000000
_cell_volume 1346.108137
_symmetry_space_group_name_H-M "P 2/C"
_symmetry_group_IT_number 13
_symmetry_cell_setting 'monoclinic'
loop_
_space_group_symop_operation_xyz
x,y,z
-x,y,1/2-z
-x,-y,-z
x,-y,1/2+z
loop_
_atom_site_type_symbol
_atom_site_label
_atom_site_fract_x
_atom_site_fract_y
_atom_site_fract_z
Si Si1 0.344198 0.800993 0.769596
Si Si2 0.843897 0.198973 0.250685
Si Si3 0.000000 0.967836 0.250000
Si Si4 0.500000 0.041492 0.750000
Si Si5 0.454893 0.551676 0.938563
Si Si6 0.050658 0.425971 0.122921
Si Si7 0.679907 0.724047 0.032598
Si Si8 0.801741 0.281123 0.954762
O O1 0.235335 0.859310 0.776607
O O2 0.423157 0.651847 0.684411
O O3 0.449534 0.939273 0.707076
O O4 0.278270 0.766165 0.905902
O O5 0.732263 0.229383 0.402611
O O6 0.924334 0.351358 0.158037
O O7 0.955229 0.072394 0.201930
O O8 0.132536 0.866962 0.132741
O O9 0.625898 0.136606 0.624099
O O10 0.500000 0.500000 0.000000
O O11 0.442292 0.399177 0.892117
O O12 0.304272 0.637900 0.038102
O O13 0.196481 0.348269 0.998311
O O14 0.070525 0.606680 0.107762
O O15 0.000000 0.368290 0.250000
#
# Coordination Sequence:
#
# PCOD8121336 Si02
#       8
#     4   4   2   2   4   4   4   4
#     4  12  26  42  64  98 138 171 216 278 333 398
#     4  11  23  42  66  94 128 172 223 270 330 397
#     4  12  24  42  68  94 132 184 216 270 330 404
#     4  12  26  42  60  96 140 178 206 272 340 398
#     4  11  23  43  71  97 124 170 231 277 326 391
#     4   9  19  41  65  89 115 161 222 267 314 378
#     4  10  22  41  67  90 124 172 215 270 330 389
#     4  11  24  42  67  94 135 172 216 276 336 385
#
# _framework density 20.800705000000001
#
# number of rings (size 3 to 8) (size 9 to 14) (size 15 to 20)
#    0.000    1.143    5.714    0.857    4.000    2.857 
#    0.000    0.000    0.000    0.000    0.000    0.000 
#    0.000    0.000    0.000    0.000    0.000    0.000 
#
# Total GULP energy -347054.290488 kJ/mol
# GULP energy per Si atom -12394.796089 kJ/mol
# Density = 2.075336 g / cm^3
# Si number density = 20.800705 Si / 1000 Ang^3
#
#
#
# Elastic Constant Matrix: (Units=GPa)
#
#
# Indices 1 2 3 4 5 6 
#
# 1 110.0521 34.5058 14.1401 0.0000 -4.1417 0.0000
# 2 34.5058 105.3367 31.7393 0.0000 -6.1233 0.0000
# 3 14.1401 31.7393 76.4290 0.0000 -6.1527 0.0000
# 4 0.0000 0.0000 0.0000 47.4673 0.0000 -13.2166
# 5 -4.1417 -6.1233 -6.1527 0.0000 19.5315 0.0000
# 6 0.0000 0.0000 0.0000 -13.2166 0.0000 22.7357
#
#
#
# Elastic Compliance Matrix: (Units=1/GPa)
#
#
# Indices 1 2 3 4 5 6 
#
# 1 0.010168 -0.003120 -0.000504 0.000000 0.001019 0.000000
# 2 -0.003120 0.011888 -0.004220 0.000000 0.001736 0.000000
# 3 -0.000504 -0.004220 0.015200 0.000000 0.003358 0.000000
# 4 0.000000 0.000000 0.000000 0.025136 0.000000 0.014612
# 5 0.001019 0.001736 0.003358 0.000000 0.053018 0.000000
# 6 0.000000 0.000000 0.000000 0.014612 0.000000 0.052478
#
#
# Mechanical properties :
#
#
# Convention : Reuss Voigt Hill
#
# Bulk Modulus (GPa) = 46.36195 50.28756 48.32476
# Shear Modulus (GPa) = 26.21059 32.04240 29.12650
#
# Velocity S-wave (km/s) = 3.55361 3.92911 3.74607
# Velocity P-wave (km/s) = 6.25896 6.69420 6.48023
#
# Compressibility (1/GPa) = 0.02156941
#
# Stress axis : x y z
#
# Youngs Moduli (GPa) = 98.34939 84.12049 65.78981
#
# Poissons Ratio (x) = 0.26244 0.03313
# Poissons Ratio (y) = 0.30683 0.27762
# Poissons Ratio (z) = 0.04952 0.35497
#
# Static dielectric constant tensor:
#      x y z
#    x 3.858680 0.000000 -0.252200 
#    y 0.000000 4.028720 0.000000 
#    z -0.252200 0.000000 3.695170 
# 
# 
# High freq. dielectric constant tensor:
#      x y z
#    x 1.802430 0.000000 -0.022700 
#    y 0.000000 1.828290 0.000000 
#    z -0.022700 0.000000 1.805290 
# 
# From -- ./inp_files/53344.got.cif
#   From: 2010.06.25/outbox.cif.g09.slc.cpg/sg13_27_cif.got.tgz:53344.got - 2010.06.28 04:50:58.
