data_PCOD8121277
_publ_section_title
;
Structure prediction by ZEFSAII (Michael W. Deem and Ramdas Pophale) SiO2 
 PCOD8121277
Probable space group: P 2/C
;
_chemical_formula_sum "Si O2"
_cell_formula_units_Z 20
_cell_length_a 12.369907
_cell_length_b 5.094462
_cell_length_c 30.891844
_cell_angle_alpha 90.000000
_cell_angle_beta 28.016627
_cell_angle_gamma 90.000000
_cell_volume 914.439193
_symmetry_space_group_name_H-M "P 2/C"
_symmetry_group_IT_number 13
_symmetry_cell_setting 'monoclinic'
loop_
_space_group_symop_operation_xyz
x,y,z
-x,y,1/2-z
-x,-y,-z
x,-y,1/2+z
loop_
_atom_site_type_symbol
_atom_site_label
_atom_site_fract_x
_atom_site_fract_y
_atom_site_fract_z
Si Si1 0.934640 0.975352 0.716116
Si Si2 0.880475 0.464700 0.496746
Si Si3 0.583227 0.921169 0.424185
Si Si4 0.122194 0.042514 0.554187
Si Si5 0.370068 0.473376 0.657576
O O1 0.783211 0.728124 0.783112
O O2 0.030541 0.958039 0.633499
O O3 0.775670 0.229261 0.772994
O O4 0.151184 0.988073 0.673466
O O5 0.951381 0.183065 0.453139
O O6 0.606568 0.496483 0.600707
O O7 0.000000 0.500000 0.500000
O O8 0.974602 0.683485 0.429498
O O9 0.404184 0.070689 0.455293
O O10 0.573114 0.609959 0.413409
O O11 0.500000 0.000000 0.500000
#
# Coordination Sequence:
#
# PCOD8121277 Si02
#       5
#     4   4   4   4   4
#     4  11  23  40  61  94 128 157 194 252 305 359
#     4  11  23  43  64  85 116 162 208 253 301 358
#     4   9  21  39  62  90 127 166 197 237 302 372
#     4  10  22  41  63  89 122 161 203 242 300 372
#     4  11  23  39  61  92 123 158 207 252 297 357
#
# _framework density 21.871327000000001
#
# number of rings (size 3 to 8) (size 9 to 14) (size 15 to 20)
#    0.000    1.600    0.000    4.800    0.000    8.000 
#    0.000   23.000    0.000    0.000    0.000    0.000 
#    0.000    0.000    0.000    0.000    0.000    0.000 
#
# Total GULP energy -247806.684309 kJ/mol
# GULP energy per Si atom -12390.334215 kJ/mol
# Density = 2.182155 g / cm^3
# Si number density = 21.871327 Si / 1000 Ang^3
#
#
#
# Elastic Constant Matrix: (Units=GPa)
#
#
# Indices 1 2 3 4 5 6 
#
# 1 158.1720 68.8219 59.6874 0.0001 -9.6954 0.0000
# 2 68.8219 319.2918 101.3988 -0.0001 -0.6667 0.0000
# 3 59.6874 101.3988 128.9666 0.0002 -2.1206 0.0000
# 4 0.0001 -0.0001 0.0002 47.7134 -0.0001 12.4547
# 5 -9.6954 -0.6667 -2.1206 -0.0001 27.2617 0.0000
# 6 0.0000 0.0000 0.0000 12.4547 0.0000 34.7928
#
#
#
# Elastic Compliance Matrix: (Units=1/GPa)
#
#
# Indices 1 2 3 4 5 6 
#
# 1 0.007956 -0.000738 -0.003060 0.000000 0.002573 0.000000
# 2 -0.000738 0.004243 -0.003001 0.000000 -0.000392 0.000000
# 3 -0.003060 -0.003001 0.011525 0.000000 -0.000265 0.000000
# 4 0.000000 0.000000 0.000000 0.023119 0.000000 -0.008276
# 5 0.002573 -0.000392 -0.000265 0.000000 0.037566 0.000000
# 6 0.000000 0.000000 0.000000 -0.008276 0.000000 0.031704
#
#
# Mechanical properties :
#
#
# Convention : Reuss Voigt Hill
#
# Bulk Modulus (GPa) = 98.74612 118.47186 108.60899
# Shear Modulus (GPa) = 37.56974 47.05508 42.31241
#
# Velocity S-wave (km/s) = 4.14909 4.64341 4.40319
# Velocity P-wave (km/s) = 8.25832 9.11227 8.69579
#
# Compressibility (1/GPa) = 0.01012698
#
# Stress axis : x y z
#
# Youngs Moduli (GPa) = 125.69899 235.66890 86.76605
#
# Poissons Ratio (x) = 0.17387 0.26546
# Poissons Ratio (y) = 0.09274 0.26040
# Poissons Ratio (z) = 0.38458 0.70729
#
# Static dielectric constant tensor:
#      x y z
#    x 3.873240 0.000000 -0.120310 
#    y 0.000000 2.776510 0.000000 
#    z -0.120310 0.000000 4.535340 
# 
# 
# High freq. dielectric constant tensor:
#      x y z
#    x 1.849750 0.000000 0.001480 
#    y 0.000000 1.874430 0.000000 
#    z 0.001480 0.000000 1.875370 
# 
# From -- ./inp_files/96403.got.cif
#   From: 2010.06.25/outbox.cif.g09.slc.cpg/sg13_49_cif.got.tgz:96403.got - 2010.06.28 04:50:58.
