data_PCOD8121663
_publ_section_title
;
Structure prediction by ZEFSAII (Michael W. Deem and Ramdas Pophale) SiO2 
 PCOD8121663
Probable space group: P 2/C
;
_chemical_formula_sum "Si O2"
_cell_formula_units_Z 28
_cell_length_a 14.622331
_cell_length_b 8.210445
_cell_length_c 12.569606
_cell_angle_alpha 90.000000
_cell_angle_beta 58.828380
_cell_angle_gamma 90.000000
_cell_volume 1291.178477
_symmetry_space_group_name_H-M "P 2/C"
_symmetry_group_IT_number 13
_symmetry_cell_setting 'monoclinic'
loop_
_space_group_symop_operation_xyz
x,y,z
-x,y,1/2-z
-x,-y,-z
x,-y,1/2+z
loop_
_atom_site_type_symbol
_atom_site_label
_atom_site_fract_x
_atom_site_fract_y
_atom_site_fract_z
Si Si1 0.806046 0.706683 0.258826
Si Si2 0.222312 0.037539 0.562225
Si Si3 0.062914 0.615843 0.819399
Si Si4 0.079681 0.860595 0.490904
Si Si5 0.616779 0.462907 0.973778
Si Si6 0.381461 0.772974 0.830690
Si Si7 0.719016 0.235687 0.335010
O O1 0.834734 0.805445 0.349897
O O2 0.886448 0.559156 0.186456
O O3 0.682879 0.648074 0.348307
O O4 0.823216 0.830379 0.150373
O O5 0.301028 0.090860 0.420787
O O6 0.131492 0.919485 0.570379
O O7 0.295533 0.944239 0.606453
O O8 0.155207 0.750006 0.759297
O O9 0.000000 0.596716 0.750000
O O10 0.982108 0.688292 0.956382
O O11 0.000000 0.000000 0.500000
O O12 0.679886 0.633233 0.946575
O O13 0.500000 0.500000 0.000000
O O14 0.615100 0.382535 0.091878
O O15 0.500000 0.847417 0.750000
O O16 0.345004 0.725476 0.734286
#
# Coordination Sequence:
#
# PCOD8121663 Si02
#       7
#     4   4   4   4   4   4   4
#     4  10  25  42  67 100 135 178 233 281 343 420
#     4  11  24  44  64  99 143 176 226 288 345 414
#     4  11  23  43  67  97 136 180 229 279 343 407
#     4  12  25  42  69  98 139 184 232 282 353 414
#     4  10  22  46  70  97 132 178 225 290 347 409
#     4  11  23  43  69  98 133 180 228 280 352 410
#     4  11  23  44  69  98 137 176 231 283 340 423
#
# _framework density 21.685617000000001
#
# number of rings (size 3 to 8) (size 9 to 14) (size 15 to 20)
#    0.000    1.143    2.857    3.000    2.000    2.857 
#   10.286    0.000    0.000    0.000    0.000    0.000 
#    0.000    0.000    0.000    0.000    0.000    0.000 
#
# Total GULP energy -347061.135545 kJ/mol
# GULP energy per Si atom -12395.040555 kJ/mol
# Density = 2.163626 g / cm^3
# Si number density = 21.685617 Si / 1000 Ang^3
#
#
#
# Elastic Constant Matrix: (Units=GPa)
#
#
# Indices 1 2 3 4 5 6 
#
# 1 112.1894 34.3692 39.6946 0.0000 3.3352 0.0000
# 2 34.3692 108.5028 50.5771 0.0000 -1.0545 0.0000
# 3 39.6946 50.5771 105.0152 0.0000 -6.7046 0.0000
# 4 0.0000 0.0000 0.0000 475.0002 0.0000 284.1576
# 5 3.3352 -1.0545 -6.7046 0.0000 36.0958 0.0000
# 6 0.0000 0.0000 0.0000 284.1576 0.0000 200.8809
#
#
#
# Elastic Compliance Matrix: (Units=1/GPa)
#
#
# Indices 1 2 3 4 5 6 
#
# 1 0.010686 -0.001894 -0.003232 0.000000 -0.001643 0.000000
# 2 -0.001894 0.012239 -0.005206 0.000000 -0.000434 0.000000
# 3 -0.003232 -0.005206 0.013420 0.000000 0.002639 0.000000
# 4 0.000000 0.000000 0.000000 0.013691 0.000000 -0.019366
# 5 -0.001643 -0.000434 0.002639 0.000000 0.028333 0.000000
# 6 0.000000 0.000000 0.000000 -0.019366 0.000000 0.032373
#
#
# Mechanical properties :
#
#
# Convention : Reuss Voigt Hill
#
# Bulk Modulus (GPa) = 63.77431 63.88767 63.83099
# Shear Modulus (GPa) = 36.59433 155.79980 96.19706
#
# Velocity S-wave (km/s) = 4.11237 8.48532 6.66754
# Velocity P-wave (km/s) = 7.21257 11.20383 9.42197
#
# Compressibility (1/GPa) = 0.01568030
#
# Stress axis : x y z
#
# Youngs Moduli (GPa) = 93.57901 81.70597 74.51635
#
# Poissons Ratio (x) = 0.15479 0.24082
# Poissons Ratio (y) = 0.17728 0.38794
# Poissons Ratio (z) = 0.30242 0.42537
#
# Static dielectric constant tensor:
#      x y z
#    x 3.594670 0.000000 -0.103860 
#    y 0.000000 4.045440 0.000000 
#    z -0.103860 0.000000 4.074960 
# 
# 
# High freq. dielectric constant tensor:
#      x y z
#    x 1.838930 0.000000 -0.007970 
#    y 0.000000 1.858400 0.000000 
#    z -0.007970 0.000000 1.863110 
# 
# From -- ./inp_files/36331.got.cif
#   From: 2010.06.25/outbox.cif.g09.slc.cpg/sg13_19_cif.got.tgz:36331.got - 2010.06.28 04:50:58.
