data_PCOD8121215
_publ_section_title
;
Structure prediction by ZEFSAII (Michael W. Deem and Ramdas Pophale) SiO2 
 PCOD8121215
Probable space group: P 2/C
;
_chemical_formula_sum "Si O2"
_cell_formula_units_Z 30
_cell_length_a 9.239828
_cell_length_b 10.869225
_cell_length_c 16.221624
_cell_angle_alpha 90.000000
_cell_angle_beta 57.201759
_cell_angle_gamma 90.000000
_cell_volume 1369.422692
_symmetry_space_group_name_H-M "P 2/C"
_symmetry_group_IT_number 13
_symmetry_cell_setting 'monoclinic'
loop_
_space_group_symop_operation_xyz
x,y,z
-x,y,1/2-z
-x,-y,-z
x,-y,1/2+z
loop_
_atom_site_type_symbol
_atom_site_label
_atom_site_fract_x
_atom_site_fract_y
_atom_site_fract_z
Si Si1 0.140628 0.012050 0.272749
Si Si2 0.857050 0.729208 0.232713
Si Si3 0.600425 0.505838 0.554463
Si Si4 0.477529 0.260799 0.854188
Si Si5 0.521563 0.994843 0.590551
Si Si6 0.952291 0.382268 0.963937
Si Si7 0.777778 0.823097 0.609074
Si Si8 0.500000 0.643530 0.750000
O O1 0.335201 0.036193 0.184121
O O2 0.118332 0.082802 0.365423
O O3 0.000000 0.060473 0.250000
O O4 0.105905 0.870000 0.302873
O O5 0.669625 0.715349 0.331179
O O6 0.000000 0.679982 0.250000
O O7 0.885018 0.641928 0.145292
O O8 0.500000 0.500000 0.500000
O O9 0.645272 0.365463 0.569202
O O10 0.769059 0.584000 0.479214
O O11 0.498318 0.564638 0.664919
O O12 0.500000 0.268820 0.750000
O O13 0.408189 0.126643 0.899776
O O14 0.656622 0.891966 0.579030
O O15 0.500000 0.000000 0.500000
O O16 0.927066 0.255060 0.020068
O O17 0.000000 0.500000 0.000000
O O18 0.667541 0.729873 0.699466
#
# Coordination Sequence:
#
# PCOD8121215 Si02
#       8
#     4   4   4   4   4   4   4   2
#     4  10  22  43  65 101 132 173 221 275 349 409
#     4  10  22  40  66  89 134 166 210 270 343 393
#     4  11  24  42  70  97 129 179 237 275 329 406
#     4  11  22  41  67  96 127 171 225 277 325 404
#     4  11  24  40  71 102 132 175 231 278 343 421
#     4  11  26  45  62  99 131 176 226 274 339 410
#     4  11  23  44  68  91 139 177 218 284 345 402
#     4  10  22  42  68  88 136 178 212 278 342 384
#
# _framework density 21.907043999999999
#
# number of rings (size 3 to 8) (size 9 to 14) (size 15 to 20)
#    0.000    1.333    2.000    3.200   11.200    0.533 
#    7.200    0.000    0.000    0.000    0.000    0.000 
#    0.000    0.000    0.000    0.000    0.000    0.000 
#
# Total GULP energy -371874.552029 kJ/mol
# GULP energy per Si atom -12395.818401 kJ/mol
# Density = 2.185718 g / cm^3
# Si number density = 21.907044 Si / 1000 Ang^3
#
#
#
# Elastic Constant Matrix: (Units=GPa)
#
#
# Indices 1 2 3 4 5 6 
#
# 1 58.0171 12.5776 13.9971 0.0000 26.4426 0.0000
# 2 12.5776 107.3384 39.3660 0.0000 14.0622 0.0000
# 3 13.9971 39.3660 78.7886 0.0000 18.6211 0.0000
# 4 0.0000 0.0000 0.0000 37.0935 0.0000 -0.4125
# 5 26.4426 14.0622 18.6211 0.0000 43.0867 0.0000
# 6 0.0000 0.0000 0.0000 -0.4125 0.0000 38.8144
#
#
#
# Elastic Compliance Matrix: (Units=1/GPa)
#
#
# Indices 1 2 3 4 5 6 
#
# 1 0.024033 -0.000756 -0.000517 0.000000 -0.014279 0.000000
# 2 -0.000756 0.011507 -0.005387 0.000000 -0.000963 0.000000
# 3 -0.000517 -0.005387 0.016690 0.000000 -0.005137 0.000000
# 4 0.000000 0.000000 0.000000 0.026962 0.000000 0.000287
# 5 -0.014279 -0.000963 -0.005137 0.000000 0.034507 0.000000
# 6 0.000000 0.000000 0.000000 0.000287 0.000000 0.025767
#
#
# Mechanical properties :
#
#
# Convention : Reuss Voigt Hill
#
# Bulk Modulus (GPa) = 25.70090 41.78061 33.74075
# Shear Modulus (GPa) = 30.16487 35.67914 32.92201
#
# Velocity S-wave (km/s) = 3.71475 4.04005 3.88081
# Velocity P-wave (km/s) = 5.49149 6.39342 5.95954
#
# Compressibility (1/GPa) = 0.03890915
#
# Stress axis : x y z
#
# Youngs Moduli (GPa) = 41.60964 86.90440 59.91610
#
# Poissons Ratio (x) = 0.06568 0.03099
# Poissons Ratio (y) = 0.03145 0.32279
# Poissons Ratio (z) = 0.02152 0.46819
#
# Static dielectric constant tensor:
#      x y z
#    x 4.721590 0.000000 -0.641950 
#    y 0.000000 4.318020 0.000000 
#    z -0.641950 0.000000 4.930830 
# 
# 
# High freq. dielectric constant tensor:
#      x y z
#    x 1.862100 0.000000 0.005460 
#    y 0.000000 1.873620 0.000000 
#    z 0.005460 0.000000 1.853890 
# 
# From -- ./inp_files/47200.got.cif
#   From: 2010.06.25/outbox.cif.g09.slc.cpg/sg13_24_cif.got.tgz:47200.got - 2010.06.28 04:50:58.
