data_PCOD8121327
_publ_section_title
;
Structure prediction by ZEFSAII (Michael W. Deem and Ramdas Pophale) SiO2 
 PCOD8121327
Probable space group: P 2/C
;
_chemical_formula_sum "Si O2"
_cell_formula_units_Z 32
_cell_length_a 9.090032
_cell_length_b 14.585857
_cell_length_c 23.680004
_cell_angle_alpha 90.000000
_cell_angle_beta 29.795886
_cell_angle_gamma 90.000000
_cell_volume 1560.121117
_symmetry_space_group_name_H-M "P 2/C"
_symmetry_group_IT_number 13
_symmetry_cell_setting 'monoclinic'
loop_
_space_group_symop_operation_xyz
x,y,z
-x,y,1/2-z
-x,-y,-z
x,-y,1/2+z
loop_
_atom_site_type_symbol
_atom_site_label
_atom_site_fract_x
_atom_site_fract_y
_atom_site_fract_z
Si Si1 0.842590 0.353827 0.743052
Si Si2 0.822871 0.190961 0.114729
Si Si3 0.158616 0.634106 0.471320
Si Si4 0.633277 0.917232 0.577275
Si Si5 0.940119 0.994908 0.708854
Si Si6 0.342336 0.099119 0.999384
Si Si7 0.166546 0.480514 0.858314
Si Si8 0.137528 0.169610 0.606776
O O1 0.496198 0.334572 0.870252
O O2 0.893485 0.440040 0.684269
O O3 0.000000 0.375096 0.750000
O O4 0.981719 0.266552 0.664776
O O5 0.500000 0.202075 0.250000
O O6 0.834601 0.110368 0.063456
O O7 0.074240 0.168508 0.076571
O O8 0.920641 0.285079 0.053053
O O9 0.133646 0.598383 0.415925
O O10 0.070490 0.559412 0.548432
O O11 0.301356 0.914330 0.714082
O O12 0.682492 0.841426 0.511915
O O13 0.649326 0.024465 0.554040
O O14 0.000000 0.034235 0.750000
O O15 0.257098 0.953572 0.585309
O O16 0.887513 0.087837 0.689137
O O17 0.643094 0.154708 0.912128
O O18 0.500000 0.520954 0.750000
#
# Coordination Sequence:
#
# PCOD8121327 Si02
#       8
#     4   4   4   4   4   4   4   4
#     4  11  23  39  63  99 126 154 204 256 307 370
#     4  12  24  37  56  86 121 149 202 258 310 350
#     4  10  22  41  66  89 120 161 197 254 308 379
#     4  11  22  38  55  81 118 163 209 257 294 353
#     4  11  18  35  59  79 111 163 210 242 294 352
#     4  11  22  37  55  81 117 163 202 249 303 354
#     4   9  20  43  69  90 119 159 201 238 317 389
#     4  11  22  36  62  85 117 165 210 248 297 366
#
# _framework density 20.511229
#
# number of rings (size 3 to 8) (size 9 to 14) (size 15 to 20)
#    0.000    1.250    3.750    3.375    1.750    0.500 
#    0.000    0.000    0.000    0.750    0.000    0.000 
#    0.000    0.000    0.000    0.000    0.000    0.000 
#
# Total GULP energy -396479.644271 kJ/mol
# GULP energy per Si atom -12389.988883 kJ/mol
# Density = 2.046454 g / cm^3
# Si number density = 20.511229 Si / 1000 Ang^3
#
#
#
# Elastic Constant Matrix: (Units=GPa)
#
#
# Indices 1 2 3 4 5 6 
#
# 1 78.9450 21.8676 41.8939 0.0000 -4.3153 0.0000
# 2 21.8676 64.1165 47.1604 0.0000 -9.8552 0.0000
# 3 41.8939 47.1604 126.0209 0.0000 -7.8127 0.0000
# 4 0.0000 0.0000 0.0000 43.3280 0.0000 2.2229
# 5 -4.3153 -9.8552 -7.8127 0.0000 27.2520 0.0000
# 6 0.0000 0.0000 0.0000 2.2229 0.0000 22.1259
#
#
#
# Elastic Compliance Matrix: (Units=1/GPa)
#
#
# Indices 1 2 3 4 5 6 
#
# 1 0.015584 -0.002004 -0.004401 0.000000 0.000481 0.000000
# 2 -0.002004 0.022643 -0.007452 0.000000 0.005735 0.000000
# 3 -0.004401 -0.007452 0.012193 0.000000 0.000104 0.000000
# 4 0.000000 0.000000 0.000000 0.023199 0.000000 -0.002331
# 5 0.000481 0.005735 0.000104 0.000000 0.038874 0.000000
# 6 0.000000 0.000000 0.000000 -0.002331 0.000000 0.045430
#
#
# Mechanical properties :
#
#
# Convention : Reuss Voigt Hill
#
# Bulk Modulus (GPa) = 44.04019 54.54734 49.29377
# Shear Modulus (GPa) = 25.87915 29.08522 27.48218
#
# Velocity S-wave (km/s) = 3.55590 3.76974 3.66438
# Velocity P-wave (km/s) = 6.19493 6.75274 6.47984
#
# Compressibility (1/GPa) = 0.02270653
#
# Stress axis : x y z
#
# Youngs Moduli (GPa) = 64.16889 44.16446 82.01251
#
# Poissons Ratio (x) = 0.08851 0.36092
# Poissons Ratio (y) = 0.12860 0.61114
# Poissons Ratio (z) = 0.28240 0.32910
#
# Static dielectric constant tensor:
#      x y z
#    x 3.626120 0.000000 -0.081650 
#    y 0.000000 3.501470 0.000000 
#    z -0.081650 0.000000 4.321130 
# 
# 
# High freq. dielectric constant tensor:
#      x y z
#    x 1.788820 0.000000 0.010160 
#    y 0.000000 1.780920 0.000000 
#    z 0.010160 0.000000 1.827720 
# 
# From -- ./inp_files/85333.got.cif
#   From: 2010.06.25/outbox.cif.g09.slc.cpg/sg13_43_cif.got.tgz:85333.got - 2010.06.28 04:50:58.
