data_PCOD8121271
_publ_section_title
;
Structure prediction by ZEFSAII (Michael W. Deem and Ramdas Pophale) SiO2 
 PCOD8121271
Probable space group: P 2/C
;
_chemical_formula_sum "Si O2"
_cell_formula_units_Z 32
_cell_length_a 15.250836
_cell_length_b 5.322207
_cell_length_c 15.532785
_cell_angle_alpha 90.000000
_cell_angle_beta 81.614381
_cell_angle_gamma 90.000000
_cell_volume 1247.287844
_symmetry_space_group_name_H-M "P 2/C"
_symmetry_group_IT_number 13
_symmetry_cell_setting 'monoclinic'
loop_
_space_group_symop_operation_xyz
x,y,z
-x,y,1/2-z
-x,-y,-z
x,-y,1/2+z
loop_
_atom_site_type_symbol
_atom_site_label
_atom_site_fract_x
_atom_site_fract_y
_atom_site_fract_z
Si Si1 0.381694 0.559621 0.189804
Si Si2 0.425651 0.439057 0.882160
Si Si3 0.920419 0.445178 0.947367
Si Si4 0.019669 0.063743 0.146271
Si Si5 0.758684 0.138317 0.872530
Si Si6 0.203935 0.643038 0.696928
Si Si7 0.674251 0.935309 0.561690
Si Si8 0.161835 0.749757 0.884378
O O1 0.468446 0.543655 0.116711
O O2 0.409136 0.554719 0.283883
O O3 0.327037 0.814619 0.175612
O O4 0.312337 0.333376 0.181732
O O5 0.382527 0.678879 0.934316
O O6 0.388761 0.175760 0.922194
O O7 0.930595 0.179104 0.896733
O O8 0.815569 0.406454 0.866913
O O9 0.837970 0.419324 0.027907
O O10 0.000000 0.500000 0.000000
O O11 0.000000 0.049792 0.250000
O O12 0.080512 0.317246 0.120138
O O13 0.926524 0.081611 0.107770
O O14 0.825180 0.927907 0.823040
O O15 0.729805 0.034632 0.967404
O O16 0.166618 0.575151 0.797249
O O17 0.748642 0.920741 0.626589
#
# Coordination Sequence:
#
# PCOD8121271 Si02
#       8
#     4   4   4   4   4   4   4   4
#     4   9  23  41  64  85 127 167 220 273 315 388
#     4  11  24  39  65  89 125 168 222 265 324 390
#     4  10  23  44  69 103 132 175 218 266 329 399
#     4  11  25  45  71 105 135 176 220 265 337 404
#     4  10  23  40  59  89 130 158 224 266 324 390
#     4  10  22  41  62  92 120 174 215 262 331 370
#     4  12  25  40  60  98 123 170 216 264 338 378
#     4  11  24  43  71  92 139 171 218 280 316 402
#
# _framework density 25.655666
#
# number of rings (size 3 to 8) (size 9 to 14) (size 15 to 20)
#    0.750    0.750    1.250    3.375    1.750   10.000 
#    0.000    0.000    0.000    0.000    0.000    0.000 
#    0.000    0.000    0.000    0.000    0.000    0.000 
#
# Total GULP energy -396656.227385 kJ/mol
# GULP energy per Si atom -12395.507106 kJ/mol
# Density = 2.559727 g / cm^3
# Si number density = 25.655666 Si / 1000 Ang^3
#
#
#
# Elastic Constant Matrix: (Units=GPa)
#
#
# Indices 1 2 3 4 5 6 
#
# 1 116.1741 64.5612 12.0795 0.0000 -10.9676 0.0000
# 2 64.5612 199.0791 68.5703 0.0000 -16.0954 0.0000
# 3 12.0795 68.5703 138.1817 0.0000 -27.7659 0.0000
# 4 0.0000 0.0000 0.0000 32.0972 0.0000 -0.9044
# 5 -10.9676 -16.0954 -27.7659 0.0000 37.4629 0.0000
# 6 0.0000 0.0000 0.0000 -0.9044 0.0000 48.4052
#
#
#
# Elastic Compliance Matrix: (Units=1/GPa)
#
#
# Indices 1 2 3 4 5 6 
#
# 1 0.010815 -0.003801 0.001467 0.000000 0.002621 0.000000
# 2 -0.003801 0.007401 -0.003437 0.000000 -0.000480 0.000000
# 3 0.001467 -0.003437 0.010109 0.000000 0.006445 0.000000
# 4 0.000000 0.000000 0.000000 0.031172 0.000000 0.000582
# 5 0.002621 -0.000480 0.006445 0.000000 0.032031 0.000000
# 6 0.000000 0.000000 0.000000 0.000582 0.000000 0.020670
#
#
# Mechanical properties :
#
#
# Convention : Reuss Voigt Hill
#
# Bulk Modulus (GPa) = 59.57994 82.65076 71.11535
# Shear Modulus (GPa) = 38.66011 44.14130 41.40070
#
# Velocity S-wave (km/s) = 3.88607 4.15243 4.02145
# Velocity P-wave (km/s) = 6.58853 7.43475 7.02440
#
# Compressibility (1/GPa) = 0.01678417
#
# Stress axis : x y z
#
# Youngs Moduli (GPa) = 92.46603 135.12436 98.92063
#
# Poissons Ratio (x) = 0.51357 -0.14514
# Poissons Ratio (y) = 0.35144 0.33996
# Poissons Ratio (z) = -0.13567 0.46438
#
# Static dielectric constant tensor:
#      x y z
#    x 5.374620 0.000000 0.004130 
#    y 0.000000 4.732310 0.000000 
#    z 0.004130 0.000000 4.865410 
# 
# 
# High freq. dielectric constant tensor:
#      x y z
#    x 2.067830 0.000000 0.015600 
#    y 0.000000 2.017760 0.000000 
#    z 0.015600 0.000000 2.036940 
# 
# From -- ./inp_files/67581.got.cif
#   From: 2010.06.25/outbox.cif.g09.slc.cpg/sg13_34_cif.got.tgz:67581.got - 2010.06.28 04:50:58.
