data_PCOD8121978
_publ_section_title
;
Structure prediction by ZEFSAII (Michael W. Deem and Ramdas Pophale) SiO2 
 PCOD8121978
Probable space group: P 2/C
;
_chemical_formula_sum "Si O2"
_cell_formula_units_Z 16
_cell_length_a 14.084443
_cell_length_b 6.434762
_cell_length_c 9.235485
_cell_angle_alpha 90.000000
_cell_angle_beta 48.863569
_cell_angle_gamma 90.000000
_cell_volume 630.391888
_symmetry_space_group_name_H-M "P 2/C"
_symmetry_group_IT_number 13
_symmetry_cell_setting 'monoclinic'
loop_
_space_group_symop_operation_xyz
x,y,z
-x,y,1/2-z
-x,-y,-z
x,-y,1/2+z
loop_
_atom_site_type_symbol
_atom_site_label
_atom_site_fract_x
_atom_site_fract_y
_atom_site_fract_z
Si Si1 0.000000 0.029078 0.250000
Si Si2 0.500000 0.722072 0.250000
Si Si3 0.166896 0.142947 0.335216
Si Si4 0.609269 0.655931 0.780851
Si Si5 0.381183 0.088745 0.507933
O O1 0.085512 0.171925 0.270185
O O2 0.918122 0.881715 0.436878
O O3 0.451416 0.574878 0.164371
O O4 0.386168 0.869871 0.414287
O O5 0.258684 0.343679 0.264034
O O6 0.258457 0.936607 0.233465
O O7 0.516364 0.837490 0.946366
O O8 0.638275 0.722924 0.586157
#
# Coordination Sequence:
#
# PCOD8121978 Si02
#       5
#     2   2   4   4   4
#     4  10  24  34  62  88 116 166 218 240 280 348
#     4   8  18  34  56 100 126 146 186 244 324 364
#     4  11  19  39  58  92 115 161 209 246 290 358
#     4   9  18  34  61  95 121 154 190 247 314 358
#     4   9  18  34  61  95 121 154 190 247 314 358
#
# _framework density 25.381038
#
# number of rings (size 3 to 8) (size 9 to 14) (size 15 to 20)
#    0.000    3.000    2.500    0.750    0.000    1.000 
#    0.000    2.500    0.000    4.500    0.000    0.000 
#    0.000    0.000    0.000    0.000    0.000    0.000 
#
# Total GULP energy -198213.381461 kJ/mol
# GULP energy per Si atom -12388.336341 kJ/mol
# Density = 2.532327 g / cm^3
# Si number density = 25.381038 Si / 1000 Ang^3
#
#
#
# Elastic Constant Matrix: (Units=GPa)
#
#
# Indices 1 2 3 4 5 6 
#
# 1 196.4330 41.8667 29.9677 0.0000 -2.8658 0.0000
# 2 41.8667 112.1542 21.5202 0.0000 -0.7114 0.0000
# 3 29.9677 21.5202 125.1177 0.0000 -4.6555 0.0000
# 4 0.0000 0.0000 0.0000 20.9734 0.0000 12.1768
# 5 -2.8658 -0.7114 -4.6555 0.0000 40.1512 0.0000
# 6 0.0000 0.0000 0.0000 12.1768 0.0000 21.7646
#
#
#
# Elastic Compliance Matrix: (Units=1/GPa)
#
#
# Indices 1 2 3 4 5 6 
#
# 1 0.005658 -0.001915 -0.001016 0.000000 0.000252 0.000000
# 2 -0.001915 0.009869 -0.001243 0.000000 -0.000106 0.000000
# 3 -0.001016 -0.001243 0.008483 0.000000 0.000889 0.000000
# 4 0.000000 0.000000 0.000000 0.070618 0.000000 -0.039509
# 5 0.000252 -0.000106 0.000889 0.000000 0.025025 0.000000
# 6 0.000000 0.000000 0.000000 -0.039509 0.000000 0.068050
#
#
# Mechanical properties :
#
#
# Convention : Reuss Voigt Hill
#
# Bulk Modulus (GPa) = 63.85356 68.93490 66.39423
# Shear Modulus (GPa) = 24.84206 39.26787 32.05496
#
# Velocity S-wave (km/s) = 3.13192 3.93763 3.55766
# Velocity P-wave (km/s) = 6.18798 6.92042 6.56442
#
# Compressibility (1/GPa) = 0.01566083
#
# Stress axis : x y z
#
# Youngs Moduli (GPa) = 176.74848 101.32661 117.88691
#
# Poissons Ratio (x) = 0.19408 0.11981
# Poissons Ratio (y) = 0.33855 0.14649
# Poissons Ratio (z) = 0.17963 0.12591
#
# Static dielectric constant tensor:
#      x y z
#    x 5.049900 0.000000 0.145670 
#    y 0.000000 4.202030 0.000000 
#    z 0.145670 0.000000 5.062670 
# 
# 
# High freq. dielectric constant tensor:
#      x y z
#    x 2.017530 0.000000 0.027910 
#    y 0.000000 1.975480 0.000000 
#    z 0.027910 0.000000 2.039170 
# 
# From -- ./inp_files/17451.got.cif
#   From: 2010.06.25/outbox.cif.g09.slc.cpg/sg13_9_cif.got.tgz:17451.got - 2010.06.28 04:50:58.
