data_PCOD8121816
_publ_section_title
;
Structure prediction by ZEFSAII (Michael W. Deem and Ramdas Pophale) SiO2 
 PCOD8121816
Probable space group: P 2/C
;
_chemical_formula_sum "Si O2"
_cell_formula_units_Z 30
_cell_length_a 21.608426
_cell_length_b 11.253788
_cell_length_c 12.728445
_cell_angle_alpha 90.000000
_cell_angle_beta 26.678076
_cell_angle_gamma 90.000000
_cell_volume 1389.701171
_symmetry_space_group_name_H-M "P 2/C"
_symmetry_group_IT_number 13
_symmetry_cell_setting 'monoclinic'
loop_
_space_group_symop_operation_xyz
x,y,z
-x,y,1/2-z
-x,-y,-z
x,-y,1/2+z
loop_
_atom_site_type_symbol
_atom_site_label
_atom_site_fract_x
_atom_site_fract_y
_atom_site_fract_z
Si Si1 0.121660 0.586289 0.276438
Si Si2 0.066854 0.245146 0.545198
Si Si3 0.409278 0.970108 0.285046
Si Si4 0.505696 0.801369 0.968253
Si Si5 0.000000 0.233083 0.250000
Si Si6 0.733488 0.351350 0.738911
Si Si7 0.276504 0.590778 0.839607
Si Si8 0.893894 0.094106 0.204495
O O1 0.232855 0.621596 0.193065
O O2 0.000000 0.500000 0.500000
O O3 0.060326 0.710177 0.330818
O O4 0.211129 0.535839 0.044872
O O5 0.156912 0.356800 0.446447
O O6 0.150109 0.168125 0.333854
O O7 0.000000 0.178419 0.750000
O O8 0.500000 0.984022 0.250000
O O9 0.246762 0.967257 0.549110
O O10 0.424857 0.088250 0.193490
O O11 0.457341 0.848535 0.155347
O O12 0.610724 0.692579 0.817741
O O13 0.372739 0.757443 0.105650
O O14 0.036706 0.158372 0.299710
O O15 0.871799 0.318734 0.466413
O O16 0.661236 0.471918 0.806112
O O17 0.000000 0.000000 0.000000
#
# Coordination Sequence:
#
# PCOD8121816 Si02
#       8
#     4   4   4   4   2   4   4   4
#     4  11  22  40  67 104 138 189 228 287 357 422
#     4  10  23  42  67 102 143 183 232 289 358 424
#     4  11  27  49  75  99 144 193 239 302 366 426
#     4  11  27  48  71 104 144 189 243 290 359 440
#     4  12  26  44  72 110 148 180 238 308 372 432
#     4  12  24  45  71 105 147 183 235 296 362 432
#     4  11  25  42  72 101 145 191 238 287 356 436
#     4  12  28  44  75 109 141 190 248 308 363 430
#
# _framework density 21.587375999999999
#
# number of rings (size 3 to 8) (size 9 to 14) (size 15 to 20)
#    0.000    0.800    4.000    2.000    9.333    0.000 
#    2.400    0.000    0.000    0.000    0.000    0.000 
#    0.000    0.000    0.000    0.000    0.000    0.000 
#
# Total GULP energy -371825.764755 kJ/mol
# GULP energy per Si atom -12394.192158 kJ/mol
# Density = 2.153824 g / cm^3
# Si number density = 21.587376 Si / 1000 Ang^3
#
#
#
# Elastic Constant Matrix: (Units=GPa)
#
#
# Indices 1 2 3 4 5 6 
#
# 1 119.9109 42.2719 43.9336 0.0000 11.3288 0.0000
# 2 42.2719 97.7102 50.9438 0.0000 3.8449 0.0000
# 3 43.9336 50.9438 122.4033 0.0000 2.1242 0.0000
# 4 0.0000 0.0000 0.0000 45.8425 0.0000 -6.3017
# 5 11.3288 3.8449 2.1242 0.0000 38.3904 0.0000
# 6 0.0000 0.0000 0.0000 -6.3017 0.0000 24.8453
#
#
#
# Elastic Compliance Matrix: (Units=1/GPa)
#
#
# Indices 1 2 3 4 5 6 
#
# 1 0.010617 -0.003225 -0.002422 0.000000 -0.002676 0.000000
# 2 -0.003225 0.014089 -0.004703 0.000000 -0.000199 0.000000
# 3 -0.002422 -0.004703 0.010986 0.000000 0.000578 0.000000
# 4 0.000000 0.000000 0.000000 0.022602 0.000000 0.005733
# 5 -0.002676 -0.000199 0.000578 0.000000 0.026826 0.000000
# 6 0.000000 0.000000 0.000000 0.005733 0.000000 0.041703
#
#
# Mechanical properties :
#
#
# Convention : Reuss Voigt Hill
#
# Bulk Modulus (GPa) = 66.69950 68.25810 67.47880
# Shear Modulus (GPa) = 32.78253 35.34065 34.06159
#
# Velocity S-wave (km/s) = 3.90115 4.05050 3.97652
# Velocity P-wave (km/s) = 7.15936 7.31871 7.23947
#
# Compressibility (1/GPa) = 0.01499262
#
# Stress axis : x y z
#
# Youngs Moduli (GPa) = 94.19240 70.97523 91.02229
#
# Poissons Ratio (x) = 0.22889 0.22045
# Poissons Ratio (y) = 0.30377 0.42808
# Poissons Ratio (z) = 0.22812 0.33380
#
# Static dielectric constant tensor:
#      x y z
#    x 4.292840 0.000000 0.152480 
#    y 0.000000 4.083780 0.000000 
#    z 0.152480 0.000000 3.870000 
# 
# 
# High freq. dielectric constant tensor:
#      x y z
#    x 1.864690 0.000000 0.006710 
#    y 0.000000 1.847320 0.000000 
#    z 0.006710 0.000000 1.853180 
# 
# From -- ./inp_files/40871.got.cif
#   From: 2010.06.25/outbox.cif.g09.slc.cpg/sg13_21_cif.got.tgz:40871.got - 2010.06.28 04:50:58.
