data_PCOD8121458
_publ_section_title
;
Structure prediction by ZEFSAII (Michael W. Deem and Ramdas Pophale) SiO2 
 PCOD8121458
Probable space group: P 2/C
;
_chemical_formula_sum "Si O2"
_cell_formula_units_Z 30
_cell_length_a 11.932273
_cell_length_b 9.055076
_cell_length_c 14.176479
_cell_angle_alpha 90.000000
_cell_angle_beta 104.752197
_cell_angle_gamma 90.000000
_cell_volume 1481.243237
_symmetry_space_group_name_H-M "P 2/C"
_symmetry_group_IT_number 13
_symmetry_cell_setting 'monoclinic'
loop_
_space_group_symop_operation_xyz
x,y,z
-x,y,1/2-z
-x,-y,-z
x,-y,1/2+z
loop_
_atom_site_type_symbol
_atom_site_label
_atom_site_fract_x
_atom_site_fract_y
_atom_site_fract_z
Si Si1 0.749166 0.352581 0.235118
Si Si2 0.016758 0.159345 0.460423
Si Si3 0.376417 0.835062 0.934132
Si Si4 0.371612 0.169770 0.953684
Si Si5 0.757611 0.680811 0.440898
Si Si6 0.800171 0.346010 0.456953
Si Si7 0.378049 0.643148 0.272692
Si Si8 0.000000 0.740513 0.750000
O O1 0.685274 0.214363 0.174792
O O2 0.737879 0.322591 0.343593
O O3 0.679228 0.499687 0.190383
O O4 0.884564 0.362337 0.231495
O O5 0.142909 0.201888 0.521676
O O6 0.007452 0.156174 0.344344
O O7 0.927946 0.277721 0.484767
O O8 0.000000 0.000000 0.500000
O O9 0.330606 0.000625 0.941201
O O10 0.515008 0.825920 0.955645
O O11 0.346095 0.722965 0.011751
O O12 0.397153 0.229150 0.853760
O O13 0.272014 0.267357 0.977467
O O14 0.806495 0.519979 0.478772
O O15 0.713655 0.696778 0.324968
O O16 0.500000 0.601696 0.250000
#
# Coordination Sequence:
#
# PCOD8121458 Si02
#       8
#     4   4   4   4   4   4   4   2
#     4  10  23  41  67  94 126 168 215 260 328 377
#     4  11  23  43  68  96 133 170 214 264 327 387
#     4  11  23  40  66  91 129 175 205 266 323 383
#     4  11  25  41  61  98 131 164 218 261 324 385
#     4  11  22  43  67  92 127 168 213 268 321 374
#     4  10  24  41  65  98 127 165 215 269 316 389
#     4  11  24  43  65  97 128 167 216 268 319 384
#     4  10  22  42  68  98 128 170 214 264 316 384
#
# _framework density 20.253257999999999
#
# number of rings (size 3 to 8) (size 9 to 14) (size 15 to 20)
#    0.000    1.333    2.667    2.000    3.733    4.267 
#    0.000    0.000    0.000    0.000    0.000    0.000 
#    0.000    0.000    0.000    0.000    0.000    0.000 
#
# Total GULP energy -372073.496490 kJ/mol
# GULP energy per Si atom -12402.449883 kJ/mol
# Density = 2.020716 g / cm^3
# Si number density = 20.253258 Si / 1000 Ang^3
#
#
#
# Elastic Constant Matrix: (Units=GPa)
#
#
# Indices 1 2 3 4 5 6 
#
# 1 90.4871 36.3522 37.9521 0.0000 -2.1960 0.0000
# 2 36.3522 108.3825 42.5440 0.0000 -3.2277 0.0000
# 3 37.9521 42.5440 80.3195 0.0000 2.3425 0.0000
# 4 0.0000 0.0000 0.0000 29.0612 0.0000 -0.2390
# 5 -2.1960 -3.2277 2.3425 0.0000 35.8209 0.0000
# 6 0.0000 0.0000 0.0000 -0.2390 0.0000 32.3665
#
#
#
# Elastic Compliance Matrix: (Units=1/GPa)
#
#
# Indices 1 2 3 4 5 6 
#
# 1 0.014428 -0.002679 -0.005428 0.000000 0.000998 0.000000
# 2 -0.002679 0.012222 -0.005245 0.000000 0.001280 0.000000
# 3 -0.005428 -0.005245 0.017851 0.000000 -0.001973 0.000000
# 4 0.000000 0.000000 0.000000 0.034412 0.000000 0.000254
# 5 0.000998 0.001280 -0.001973 0.000000 0.028222 0.000000
# 6 0.000000 0.000000 0.000000 0.000254 0.000000 0.030898
#
#
# Mechanical properties :
#
#
# Convention : Reuss Voigt Hill
#
# Bulk Modulus (GPa) = 56.18848 56.98730 56.58789
# Shear Modulus (GPa) = 29.29623 30.27243 29.78433
#
# Velocity S-wave (km/s) = 3.80741 3.87032 3.83899
# Velocity P-wave (km/s) = 6.86525 6.94053 6.90299
#
# Compressibility (1/GPa) = 0.01779724
#
# Stress axis : x y z
#
# Youngs Moduli (GPa) = 69.30846 81.81768 56.01979
#
# Poissons Ratio (x) = 0.21920 0.30405
# Poissons Ratio (y) = 0.18568 0.29385
# Poissons Ratio (z) = 0.37618 0.42917
#
# Static dielectric constant tensor:
#      x y z
#    x 3.754680 0.000000 0.019480 
#    y 0.000000 3.642140 0.000000 
#    z 0.019480 0.000000 3.719230 
# 
# 
# High freq. dielectric constant tensor:
#      x y z
#    x 1.801320 0.000000 0.004580 
#    y 0.000000 1.787110 0.000000 
#    z 0.004580 0.000000 1.797210 
# 
# From -- ./inp_files/50128.got.cif
#   From: 2010.06.25/outbox.cif.g09.slc.cpg/sg13_26_cif.got.tgz:50128.got - 2010.06.28 04:50:58.
