data_PCOD8121105
_publ_section_title
;
Structure prediction by ZEFSAII (Michael W. Deem and Ramdas Pophale) SiO2 
 PCOD8121105
Probable space group: P 2/C
;
_chemical_formula_sum "Si O2"
_cell_formula_units_Z 26
_cell_length_a 5.298874
_cell_length_b 13.825326
_cell_length_c 17.530558
_cell_angle_alpha 90.000000
_cell_angle_beta 64.889487
_cell_angle_gamma 90.000000
_cell_volume 1162.890512
_symmetry_space_group_name_H-M "P 2/C"
_symmetry_group_IT_number 13
_symmetry_cell_setting 'monoclinic'
loop_
_space_group_symop_operation_xyz
x,y,z
-x,y,1/2-z
-x,-y,-z
x,-y,1/2+z
loop_
_atom_site_type_symbol
_atom_site_label
_atom_site_fract_x
_atom_site_fract_y
_atom_site_fract_z
Si Si1 0.483503 0.240215 0.890876
Si Si2 0.286942 0.259597 0.075606
Si Si3 0.779195 0.378159 0.068957
Si Si4 0.000000 0.316898 0.750000
Si Si5 0.856545 0.583416 0.115446
Si Si6 0.848908 0.945067 0.848378
Si Si7 0.652815 0.956294 0.150880
O O1 0.371732 0.347272 0.891504
O O2 0.301409 0.157330 0.872913
O O3 0.788652 0.240242 0.814824
O O4 0.483036 0.221661 0.981466
O O5 0.477785 0.326513 0.105735
O O6 0.183317 0.169094 0.137210
O O7 0.014054 0.312905 0.078578
O O8 0.743749 0.474411 0.123980
O O9 0.860498 0.405319 0.970868
O O10 0.112095 0.388893 0.800396
O O11 0.000000 0.965325 0.750000
O O12 0.546662 0.997037 0.888585
O O13 0.045673 0.991457 0.888976
O O14 0.500000 0.972311 0.250000
#
# Coordination Sequence:
#
# PCOD8121105 Si02
#       7
#     4   4   4   2   4   4   4
#     4  11  25  38  65  97 135 168 215 269 333 392
#     4  11  23  44  67  95 129 173 222 268 324 387
#     4  10  23  42  68  92 128 179 209 266 329 382
#     4  12  22  40  62  98 134 174 218 276 320 402
#     4  10  23  40  64  93 134 168 219 260 328 395
#     4  10  23  42  64  91 126 170 222 270 321 384
#     4  10  22  39  64  93 128 171 209 268 332 381
#
# _framework density 22.358079
#
# number of rings (size 3 to 8) (size 9 to 14) (size 15 to 20)
#    0.000    1.538    1.538    2.308    7.538    3.077 
#    1.385    0.000    0.000    0.000    0.000    0.000 
#    0.000    0.000    0.000    0.000    0.000    0.000 
#
# Total GULP energy -322418.709880 kJ/mol
# GULP energy per Si atom -12400.719611 kJ/mol
# Density = 2.230719 g / cm^3
# Si number density = 22.358079 Si / 1000 Ang^3
#
#
#
# Elastic Constant Matrix: (Units=GPa)
#
#
# Indices 1 2 3 4 5 6 
#
# 1 144.3272 54.2549 16.8530 0.0000 0.1397 0.0000
# 2 54.2549 128.6593 6.0523 0.0000 -7.0634 0.0000
# 3 16.8530 6.0523 26.5956 0.0000 0.5114 0.0000
# 4 0.0000 0.0000 0.0000 20.6245 0.0000 -3.7253
# 5 0.1397 -7.0634 0.5114 0.0000 19.7019 0.0000
# 6 0.0000 0.0000 0.0000 -3.7253 0.0000 45.3106
#
#
#
# Elastic Compliance Matrix: (Units=1/GPa)
#
#
# Indices 1 2 3 4 5 6 
#
# 1 0.008825 -0.003565 -0.004758 0.000000 -0.001217 0.000000
# 2 -0.003565 0.009461 0.000040 0.000000 0.003416 0.000000
# 3 -0.004758 0.000040 0.040625 0.000000 -0.001006 0.000000
# 4 0.000000 0.000000 0.000000 0.049217 0.000000 0.004046
# 5 -0.001217 0.003416 -0.001006 0.000000 0.052016 0.000000
# 6 0.000000 0.000000 0.000000 0.004046 0.000000 0.022403
#
#
# Mechanical properties :
#
#
# Convention : Reuss Voigt Hill
#
# Bulk Modulus (GPa) = 23.61433 50.43361 37.02397
# Shear Modulus (GPa) = 23.44905 31.95553 27.70229
#
# Velocity S-wave (km/s) = 3.24202 3.78466 3.52380
# Velocity P-wave (km/s) = 4.95975 6.45789 5.75775
#
# Compressibility (1/GPa) = 0.04234716
#
# Stress axis : x y z
#
# Youngs Moduli (GPa) = 113.30859 105.69346 24.61518
#
# Poissons Ratio (x) = 0.37676 0.11712
# Poissons Ratio (y) = 0.40390 -0.00099
# Poissons Ratio (z) = 0.53911 -0.00423
#
# Static dielectric constant tensor:
#      x y z
#    x 4.169480 0.000000 0.018790 
#    y 0.000000 3.945460 0.000000 
#    z 0.018790 0.000000 3.979090 
# 
# 
# High freq. dielectric constant tensor:
#      x y z
#    x 1.884380 0.000000 0.002560 
#    y 0.000000 1.886800 0.000000 
#    z 0.002560 0.000000 1.861720 
# 
# From -- ./inp_files/73342.got.cif
#   From: 2010.06.25/outbox.cif.g09.slc.cpg/sg13_37_cif.got.tgz:73342.got - 2010.06.28 04:50:58.
