data_PCOD8121809
_publ_section_title
;
Structure prediction by ZEFSAII (Michael W. Deem and Ramdas Pophale) SiO2 
 PCOD8121809
Probable space group: P 2/C
;
_chemical_formula_sum "Si O2"
_cell_formula_units_Z 24
_cell_length_a 8.877130
_cell_length_b 8.735900
_cell_length_c 15.243383
_cell_angle_alpha 90.000000
_cell_angle_beta 73.099440
_cell_angle_gamma 90.000000
_cell_volume 1131.065195
_symmetry_space_group_name_H-M "P 2/C"
_symmetry_group_IT_number 13
_symmetry_cell_setting 'monoclinic'
loop_
_space_group_symop_operation_xyz
x,y,z
-x,y,1/2-z
-x,-y,-z
x,-y,1/2+z
loop_
_atom_site_type_symbol
_atom_site_label
_atom_site_fract_x
_atom_site_fract_y
_atom_site_fract_z
Si Si1 0.109356 0.794325 0.659236
Si Si2 0.405756 0.844027 0.019649
Si Si3 0.441166 0.709920 0.665196
Si Si4 0.119385 0.639487 0.467883
Si Si5 0.044508 0.914586 0.079871
Si Si6 0.472124 0.626278 0.351482
O O1 0.282795 0.802563 0.670850
O O2 0.128136 0.712559 0.562823
O O3 0.000000 0.706955 0.750000
O O4 0.024798 0.961453 0.661499
O O5 0.223474 0.868527 0.056322
O O6 0.465680 0.750257 0.092181
O O7 0.426366 0.751500 0.926942
O O8 0.500000 0.000000 0.000000
O O9 0.500000 0.763277 0.750000
O O10 0.420590 0.526550 0.662900
O O11 0.290289 0.585109 0.405236
O O12 0.000000 0.500000 0.500000
O O13 0.059817 0.759517 0.402656
O O14 0.000000 0.000000 0.000000
O O15 0.500000 0.696638 0.250000
#
# Coordination Sequence:
#
# PCOD8121809 Si02
#       6
#     4   4   4   4   4   4
#     4  11  25  44  65 101 139 176 230 281 343 412
#     4  12  22  44  70  99 133 182 226 285 345 409
#     4  11  25  43  68 100 137 179 230 281 341 407
#     4  11  24  45  70 100 136 184 224 286 349 409
#     4  10  23  42  65  94 134 173 223 275 344 408
#     4  11  26  45  68 101 139 178 235 284 342 414
#
# _framework density 21.218935999999999
#
# number of rings (size 3 to 8) (size 9 to 14) (size 15 to 20)
#    0.000    1.000    3.333    2.500   11.667    2.000 
#    0.000    0.833    0.000    0.000    0.000    0.000 
#    0.000    0.000    0.000    0.000    0.000    0.000 
#
# Total GULP energy -297434.238401 kJ/mol
# GULP energy per Si atom -12393.093267 kJ/mol
# Density = 2.117064 g / cm^3
# Si number density = 21.218936 Si / 1000 Ang^3
#
#
#
# Elastic Constant Matrix: (Units=GPa)
#
#
# Indices 1 2 3 4 5 6 
#
# 1 112.4708 29.9113 33.0951 0.0000 10.5018 0.0000
# 2 29.9113 89.4365 34.0142 0.0000 25.5300 0.0000
# 3 33.0951 34.0142 153.3340 0.0000 9.0189 0.0000
# 4 0.0000 0.0000 0.0000 32.0572 0.0000 -2.9830
# 5 10.5018 25.5300 9.0189 0.0000 39.6903 0.0000
# 6 0.0000 0.0000 0.0000 -2.9830 0.0000 36.8171
#
#
#
# Elastic Compliance Matrix: (Units=1/GPa)
#
#
# Indices 1 2 3 4 5 6 
#
# 1 0.010104 -0.002599 -0.001566 0.000000 -0.000646 0.000000
# 2 -0.002599 0.015428 -0.002350 0.000000 -0.008702 0.000000
# 3 -0.001566 -0.002350 0.007366 0.000000 0.000252 0.000000
# 4 0.000000 0.000000 0.000000 0.031431 0.000000 0.002547
# 5 -0.000646 -0.008702 0.000252 0.000000 0.030906 0.000000
# 6 0.000000 0.000000 0.000000 0.002547 0.000000 0.027368
#
#
# Mechanical properties :
#
#
# Convention : Reuss Voigt Hill
#
# Bulk Modulus (GPa) = 50.33223 61.03140 55.68182
# Shear Modulus (GPa) = 35.14812 38.92763 37.03787
#
# Velocity S-wave (km/s) = 4.07437 4.28783 4.18246
# Velocity P-wave (km/s) = 6.77539 7.30337 7.04433
#
# Compressibility (1/GPa) = 0.01986798
#
# Stress axis : x y z
#
# Youngs Moduli (GPa) = 98.97489 64.81716 135.75630
#
# Poissons Ratio (x) = 0.16847 0.21262
# Poissons Ratio (y) = 0.25725 0.31897
# Poissons Ratio (z) = 0.15501 0.15229
#
# Static dielectric constant tensor:
#      x y z
#    x 5.018440 0.000000 0.427160 
#    y 0.000000 3.969640 0.000000 
#    z 0.427160 0.000000 4.236000 
# 
# 
# High freq. dielectric constant tensor:
#      x y z
#    x 1.841660 0.000000 0.007900 
#    y 0.000000 1.834680 0.000000 
#    z 0.007900 0.000000 1.839090 
# 
# From -- ./inp_files/46013.got.cif
#   From: 2010.06.25/outbox.cif.g09.slc.cpg/sg13_24_cif.got.tgz:46013.got - 2010.06.28 04:50:58.
