data_PCOD8121499
_publ_section_title
;
Structure prediction by ZEFSAII (Michael W. Deem and Ramdas Pophale) SiO2 
 PCOD8121499
Probable space group: P 2/C
;
_chemical_formula_sum "Si O2"
_cell_formula_units_Z 32
_cell_length_a 18.028753
_cell_length_b 11.692637
_cell_length_c 14.115222
_cell_angle_alpha 90.000000
_cell_angle_beta 30.911922
_cell_angle_gamma 90.000000
_cell_volume 1528.594038
_symmetry_space_group_name_H-M "P 2/C"
_symmetry_group_IT_number 13
_symmetry_cell_setting 'monoclinic'
loop_
_space_group_symop_operation_xyz
x,y,z
-x,y,1/2-z
-x,-y,-z
x,-y,1/2+z
loop_
_atom_site_type_symbol
_atom_site_label
_atom_site_fract_x
_atom_site_fract_y
_atom_site_fract_z
Si Si1 0.487265 0.762279 0.051364
Si Si2 0.747743 0.728117 0.644587
Si Si3 0.341082 0.579218 0.911345
Si Si4 0.836503 0.100115 0.894721
Si Si5 0.768552 0.734502 0.309686
Si Si6 0.639846 0.891672 0.145449
Si Si7 0.960275 0.367377 0.052150
Si Si8 0.685197 0.662869 0.981713
O O1 0.380642 0.724972 0.084578
O O2 0.406600 0.865847 0.194664
O O3 0.639290 0.793797 0.834910
O O4 0.547013 0.665952 0.060599
O O5 0.695854 0.607290 0.657419
O O6 0.754210 0.811203 0.549442
O O7 0.899114 0.693011 0.524470
O O8 0.500000 0.629682 0.750000
O O9 0.234806 0.637142 0.105319
O O10 0.335527 0.443381 0.926850
O O11 0.806524 0.142588 0.818726
O O12 0.000000 0.096230 0.750000
O O13 0.773774 0.975299 0.985536
O O14 0.890982 0.702969 0.097362
O O15 0.500000 0.948577 0.250000
O O16 0.684732 0.775022 0.045626
O O17 0.842830 0.347273 0.261935
O O18 0.000000 0.500000 0.000000
#
# Coordination Sequence:
#
# PCOD8121499 Si02
#       8
#     4   4   4   4   4   4   4   4
#     4  10  22  43  65  95 128 163 219 268 315 382
#     4  10  23  40  65  98 128 169 213 265 320 381
#     4  11  20  36  65  96 133 165 209 261 325 377
#     4  11  24  44  67  91 133 167 214 270 326 378
#     4  11  23  40  64 102 126 163 217 266 319 389
#     4  10  24  45  66  92 128 173 217 269 330 382
#     4  11  22  41  62  95 132 169 211 259 319 393
#     4  10  23  43  63  92 135 171 210 264 326 383
#
# _framework density 20.934270999999999
#
# number of rings (size 3 to 8) (size 9 to 14) (size 15 to 20)
#    0.000    1.500    3.750    1.125    1.750    4.000 
#    4.500    2.500    0.000    0.000    0.000    0.000 
#    0.000    0.000    0.000    0.000    0.000    0.000 
#
# Total GULP energy -396419.250607 kJ/mol
# GULP energy per Si atom -12388.101581 kJ/mol
# Density = 2.088662 g / cm^3
# Si number density = 20.934271 Si / 1000 Ang^3
#
#
#
# Elastic Constant Matrix: (Units=GPa)
#
#
# Indices 1 2 3 4 5 6 
#
# 1 71.9808 40.9316 26.8785 0.0000 -1.1231 0.0000
# 2 40.9316 97.6650 42.3040 0.0000 0.5636 0.0000
# 3 26.8785 42.3040 121.6843 0.0000 -3.3936 0.0000
# 4 0.0000 0.0000 0.0000 30.5488 0.0000 -3.2692
# 5 -1.1231 0.5636 -3.3936 0.0000 32.6942 0.0000
# 6 0.0000 0.0000 0.0000 -3.2692 0.0000 19.8992
#
#
#
# Elastic Compliance Matrix: (Units=1/GPa)
#
#
# Indices 1 2 3 4 5 6 
#
# 1 0.018524 -0.007066 -0.001619 0.000000 0.000590 0.000000
# 2 -0.007066 0.014763 -0.003596 0.000000 -0.000870 0.000000
# 3 -0.001619 -0.003596 0.009854 0.000000 0.001029 0.000000
# 4 0.000000 0.000000 0.000000 0.033320 0.000000 0.005474
# 5 0.000590 -0.000870 0.001029 0.000000 0.030729 0.000000
# 6 0.000000 0.000000 0.000000 0.005474 0.000000 0.051153
#
#
# Mechanical properties :
#
#
# Convention : Reuss Voigt Hill
#
# Bulk Modulus (GPa) = 53.81986 56.83982 55.32984
# Shear Modulus (GPa) = 26.44137 28.70950 27.57544
#
# Velocity S-wave (km/s) = 3.55782 3.70728 3.63332
# Velocity P-wave (km/s) = 6.53010 6.74801 6.63995
#
# Compressibility (1/GPa) = 0.01858050
#
# Stress axis : x y z
#
# Youngs Moduli (GPa) = 53.98348 67.73715 101.47722
#
# Poissons Ratio (x) = 0.47861 0.16428
# Poissons Ratio (y) = 0.38143 0.36491
# Poissons Ratio (z) = 0.08739 0.24358
#
# Static dielectric constant tensor:
#      x y z
#    x 3.898910 0.000000 0.114910 
#    y 0.000000 3.580670 0.000000 
#    z 0.114910 0.000000 4.077190 
# 
# 
# High freq. dielectric constant tensor:
#      x y z
#    x 1.814790 0.000000 0.000460 
#    y 0.000000 1.799270 0.000000 
#    z 0.000460 0.000000 1.841740 
# 
# From -- ./inp_files/55810.got.cif
#   From: 2010.06.25/outbox.cif.g09.slc.cpg/sg13_28_cif.got.tgz:55810.got - 2010.06.28 04:50:58.
