data_PCOD8121864
_publ_section_title
;
Structure prediction by ZEFSAII (Michael W. Deem and Ramdas Pophale) SiO2 
 PCOD8121864
Probable space group: P 2/C
;
_chemical_formula_sum "Si O2"
_cell_formula_units_Z 20
_cell_length_a 8.307517
_cell_length_b 12.108242
_cell_length_c 8.629256
_cell_angle_alpha 90.000000
_cell_angle_beta 87.463795
_cell_angle_gamma 90.000000
_cell_volume 867.161657
_symmetry_space_group_name_H-M "P 2/C"
_symmetry_group_IT_number 13
_symmetry_cell_setting 'monoclinic'
loop_
_space_group_symop_operation_xyz
x,y,z
-x,y,1/2-z
-x,-y,-z
x,-y,1/2+z
loop_
_atom_site_type_symbol
_atom_site_label
_atom_site_fract_x
_atom_site_fract_y
_atom_site_fract_z
Si Si1 0.169970 0.445280 0.029938
Si Si2 0.198793 0.851652 0.922560
Si Si3 0.675172 0.616273 0.670223
Si Si4 0.894446 0.783117 0.102565
Si Si5 0.687567 0.957203 0.267676
O O1 0.190072 0.420008 0.210550
O O2 0.310903 0.528903 0.970536
O O3 0.189878 0.330623 0.938794
O O4 0.000000 0.500000 0.000000
O O5 0.291790 0.737289 0.897091
O O6 0.220088 0.926835 0.768475
O O7 0.278482 0.918800 0.060247
O O8 0.009901 0.828526 0.960714
O O9 0.500000 0.612576 0.750000
O O10 0.751724 0.868553 0.140447
O O11 0.000000 0.763119 0.250000
O O12 0.500000 0.975008 0.250000
#
# Coordination Sequence:
#
# PCOD8121864 Si02
#       5
#     4   4   4   4   4
#     4  12  25  47  73 101 140 185 234 289 356 422
#     4  11  25  46  68 104 143 187 237 286 352 421
#     4  12  28  46  73 106 143 181 239 293 358 418
#     4  10  23  43  70 100 137 184 237 285 348 421
#     4  11  25  43  71 100 144 187 235 292 352 414
#
# _framework density 23.063753999999999
#
# number of rings (size 3 to 8) (size 9 to 14) (size 15 to 20)
#    0.000    0.800    2.000    4.200    8.400    0.800 
#    0.000    0.000    0.000    0.000    0.000    0.000 
#    0.000    0.000    0.000    0.000    0.000    0.000 
#
# Total GULP energy -248117.910547 kJ/mol
# GULP energy per Si atom -12405.895527 kJ/mol
# Density = 2.301126 g / cm^3
# Si number density = 23.063754 Si / 1000 Ang^3
#
#
#
# Elastic Constant Matrix: (Units=GPa)
#
#
# Indices 1 2 3 4 5 6 
#
# 1 70.0670 28.9385 32.4988 0.0000 -19.2255 0.0000
# 2 28.9385 172.0805 55.4146 0.0000 -9.3927 0.0000
# 3 32.4988 55.4146 90.6282 0.0000 -11.6949 0.0000
# 4 0.0000 0.0000 0.0000 52.5529 0.0000 -7.6752
# 5 -19.2255 -9.3927 -11.6949 0.0000 35.8166 0.0000
# 6 0.0000 0.0000 0.0000 -7.6752 0.0000 19.0951
#
#
#
# Elastic Compliance Matrix: (Units=1/GPa)
#
#
# Indices 1 2 3 4 5 6 
#
# 1 0.019473 -0.001140 -0.005194 0.000000 0.008458 0.000000
# 2 -0.001140 0.007310 -0.004064 0.000000 -0.000022 0.000000
# 3 -0.005194 -0.004064 0.015539 0.000000 0.001220 0.000000
# 4 0.000000 0.000000 0.000000 0.020215 0.000000 0.008125
# 5 0.008458 -0.000022 0.001220 0.000000 0.032852 0.000000
# 6 0.000000 0.000000 0.000000 0.008125 0.000000 0.055635
#
#
# Mechanical properties :
#
#
# Convention : Reuss Voigt Hill
#
# Bulk Modulus (GPa) = 46.45675 62.94215 54.69945
# Shear Modulus (GPa) = 27.93335 35.88784 31.91059
#
# Velocity S-wave (km/s) = 3.48391 3.94893 3.72369
# Velocity P-wave (km/s) = 6.03076 6.93843 6.50046
#
# Compressibility (1/GPa) = 0.02152540
#
# Stress axis : x y z
#
# Youngs Moduli (GPa) = 51.35342 136.78958 64.35424
#
# Poissons Ratio (x) = 0.15600 0.33427
# Poissons Ratio (y) = 0.05856 0.26153
# Poissons Ratio (z) = 0.26674 0.55590
#
# Static dielectric constant tensor:
#      x y z
#    x 3.954070 0.000000 -0.198440 
#    y 0.000000 4.465710 0.000000 
#    z -0.198440 0.000000 4.502800 
# 
# 
# High freq. dielectric constant tensor:
#      x y z
#    x 1.903500 0.000000 -0.013540 
#    y 0.000000 1.931300 0.000000 
#    z -0.013540 0.000000 1.921660 
# 
# From -- ./inp_files/11650.got.cif
#   From: 2010.06.25/outbox.cif.g09.slc.cpg/sg13_6_cif.got.tgz:11650.got - 2010.06.28 04:50:58.
