data_PCOD8121859
_publ_section_title
;
Structure prediction by ZEFSAII (Michael W. Deem and Ramdas Pophale) SiO2 
 PCOD8121859
Probable space group: P 2/C
;
_chemical_formula_sum "Si O2"
_cell_formula_units_Z 24
_cell_length_a 18.859731
_cell_length_b 4.985022
_cell_length_c 24.080518
_cell_angle_alpha 90.000000
_cell_angle_beta 153.565192
_cell_angle_gamma 90.000000
_cell_volume 1007.867210
_symmetry_space_group_name_H-M "P 2/C"
_symmetry_group_IT_number 13
_symmetry_cell_setting 'monoclinic'
loop_
_space_group_symop_operation_xyz
x,y,z
-x,y,1/2-z
-x,-y,-z
x,-y,1/2+z
loop_
_atom_site_type_symbol
_atom_site_label
_atom_site_fract_x
_atom_site_fract_y
_atom_site_fract_z
Si Si1 0.876110 0.210022 0.302094
Si Si2 0.814714 0.441049 0.371307
Si Si3 0.383795 0.620402 0.962916
Si Si4 0.457040 0.159807 0.826565
Si Si5 0.095508 0.290612 0.953879
Si Si6 0.361220 0.651716 0.556066
O O1 0.774054 0.263230 0.287697
O O2 0.764076 0.234641 0.170091
O O3 0.022628 0.413168 0.398848
O O4 0.948457 0.913206 0.353655
O O5 0.721961 0.726403 0.305498
O O6 0.790190 0.273992 0.411321
O O7 0.000000 0.500000 0.500000
O O8 0.500000 0.500000 0.000000
O O9 0.488367 0.836915 0.070445
O O10 0.321652 0.390032 0.962641
O O11 0.573283 0.367950 0.874163
O O12 0.488782 0.856665 0.828619
O O13 0.204861 0.238634 0.976858
#
# Coordination Sequence:
#
# PCOD8121859 Si02
#       6
#     4   4   4   4   4   4
#     4  11  23  42  69  99 131 181 222 286 337 405
#     4  10  23  44  69  98 132 174 229 280 341 407
#     4  10  23  43  69  96 135 171 232 280 338 399
#     4  10  23  43  68  97 131 174 226 281 336 407
#     4  11  25  43  66  98 141 177 225 278 345 414
#     4  10  24  44  64 101 133 180 227 273 350 403
#
# _framework density 23.812659
#
# number of rings (size 3 to 8) (size 9 to 14) (size 15 to 20)
#    1.000    0.667    1.667    1.500    2.333   10.000 
#    0.000    1.667    0.000    0.000    0.000    0.000 
#    0.000    0.000    0.000    0.000    0.000    0.000 
#
# Total GULP energy -297397.401536 kJ/mol
# GULP energy per Si atom -12391.558397 kJ/mol
# Density = 2.375846 g / cm^3
# Si number density = 23.812659 Si / 1000 Ang^3
#
#
#
# Elastic Constant Matrix: (Units=GPa)
#
#
# Indices 1 2 3 4 5 6 
#
# 1 142.7567 21.4209 38.1599 0.0000 -4.8482 0.0000
# 2 21.4209 75.3311 13.4489 0.0000 -21.8103 0.0000
# 3 38.1599 13.4489 132.3676 0.0000 -24.1480 0.0000
# 4 0.0000 0.0000 0.0000 44.7163 0.0000 4.4251
# 5 -4.8482 -21.8103 -24.1480 0.0000 22.2189 0.0000
# 6 0.0000 0.0000 0.0000 4.4251 0.0000 20.3760
#
#
#
# Elastic Compliance Matrix: (Units=1/GPa)
#
#
# Indices 1 2 3 4 5 6 
#
# 1 0.008060 -0.003021 -0.002790 0.000000 -0.004239 0.000000
# 2 -0.003021 0.020025 0.002871 0.000000 0.022118 0.000000
# 3 -0.002790 0.002871 0.010565 0.000000 0.013692 0.000000
# 4 0.000000 0.000000 0.000000 0.022854 0.000000 -0.004963
# 5 -0.004239 0.022118 0.013692 0.000000 0.080674 0.000000
# 6 0.000000 0.000000 0.000000 -0.004963 0.000000 0.050155
#
#
# Mechanical properties :
#
#
# Convention : Reuss Voigt Hill
#
# Bulk Modulus (GPa) = 30.51509 55.16833 42.84171
# Shear Modulus (GPa) = 23.90777 35.95730 29.93254
#
# Velocity S-wave (km/s) = 3.17202 3.89010 3.54927
# Velocity P-wave (km/s) = 5.12427 6.58749 5.90141
#
# Compressibility (1/GPa) = 0.03277067
#
# Stress axis : x y z
#
# Youngs Moduli (GPa) = 124.06823 49.93774 94.65037
#
# Poissons Ratio (x) = 0.15087 0.26408
# Poissons Ratio (y) = 0.37483 -0.27178
# Poissons Ratio (z) = 0.34615 -0.14339
#
# Static dielectric constant tensor:
#      x y z
#    x 4.585170 0.000000 -0.404690 
#    y 0.000000 4.340880 0.000000 
#    z -0.404690 0.000000 4.496370 
# 
# 
# High freq. dielectric constant tensor:
#      x y z
#    x 1.938360 0.000000 -0.000970 
#    y 0.000000 1.938550 0.000000 
#    z -0.000970 0.000000 1.945750 
# 
# From -- ./inp_files/87750.got.cif
#   From: 2010.06.25/outbox.cif.g09.slc.cpg/sg13_44_cif.got.tgz:87750.got - 2010.06.28 04:50:58.
