data_PCOD8121296
_publ_section_title
;
Structure prediction by ZEFSAII (Michael W. Deem and Ramdas Pophale) SiO2 
 PCOD8121296
Probable space group: P 2/C
;
_chemical_formula_sum "Si O2"
_cell_formula_units_Z 26
_cell_length_a 13.637817
_cell_length_b 14.110134
_cell_length_c 12.096360
_cell_angle_alpha 90.000000
_cell_angle_beta 31.729049
_cell_angle_gamma 90.000000
_cell_volume 1224.154697
_symmetry_space_group_name_H-M "P 2/C"
_symmetry_group_IT_number 13
_symmetry_cell_setting 'monoclinic'
loop_
_space_group_symop_operation_xyz
x,y,z
-x,y,1/2-z
-x,-y,-z
x,-y,1/2+z
loop_
_atom_site_type_symbol
_atom_site_label
_atom_site_fract_x
_atom_site_fract_y
_atom_site_fract_z
Si Si1 0.032183 0.627919 0.545335
Si Si2 0.000000 0.531518 0.250000
Si Si3 0.327081 0.703335 0.713077
Si Si4 0.500000 0.984654 0.750000
Si Si5 0.205823 0.826557 0.028634
Si Si6 0.000000 0.219161 0.250000
Si Si7 0.283791 0.656628 0.094886
Si Si8 0.614941 0.163530 0.540377
O O1 0.818282 0.635142 0.709279
O O2 0.048380 0.529294 0.595217
O O3 0.085249 0.714841 0.572793
O O4 0.179447 0.630349 0.306666
O O5 0.815071 0.595480 0.407316
O O6 0.494329 0.638519 0.602843
O O7 0.417295 0.779532 0.541571
O O8 0.211924 0.758511 0.916683
O O9 0.674663 0.919224 0.609917
O O10 0.541649 0.053993 0.604398
O O11 0.274844 0.767612 0.069464
O O12 0.000000 0.862958 0.250000
O O13 0.834171 0.155845 0.360547
O O14 0.500000 0.215661 0.750000
#
# Coordination Sequence:
#
# PCOD8121296 Si02
#       8
#     4   2   4   2   4   2   4   4
#     4  10  22  41  64  96 129 170 217 263 315 386
#     4  11  24  42  65  98 138 160 217 274 316 379
#     4  11  22  41  69  93 125 175 217 251 331 384
#     4  10  24  40  62  98 134 160 220 272 312 374
#     4  12  23  42  62  92 128 171 214 265 322 381
#     4   9  18  38  63  88 130 178 209 258 328 377
#     4  12  22  41  67  91 130 177 208 268 323 382
#     4   9  21  39  60  94 130 166 211 272 309 374
#
# _framework density 21.239146999999999
#
# number of rings (size 3 to 8) (size 9 to 14) (size 15 to 20)
#    0.462    0.923    3.846    1.385    1.077    1.231 
#    0.000    3.846    0.000    0.000    0.000    0.000 
#    0.000    0.000    0.000    0.000    0.000    0.000 
#
# Total GULP energy -322308.764935 kJ/mol
# GULP energy per Si atom -12396.490959 kJ/mol
# Density = 2.119081 g / cm^3
# Si number density = 21.239147 Si / 1000 Ang^3
#
#
#
# Elastic Constant Matrix: (Units=GPa)
#
#
# Indices 1 2 3 4 5 6 
#
# 1 110.3698 40.6105 43.8112 0.0000 -16.9952 0.0000
# 2 40.6105 97.6613 40.8904 0.0000 -9.2833 0.0000
# 3 43.8112 40.8904 110.3391 0.0000 -9.2453 0.0000
# 4 0.0000 0.0000 0.0000 34.2393 0.0000 -7.8866
# 5 -16.9952 -9.2833 -9.2453 0.0000 38.3104 0.0000
# 6 0.0000 0.0000 0.0000 -7.8866 0.0000 15.6686
#
#
#
# Elastic Compliance Matrix: (Units=1/GPa)
#
#
# Indices 1 2 3 4 5 6 
#
# 1 0.012173 -0.003326 -0.003282 0.000000 0.003802 0.000000
# 2 -0.003326 0.013165 -0.003485 0.000000 0.000874 0.000000
# 3 -0.003282 -0.003485 0.011701 0.000000 0.000523 0.000000
# 4 0.000000 0.000000 0.000000 0.033036 0.000000 0.016629
# 5 0.003802 0.000874 0.000523 0.000000 0.028127 0.000000
# 6 0.000000 0.000000 0.000000 0.016629 0.000000 0.072192
#
#
# Mechanical properties :
#
#
# Convention : Reuss Voigt Hill
#
# Bulk Modulus (GPa) = 59.33772 63.22161 61.27966
# Shear Modulus (GPa) = 25.48452 30.51420 27.99936
#
# Velocity S-wave (km/s) = 3.46769 3.79449 3.63477
# Velocity P-wave (km/s) = 6.63564 7.00205 6.82131
#
# Compressibility (1/GPa) = 0.01685269
#
# Stress axis : x y z
#
# Youngs Moduli (GPa) = 82.15222 75.96082 85.45972
#
# Poissons Ratio (x) = 0.25266 0.28048
# Poissons Ratio (y) = 0.27325 0.29781
# Poissons Ratio (z) = 0.26963 0.26471
#
# Static dielectric constant tensor:
#      x y z
#    x 3.946520 0.000000 0.021660 
#    y 0.000000 3.701260 0.000000 
#    z 0.021660 0.000000 3.851130 
# 
# 
# High freq. dielectric constant tensor:
#      x y z
#    x 1.834980 0.000000 -0.000390 
#    y 0.000000 1.815740 0.000000 
#    z -0.000390 0.000000 1.841870 
# 
# From -- ./inp_files/37495.got.cif
#   From: 2010.06.25/outbox.cif.g09.slc.cpg/sg13_19_cif.got.tgz:37495.got - 2010.06.28 04:50:58.
