data_PCOD8121745
_publ_section_title
;
Structure prediction by ZEFSAII (Michael W. Deem and Ramdas Pophale) SiO2 
 PCOD8121745
Probable space group: P 2/C
;
_chemical_formula_sum "Si O2"
_cell_formula_units_Z 24
_cell_length_a 11.135032
_cell_length_b 12.508549
_cell_length_c 10.287194
_cell_angle_alpha 90.000000
_cell_angle_beta 50.749734
_cell_angle_gamma 90.000000
_cell_volume 1109.570509
_symmetry_space_group_name_H-M "P 2/C"
_symmetry_group_IT_number 13
_symmetry_cell_setting 'monoclinic'
loop_
_space_group_symop_operation_xyz
x,y,z
-x,y,1/2-z
-x,-y,-z
x,-y,1/2+z
loop_
_atom_site_type_symbol
_atom_site_label
_atom_site_fract_x
_atom_site_fract_y
_atom_site_fract_z
Si Si1 0.182414 0.311867 0.146180
Si Si2 0.168594 0.042052 0.854872
Si Si3 0.544637 0.823518 0.986260
Si Si4 0.653219 0.029414 0.025913
Si Si5 0.728212 0.720141 0.196897
Si Si6 0.101066 0.472993 0.806419
O O1 0.204849 0.421855 0.209190
O O2 0.000000 0.281222 0.250000
O O3 0.280545 0.221339 0.158706
O O4 0.267605 0.327266 0.950340
O O5 0.212081 0.020694 0.675346
O O6 0.175865 0.169027 0.874041
O O7 0.280136 0.973859 0.874461
O O8 0.000000 0.000000 0.000000
O O9 0.451811 0.862909 0.920196
O O10 0.445669 0.735285 0.131740
O O11 0.544443 0.925829 0.082146
O O12 0.801807 0.634006 0.242930
O O13 0.000000 0.450711 0.750000
O O14 0.000000 0.500000 0.000000
#
# Coordination Sequence:
#
# PCOD8121745 Si02
#       6
#     4   4   4   4   4   4
#     4  11  22  40  73  98 128 186 234 287 348 421
#     4  11  24  40  70 104 144 181 240 280 346 433
#     4  10  23  40  67  99 140 179 236 275 350 421
#     4  10  23  41  66  99 142 191 217 291 349 414
#     4  11  23  42  70  98 136 190 221 287 357 417
#     4  11  23  44  69 104 136 177 235 299 355 412
#
# _framework density 21.629988999999998
#
# number of rings (size 3 to 8) (size 9 to 14) (size 15 to 20)
#    0.000    1.333    5.000    1.000    4.667    5.333 
#    0.000    1.667    0.000    0.000    0.000    0.000 
#    0.000    0.000    0.000    0.000    0.000    0.000 
#
# Total GULP energy -297443.040977 kJ/mol
# GULP energy per Si atom -12393.460041 kJ/mol
# Density = 2.158076 g / cm^3
# Si number density = 21.629989 Si / 1000 Ang^3
#
#
#
# Elastic Constant Matrix: (Units=GPa)
#
#
# Indices 1 2 3 4 5 6 
#
# 1 102.4082 58.5206 34.2939 0.0000 -14.3793 0.0000
# 2 58.5206 125.8942 53.4523 0.0000 -12.0027 0.0000
# 3 34.2939 53.4523 111.9743 0.0000 -5.8327 0.0000
# 4 0.0000 0.0000 0.0000 39.1933 0.0000 -9.4164
# 5 -14.3793 -12.0027 -5.8327 0.0000 37.0980 0.0000
# 6 0.0000 0.0000 0.0000 -9.4164 0.0000 40.6033
#
#
#
# Elastic Compliance Matrix: (Units=1/GPa)
#
#
# Indices 1 2 3 4 5 6 
#
# 1 0.013872 -0.005516 -0.001440 0.000000 0.003366 0.000000
# 2 -0.005516 0.012390 -0.004162 0.000000 0.001216 0.000000
# 3 -0.001440 -0.004162 0.011352 0.000000 -0.000120 0.000000
# 4 0.000000 0.000000 0.000000 0.027020 0.000000 0.006266
# 5 0.003366 0.001216 -0.000120 0.000000 0.028635 0.000000
# 6 0.000000 0.000000 0.000000 0.006266 0.000000 0.026082
#
#
# Mechanical properties :
#
#
# Convention : Reuss Voigt Hill
#
# Bulk Modulus (GPa) = 65.02622 70.31224 67.66923
# Shear Modulus (GPa) = 34.08027 36.31290 35.19658
#
# Velocity S-wave (km/s) = 3.97369 4.10179 4.03825
# Velocity P-wave (km/s) = 7.15415 7.41689 7.28671
#
# Compressibility (1/GPa) = 0.01537841
#
# Stress axis : x y z
#
# Youngs Moduli (GPa) = 72.08966 80.70906 88.08883
#
# Poissons Ratio (x) = 0.44517 0.12685
# Poissons Ratio (y) = 0.39763 0.36662
# Poissons Ratio (z) = 0.10381 0.33591
#
# Static dielectric constant tensor:
#      x y z
#    x 4.133730 0.000000 -0.111380 
#    y 0.000000 4.122240 0.000000 
#    z -0.111380 0.000000 4.029020 
# 
# 
# High freq. dielectric constant tensor:
#      x y z
#    x 1.845040 0.000000 -0.001580 
#    y 0.000000 1.842750 0.000000 
#    z -0.001580 0.000000 1.858060 
# 
# From -- ./inp_files/33739.got.cif
#   From: 2010.06.25/outbox.cif.g09.slc.cpg/sg13_17_cif.got.tgz:33739.got - 2010.06.28 04:50:58.
