data_PCOD8121550
_publ_section_title
;
Structure prediction by ZEFSAII (Michael W. Deem and Ramdas Pophale) SiO2 
 PCOD8121550
Probable space group: P 2/C
;
_chemical_formula_sum "Si O2"
_cell_formula_units_Z 28
_cell_length_a 14.804922
_cell_length_b 8.819268
_cell_length_c 22.137276
_cell_angle_alpha 90.000000
_cell_angle_beta 26.760769
_cell_angle_gamma 90.000000
_cell_volume 1301.464303
_symmetry_space_group_name_H-M "P 2/C"
_symmetry_group_IT_number 13
_symmetry_cell_setting 'monoclinic'
loop_
_space_group_symop_operation_xyz
x,y,z
-x,y,1/2-z
-x,-y,-z
x,-y,1/2+z
loop_
_atom_site_type_symbol
_atom_site_label
_atom_site_fract_x
_atom_site_fract_y
_atom_site_fract_z
Si Si1 0.500000 0.639557 0.250000
Si Si2 0.039216 0.893666 0.031072
Si Si3 0.875941 0.430756 0.018386
Si Si4 0.126553 0.362249 0.614027
Si Si5 0.000000 0.785043 0.750000
Si Si6 0.405649 0.180263 0.685822
Si Si7 0.378982 0.410277 0.022667
Si Si8 0.229079 0.982390 0.032203
O O1 0.680541 0.529188 0.124926
O O2 0.559779 0.746298 0.269539
O O3 0.825482 0.854477 0.188692
O O4 0.177457 0.990288 0.992729
O O5 0.161313 0.742576 0.938402
O O6 0.000000 0.000000 0.000000
O O7 0.973923 0.409415 0.891325
O O8 0.000000 0.500000 0.000000
O O9 0.319476 0.470499 0.505766
O O10 0.191443 0.186789 0.578728
O O11 0.000000 0.397068 0.750000
O O12 0.818018 0.679166 0.834180
O O13 0.917457 0.892629 0.851736
O O14 0.464039 0.293302 0.598077
O O15 0.538290 0.027606 0.599043
O O16 0.500000 0.500000 0.000000
#
# Coordination Sequence:
#
# PCOD8121550 Si02
#       8
#     2   4   4   4   2   4   4   4
#     4  12  22  44  70  98 140 176 238 296 338 430
#     4  11  25  44  67  98 133 182 229 286 354 419
#     4  11  25  43  72 102 137 190 233 292 361 409
#     4  11  23  44  69 102 142 180 233 290 351 421
#     4  10  22  44  62  98 136 180 230 282 360 412
#     4  11  24  44  67 100 137 179 235 285 351 421
#     4  11  25  40  68 100 133 184 229 287 349 418
#     4  10  24  42  70  96 137 184 221 293 353 415
#
# _framework density 21.514229
#
# number of rings (size 3 to 8) (size 9 to 14) (size 15 to 20)
#    0.000    1.143    4.286    0.857    4.000    3.429 
#    2.571    2.857    0.000    0.000    0.000    0.000 
#    0.000    0.000    0.000    0.000    0.000    0.000 
#
# Total GULP energy -346900.441155 kJ/mol
# GULP energy per Si atom -12389.301470 kJ/mol
# Density = 2.146526 g / cm^3
# Si number density = 21.514229 Si / 1000 Ang^3
#
#
#
# Elastic Constant Matrix: (Units=GPa)
#
#
# Indices 1 2 3 4 5 6 
#
# 1 102.7180 37.2056 10.5689 0.0000 14.9722 0.0000
# 2 37.2056 116.3662 27.7398 0.0000 5.9684 0.0000
# 3 10.5689 27.7398 74.2906 0.0000 0.0223 0.0000
# 4 0.0000 0.0000 0.0000 22.2261 0.0000 -0.2763
# 5 14.9722 5.9684 0.0223 0.0000 33.9086 0.0000
# 6 0.0000 0.0000 0.0000 -0.2763 0.0000 49.5312
#
#
#
# Elastic Compliance Matrix: (Units=1/GPa)
#
#
# Indices 1 2 3 4 5 6 
#
# 1 0.011673 -0.003406 -0.000387 0.000000 -0.004554 0.000000
# 2 -0.003406 0.010521 -0.003444 0.000000 -0.000346 0.000000
# 3 -0.000387 -0.003444 0.014801 0.000000 0.000768 0.000000
# 4 0.000000 0.000000 0.000000 0.044995 0.000000 0.000251
# 5 -0.004554 -0.000346 0.000768 0.000000 0.031562 0.000000
# 6 0.000000 0.000000 0.000000 0.000251 0.000000 0.020191
#
#
# Mechanical properties :
#
#
# Convention : Reuss Voigt Hill
#
# Bulk Modulus (GPa) = 44.40381 49.37815 46.89098
# Shear Modulus (GPa) = 32.10768 35.65721 33.88244
#
# Velocity S-wave (km/s) = 3.86734 4.07551 3.97279
# Velocity P-wave (km/s) = 6.37384 6.71919 6.54879
#
# Compressibility (1/GPa) = 0.02252059
#
# Stress axis : x y z
#
# Youngs Moduli (GPa) = 85.66886 95.04500 67.56080
#
# Poissons Ratio (x) = 0.32374 0.02617
# Poissons Ratio (y) = 0.29181 0.23268
# Poissons Ratio (z) = 0.03319 0.32733
#
# Static dielectric constant tensor:
#      x y z
#    x 3.865170 0.000000 0.060820 
#    y 0.000000 4.692410 0.000000 
#    z 0.060820 0.000000 3.781360 
# 
# 
# High freq. dielectric constant tensor:
#      x y z
#    x 1.849640 0.000000 0.002780 
#    y 0.000000 1.870100 0.000000 
#    z 0.002780 0.000000 1.831900 
# 
# From -- ./inp_files/50473.got.cif
#   From: 2010.06.25/outbox.cif.g09.slc.cpg/sg13_26_cif.got.tgz:50473.got - 2010.06.28 04:50:58.
