data_PCOD8121795
_publ_section_title
;
Structure prediction by ZEFSAII (Michael W. Deem and Ramdas Pophale) SiO2 
 PCOD8121795
Probable space group: P 2/C
;
_chemical_formula_sum "Si O2"
_cell_formula_units_Z 24
_cell_length_a 15.091875
_cell_length_b 5.059552
_cell_length_c 28.874466
_cell_angle_alpha 90.000000
_cell_angle_beta 148.866098
_cell_angle_gamma 90.000000
_cell_volume 1139.969619
_symmetry_space_group_name_H-M "P 2/C"
_symmetry_group_IT_number 13
_symmetry_cell_setting 'monoclinic'
loop_
_space_group_symop_operation_xyz
x,y,z
-x,y,1/2-z
-x,-y,-z
x,-y,1/2+z
loop_
_atom_site_type_symbol
_atom_site_label
_atom_site_fract_x
_atom_site_fract_y
_atom_site_fract_z
Si Si1 0.398133 0.056511 0.084357
Si Si2 0.869720 0.805117 0.965662
Si Si3 0.373955 0.557252 0.315038
Si Si4 0.889690 0.577313 0.880370
Si Si5 0.955711 0.403223 0.783172
Si Si6 0.925943 0.103495 0.110495
O O1 0.551548 0.850232 0.154528
O O2 0.296014 0.050583 0.087463
O O3 0.474014 0.347888 0.110511
O O4 0.270400 0.980554 0.985498
O O5 0.811768 0.621046 0.896748
O O6 0.958861 0.640983 0.047359
O O7 0.000000 0.000000 0.000000
O O8 0.268135 0.519953 0.220608
O O9 0.245180 0.524153 0.300998
O O10 0.977823 0.834420 0.895429
O O11 0.000000 0.359264 0.750000
O O12 0.072678 0.634249 0.857077
O O13 0.978059 0.131421 0.820724
#
# Coordination Sequence:
#
# PCOD8121795 Si02
#       6
#     4   4   4   4   4   4
#     4  12  24  42  62  99 132 173 204 274 324 372
#     4  11  23  40  66  88 132 174 236 246 303 390
#     4  11  25  42  64  94 135 159 217 273 336 368
#     4  10  23  42  62  95 125 185 218 266 303 389
#     4  11  24  46  73  96 121 170 221 267 322 412
#     4  11  22  43  70  92 132 173 215 255 334 396
#
# _framework density 21.053194000000001
#
# number of rings (size 3 to 8) (size 9 to 14) (size 15 to 20)
#    0.000    1.000    1.667    6.500    4.667    0.667 
#    0.000    5.000    0.000    0.000    0.000    0.000 
#    0.000    0.000    0.000    0.000    0.000    0.000 
#
# Total GULP energy -297642.006584 kJ/mol
# GULP energy per Si atom -12401.750274 kJ/mol
# Density = 2.100528 g / cm^3
# Si number density = 21.053194 Si / 1000 Ang^3
#
#
#
# Elastic Constant Matrix: (Units=GPa)
#
#
# Indices 1 2 3 4 5 6 
#
# 1 128.8117 34.3310 50.2497 0.0000 3.1806 0.0000
# 2 34.3310 100.3482 23.3777 0.0000 -7.2323 0.0000
# 3 50.2497 23.3777 90.3842 0.0000 2.6145 0.0000
# 4 0.0000 0.0000 0.0000 46.4064 0.0000 1.8390
# 5 3.1806 -7.2323 2.6145 0.0000 24.7823 0.0000
# 6 0.0000 0.0000 0.0000 1.8390 0.0000 27.5441
#
#
#
# Elastic Compliance Matrix: (Units=1/GPa)
#
#
# Indices 1 2 3 4 5 6 
#
# 1 0.010467 -0.002496 -0.005129 0.000000 -0.001531 0.000000
# 2 -0.002496 0.011492 -0.001696 0.000000 0.003853 0.000000
# 3 -0.005129 -0.001696 0.014394 0.000000 -0.001355 0.000000
# 4 0.000000 0.000000 0.000000 0.021606 0.000000 -0.001443
# 5 -0.001531 0.003853 -0.001355 0.000000 0.041815 0.000000
# 6 0.000000 0.000000 0.000000 -0.001443 0.000000 0.036402
#
#
# Mechanical properties :
#
#
# Convention : Reuss Voigt Hill
#
# Bulk Modulus (GPa) = 56.46733 59.49567 57.98150
# Shear Modulus (GPa) = 31.10942 33.85225 32.48084
#
# Velocity S-wave (km/s) = 3.84820 4.01426 3.93211
# Velocity P-wave (km/s) = 6.82820 7.05739 6.94374
#
# Compressibility (1/GPa) = 0.01770936
#
# Stress axis : x y z
#
# Youngs Moduli (GPa) = 95.53430 87.01564 69.47577
#
# Poissons Ratio (x) = 0.21723 0.35637
# Poissons Ratio (y) = 0.23850 0.11783
# Poissons Ratio (z) = 0.49004 0.14758
#
# Static dielectric constant tensor:
#      x y z
#    x 4.041590 0.000000 -0.084940 
#    y 0.000000 4.102260 0.000000 
#    z -0.084940 0.000000 3.808070 
# 
# 
# High freq. dielectric constant tensor:
#      x y z
#    x 1.811180 0.000000 -0.001180 
#    y 0.000000 1.846890 0.000000 
#    z -0.001180 0.000000 1.821100 
# 
# From -- ./inp_files/51845.got.cif
#   From: 2010.06.25/outbox.cif.g09.slc.cpg/sg13_26_cif.got.tgz:51845.got - 2010.06.28 04:50:58.
