data_PCOD8121811
_publ_section_title
;
Structure prediction by ZEFSAII (Michael W. Deem and Ramdas Pophale) SiO2 
 PCOD8121811
Probable space group: P 2/C
;
_chemical_formula_sum "Si O2"
_cell_formula_units_Z 32
_cell_length_a 12.178049
_cell_length_b 17.160660
_cell_length_c 15.492982
_cell_angle_alpha 90.000000
_cell_angle_beta 26.943435
_cell_angle_gamma 90.000000
_cell_volume 1467.070476
_symmetry_space_group_name_H-M "P 2/C"
_symmetry_group_IT_number 13
_symmetry_cell_setting 'monoclinic'
loop_
_space_group_symop_operation_xyz
x,y,z
-x,y,1/2-z
-x,-y,-z
x,-y,1/2+z
loop_
_atom_site_type_symbol
_atom_site_label
_atom_site_fract_x
_atom_site_fract_y
_atom_site_fract_z
Si Si1 0.529665 0.129685 0.949743
Si Si2 0.241029 0.364171 0.387000
Si Si3 0.831475 0.051519 0.058219
Si Si4 0.868293 0.441718 0.756932
Si Si5 0.108395 0.233891 0.263350
Si Si6 0.661011 0.606997 0.878108
Si Si7 0.658579 0.980986 0.505900
Si Si8 0.947767 0.212264 0.559959
O O1 0.684922 0.189521 0.782288
O O2 0.374781 0.069283 0.001105
O O3 0.335420 0.182084 0.135864
O O4 0.692776 0.080193 0.902806
O O5 0.500000 0.351729 0.250000
O O6 0.299379 0.389977 0.250763
O O7 0.076906 0.434469 0.538650
O O8 0.074466 0.287262 0.513901
O O9 0.565016 0.042003 0.278996
O O10 0.873763 0.025019 0.927058
O O11 0.882024 0.141614 0.033948
O O12 0.000000 0.000000 0.000000
O O13 0.786206 0.530474 0.829432
O O14 0.000000 0.408976 0.750000
O O15 0.628177 0.391813 0.900450
O O16 0.205527 0.319928 0.172572
O O17 0.000000 0.200739 0.250000
O O18 0.921622 0.228262 0.474671
#
# Coordination Sequence:
#
# PCOD8121811 Si02
#       8
#     4   4   4   4   4   4   4   4
#     4  11  23  44  63  95 127 170 221 268 335 391
#     4  11  23  41  64  96 131 171 212 261 326 385
#     4  11  22  42  64  90 127 172 218 272 332 382
#     4  11  21  41  70  97 127 172 211 260 319 384
#     4  11  25  42  67  94 130 169 209 268 331 392
#     4  10  23  42  65  97 134 162 216 263 317 394
#     4  10  24  39  64  92 126 167 224 275 321 398
#     4  11  25  42  62  93 129 167 216 270 326 389
#
# _framework density 21.812176999999998
#
# number of rings (size 3 to 8) (size 9 to 14) (size 15 to 20)
#    0.000    1.250    3.750    1.500    3.500    1.000 
#    2.250    0.000    0.000    0.000    0.000    0.000 
#    0.000    0.000    0.000    0.000    0.000    0.000 
#
# Total GULP energy -396620.474842 kJ/mol
# GULP energy per Si atom -12394.389839 kJ/mol
# Density = 2.176253 g / cm^3
# Si number density = 21.812177 Si / 1000 Ang^3
#
#
#
# Elastic Constant Matrix: (Units=GPa)
#
#
# Indices 1 2 3 4 5 6 
#
# 1 123.7545 16.8089 26.4980 0.0000 0.2292 0.0000
# 2 16.8089 62.3066 23.6570 0.0000 -8.6193 0.0000
# 3 26.4980 23.6570 92.4523 0.0000 -6.5945 0.0000
# 4 0.0000 0.0000 0.0000 30.3052 0.0000 2.5721
# 5 0.2292 -8.6193 -6.5945 0.0000 23.8893 0.0000
# 6 0.0000 0.0000 0.0000 2.5721 0.0000 23.8883
#
#
#
# Elastic Compliance Matrix: (Units=1/GPa)
#
#
# Indices 1 2 3 4 5 6 
#
# 1 0.008782 -0.001726 -0.002168 0.000000 -0.001306 0.000000
# 2 -0.001726 0.018789 -0.003905 0.000000 0.005718 0.000000
# 3 -0.002168 -0.003905 0.012586 0.000000 0.002086 0.000000
# 4 0.000000 0.000000 0.000000 0.033302 0.000000 -0.003586
# 5 -0.001306 0.005718 0.002086 0.000000 0.044511 0.000000
# 6 0.000000 0.000000 0.000000 -0.003586 0.000000 0.042248
#
#
# Mechanical properties :
#
#
# Convention : Reuss Voigt Hill
#
# Bulk Modulus (GPa) = 40.72180 45.82682 43.27431
# Shear Modulus (GPa) = 27.17349 29.71985 28.44667
#
# Velocity S-wave (km/s) = 3.53341 3.69526 3.61524
# Velocity P-wave (km/s) = 5.94613 6.26593 6.10813
#
# Compressibility (1/GPa) = 0.02455687
#
# Stress axis : x y z
#
# Youngs Moduli (GPa) = 113.87312 53.22229 79.45388
#
# Poissons Ratio (x) = 0.09189 0.17228
# Poissons Ratio (y) = 0.19660 0.31028
# Poissons Ratio (z) = 0.24691 0.20784
#
# Static dielectric constant tensor:
#      x y z
#    x 4.202500 0.000000 -0.054400 
#    y 0.000000 4.017530 0.000000 
#    z -0.054400 0.000000 4.117740 
# 
# 
# High freq. dielectric constant tensor:
#      x y z
#    x 1.857050 0.000000 0.002580 
#    y 0.000000 1.856580 0.000000 
#    z 0.002580 0.000000 1.870180 
# 
# From -- ./inp_files/51647.got.cif
#   From: 2010.06.25/outbox.cif.g09.slc.cpg/sg13_26_cif.got.tgz:51647.got - 2010.06.28 04:50:58.
