data_PCOD8121284
_publ_section_title
;
Structure prediction by ZEFSAII (Michael W. Deem and Ramdas Pophale) SiO2 
 PCOD8121284
Probable space group: P 2/C
;
_chemical_formula_sum "Si O2"
_cell_formula_units_Z 28
_cell_length_a 20.552526
_cell_length_b 11.589300
_cell_length_c 11.171588
_cell_angle_alpha 90.000000
_cell_angle_beta 148.575491
_cell_angle_gamma 90.000000
_cell_volume 1387.353954
_symmetry_space_group_name_H-M "P 2/C"
_symmetry_group_IT_number 13
_symmetry_cell_setting 'monoclinic'
loop_
_space_group_symop_operation_xyz
x,y,z
-x,y,1/2-z
-x,-y,-z
x,-y,1/2+z
loop_
_atom_site_type_symbol
_atom_site_label
_atom_site_fract_x
_atom_site_fract_y
_atom_site_fract_z
Si Si1 0.621605 0.863851 0.513431
Si Si2 0.248334 0.655325 0.913183
Si Si3 0.865762 0.721733 0.513739
Si Si4 0.428363 0.795698 0.797406
Si Si5 0.130008 0.534418 0.517728
Si Si6 0.685266 0.113923 0.601550
Si Si7 0.624626 0.540812 0.761200
O O1 0.689257 0.765082 0.547510
O O2 0.589467 0.813240 0.591137
O O3 0.705445 0.978424 0.660118
O O4 0.500000 0.904055 0.250000
O O5 0.200239 0.697316 0.964680
O O6 0.139482 0.607287 0.655511
O O7 0.347162 0.551799 0.089844
O O8 0.876599 0.600926 0.459128
O O9 0.803444 0.817346 0.333742
O O10 0.000000 0.775052 0.750000
O O11 0.330038 0.869918 0.565498
O O12 0.407193 0.662734 0.728379
O O13 0.567330 0.834043 0.985294
O O14 0.253682 0.557407 0.632361
O O15 0.000000 0.572219 0.250000
O O16 0.500000 0.500000 0.500000
#
# Coordination Sequence:
#
# PCOD8121284 Si02
#       7
#     4   4   4   4   4   4   4
#     4  12  23  41  64  96 130 171 210 266 333 398
#     4  11  24  40  67  97 133 169 217 270 336 395
#     4  10  23  43  66  91 128 174 219 268 320 383
#     4  11  22  40  65  94 128 166 207 270 330 387
#     4  10  22  41  63  96 132 178 217 266 333 405
#     4  11  24  40  63  93 126 167 222 262 322 391
#     4  11  22  38  62  98 134 165 213 276 331 393
#
# _framework density 20.182303999999998
#
# number of rings (size 3 to 8) (size 9 to 14) (size 15 to 20)
#    0.000    1.143    2.857    4.714    2.000    7.429 
#    0.000    1.429    0.000    0.000    0.000    0.000 
#    0.000    0.000    0.000    0.000    0.000    0.000 
#
# Total GULP energy -347198.185633 kJ/mol
# GULP energy per Si atom -12399.935201 kJ/mol
# Density = 2.013637 g / cm^3
# Si number density = 20.182304 Si / 1000 Ang^3
#
#
#
# Elastic Constant Matrix: (Units=GPa)
#
#
# Indices 1 2 3 4 5 6 
#
# 1 47.3980 14.1934 9.5798 0.0000 -1.5577 0.0000
# 2 14.1934 124.3226 35.0180 0.0000 -2.3454 0.0000
# 3 9.5798 35.0180 117.4342 0.0000 -2.2616 0.0000
# 4 0.0000 0.0000 0.0000 27.4807 0.0000 0.5259
# 5 -1.5577 -2.3454 -2.2616 0.0000 19.3852 0.0000
# 6 0.0000 0.0000 0.0000 0.5259 0.0000 26.6390
#
#
#
# Elastic Compliance Matrix: (Units=1/GPa)
#
#
# Indices 1 2 3 4 5 6 
#
# 1 0.022020 -0.002172 -0.001122 0.000000 0.001376 0.000000
# 2 -0.002172 0.009007 -0.002496 0.000000 0.000624 0.000000
# 3 -0.001122 -0.002496 0.009365 0.000000 0.000700 0.000000
# 4 0.000000 0.000000 0.000000 0.036403 0.000000 -0.000719
# 5 0.001376 0.000624 0.000700 0.000000 0.051853 0.000000
# 6 0.000000 0.000000 0.000000 -0.000719 0.000000 0.037553
#
#
# Mechanical properties :
#
#
# Convention : Reuss Voigt Hill
#
# Bulk Modulus (GPa) = 34.70951 45.19301 39.95126
# Shear Modulus (GPa) = 26.68291 30.05856 28.37073
#
# Velocity S-wave (km/s) = 3.64001 3.86340 3.75337
# Velocity P-wave (km/s) = 5.90775 6.50708 6.21465
#
# Compressibility (1/GPa) = 0.02881055
#
# Stress axis : x y z
#
# Youngs Moduli (GPa) = 45.41252 111.03088 106.78208
#
# Poissons Ratio (x) = 0.24115 0.11983
# Poissons Ratio (y) = 0.09863 0.26658
# Poissons Ratio (z) = 0.05096 0.27719
#
# Static dielectric constant tensor:
#      x y z
#    x 3.982560 0.000000 -0.166920 
#    y 0.000000 3.856370 0.000000 
#    z -0.166920 0.000000 3.849880 
# 
# 
# High freq. dielectric constant tensor:
#      x y z
#    x 1.782200 0.000000 -0.014790 
#    y 0.000000 1.796570 0.000000 
#    z -0.014790 0.000000 1.788810 
# 
# From -- ./inp_files/40821.got.cif
#   From: 2010.06.25/outbox.cif.g09.slc.cpg/sg13_21_cif.got.tgz:40821.got - 2010.06.28 04:50:58.
