data_PCOD8121554
_publ_section_title
;
Structure prediction by ZEFSAII (Michael W. Deem and Ramdas Pophale) SiO2 
 PCOD8121554
Probable space group: P 2/C
;
_chemical_formula_sum "Si O2"
_cell_formula_units_Z 28
_cell_length_a 26.183916
_cell_length_b 5.471996
_cell_length_c 8.974475
_cell_angle_alpha 90.000000
_cell_angle_beta 118.658445
_cell_angle_gamma 90.000000
_cell_volume 1128.323646
_symmetry_space_group_name_H-M "P 2/C"
_symmetry_group_IT_number 13
_symmetry_cell_setting 'monoclinic'
loop_
_space_group_symop_operation_xyz
x,y,z
-x,y,1/2-z
-x,-y,-z
x,-y,1/2+z
loop_
_atom_site_type_symbol
_atom_site_label
_atom_site_fract_x
_atom_site_fract_y
_atom_site_fract_z
Si Si1 0.500000 0.831129 0.750000
Si Si2 0.693561 0.164856 0.580529
Si Si3 0.848717 0.176435 0.290164
Si Si4 0.400270 0.179188 0.632363
Si Si5 0.771065 0.954340 0.942354
Si Si6 0.413783 0.445340 0.939670
Si Si7 0.000000 0.511826 0.250000
Si Si8 0.078552 0.675331 0.107830
O O1 0.447957 0.984541 0.751062
O O2 0.525614 0.672936 0.921706
O O3 0.738678 0.237753 0.510774
O O4 0.642427 0.353187 0.544483
O O5 0.664467 0.923424 0.466706
O O6 0.726474 0.105288 0.778450
O O7 0.813908 0.201963 0.397348
O O8 0.884782 0.424440 0.323316
O O9 0.885340 0.924490 0.346684
O O10 0.805460 0.154275 0.089450
O O11 0.416892 0.269770 0.488143
O O12 0.403810 0.408065 0.751178
O O13 0.963902 0.689444 0.308982
O O14 0.042027 0.336209 0.404231
#
# Coordination Sequence:
#
# PCOD8121554 Si02
#       8
#     2   4   4   4   4   4   2   4
#     4  10  24  42  68  88 130 166 214 268 346 396
#     4  10  22  45  60  92 132 161 226 272 344 402
#     4  11  24  44  68  98 142 180 240 287 344 414
#     4  11  24  41  65  95 127 168 213 278 330 426
#     4  10  22  44  64  92 126 182 220 286 346 404
#     4  11  24  41  65  95 127 168 213 278 330 426
#     4  10  24  40  72 100 144 184 228 284 348 410
#     4  11  24  44  66 104 138 184 232 285 344 412
#
# _framework density 24.815576
#
# number of rings (size 3 to 8) (size 9 to 14) (size 15 to 20)
#    0.000    1.429    1.429    2.571    2.000    6.857 
#   15.429    0.000    0.000    0.000    0.000    0.000 
#    0.000    0.000    0.000    0.000    0.000    0.000 
#
# Total GULP energy -347059.841457 kJ/mol
# GULP energy per Si atom -12394.994338 kJ/mol
# Density = 2.475909 g / cm^3
# Si number density = 24.815576 Si / 1000 Ang^3
#
#
#
# Elastic Constant Matrix: (Units=GPa)
#
#
# Indices 1 2 3 4 5 6 
#
# 1 87.1139 17.0182 54.0597 0.0000 10.5943 0.0000
# 2 17.0182 70.4440 17.9690 0.0000 16.5319 0.0000
# 3 54.0597 17.9690 153.9956 0.0000 8.4002 0.0000
# 4 0.0000 0.0000 0.0000 16.1375 0.0000 7.3761
# 5 10.5943 16.5319 8.4002 0.0000 45.2366 0.0000
# 6 0.0000 0.0000 0.0000 7.3761 0.0000 -24.6219
#
#
#
# Elastic Compliance Matrix: (Units=1/GPa)
#
#
# Indices 1 2 3 4 5 6 
#
# 1 0.015198 -0.001945 -0.005003 0.000000 -0.001919 0.000000
# 2 -0.001945 0.016135 -0.000912 0.000000 -0.005272 0.000000
# 3 -0.005003 -0.000912 0.008359 0.000000 -0.000047 0.000000
# 4 0.000000 0.000000 0.000000 0.054504 0.000000 0.016328
# 5 -0.001919 -0.005272 -0.000047 0.000000 0.024491 0.000000
# 6 0.000000 0.000000 0.000000 0.016328 0.000000 -0.035723
#
#
# Mechanical properties :
#
#
# Convention : Reuss Voigt Hill
#
# Bulk Modulus (GPa) = 41.71741 54.40525 48.06133
# Shear Modulus (GPa) = 46.87084 22.18420 34.52752
#
# Velocity S-wave (km/s) = 4.35071 2.99316 3.73415
# Velocity P-wave (km/s) = 6.48735 5.82381 6.16452
#
# Compressibility (1/GPa) = 0.02397080
#
# Stress axis : x y z
#
# Youngs Moduli (GPa) = 65.80025 61.97526 119.62918
#
# Poissons Ratio (x) = 0.12053 0.59855
# Poissons Ratio (y) = 0.12797 0.10916
# Poissons Ratio (z) = 0.32923 0.05655
#
# Static dielectric constant tensor:
#      x y z
#    x 4.757620 0.000000 0.105120 
#    y 0.000000 4.050640 0.000000 
#    z 0.105120 0.000000 4.707490 
# 
# 
# High freq. dielectric constant tensor:
#      x y z
#    x 2.006750 0.000000 0.001340 
#    y 0.000000 1.956530 0.000000 
#    z 0.001340 0.000000 2.012920 
# 
# From -- ./inp_files/24315.got.cif
#   From: 2010.06.25/outbox.cif.g09.slc.cpg/sg13_13_cif.got.tgz:24315.got - 2010.06.28 04:50:58.
