data_PCOD8121358
_publ_section_title
;
Structure prediction by ZEFSAII (Michael W. Deem and Ramdas Pophale) SiO2 
 PCOD8121358
Probable space group: P 2/C
;
_chemical_formula_sum "Si O2"
_cell_formula_units_Z 28
_cell_length_a 13.281805
_cell_length_b 9.816504
_cell_length_c 19.434313
_cell_angle_alpha 90.000000
_cell_angle_beta 29.477377
_cell_angle_gamma 90.000000
_cell_volume 1246.862995
_symmetry_space_group_name_H-M "P 2/C"
_symmetry_group_IT_number 13
_symmetry_cell_setting 'monoclinic'
loop_
_space_group_symop_operation_xyz
x,y,z
-x,y,1/2-z
-x,-y,-z
x,-y,1/2+z
loop_
_atom_site_type_symbol
_atom_site_label
_atom_site_fract_x
_atom_site_fract_y
_atom_site_fract_z
Si Si1 0.086062 0.424560 0.589120
Si Si2 0.979172 0.809014 0.056441
Si Si3 0.274963 0.674776 0.411251
Si Si4 0.684276 0.599168 0.411733
Si Si5 0.214304 0.930063 0.799608
Si Si6 0.608671 0.092186 0.991696
Si Si7 0.890057 0.138914 0.381615
O O1 0.140187 0.541807 0.504010
O O2 0.260896 0.430945 0.542422
O O3 0.092670 0.283278 0.544517
O O4 0.862543 0.443957 0.753933
O O5 0.839413 0.736598 0.084786
O O6 0.824594 0.909475 0.188176
O O7 0.160522 0.890494 0.909958
O O8 0.500000 0.639539 0.250000
O O9 0.282367 0.768422 0.477167
O O10 0.500000 0.500000 0.500000
O O11 0.655915 0.763655 0.426598
O O12 0.447851 0.885620 0.649054
O O13 0.069500 0.860230 0.830230
O O14 0.500000 0.000000 0.000000
O O15 0.802387 0.009267 0.908964
O O16 0.000000 0.209806 0.250000
#
# Coordination Sequence:
#
# PCOD8121358 Si02
#       7
#     4   4   4   4   4   4   4
#     4  11  26  46  72  97 150 187 238 295 367 428
#     4  10  22  44  68  98 144 181 235 292 361 430
#     4  11  26  43  72 103 141 197 239 296 362 442
#     4  11  29  45  72 107 144 185 243 299 365 430
#     4  10  22  41  70 101 138 182 233 298 357 424
#     4  12  24  40  73 102 139 183 237 293 361 426
#     4  11  24  41  71 102 144 176 246 296 364 415
#
# _framework density 22.456356
#
# number of rings (size 3 to 8) (size 9 to 14) (size 15 to 20)
#    0.000    1.143    1.429    3.000   12.000    1.143 
#    0.000    4.286    0.000    0.000    0.000    0.000 
#    0.000    0.000    0.000    0.000    0.000    0.000 
#
# Total GULP energy -346997.442631 kJ/mol
# GULP energy per Si atom -12392.765808 kJ/mol
# Density = 2.240524 g / cm^3
# Si number density = 22.456356 Si / 1000 Ang^3
#
#
#
# Elastic Constant Matrix: (Units=GPa)
#
#
# Indices 1 2 3 4 5 6 
#
# 1 58.4536 6.8729 29.6498 0.0000 1.9486 0.0000
# 2 6.8729 102.4361 36.0816 0.0000 -0.1776 0.0000
# 3 29.6498 36.0816 133.4957 0.0000 2.8101 0.0000
# 4 0.0000 0.0000 0.0000 53.5365 0.0000 21.4467
# 5 1.9486 -0.1776 2.8101 0.0000 30.1913 0.0000
# 6 0.0000 0.0000 0.0000 21.4467 0.0000 61.7082
#
#
#
# Elastic Compliance Matrix: (Units=1/GPa)
#
#
# Indices 1 2 3 4 5 6 
#
# 1 0.019306 0.000229 -0.004332 0.000000 -0.000841 0.000000
# 2 0.000229 0.010795 -0.002976 0.000000 0.000326 0.000000
# 3 -0.004332 -0.002976 0.009270 0.000000 -0.000601 0.000000
# 4 0.000000 0.000000 0.000000 0.021700 0.000000 -0.007542
# 5 -0.000841 0.000326 -0.000601 0.000000 0.033234 0.000000
# 6 0.000000 0.000000 0.000000 -0.007542 0.000000 0.018826
#
#
# Mechanical properties :
#
#
# Convention : Reuss Voigt Hill
#
# Bulk Modulus (GPa) = 39.65992 48.84379 44.25186
# Shear Modulus (GPa) = 36.84748 43.87260 40.36004
#
# Velocity S-wave (km/s) = 4.05513 4.42484 4.24402
# Velocity P-wave (km/s) = 6.29482 6.92123 6.61544
#
# Compressibility (1/GPa) = 0.02521437
#
# Stress axis : x y z
#
# Youngs Moduli (GPa) = 51.79697 92.63139 107.87527
#
# Poissons Ratio (x) = -0.02123 0.46734
# Poissons Ratio (y) = -0.01187 0.32099
# Poissons Ratio (z) = 0.22439 0.27563
#
# Static dielectric constant tensor:
#      x y z
#    x 4.045290 0.000000 0.255270 
#    y 0.000000 4.267380 0.000000 
#    z 0.255270 0.000000 4.521310 
# 
# 
# High freq. dielectric constant tensor:
#      x y z
#    x 1.885740 0.000000 0.014740 
#    y 0.000000 1.885230 0.000000 
#    z 0.014740 0.000000 1.897310 
# 
# From -- ./inp_files/79926.got.cif
#   From: 2010.06.25/outbox.cif.g09.slc.cpg/sg13_40_cif.got.tgz:79926.got - 2010.06.28 04:50:58.
