data_PCOD8121445
_publ_section_title
;
Structure prediction by ZEFSAII (Michael W. Deem and Ramdas Pophale) SiO2 
 PCOD8121445
Probable space group: P 2/C
;
_chemical_formula_sum "Si O2"
_cell_formula_units_Z 28
_cell_length_a 14.626581
_cell_length_b 10.034522
_cell_length_c 20.652414
_cell_angle_alpha 90.000000
_cell_angle_beta 25.999570
_cell_angle_gamma 90.000000
_cell_volume 1328.757140
_symmetry_space_group_name_H-M "P 2/C"
_symmetry_group_IT_number 13
_symmetry_cell_setting 'monoclinic'
loop_
_space_group_symop_operation_xyz
x,y,z
-x,y,1/2-z
-x,-y,-z
x,-y,1/2+z
loop_
_atom_site_type_symbol
_atom_site_label
_atom_site_fract_x
_atom_site_fract_y
_atom_site_fract_z
Si Si1 0.355583 0.624973 0.605621
Si Si2 0.370687 0.116911 0.550554
Si Si3 0.176278 0.101376 0.369748
Si Si4 0.000000 0.749372 0.750000
Si Si5 0.029761 0.028623 0.333894
Si Si6 0.362403 0.116133 0.404510
Si Si7 0.825183 0.596958 0.637194
Si Si8 0.500000 0.359455 0.250000
O O1 0.500000 0.500000 0.500000
O O2 0.521897 0.743683 0.502837
O O3 0.193295 0.655753 0.649938
O O4 0.225555 0.594051 0.754160
O O5 0.136880 0.095570 0.728234
O O6 0.339605 0.101119 0.494884
O O7 0.500000 0.000000 0.500000
O O8 0.397123 0.069913 0.266185
O O9 0.112251 0.253534 0.424085
O O10 0.200712 0.088129 0.275897
O O11 0.000000 0.000000 0.500000
O O12 0.946171 0.848535 0.843606
O O13 0.828931 0.971792 0.501887
O O14 0.340962 0.267941 0.394053
O O15 0.623813 0.551369 0.723104
O O16 0.000000 0.500000 0.500000
#
# Coordination Sequence:
#
# PCOD8121445 Si02
#       8
#     4   4   4   2   4   4   4   2
#     4  12  27  46  69 101 144 183 235 292 347 423
#     4  12  19  42  69  99 135 172 216 291 348 401
#     4  11  23  42  67  98 138 173 224 284 335 408
#     4  12  22  44  68  98 138 178 218 300 348 408
#     4  12  21  37  72 103 133 173 220 284 362 404
#     4  11  20  38  63 100 134 168 220 270 342 410
#     4  11  24  48  65  92 136 181 224 279 337 403
#     4  10  22  42  68  86 134 176 218 276 330 404
#
# _framework density 21.072323999999998
#
# number of rings (size 3 to 8) (size 9 to 14) (size 15 to 20)
#    0.000    0.571    8.571    1.714    0.000    3.429 
#    2.571    0.000    0.000    0.000    0.000    0.000 
#    0.000    0.000    0.000    0.000    0.000    0.000 
#
# Total GULP energy -346884.610880 kJ/mol
# GULP energy per Si atom -12388.736103 kJ/mol
# Density = 2.102436 g / cm^3
# Si number density = 21.072324 Si / 1000 Ang^3
#
#
#
# Elastic Constant Matrix: (Units=GPa)
#
#
# Indices 1 2 3 4 5 6 
#
# 1 130.2522 31.8591 39.5522 0.0000 -20.2904 0.0000
# 2 31.8591 121.2546 70.2477 0.0000 -14.2448 0.0000
# 3 39.5522 70.2477 127.5581 0.0000 -9.6796 0.0000
# 4 0.0000 0.0000 0.0000 40.2834 0.0000 -11.2923
# 5 -20.2904 -14.2448 -9.6796 0.0000 33.1629 0.0000
# 6 0.0000 0.0000 0.0000 -11.2923 0.0000 23.7839
#
#
#
# Elastic Compliance Matrix: (Units=1/GPa)
#
#
# Indices 1 2 3 4 5 6 
#
# 1 0.009224 -0.000613 -0.002162 0.000000 0.004749 0.000000
# 2 -0.000613 0.012522 -0.006470 0.000000 0.003115 0.000000
# 3 -0.002162 -0.006470 0.012028 0.000000 -0.000591 0.000000
# 4 0.000000 0.000000 0.000000 0.028635 0.000000 0.013596
# 5 0.004749 0.003115 -0.000591 0.000000 0.034226 0.000000
# 6 0.000000 0.000000 0.000000 0.013596 0.000000 0.048500
#
#
# Mechanical properties :
#
#
# Convention : Reuss Voigt Hill
#
# Bulk Modulus (GPa) = 65.42560 73.59810 69.51185
# Shear Modulus (GPa) = 29.63496 35.27308 32.45402
#
# Velocity S-wave (km/s) = 3.75420 4.09578 3.92870
# Velocity P-wave (km/s) = 7.06452 7.57426 7.32383
#
# Compressibility (1/GPa) = 0.01528454
#
# Stress axis : x y z
#
# Youngs Moduli (GPa) = 108.41671 79.85735 83.13912
#
# Poissons Ratio (x) = 0.04895 0.17975
# Poissons Ratio (y) = 0.06646 0.53789
# Poissons Ratio (z) = 0.23440 0.51665
#
# Static dielectric constant tensor:
#      x y z
#    x 5.490980 0.000000 -0.348070 
#    y 0.000000 4.116480 0.000000 
#    z -0.348070 0.000000 4.361250 
# 
# 
# High freq. dielectric constant tensor:
#      x y z
#    x 1.875090 0.000000 0.004040 
#    y 0.000000 1.794540 0.000000 
#    z 0.004040 0.000000 1.827160 
# 
# From -- ./inp_files/79979.got.cif
#   From: 2010.06.25/outbox.cif.g09.slc.cpg/sg13_40_cif.got.tgz:79979.got - 2010.06.28 04:50:58.
