data_PCOD8121240
_publ_section_title
;
Structure prediction by ZEFSAII (Michael W. Deem and Ramdas Pophale) SiO2 
 PCOD8121240
Probable space group: P 2/C
;
_chemical_formula_sum "Si O2"
_cell_formula_units_Z 20
_cell_length_a 7.804002
_cell_length_b 12.024227
_cell_length_c 9.378766
_cell_angle_alpha 90.000000
_cell_angle_beta 77.579466
_cell_angle_gamma 90.000000
_cell_volume 859.478169
_symmetry_space_group_name_H-M "P 2/C"
_symmetry_group_IT_number 13
_symmetry_cell_setting 'monoclinic'
loop_
_space_group_symop_operation_xyz
x,y,z
-x,y,1/2-z
-x,-y,-z
x,-y,1/2+z
loop_
_atom_site_type_symbol
_atom_site_label
_atom_site_fract_x
_atom_site_fract_y
_atom_site_fract_z
Si Si1 0.790400 0.613225 0.792637
Si Si2 0.832668 0.573406 0.480372
Si Si3 0.120858 0.983294 0.611019
Si Si4 0.649802 0.792060 0.024201
Si Si5 0.251473 0.220821 0.676651
O O1 0.721120 0.603636 0.641874
O O2 0.724573 0.504608 0.891437
O O3 0.000000 0.623506 0.750000
O O4 0.711069 0.719535 0.881009
O O5 0.868968 0.687482 0.384546
O O6 0.000000 0.500000 0.500000
O O7 0.293817 0.916482 0.531322
O O8 0.000000 0.918915 0.750000
O O9 0.170971 0.100389 0.671026
O O10 0.000000 0.000000 0.500000
O O11 0.741516 0.753316 0.155390
O O12 0.442984 0.781486 0.073537
#
# Coordination Sequence:
#
# PCOD8121240 Si02
#       5
#     4   4   4   4   4
#     4  10  22  40  68  99 137 173 233 279 343 406
#     4  10  23  41  67 101 134 178 227 284 339 408
#     4  12  26  45  72 103 138 181 237 285 345 415
#     4  11  25  46  69 102 142 184 232 283 353 413
#     4  11  26  46  69  99 144 186 226 290 348 413
#
# _framework density 23.269933999999999
#
# number of rings (size 3 to 8) (size 9 to 14) (size 15 to 20)
#    0.000    1.200    2.000    2.400    8.400    5.600 
#    0.000    0.000    0.000    0.000    0.000    0.000 
#    0.000    0.000    0.000    0.000    0.000    0.000 
#
# Total GULP energy -247885.028907 kJ/mol
# GULP energy per Si atom -12394.251445 kJ/mol
# Density = 2.321697 g / cm^3
# Si number density = 23.269934 Si / 1000 Ang^3
#
#
#
# Elastic Constant Matrix: (Units=GPa)
#
#
# Indices 1 2 3 4 5 6 
#
# 1 73.7384 22.3059 36.1126 0.0000 -10.1094 0.0000
# 2 22.3059 114.2376 42.0261 0.0000 -2.2740 0.0000
# 3 36.1126 42.0261 179.4518 0.0000 3.0964 0.0000
# 4 0.0000 0.0000 0.0000 47.0964 0.0000 -6.2656
# 5 -10.1094 -2.2740 3.0964 0.0000 28.3080 0.0000
# 6 0.0000 0.0000 0.0000 -6.2656 0.0000 13.1624
#
#
#
# Elastic Compliance Matrix: (Units=1/GPa)
#
#
# Indices 1 2 3 4 5 6 
#
# 1 0.016436 -0.002007 -0.002942 0.000000 0.006030 0.000000
# 2 -0.002007 0.009853 -0.001909 0.000000 0.000284 0.000000
# 3 -0.002942 -0.001909 0.006645 0.000000 -0.001931 0.000000
# 4 0.000000 0.000000 0.000000 0.022669 0.000000 0.010791
# 5 0.006030 0.000284 -0.001931 0.000000 0.037713 0.000000
# 6 0.000000 0.000000 0.000000 0.010791 0.000000 0.081110
#
#
# Mechanical properties :
#
#
# Convention : Reuss Voigt Hill
#
# Bulk Modulus (GPa) = 52.03005 63.14634 57.58820
# Shear Modulus (GPa) = 25.70070 35.51224 30.60647
#
# Velocity S-wave (km/s) = 3.32695 3.91077 3.63061
# Velocity P-wave (km/s) = 6.09639 6.89837 6.50974
#
# Compressibility (1/GPa) = 0.01921966
#
# Stress axis : x y z
#
# Youngs Moduli (GPa) = 60.84240 101.48823 150.49448
#
# Poissons Ratio (x) = 0.20369 0.44269
# Poissons Ratio (y) = 0.12211 0.28723
# Poissons Ratio (z) = 0.17897 0.19370
#
# Static dielectric constant tensor:
#      x y z
#    x 3.321770 0.000000 0.006850 
#    y 0.000000 4.610940 0.000000 
#    z 0.006850 0.000000 5.195720 
# 
# 
# High freq. dielectric constant tensor:
#      x y z
#    x 1.895170 0.000000 -0.003280 
#    y 0.000000 1.922130 0.000000 
#    z -0.003280 0.000000 1.954510 
# 
# From -- ./inp_files/11699.got.cif
#   From: 2010.06.25/outbox.cif.g09.slc.cpg/sg13_6_cif.got.tgz:11699.got - 2010.06.28 04:50:58.
