data_PCOD8121882
_publ_section_title
;
Structure prediction by ZEFSAII (Michael W. Deem and Ramdas Pophale) SiO2 
 PCOD8121882
Probable space group: P 2/C
;
_chemical_formula_sum "Si O2"
_cell_formula_units_Z 24
_cell_length_a 13.904346
_cell_length_b 5.007893
_cell_length_c 13.539081
_cell_angle_alpha 90.000000
_cell_angle_beta 91.464908
_cell_angle_gamma 90.000000
_cell_volume 942.438090
_symmetry_space_group_name_H-M "P 2/C"
_symmetry_group_IT_number 13
_symmetry_cell_setting 'monoclinic'
loop_
_space_group_symop_operation_xyz
x,y,z
-x,y,1/2-z
-x,-y,-z
x,-y,1/2+z
loop_
_atom_site_type_symbol
_atom_site_label
_atom_site_fract_x
_atom_site_fract_y
_atom_site_fract_z
Si Si1 0.610875 0.854541 0.804285
Si Si2 0.543185 0.246575 0.056689
Si Si3 0.299318 0.629631 0.289298
Si Si4 0.704828 0.912196 0.011577
Si Si5 0.902096 0.493072 0.305827
Si Si6 0.903951 0.984846 0.436370
O O1 0.496354 0.812413 0.830631
O O2 0.642242 0.643408 0.721861
O O3 0.648212 0.149541 0.777567
O O4 0.666680 0.785166 0.908218
O O5 0.657376 0.197326 0.043616
O O6 0.500000 0.500000 0.000000
O O7 0.500000 0.000000 0.000000
O O8 0.316489 0.695693 0.403865
O O9 0.187675 0.575330 0.264807
O O10 0.818102 0.963052 0.010012
O O11 0.898932 0.187387 0.343078
O O12 0.000000 0.545142 0.250000
O O13 0.897133 0.682188 0.400137
O O14 0.000000 0.000000 0.500000
#
# Coordination Sequence:
#
# PCOD8121882 Si02
#       6
#     4   4   4   4   4   4
#     4  11  24  47  69 108 153 192 252 310 372 445
#     4  10  23  43  74 105 148 199 248 313 378 451
#     4  12  25  44  75 107 147 204 244 315 377 450
#     4  11  25  47  76 111 154 198 256 307 392 450
#     4  12  25  47  71 107 154 192 257 321 377 458
#     4  12  26  46  75 107 153 199 252 319 385 460
#
# _framework density 25.465861
#
# number of rings (size 3 to 8) (size 9 to 14) (size 15 to 20)
#    0.000    0.667    3.333    4.000    0.000    7.333 
#    0.000    1.667    0.000    0.000    0.000    0.000 
#    0.000    0.000    0.000    0.000    0.000    0.000 
#
# Total GULP energy -297577.295388 kJ/mol
# GULP energy per Si atom -12399.053974 kJ/mol
# Density = 2.540790 g / cm^3
# Si number density = 25.465861 Si / 1000 Ang^3
#
#
#
# Elastic Constant Matrix: (Units=GPa)
#
#
# Indices 1 2 3 4 5 6 
#
# 1 199.0699 41.7231 38.4088 0.0000 -15.9280 0.0000
# 2 41.7231 126.8216 27.4342 0.0000 -2.8691 0.0000
# 3 38.4088 27.4342 118.9987 0.0000 -16.9120 0.0000
# 4 0.0000 0.0000 0.0000 40.0498 0.0000 2.5701
# 5 -15.9280 -2.8691 -16.9120 0.0000 43.6801 0.0000
# 6 0.0000 0.0000 0.0000 2.5701 0.0000 40.8761
#
#
#
# Elastic Compliance Matrix: (Units=1/GPa)
#
#
# Indices 1 2 3 4 5 6 
#
# 1 0.005717 -0.001572 -0.001271 0.000000 0.001489 0.000000
# 2 -0.001572 0.008733 -0.001594 0.000000 -0.000617 0.000000
# 3 -0.001271 -0.001594 0.009630 0.000000 0.003160 0.000000
# 4 0.000000 0.000000 0.000000 0.025070 0.000000 -0.001576
# 5 0.001489 -0.000617 0.003160 0.000000 0.024620 0.000000
# 6 0.000000 0.000000 0.000000 -0.001576 0.000000 0.024563
#
#
# Mechanical properties :
#
#
# Convention : Reuss Voigt Hill
#
# Bulk Modulus (GPa) = 65.76036 73.33581 69.54808
# Shear Modulus (GPa) = 44.53276 47.40949 45.97112
#
# Velocity S-wave (km/s) = 4.18631 4.31941 4.25338
# Velocity P-wave (km/s) = 7.01755 7.33053 7.17574
#
# Compressibility (1/GPa) = 0.01520673
#
# Stress axis : x y z
#
# Youngs Moduli (GPa) = 174.90682 114.50673 103.83903
#
# Poissons Ratio (x) = 0.18003 0.13200
# Poissons Ratio (y) = 0.27500 0.16547
# Poissons Ratio (z) = 0.22235 0.18247
#
# Static dielectric constant tensor:
#      x y z
#    x 23.879690 0.000000 -10.612260 
#    y 0.000000 4.301010 0.000000 
#    z -10.612260 0.000000 12.329530 
# 
# 
# High freq. dielectric constant tensor:
#      x y z
#    x 2.047230 0.000000 0.004050 
#    y 0.000000 2.024720 0.000000 
#    z 0.004050 0.000000 2.043770 
# 
# From -- ./inp_files/52180.got.cif
#   From: 2010.06.25/outbox.cif.g09.slc.cpg/sg13_27_cif.got.tgz:52180.got - 2010.06.28 04:50:58.
