data_PCOD8121935
_publ_section_title
;
Structure prediction by ZEFSAII (Michael W. Deem and Ramdas Pophale) SiO2 
 PCOD8121935
Probable space group: P 2/C
;
_chemical_formula_sum "Si O2"
_cell_formula_units_Z 32
_cell_length_a 14.421806
_cell_length_b 8.414502
_cell_length_c 26.432605
_cell_angle_alpha 90.000000
_cell_angle_beta 153.983087
_cell_angle_gamma 90.000000
_cell_volume 1406.995608
_symmetry_space_group_name_H-M "P 2/C"
_symmetry_group_IT_number 13
_symmetry_cell_setting 'monoclinic'
loop_
_space_group_symop_operation_xyz
x,y,z
-x,y,1/2-z
-x,-y,-z
x,-y,1/2+z
loop_
_atom_site_type_symbol
_atom_site_label
_atom_site_fract_x
_atom_site_fract_y
_atom_site_fract_z
Si Si1 0.624947 0.572304 0.934921
Si Si2 0.805195 0.070118 0.121352
Si Si3 0.525834 0.183966 0.067228
Si Si4 0.772047 0.221522 0.001402
Si Si5 0.127081 0.836458 0.593008
Si Si6 0.318368 0.492708 0.197574
Si Si7 0.343331 0.033179 0.777956
Si Si8 0.999897 0.239253 0.571994
O O1 0.539669 0.639859 0.946594
O O2 0.416167 0.551401 0.799389
O O3 0.748226 0.408140 0.000480
O O4 0.781288 0.706267 0.989381
O O5 0.670821 0.197514 0.088579
O O6 0.870061 0.150877 0.100644
O O7 0.000000 0.014794 0.250000
O O8 0.682457 0.909061 0.050648
O O9 0.649869 0.088652 0.172339
O O10 0.935126 0.189121 0.037241
O O11 0.550401 0.142382 0.877369
O O12 0.224316 0.664520 0.625948
O O13 0.047966 0.889962 0.497384
O O14 0.313585 0.941361 0.709691
O O15 0.500000 0.564990 0.250000
O O16 0.131928 0.618185 0.112313
O O17 0.137858 0.148428 0.682384
#
# Coordination Sequence:
#
# PCOD8121935 Si02
#       8
#     4   4   4   4   4   4   4   4
#     4  12  24  44  69  99 133 180 226 279 335 409
#     4  10  23  45  70  98 133 175 219 285 342 410
#     4  10  24  44  70  99 132 177 224 275 348 405
#     4  11  25  45  70  97 135 176 227 282 344 400
#     4  12  24  43  64  99 138 182 230 271 334 403
#     4  12  23  43  66  93 141 185 223 273 334 397
#     4  11  25  42  65  98 136 179 222 282 329 402
#     4  12  26  41  66 101 138 184 227 272 334 400
#
# _framework density 22.743497999999999
#
# number of rings (size 3 to 8) (size 9 to 14) (size 15 to 20)
#    0.000    0.750    5.000    2.250    5.250    0.500 
#    4.500    0.625    0.000    0.000    0.000    0.000 
#    0.000    0.000    0.000    0.000    0.000    0.000 
#
# Total GULP energy -396870.586255 kJ/mol
# GULP energy per Si atom -12402.205820 kJ/mol
# Density = 2.269173 g / cm^3
# Si number density = 22.743498 Si / 1000 Ang^3
#
#
#
# Elastic Constant Matrix: (Units=GPa)
#
#
# Indices 1 2 3 4 5 6 
#
# 1 53.0601 16.8295 10.3615 0.0000 -0.4065 0.0000
# 2 16.8295 72.1280 24.8452 0.0000 -2.8089 0.0000
# 3 10.3615 24.8452 139.2779 0.0000 -15.7533 0.0000
# 4 0.0000 0.0000 0.0000 25.7081 0.0000 0.3510
# 5 -0.4065 -2.8089 -15.7533 0.0000 19.7723 0.0000
# 6 0.0000 0.0000 0.0000 0.3510 0.0000 30.3309
#
#
#
# Elastic Compliance Matrix: (Units=1/GPa)
#
#
# Indices 1 2 3 4 5 6 
#
# 1 0.020433 -0.004522 -0.000812 0.000000 -0.000869 0.000000
# 2 -0.004522 0.015773 -0.002456 0.000000 0.000191 0.000000
# 3 -0.000812 -0.002456 0.008393 0.000000 0.006322 0.000000
# 4 0.000000 0.000000 0.000000 0.038904 0.000000 -0.000450
# 5 -0.000869 0.000191 0.006322 0.000000 0.055622 0.000000
# 6 0.000000 0.000000 0.000000 -0.000450 0.000000 0.032975
#
#
# Mechanical properties :
#
#
# Convention : Reuss Voigt Hill
#
# Bulk Modulus (GPa) = 34.45850 40.94871 37.70361
# Shear Modulus (GPa) = 25.33554 29.32425 27.32989
#
# Velocity S-wave (km/s) = 3.34124 3.59464 3.47025
# Velocity P-wave (km/s) = 5.48352 5.93905 5.71582
#
# Compressibility (1/GPa) = 0.02902041
#
# Stress axis : x y z
#
# Youngs Moduli (GPa) = 48.94134 63.40114 119.14194
#
# Poissons Ratio (x) = 0.28668 0.09671
# Poissons Ratio (y) = 0.22130 0.29256
# Poissons Ratio (z) = 0.03973 0.15569
#
# Static dielectric constant tensor:
#      x y z
#    x 4.016620 0.000000 -0.061730 
#    y 0.000000 4.246220 0.000000 
#    z -0.061730 0.000000 4.353550 
# 
# 
# High freq. dielectric constant tensor:
#      x y z
#    x 1.888000 0.000000 0.004950 
#    y 0.000000 1.898330 0.000000 
#    z 0.004950 0.000000 1.917340 
# 
# From -- ./inp_files/87425.got.cif
#   From: 2010.06.25/outbox.cif.g09.slc.cpg/sg13_44_cif.got.tgz:87425.got - 2010.06.28 04:50:58.
