data_PCOD8121891
_publ_section_title
;
Structure prediction by ZEFSAII (Michael W. Deem and Ramdas Pophale) SiO2 
 PCOD8121891
Probable space group: P 2/C
;
_chemical_formula_sum "Si O2"
_cell_formula_units_Z 28
_cell_length_a 22.061358
_cell_length_b 8.523803
_cell_length_c 9.911266
_cell_angle_alpha 90.000000
_cell_angle_beta 132.347670
_cell_angle_gamma 90.000000
_cell_volume 1377.465965
_symmetry_space_group_name_H-M "P 2/C"
_symmetry_group_IT_number 13
_symmetry_cell_setting 'monoclinic'
loop_
_space_group_symop_operation_xyz
x,y,z
-x,y,1/2-z
-x,-y,-z
x,-y,1/2+z
loop_
_atom_site_type_symbol
_atom_site_label
_atom_site_fract_x
_atom_site_fract_y
_atom_site_fract_z
Si Si1 0.659509 0.147244 0.640895
Si Si2 0.822854 0.316453 0.963225
Si Si3 0.922679 0.801104 0.377107
Si Si4 0.114274 0.840000 0.672230
Si Si5 0.817556 0.316655 0.487764
Si Si6 0.656235 0.147207 0.328801
Si Si7 0.498357 0.349134 0.090646
O O1 0.740770 0.249130 0.776073
O O2 0.650824 0.087249 0.474495
O O3 0.582784 0.253104 0.567407
O O4 0.664326 0.000148 0.745017
O O5 0.897589 0.292956 0.972445
O O6 0.809088 0.499141 0.959843
O O7 0.844670 0.228269 0.133072
O O8 0.020011 0.794458 0.517738
O O9 0.880926 0.972277 0.319192
O O10 0.893884 0.715120 0.199485
O O11 0.167212 0.772378 0.629274
O O12 0.734050 0.258996 0.429465
O O13 0.575627 0.242831 0.168057
O O14 0.500000 0.399907 0.250000
O O15 0.500000 0.500000 0.000000
#
# Coordination Sequence:
#
# PCOD8121891 Si02
#       7
#     4   4   4   4   4   4   4
#     4  11  24  43  68  96 132 172 220 268 320 390
#     4  12  25  41  64  95 132 168 217 272 331 385
#     4  11  23  45  63  94 127 166 225 267 325 401
#     4  11  25  41  69  90 125 176 213 273 329 389
#     4  12  25  41  64  95 132 168 217 272 331 385
#     4  11  24  43  68  96 132 172 220 268 320 390
#     4  10  23  44  68 100 138 172 215 270 324 382
#
# _framework density 20.327179000000001
#
# number of rings (size 3 to 8) (size 9 to 14) (size 15 to 20)
#    0.000    0.857    1.429    5.571    2.000    6.857 
#    0.000    0.000    0.000    0.000    0.000    0.000 
#    0.000    0.000    0.000    0.000    0.000    0.000 
#
# Total GULP energy -347394.010045 kJ/mol
# GULP energy per Si atom -12406.928930 kJ/mol
# Density = 2.028091 g / cm^3
# Si number density = 20.327179 Si / 1000 Ang^3
#
#
#
# Elastic Constant Matrix: (Units=GPa)
#
#
# Indices 1 2 3 4 5 6 
#
# 1 155.6388 12.2816 48.8162 0.0000 33.7790 0.0000
# 2 12.2816 133.1270 22.8015 0.0000 -18.6171 0.0000
# 3 48.8162 22.8015 108.3788 0.0000 13.9127 0.0000
# 4 0.0000 0.0000 0.0000 -100.3840 0.0000 -17.8378
# 5 33.7790 -18.6171 13.9127 0.0000 63.0077 0.0000
# 6 0.0000 0.0000 0.0000 -17.8378 0.0000 30.4686
#
#
#
# Elastic Compliance Matrix: (Units=1/GPa)
#
#
# Indices 1 2 3 4 5 6 
#
# 1 0.008323 -0.000806 -0.003063 0.000000 -0.004024 0.000000
# 2 -0.000806 0.008360 -0.001820 0.000000 0.003304 0.000000
# 3 -0.003063 -0.001820 0.011164 0.000000 -0.001361 0.000000
# 4 0.000000 0.000000 0.000000 -0.009023 0.000000 -0.005283
# 5 -0.004024 0.003304 -0.001361 0.000000 0.019305 0.000000
# 6 0.000000 0.000000 0.000000 -0.005283 0.000000 0.029728
#
#
# Mechanical properties :
#
#
# Convention : Reuss Voigt Hill
#
# Bulk Modulus (GPa) = 60.71867 62.77146 61.74507
# Shear Modulus (GPa) = 59.01592 19.50148 39.25870
#
# Velocity S-wave (km/s) = 5.39407 3.10075 4.39947
# Velocity P-wave (km/s) = 8.29037 6.61567 7.49991
#
# Compressibility (1/GPa) = 0.01646940
#
# Stress axis : x y z
#
# Youngs Moduli (GPa) = 120.15476 119.62110 89.57405
#
# Poissons Ratio (x) = 0.09641 0.27433
# Poissons Ratio (y) = 0.09684 0.16302
# Poissons Ratio (z) = 0.36799 0.21770
#
# Static dielectric constant tensor:
#      x y z
#    x 5.250010 0.000000 1.075370 
#    y 0.000000 3.783130 0.000000 
#    z 1.075370 0.000000 4.646280 
# 
# 
# High freq. dielectric constant tensor:
#      x y z
#    x 1.812810 0.000000 0.001930 
#    y 0.000000 1.800570 0.000000 
#    z 0.001930 0.000000 1.811490 
# 
# From -- ./inp_files/22993.got.cif
#   From: 2010.06.25/outbox.cif.g09.slc.cpg/sg13_12_cif.got.tgz:22993.got - 2010.06.28 04:50:58.
