data_PCOD8121926
_publ_section_title
;
Structure prediction by ZEFSAII (Michael W. Deem and Ramdas Pophale) SiO2 
 PCOD8121926
Probable space group: P 2/C
;
_chemical_formula_sum "Si O2"
_cell_formula_units_Z 26
_cell_length_a 17.227796
_cell_length_b 11.910190
_cell_length_c 11.735162
_cell_angle_alpha 90.000000
_cell_angle_beta 31.469675
_cell_angle_gamma 90.000000
_cell_volume 1257.034744
_symmetry_space_group_name_H-M "P 2/C"
_symmetry_group_IT_number 13
_symmetry_cell_setting 'monoclinic'
loop_
_space_group_symop_operation_xyz
x,y,z
-x,y,1/2-z
-x,-y,-z
x,-y,1/2+z
loop_
_atom_site_type_symbol
_atom_site_label
_atom_site_fract_x
_atom_site_fract_y
_atom_site_fract_z
Si Si1 0.000000 0.748906 0.250000
Si Si2 0.161018 0.307967 0.107279
Si Si3 0.658804 0.444028 0.790869
Si Si4 0.584427 0.785525 0.481673
Si Si5 0.378389 0.884296 0.305761
Si Si6 0.297568 0.861328 0.943760
Si Si7 0.097424 0.400107 0.424205
O O1 0.859995 0.830243 0.411589
O O2 0.991445 0.671797 0.372079
O O3 0.145505 0.321553 0.260914
O O4 0.000000 0.321180 0.250000
O O5 0.280471 0.398767 0.907642
O O6 0.224652 0.183017 0.014399
O O7 0.659956 0.336337 0.872416
O O8 0.758884 0.547154 0.700505
O O9 0.500000 0.500000 0.000000
O O10 0.558772 0.851693 0.396327
O O11 0.420224 0.774386 0.741507
O O12 0.696024 0.853239 0.426270
O O13 0.500000 0.853165 0.250000
O O14 0.340781 0.014461 0.352530
O O15 0.000000 0.500000 0.500000
#
# Coordination Sequence:
#
# PCOD8121926 Si02
#       7
#     2   4   4   4   4   4   4
#     4  12  28  40  68 104 132 178 228 274 338 408
#     4  11  26  44  65  98 137 177 222 277 341 411
#     4  11  24  42  68  99 131 176 225 276 332 402
#     4  10  23  45  67  94 135 170 225 281 335 394
#     4  11  25  43  71  97 129 177 227 279 341 406
#     4  11  24  44  67  97 135 173 219 286 338 397
#     4  12  24  45  67  94 139 178 223 274 337 401
#
# _framework density 20.683596000000001
#
# number of rings (size 3 to 8) (size 9 to 14) (size 15 to 20)
#    0.000    0.923    3.077    3.231    9.692    2.462 
#    0.000    1.538    0.000    0.000    0.000    0.000 
#    0.000    0.000    0.000    0.000    0.000    0.000 
#
# Total GULP energy -322362.613906 kJ/mol
# GULP energy per Si atom -12398.562073 kJ/mol
# Density = 2.063652 g / cm^3
# Si number density = 20.683596 Si / 1000 Ang^3
#
#
#
# Elastic Constant Matrix: (Units=GPa)
#
#
# Indices 1 2 3 4 5 6 
#
# 1 89.7586 16.7573 31.4762 0.0000 14.4685 0.0000
# 2 16.7573 68.9250 22.7217 0.0000 7.9457 0.0000
# 3 31.4762 22.7217 101.7124 0.0000 9.2438 0.0000
# 4 0.0000 0.0000 0.0000 33.4383 0.0000 -3.6454
# 5 14.4685 7.9457 9.2438 0.0000 46.5031 0.0000
# 6 0.0000 0.0000 0.0000 -3.6454 0.0000 31.5386
#
#
#
# Elastic Compliance Matrix: (Units=1/GPa)
#
#
# Indices 1 2 3 4 5 6 
#
# 1 0.013159 -0.001717 -0.003405 0.000000 -0.003124 0.000000
# 2 -0.001717 0.016074 -0.002911 0.000000 -0.001634 0.000000
# 3 -0.003405 -0.002911 0.011604 0.000000 -0.000750 0.000000
# 4 0.000000 0.000000 0.000000 0.030287 0.000000 0.003501
# 5 -0.003124 -0.001634 -0.000750 0.000000 0.022904 0.000000
# 6 0.000000 0.000000 0.000000 0.003501 0.000000 0.032112
#
#
# Mechanical properties :
#
#
# Convention : Reuss Voigt Hill
#
# Bulk Modulus (GPa) = 40.36888 44.70070 42.53479
# Shear Modulus (GPa) = 33.23088 34.92539 34.07814
#
# Velocity S-wave (km/s) = 4.01263 4.11366 4.06346
# Velocity P-wave (km/s) = 6.40531 6.64993 6.52876
#
# Compressibility (1/GPa) = 0.02477156
#
# Stress axis : x y z
#
# Youngs Moduli (GPa) = 75.99326 62.21277 86.17897
#
# Poissons Ratio (x) = 0.10680 0.29342
# Poissons Ratio (y) = 0.13046 0.25087
# Poissons Ratio (z) = 0.25874 0.18110
#
# Static dielectric constant tensor:
#      x y z
#    x 3.830750 0.000000 0.238810 
#    y 0.000000 3.809330 0.000000 
#    z 0.238810 0.000000 3.855580 
# 
# 
# High freq. dielectric constant tensor:
#      x y z
#    x 1.814670 0.000000 0.004970 
#    y 0.000000 1.813020 0.000000 
#    z 0.004970 0.000000 1.821090 
# 
# From -- ./inp_files/39144.got.cif
#   From: 2010.06.25/outbox.cif.g09.slc.cpg/sg13_20_cif.got.tgz:39144.got - 2010.06.28 04:50:58.
