data_PCOD8121763
_publ_section_title
;
Structure prediction by ZEFSAII (Michael W. Deem and Ramdas Pophale) SiO2 
 PCOD8121763
Probable space group: P 2/C
;
_chemical_formula_sum "Si O2"
_cell_formula_units_Z 20
_cell_length_a 5.736101
_cell_length_b 5.001825
_cell_length_c 27.130630
_cell_angle_alpha 90.000000
_cell_angle_beta 96.121498
_cell_angle_gamma 90.000000
_cell_volume 773.965725
_symmetry_space_group_name_H-M "P 2/C"
_symmetry_group_IT_number 13
_symmetry_cell_setting 'monoclinic'
loop_
_space_group_symop_operation_xyz
x,y,z
-x,y,1/2-z
-x,-y,-z
x,-y,1/2+z
loop_
_atom_site_type_symbol
_atom_site_label
_atom_site_fract_x
_atom_site_fract_y
_atom_site_fract_z
Si Si1 0.202561 0.285284 0.645749
Si Si2 0.450136 0.196791 0.554690
Si Si3 0.801090 0.096533 0.124734
Si Si4 0.550555 0.220727 0.307950
Si Si5 0.173231 0.370378 0.465363
O O1 0.260032 0.310280 0.589488
O O2 0.239872 0.575790 0.671850
O O3 0.372609 0.081428 0.678788
O O4 0.936445 0.170620 0.645549
O O5 0.307205 0.133173 0.500483
O O6 0.640227 0.419993 0.548942
O O7 0.574188 0.949100 0.584236
O O8 0.697325 0.265927 0.168393
O O9 0.958144 0.265652 0.088207
O O10 0.500000 0.261656 0.250000
O O11 0.000000 0.500000 0.500000
#
# Coordination Sequence:
#
# PCOD8121763 Si02
#       5
#     4   4   4   4   4
#     4  11  25  44  79 104 145 190 245 301 372 444
#     4  10  23  41  64 102 148 192 236 297 359 434
#     4  11  25  44  72 103 146 189 243 298 365 444
#     4  11  26  50  75 107 143 189 244 314 376 442
#     4  11  23  39  69 102 146 192 243 294 359 438
#
# _framework density 25.840941000000001
#
# number of rings (size 3 to 8) (size 9 to 14) (size 15 to 20)
#    0.000    1.200    2.000    2.400    5.600    5.600 
#    0.000    2.000    0.000    0.000    0.000    0.000 
#    0.000    0.000    0.000    0.000    0.000    0.000 
#
# Total GULP energy -247832.955916 kJ/mol
# GULP energy per Si atom -12391.647796 kJ/mol
# Density = 2.578213 g / cm^3
# Si number density = 25.840941 Si / 1000 Ang^3
#
#
#
# Elastic Constant Matrix: (Units=GPa)
#
#
# Indices 1 2 3 4 5 6 
#
# 1 96.7259 18.7954 52.9338 0.0000 -15.9505 0.0000
# 2 18.7954 72.1864 28.3647 0.0000 -16.2386 0.0000
# 3 52.9338 28.3647 213.2751 0.0000 -15.1356 0.0000
# 4 0.0000 0.0000 0.0000 37.0385 0.0000 6.1137
# 5 -15.9505 -16.2386 -15.1356 0.0000 31.9091 0.0000
# 6 0.0000 0.0000 0.0000 6.1137 0.0000 34.6022
#
#
#
# Elastic Compliance Matrix: (Units=1/GPa)
#
#
# Indices 1 2 3 4 5 6 
#
# 1 0.012795 -0.001268 -0.002689 0.000000 0.004475 0.000000
# 2 -0.001268 0.016294 -0.001354 0.000000 0.007016 0.000000
# 3 -0.002689 -0.001354 0.005580 0.000000 0.000613 0.000000
# 4 0.000000 0.000000 0.000000 0.027810 0.000000 -0.004914
# 5 0.004475 0.007016 0.000613 0.000000 0.037437 0.000000
# 6 0.000000 0.000000 0.000000 -0.004914 0.000000 0.029768
#
#
# Mechanical properties :
#
#
# Convention : Reuss Voigt Hill
#
# Bulk Modulus (GPa) = 41.58951 64.70836 53.14894
# Shear Modulus (GPa) = 33.71061 39.51620 36.61341
#
# Velocity S-wave (km/s) = 3.61576 3.91475 3.76822
# Velocity P-wave (km/s) = 5.79319 6.74753 6.28849
#
# Compressibility (1/GPa) = 0.02404452
#
# Stress axis : x y z
#
# Youngs Moduli (GPa) = 78.15832 61.37402 179.21467
#
# Poissons Ratio (x) = 0.07782 0.48197
# Poissons Ratio (y) = 0.09911 0.24272
# Poissons Ratio (z) = 0.21019 0.08312
#
# Static dielectric constant tensor:
#      x y z
#    x 5.335750 0.000000 -0.007360 
#    y 0.000000 4.578390 0.000000 
#    z -0.007360 0.000000 5.066720 
# 
# 
# High freq. dielectric constant tensor:
#      x y z
#    x 2.035280 0.000000 -0.002410 
#    y 0.000000 2.025660 0.000000 
#    z -0.002410 0.000000 2.042970 
# 
# From -- ./inp_files/89931.got.cif
#   From: 2010.06.25/outbox.cif.g09.slc.cpg/sg13_45_cif.got.tgz:89931.got - 2010.06.28 04:50:58.
