data_PCOD8121548
_publ_section_title
;
Structure prediction by ZEFSAII (Michael W. Deem and Ramdas Pophale) SiO2 
 PCOD8121548
Probable space group: P 2/C
;
_chemical_formula_sum "Si O2"
_cell_formula_units_Z 16
_cell_length_a 6.762220
_cell_length_b 6.968677
_cell_length_c 21.765189
_cell_angle_alpha 90.000000
_cell_angle_beta 51.904749
_cell_angle_gamma 90.000000
_cell_volume 807.177728
_symmetry_space_group_name_H-M "P 2/C"
_symmetry_group_IT_number 13
_symmetry_cell_setting 'monoclinic'
loop_
_space_group_symop_operation_xyz
x,y,z
-x,y,1/2-z
-x,-y,-z
x,-y,1/2+z
loop_
_atom_site_type_symbol
_atom_site_label
_atom_site_fract_x
_atom_site_fract_y
_atom_site_fract_z
Si Si1 0.404834 0.635740 0.606318
Si Si2 0.837717 0.325823 0.930335
Si Si3 0.760920 0.948288 0.336278
Si Si4 0.583141 0.671246 0.164175
O O1 0.222972 0.518256 0.595909
O O2 0.662645 0.691572 0.523341
O O3 0.461063 0.514970 0.656473
O O4 0.258556 0.824067 0.655413
O O5 0.794348 0.137337 0.897753
O O6 0.119520 0.335443 0.900598
O O7 0.512936 0.862434 0.351679
O O8 0.000000 0.888901 0.250000
O O9 0.500000 0.675250 0.250000
#
# Coordination Sequence:
#
# PCOD8121548 Si02
#       4
#     4   4   4   4
#     4  10  24  39  66  88 116 161 199 241 298 355
#     4  10  22  44  60  88 123 152 198 251 294 346
#     4  11  23  38  60  90 121 157 199 243 295 350
#     4  11  23  39  61  89 124 156 195 249 293 347
#
# _framework density 19.822153
#
# number of rings (size 3 to 8) (size 9 to 14) (size 15 to 20)
#    0.000    1.500    2.500    1.500    3.500    4.000 
#    0.000    0.000    0.000    0.000    0.000    0.000 
#    0.000    0.000    0.000    0.000    0.000    0.000 
#
# Total GULP energy -198520.709159 kJ/mol
# GULP energy per Si atom -12407.544322 kJ/mol
# Density = 1.977704 g / cm^3
# Si number density = 19.822153 Si / 1000 Ang^3
#
#
#
# Elastic Constant Matrix: (Units=GPa)
#
#
# Indices 1 2 3 4 5 6 
#
# 1 92.4692 29.8506 8.9156 0.0000 -18.8108 0.0000
# 2 29.8506 113.1880 9.3171 0.0000 3.7579 0.0000
# 3 8.9156 9.3171 39.3541 0.0000 -4.0352 0.0000
# 4 0.0000 0.0000 0.0000 31.4670 0.0000 -3.9139
# 5 -18.8108 3.7579 -4.0352 0.0000 40.9691 0.0000
# 6 0.0000 0.0000 0.0000 -3.9139 0.0000 10.8842
#
#
#
# Elastic Compliance Matrix: (Units=1/GPa)
#
#
# Indices 1 2 3 4 5 6 
#
# 1 0.013423 -0.003624 -0.001532 0.000000 0.006345 0.000000
# 2 -0.003624 0.010034 -0.001838 0.000000 -0.002766 0.000000
# 3 -0.001532 -0.001838 0.026404 0.000000 0.002066 0.000000
# 4 0.000000 0.000000 0.000000 0.033267 0.000000 0.011963
# 5 0.006345 -0.002766 0.002066 0.000000 0.027779 0.000000
# 6 0.000000 0.000000 0.000000 0.011963 0.000000 0.096178
#
#
# Mechanical properties :
#
#
# Convention : Reuss Voigt Hill
#
# Bulk Modulus (GPa) = 27.87719 37.90868 32.89294
# Shear Modulus (GPa) = 21.45632 29.79259 25.62446
#
# Velocity S-wave (km/s) = 3.29362 3.88105 3.59934
# Velocity P-wave (km/s) = 5.34398 6.26493 5.82269
#
# Compressibility (1/GPa) = 0.03587162
#
# Stress axis : x y z
#
# Youngs Moduli (GPa) = 74.49979 99.66275 37.87248
#
# Poissons Ratio (x) = 0.36122 0.05803
# Poissons Ratio (y) = 0.27002 0.06961
# Poissons Ratio (z) = 0.11416 0.18318
#
# Static dielectric constant tensor:
#      x y z
#    x 3.683060 0.000000 -0.020310 
#    y 0.000000 3.514100 0.000000 
#    z -0.020310 0.000000 3.639140 
# 
# 
# High freq. dielectric constant tensor:
#      x y z
#    x 1.779040 0.000000 -0.000310 
#    y 0.000000 1.773080 0.000000 
#    z -0.000310 0.000000 1.785280 
# 
# From -- ./inp_files/60760.got.cif
#   From: 2010.06.25/outbox.cif.g09.slc.cpg/sg13_31_cif.got.tgz:60760.got - 2010.06.28 04:50:58.
