data_PCOD8121462
_publ_section_title
;
Structure prediction by ZEFSAII (Michael W. Deem and Ramdas Pophale) SiO2 
 PCOD8121462
Probable space group: P 2/C
;
_chemical_formula_sum "Si O2"
_cell_formula_units_Z 22
_cell_length_a 21.304241
_cell_length_b 7.070311
_cell_length_c 13.257756
_cell_angle_alpha 90.000000
_cell_angle_beta 29.361231
_cell_angle_gamma 90.000000
_cell_volume 979.149533
_symmetry_space_group_name_H-M "P 2/C"
_symmetry_group_IT_number 13
_symmetry_cell_setting 'monoclinic'
loop_
_space_group_symop_operation_xyz
x,y,z
-x,y,1/2-z
-x,-y,-z
x,-y,1/2+z
loop_
_atom_site_type_symbol
_atom_site_label
_atom_site_fract_x
_atom_site_fract_y
_atom_site_fract_z
Si Si1 0.156458 0.021927 0.868485
Si Si2 0.579537 0.174553 0.932731
Si Si3 0.874159 0.078905 0.306178
Si Si4 0.861733 0.275284 0.963540
Si Si5 0.500000 0.626541 0.750000
Si Si6 0.687047 0.584775 0.117677
O O1 0.272470 0.126696 0.759539
O O2 0.175997 0.031561 0.721879
O O3 0.024951 0.129096 0.084858
O O4 0.150433 0.795114 0.903563
O O5 0.579485 0.331317 0.843994
O O6 0.523222 0.245614 0.118095
O O7 0.500000 0.000000 0.000000
O O8 0.795844 0.269362 0.433169
O O9 0.849509 0.930715 0.428839
O O10 0.000000 0.371009 0.750000
O O11 0.748523 0.410845 0.091798
O O12 0.380112 0.491677 0.890249
#
# Coordination Sequence:
#
# PCOD8121462 Si02
#       6
#     4   4   4   4   2   4
#     4  10  22  44  72 101 141 180 230 282 352 423
#     4  12  28  46  76  99 145 193 241 289 358 419
#     4  10  23  44  71 106 138 182 223 288 361 416
#     4  10  22  42  69 107 140 169 226 288 347 427
#     4  12  30  48  66 108 144 186 254 292 342 428
#     4  12  27  45  75 102 141 185 237 291 361 412
#
# _framework density 22.468477
#
# number of rings (size 3 to 8) (size 9 to 14) (size 15 to 20)
#    0.000    1.091    1.818    2.727   10.182    0.000 
#    0.000    3.636    0.000    0.000    0.000    0.000 
#    0.000    0.000    0.000    0.000    0.000    0.000 
#
# Total GULP energy -272745.189646 kJ/mol
# GULP energy per Si atom -12397.508620 kJ/mol
# Density = 2.241734 g / cm^3
# Si number density = 22.468477 Si / 1000 Ang^3
#
#
#
# Elastic Constant Matrix: (Units=GPa)
#
#
# Indices 1 2 3 4 5 6 
#
# 1 120.4906 53.0888 50.1565 0.0000 -10.9594 0.0000
# 2 53.0888 96.9690 48.0323 0.0000 -6.4674 0.0000
# 3 50.1565 48.0323 96.8814 0.0000 2.4672 0.0000
# 4 0.0000 0.0000 0.0000 42.0008 0.0000 -10.2086
# 5 -10.9594 -6.4674 2.4672 0.0000 41.6105 0.0000
# 6 0.0000 0.0000 0.0000 -10.2086 0.0000 34.2704
#
#
#
# Elastic Compliance Matrix: (Units=1/GPa)
#
#
# Indices 1 2 3 4 5 6 
#
# 1 0.012266 -0.004439 -0.004221 0.000000 0.002791 0.000000
# 2 -0.004439 0.015547 -0.005450 0.000000 0.001571 0.000000
# 3 -0.004221 -0.005450 0.015282 0.000000 -0.002865 0.000000
# 4 0.000000 0.000000 0.000000 0.025667 0.000000 0.007646
# 5 0.002791 0.001571 -0.002865 0.000000 0.025181 0.000000
# 6 0.000000 0.000000 0.000000 0.007646 0.000000 0.031457
#
#
# Mechanical properties :
#
#
# Convention : Reuss Voigt Hill
#
# Bulk Modulus (GPa) = 67.22122 68.54405 67.88264
# Shear Modulus (GPa) = 31.53017 34.44722 32.98870
#
# Velocity S-wave (km/s) = 3.75014 3.91978 3.83589
# Velocity P-wave (km/s) = 6.98100 7.14557 7.06376
#
# Compressibility (1/GPa) = 0.01487625
#
# Stress axis : x y z
#
# Youngs Moduli (GPa) = 81.52730 64.32131 65.43645
#
# Poissons Ratio (x) = 0.28549 0.27619
# Poissons Ratio (y) = 0.36186 0.35663
# Poissons Ratio (z) = 0.34410 0.35056
#
# Static dielectric constant tensor:
#      x y z
#    x 4.599780 0.000000 0.299960 
#    y 0.000000 3.900910 0.000000 
#    z 0.299960 0.000000 4.549420 
# 
# 
# High freq. dielectric constant tensor:
#      x y z
#    x 1.908170 0.000000 -0.000370 
#    y 0.000000 1.870100 0.000000 
#    z -0.000370 0.000000 1.893910 
# 
# From -- ./inp_files/58189.got.cif
#   From: 2010.06.25/outbox.cif.g09.slc.cpg/sg13_30_cif.got.tgz:58189.got - 2010.06.28 04:50:58.
