data_PCOD8121395
_publ_section_title
;
Structure prediction by ZEFSAII (Michael W. Deem and Ramdas Pophale) SiO2 
 PCOD8121395
Probable space group: P 2/C
;
_chemical_formula_sum "Si O2"
_cell_formula_units_Z 24
_cell_length_a 14.684698
_cell_length_b 9.291769
_cell_length_c 14.767034
_cell_angle_alpha 90.000000
_cell_angle_beta 38.006485
_cell_angle_gamma 90.000000
_cell_volume 1240.685156
_symmetry_space_group_name_H-M "P 2/C"
_symmetry_group_IT_number 13
_symmetry_cell_setting 'monoclinic'
loop_
_space_group_symop_operation_xyz
x,y,z
-x,y,1/2-z
-x,-y,-z
x,-y,1/2+z
loop_
_atom_site_type_symbol
_atom_site_label
_atom_site_fract_x
_atom_site_fract_y
_atom_site_fract_z
Si Si1 0.326674 0.112678 0.406979
Si Si2 0.133030 0.590081 0.438666
Si Si3 0.162642 0.399989 0.586179
Si Si4 0.354960 0.589187 0.104334
Si Si5 0.852440 0.080115 0.593190
Si Si6 0.637083 0.089477 0.923788
O O1 0.500000 0.139718 0.250000
O O2 0.237408 0.263024 0.478281
O O3 0.312806 0.038125 0.516036
O O4 0.252253 0.001999 0.395753
O O5 0.163575 0.529286 0.514169
O O6 0.273786 0.574766 0.263731
O O7 0.102440 0.760081 0.474855
O O8 0.000000 0.500000 0.500000
O O9 0.251304 0.461529 0.602984
O O10 0.000000 0.356482 0.750000
O O11 0.414136 0.746325 0.033205
O O12 0.500000 0.500000 0.000000
O O13 0.774760 0.079568 0.750473
O O14 0.000000 0.000000 0.500000
O O15 0.500000 0.000000 0.000000
#
# Coordination Sequence:
#
# PCOD8121395 Si02
#       6
#     4   4   4   4   4   4
#     4  11  24  42  68  95 128 170 213 261 324 383
#     4  11  23  43  66  92 129 169 213 263 317 380
#     4  11  24  44  66  94 131 168 214 264 321 383
#     4  10  24  40  64  93 125 167 210 263 322 371
#     4  11  25  43  65  95 127 171 214 265 318 379
#     4  10  22  42  63  91 128 165 210 264 316 378
#
# _framework density 19.344149000000002
#
# number of rings (size 3 to 8) (size 9 to 14) (size 15 to 20)
#    0.000    1.333    3.333    1.000    9.333    2.667 
#    3.000    0.000    0.000    0.000    0.000    0.000 
#    0.000    0.000    0.000    0.000    0.000    0.000 
#
# Total GULP energy -297550.874430 kJ/mol
# GULP energy per Si atom -12397.953101 kJ/mol
# Density = 1.930012 g / cm^3
# Si number density = 19.344149 Si / 1000 Ang^3
#
#
#
# Elastic Constant Matrix: (Units=GPa)
#
#
# Indices 1 2 3 4 5 6 
#
# 1 144.3640 74.3428 63.1579 0.0000 -1.9620 0.0000
# 2 74.3428 123.3873 68.1470 0.0000 -6.4269 0.0000
# 3 63.1579 68.1470 87.3244 0.0000 -0.6581 0.0000
# 4 0.0000 0.0000 0.0000 35.8088 0.0000 -3.3345
# 5 -1.9620 -6.4269 -0.6581 0.0000 43.1306 0.0000
# 6 0.0000 0.0000 0.0000 -3.3345 0.0000 39.3384
#
#
#
# Elastic Compliance Matrix: (Units=1/GPa)
#
#
# Indices 1 2 3 4 5 6 
#
# 1 0.011144 -0.003991 -0.004947 0.000000 -0.000163 0.000000
# 2 -0.003991 0.015839 -0.009459 0.000000 0.002034 0.000000
# 3 -0.004947 -0.009459 0.022401 0.000000 -0.001293 0.000000
# 4 0.000000 0.000000 0.000000 0.028148 0.000000 0.002386
# 5 -0.000163 0.002034 -0.001293 0.000000 0.023461 0.000000
# 6 0.000000 0.000000 0.000000 0.002386 0.000000 0.025623
#
#
# Mechanical properties :
#
#
# Convention : Reuss Voigt Hill
#
# Bulk Modulus (GPa) = 79.42019 85.15234 82.28626
# Shear Modulus (GPa) = 29.83150 33.61741 31.72445
#
# Velocity S-wave (km/s) = 3.93128 4.17329 4.05409
# Velocity P-wave (km/s) = 7.85825 8.20591 8.03396
#
# Compressibility (1/GPa) = 0.01259126
#
# Stress axis : x y z
#
# Youngs Moduli (GPa) = 89.73384 63.13382 44.63990
#
# Poissons Ratio (x) = 0.25196 0.22083
# Poissons Ratio (y) = 0.35811 0.42226
# Poissons Ratio (z) = 0.44390 0.59719
#
# Static dielectric constant tensor:
#      x y z
#    x 4.991690 0.000000 0.675720 
#    y 0.000000 3.365480 0.000000 
#    z 0.675720 0.000000 3.921620 
# 
# 
# High freq. dielectric constant tensor:
#      x y z
#    x 1.767480 0.000000 0.005310 
#    y 0.000000 1.751020 0.000000 
#    z 0.005310 0.000000 1.770610 
# 
# From -- ./inp_files/52875.got.cif
#   From: 2010.06.25/outbox.cif.g09.slc.cpg/sg13_27_cif.got.tgz:52875.got - 2010.06.28 04:50:58.
