data_PCOD8121131
_publ_section_title
;
Structure prediction by ZEFSAII (Michael W. Deem and Ramdas Pophale) SiO2 
 PCOD8121131
Probable space group: P 2/C
;
_chemical_formula_sum "Si O2"
_cell_formula_units_Z 26
_cell_length_a 8.694430
_cell_length_b 16.617086
_cell_length_c 13.631092
_cell_angle_alpha 90.000000
_cell_angle_beta 35.261253
_cell_angle_gamma 90.000000
_cell_volume 1136.926472
_symmetry_space_group_name_H-M "P 2/C"
_symmetry_group_IT_number 13
_symmetry_cell_setting 'monoclinic'
loop_
_space_group_symop_operation_xyz
x,y,z
-x,y,1/2-z
-x,-y,-z
x,-y,1/2+z
loop_
_atom_site_type_symbol
_atom_site_label
_atom_site_fract_x
_atom_site_fract_y
_atom_site_fract_z
Si Si1 0.133885 0.721762 0.820624
Si Si2 0.500000 0.819363 0.750000
Si Si3 0.321460 0.077965 0.694149
Si Si4 0.580423 0.752811 0.029404
Si Si5 0.733211 0.950696 0.502290
Si Si6 0.363597 0.552877 0.715188
Si Si7 0.269727 0.400367 0.653753
O O1 0.250092 0.761987 0.857689
O O2 0.310283 0.754828 0.638305
O O3 0.148487 0.625067 0.822550
O O4 0.830596 0.749952 0.972092
O O5 0.566029 0.873451 0.622067
O O6 0.393989 0.172103 0.655001
O O7 0.268630 0.046649 0.612978
O O8 0.032036 0.056504 0.894105
O O9 0.564476 0.030653 0.621947
O O10 0.414257 0.672185 0.133807
O O11 0.500000 0.546599 0.750000
O O12 0.215549 0.469694 0.763607
O O13 0.580022 0.565944 0.518913
O O14 0.000000 0.365076 0.750000
#
# Coordination Sequence:
#
# PCOD8121131 Si02
#       7
#     4   2   4   4   4   4   4
#     4  10  22  39  69  96 126 173 223 267 330 396
#     4  12  22  42  66 104 124 170 216 286 320 398
#     4  10  22  43  65  95 125 180 210 268 323 410
#     4  10  22  42  67  92 132 173 222 269 326 401
#     4  10  24  39  68  92 132 163 225 259 338 383
#     4  10  22  42  64  95 131 174 220 274 329 397
#     4  10  24  40  66  96 131 175 223 271 332 395
#
# _framework density 22.868673999999999
#
# number of rings (size 3 to 8) (size 9 to 14) (size 15 to 20)
#    0.000    1.846    2.308    0.000   10.769    2.462 
#    0.000    0.000    0.000    0.000    0.000    0.000 
#    0.000    0.000    0.000    0.000    0.000    0.000 
#
# Total GULP energy -322283.530487 kJ/mol
# GULP energy per Si atom -12395.520403 kJ/mol
# Density = 2.281662 g / cm^3
# Si number density = 22.868674 Si / 1000 Ang^3
#
#
#
# Elastic Constant Matrix: (Units=GPa)
#
#
# Indices 1 2 3 4 5 6 
#
# 1 108.4646 56.8938 28.1867 0.0000 -26.9497 0.0000
# 2 56.8938 168.9462 46.8226 0.0000 -24.3778 0.0000
# 3 28.1867 46.8226 56.3296 0.0000 -32.3703 0.0000
# 4 0.0000 0.0000 0.0000 46.3061 0.0000 9.0234
# 5 -26.9497 -24.3778 -32.3703 0.0000 40.0342 0.0000
# 6 0.0000 0.0000 0.0000 9.0234 0.0000 40.0773
#
#
#
# Elastic Compliance Matrix: (Units=1/GPa)
#
#
# Indices 1 2 3 4 5 6 
#
# 1 0.012552 -0.003361 0.000359 0.000000 0.006694 0.000000
# 2 -0.003361 0.008608 -0.007026 0.000000 -0.002702 0.000000
# 3 0.000359 -0.007026 0.039402 0.000000 0.027822 0.000000
# 4 0.000000 0.000000 0.000000 0.022586 0.000000 -0.005085
# 5 0.006694 -0.002702 0.027822 0.000000 0.050336 0.000000
# 6 0.000000 0.000000 0.000000 -0.005085 0.000000 0.026097
#
#
# Mechanical properties :
#
#
# Convention : Reuss Voigt Hill
#
# Bulk Modulus (GPa) = 24.68755 66.39408 45.54081
# Shear Modulus (GPa) = 25.88810 38.73934 32.31372
#
# Velocity S-wave (km/s) = 3.36822 4.12028 3.76308
# Velocity P-wave (km/s) = 5.09366 7.19245 6.23204
#
# Compressibility (1/GPa) = 0.04050625
#
# Stress axis : x y z
#
# Youngs Moduli (GPa) = 79.66688 116.16746 25.37961
#
# Poissons Ratio (x) = 0.39041 -0.00911
# Poissons Ratio (y) = 0.26774 0.17833
# Poissons Ratio (z) = -0.02861 0.81624
#
# Static dielectric constant tensor:
#      x y z
#    x 4.163670 0.000000 -0.201280 
#    y 0.000000 4.153170 0.000000 
#    z -0.201280 0.000000 4.049580 
# 
# 
# High freq. dielectric constant tensor:
#      x y z
#    x 1.905620 0.000000 -0.010710 
#    y 0.000000 1.907570 0.000000 
#    z -0.010710 0.000000 1.886390 
# 
# From -- ./inp_files/47877.got.cif
#   From: 2010.06.25/outbox.cif.g09.slc.cpg/sg13_24_cif.got.tgz:47877.got - 2010.06.28 04:50:58.
