data_PCOD8121540
_publ_section_title
;
Structure prediction by ZEFSAII (Michael W. Deem and Ramdas Pophale) SiO2 
 PCOD8121540
Probable space group: P 2/C
;
_chemical_formula_sum "Si O2"
_cell_formula_units_Z 18
_cell_length_a 19.515440
_cell_length_b 7.938386
_cell_length_c 13.992257
_cell_angle_alpha 90.000000
_cell_angle_beta 19.257212
_cell_angle_gamma 90.000000
_cell_volume 714.926616
_symmetry_space_group_name_H-M "P 2/C"
_symmetry_group_IT_number 13
_symmetry_cell_setting 'monoclinic'
loop_
_space_group_symop_operation_xyz
x,y,z
-x,y,1/2-z
-x,-y,-z
x,-y,1/2+z
loop_
_atom_site_type_symbol
_atom_site_label
_atom_site_fract_x
_atom_site_fract_y
_atom_site_fract_z
Si Si1 0.856992 0.701790 0.351085
Si Si2 0.760833 0.580532 0.736657
Si Si3 0.593760 0.759821 0.393820
Si Si4 0.500000 0.485956 0.750000
Si Si5 0.603758 0.986455 0.210758
O O1 0.638166 0.604304 0.637035
O O2 0.806694 0.900527 0.419008
O O3 0.000000 0.639969 0.250000
O O4 0.000973 0.647678 0.070183
O O5 0.752420 0.381370 0.723071
O O6 0.638778 0.684216 0.814915
O O7 0.648667 0.622798 0.985483
O O8 0.573059 0.906713 0.499756
O O9 0.676371 0.832437 0.183045
O O10 0.500000 0.917992 0.250000
#
# Coordination Sequence:
#
# PCOD8121540 Si02
#       5
#     4   4   4   2   4
#     4  12  22  43  73 103 149 198 243 305 369 434
#     4  11  22  43  73 106 144 196 248 308 358 445
#     4  10  22  43  72 105 146 191 247 306 371 431
#     4  12  24  42  72 110 150 192 256 302 368 438
#     4  11  22  43  73 103 152 194 232 308 376 435
#
# _framework density 25.177410999999999
#
# number of rings (size 3 to 8) (size 9 to 14) (size 15 to 20)
#    0.000    0.889    5.556    2.000    1.556    0.000 
#    0.000    4.444    4.889    0.000    0.000    0.000 
#    0.000    0.000    0.000    0.000    0.000    0.000 
#
# Total GULP energy -223228.632630 kJ/mol
# GULP energy per Si atom -12401.590702 kJ/mol
# Density = 2.512011 g / cm^3
# Si number density = 25.177411 Si / 1000 Ang^3
#
#
#
# Elastic Constant Matrix: (Units=GPa)
#
#
# Indices 1 2 3 4 5 6 
#
# 1 124.3719 16.2578 33.2713 0.0000 14.6692 0.0000
# 2 16.2578 82.1112 37.4905 0.0000 11.7109 0.0000
# 3 33.2713 37.4905 143.1964 0.0000 6.2643 0.0000
# 4 0.0000 0.0000 0.0000 38.6768 0.0000 14.1967
# 5 14.6692 11.7109 6.2643 0.0000 42.8700 0.0000
# 6 0.0000 0.0000 0.0000 14.1967 0.0000 21.3355
#
#
#
# Elastic Compliance Matrix: (Units=1/GPa)
#
#
# Indices 1 2 3 4 5 6 
#
# 1 0.008908 -0.000564 -0.001807 0.000000 -0.002630 0.000000
# 2 -0.000564 0.014339 -0.003482 0.000000 -0.003215 0.000000
# 3 -0.001807 -0.003482 0.008299 0.000000 0.000357 0.000000
# 4 0.000000 0.000000 0.000000 0.034211 0.000000 -0.022764
# 5 -0.002630 -0.003215 0.000357 0.000000 0.025052 0.000000
# 6 0.000000 0.000000 0.000000 -0.022764 0.000000 0.062018
#
#
# Mechanical properties :
#
#
# Convention : Reuss Voigt Hill
#
# Bulk Modulus (GPa) = 50.40389 58.19099 54.29744
# Shear Modulus (GPa) = 29.21475 38.08712 33.65093
#
# Velocity S-wave (km/s) = 3.41009 3.89363 3.65986
# Velocity P-wave (km/s) = 5.96389 6.58607 6.28269
#
# Compressibility (1/GPa) = 0.01983974
#
# Stress axis : x y z
#
# Youngs Moduli (GPa) = 112.26262 69.74094 120.49023
#
# Poissons Ratio (x) = 0.03930 0.21774
# Poissons Ratio (y) = 0.06326 0.41960
# Poissons Ratio (z) = 0.20287 0.24287
#
# Static dielectric constant tensor:
#      x y z
#    x 4.573710 0.000000 0.263890 
#    y 0.000000 4.397420 0.000000 
#    z 0.263890 0.000000 4.429150 
# 
# 
# High freq. dielectric constant tensor:
#      x y z
#    x 2.017320 0.000000 0.022500 
#    y 0.000000 1.988080 0.000000 
#    z 0.022500 0.000000 1.985790 
# 
# From -- ./inp_files/57017.got.cif
#   From: 2010.06.25/outbox.cif.g09.slc.cpg/sg13_29_cif.got.tgz:57017.got - 2010.06.28 04:50:58.
