data_PCOD8121633
_publ_section_title
;
Structure prediction by ZEFSAII (Michael W. Deem and Ramdas Pophale) SiO2 
 PCOD8121633
Probable space group: P 2/C
;
_chemical_formula_sum "Si O2"
_cell_formula_units_Z 30
_cell_length_a 19.736376
_cell_length_b 11.996714
_cell_length_c 11.393648
_cell_angle_alpha 90.000000
_cell_angle_beta 30.426710
_cell_angle_gamma 90.000000
_cell_volume 1366.208260
_symmetry_space_group_name_H-M "P 2/C"
_symmetry_group_IT_number 13
_symmetry_cell_setting 'monoclinic'
loop_
_space_group_symop_operation_xyz
x,y,z
-x,y,1/2-z
-x,-y,-z
x,-y,1/2+z
loop_
_atom_site_type_symbol
_atom_site_label
_atom_site_fract_x
_atom_site_fract_y
_atom_site_fract_z
Si Si1 0.802130 0.408016 0.160510
Si Si2 0.798345 0.118551 0.857148
Si Si3 0.350384 0.594470 0.991483
Si Si4 0.357376 0.189875 0.616345
Si Si5 0.000000 0.449101 0.250000
Si Si6 0.137163 0.897392 0.618045
Si Si7 0.977246 0.284004 0.072553
Si Si8 0.649672 0.256366 0.231877
O O1 0.743880 0.488705 0.347821
O O2 0.924123 0.338558 0.033408
O O3 0.681446 0.325238 0.302174
O O4 0.866258 0.473490 0.953289
O O5 0.663446 0.123175 0.976554
O O6 0.902786 0.198393 0.633735
O O7 0.851017 0.995089 0.802861
O O8 0.761142 0.160924 0.043968
O O9 0.500000 0.549604 0.750000
O O10 0.317536 0.659424 0.922796
O O11 0.329178 0.678419 0.134204
O O12 0.507693 0.192723 0.443275
O O13 0.263707 0.122208 0.845586
O O14 0.018326 0.378454 0.104038
O O15 0.138707 0.785756 0.692153
O O16 0.000000 0.913541 0.750000
#
# Coordination Sequence:
#
# PCOD8121633 Si02
#       8
#     4   4   4   4   2   4   4   4
#     4  12  24  36  64 101 132 172 217 266 317 393
#     4  11  23  42  67  91 127 168 224 263 332 389
#     4   9  20  40  63  88 128 173 214 251 322 389
#     4  10  22  45  66  90 128 170 216 267 325 391
#     4  12  22  42  64  96 144 178 214 264 334 384
#     4  12  25  41  69  95 121 172 218 276 336 389
#     4  12  24  41  63  98 134 168 217 275 324 380
#     4  10  23  42  64  93 130 174 213 270 324 384
#
# _framework density 21.958584999999999
#
# number of rings (size 3 to 8) (size 9 to 14) (size 15 to 20)
#    0.000    1.067    2.000    6.000    1.867    3.733 
#    0.000    1.333    0.000    0.000    0.000    0.000 
#    0.000    0.000    0.000    0.000    0.000    0.000 
#
# Total GULP energy -371642.549302 kJ/mol
# GULP energy per Si atom -12388.084977 kJ/mol
# Density = 2.190861 g / cm^3
# Si number density = 21.958585 Si / 1000 Ang^3
#
#
#
# Elastic Constant Matrix: (Units=GPa)
#
#
# Indices 1 2 3 4 5 6 
#
# 1 84.8323 42.4344 40.2678 0.0000 -7.1681 0.0000
# 2 42.4344 77.9592 39.5542 0.0000 -7.7173 0.0000
# 3 40.2678 39.5542 96.7599 0.0000 -4.4887 0.0000
# 4 0.0000 0.0000 0.0000 23.0139 0.0000 1.8748
# 5 -7.1681 -7.7173 -4.4887 0.0000 24.6279 0.0000
# 6 0.0000 0.0000 0.0000 1.8748 0.0000 31.8193
#
#
#
# Elastic Compliance Matrix: (Units=1/GPa)
#
#
# Indices 1 2 3 4 5 6 
#
# 1 0.017599 -0.007199 -0.004284 0.000000 0.002086 0.000000
# 2 -0.007199 0.019509 -0.004833 0.000000 0.003137 0.000000
# 3 -0.004284 -0.004833 0.014085 0.000000 -0.000194 0.000000
# 4 0.000000 0.000000 0.000000 0.043661 0.000000 -0.002573
# 5 0.002086 0.003137 -0.000194 0.000000 0.042159 0.000000
# 6 0.000000 0.000000 0.000000 -0.002573 0.000000 0.031579
#
#
# Mechanical properties :
#
#
# Convention : Reuss Voigt Hill
#
# Bulk Modulus (GPa) = 53.88359 56.00713 54.94536
# Shear Modulus (GPa) = 24.10664 25.04522 24.57593
#
# Velocity S-wave (km/s) = 3.31694 3.38089 3.34907
# Velocity P-wave (km/s) = 6.26589 6.38762 6.32705
#
# Compressibility (1/GPa) = 0.01855853
#
# Stress axis : x y z
#
# Youngs Moduli (GPa) = 56.82140 51.25928 70.99937
#
# Poissons Ratio (x) = 0.36903 0.30419
# Poissons Ratio (y) = 0.40907 0.34316
# Poissons Ratio (z) = 0.24344 0.24775
#
# Static dielectric constant tensor:
#      x y z
#    x 3.734670 0.000000 -0.029740 
#    y 0.000000 4.066490 0.000000 
#    z -0.029740 0.000000 4.011350 
# 
# 
# High freq. dielectric constant tensor:
#      x y z
#    x 1.843800 0.000000 -0.001360 
#    y 0.000000 1.861330 0.000000 
#    z -0.001360 0.000000 1.869230 
# 
# From -- ./inp_files/40868.got.cif
#   From: 2010.06.25/outbox.cif.g09.slc.cpg/sg13_21_cif.got.tgz:40868.got - 2010.06.28 04:50:58.
