data_PCOD8121298
_publ_section_title
;
Structure prediction by ZEFSAII (Michael W. Deem and Ramdas Pophale) SiO2 
 PCOD8121298
Probable space group: P 2/C
;
_chemical_formula_sum "Si O2"
_cell_formula_units_Z 24
_cell_length_a 14.496861
_cell_length_b 8.897392
_cell_length_c 17.290798
_cell_angle_alpha 90.000000
_cell_angle_beta 30.684872
_cell_angle_gamma 90.000000
_cell_volume 1138.127224
_symmetry_space_group_name_H-M "P 2/C"
_symmetry_group_IT_number 13
_symmetry_cell_setting 'monoclinic'
loop_
_space_group_symop_operation_xyz
x,y,z
-x,y,1/2-z
-x,-y,-z
x,-y,1/2+z
loop_
_atom_site_type_symbol
_atom_site_label
_atom_site_fract_x
_atom_site_fract_y
_atom_site_fract_z
Si Si1 0.179581 0.620355 0.165186
Si Si2 0.632476 0.839295 0.212116
Si Si3 0.684679 0.083681 0.849225
Si Si4 0.494056 0.510101 0.338957
Si Si5 0.147358 0.569579 0.837449
Si Si6 0.021373 0.892794 0.911732
O O1 0.289995 0.759508 0.123838
O O2 0.117377 0.502769 0.275159
O O3 0.000000 0.677458 0.250000
O O4 0.304860 0.530787 0.014903
O O5 0.500000 0.935046 0.250000
O O6 0.675171 0.906807 0.263824
O O7 0.521901 0.686695 0.306615
O O8 0.823862 0.831787 0.027760
O O9 0.864704 0.982901 0.736479
O O10 0.500000 0.000000 0.000000
O O11 0.500000 0.430951 0.250000
O O12 0.650649 0.457669 0.281889
O O13 0.137312 0.747423 0.847665
O O14 0.000000 0.500000 0.000000
O O15 0.000000 0.000000 0.000000
#
# Coordination Sequence:
#
# PCOD8121298 Si02
#       6
#     4   4   4   4   4   4
#     4  12  27  43  67 104 138 179 237 293 353 425
#     4  10  22  41  65  96 132 171 229 279 338 416
#     4  11  24  45  67  98 138 181 227 285 353 419
#     4  11  23  41  67 100 131 173 232 290 346 405
#     4  12  21  42  71  98 135 180 226 295 348 411
#     4  10  22  41  64  96 132 179 223 272 350 422
#
# _framework density 21.087273
#
# number of rings (size 3 to 8) (size 9 to 14) (size 15 to 20)
#    0.000    1.000    3.333    3.500    4.667    1.333 
#    0.000    6.667    0.000    0.000    0.000    0.000 
#    0.000    0.000    0.000    0.000    0.000    0.000 
#
# Total GULP energy -297327.520858 kJ/mol
# GULP energy per Si atom -12388.646702 kJ/mol
# Density = 2.103928 g / cm^3
# Si number density = 21.087273 Si / 1000 Ang^3
#
#
#
# Elastic Constant Matrix: (Units=GPa)
#
#
# Indices 1 2 3 4 5 6 
#
# 1 115.2995 16.6443 42.3858 0.0000 -6.2233 0.0000
# 2 16.6443 110.7902 45.9127 0.0000 7.5467 0.0000
# 3 42.3858 45.9127 171.6574 0.0000 -2.5855 0.0000
# 4 0.0000 0.0000 0.0000 33.0402 0.0000 -1.8145
# 5 -6.2233 7.5467 -2.5855 0.0000 37.0512 0.0000
# 6 0.0000 0.0000 0.0000 -1.8145 0.0000 8.8392
#
#
#
# Elastic Compliance Matrix: (Units=1/GPa)
#
#
# Indices 1 2 3 4 5 6 
#
# 1 0.009657 -0.000654 -0.002185 0.000000 0.001603 0.000000
# 2 -0.000654 0.010388 -0.002653 0.000000 -0.002411 0.000000
# 3 -0.002185 -0.002653 0.007085 0.000000 0.000668 0.000000
# 4 0.000000 0.000000 0.000000 0.030611 0.000000 0.006284
# 5 0.001603 -0.002411 0.000668 0.000000 0.027797 0.000000
# 6 0.000000 0.000000 0.000000 0.006284 0.000000 0.114422
#
#
# Mechanical properties :
#
#
# Convention : Reuss Voigt Hill
#
# Bulk Modulus (GPa) = 61.94105 67.51475 64.72790
# Shear Modulus (GPa) = 23.11306 35.30640 29.20973
#
# Velocity S-wave (km/s) = 3.31428 4.09626 3.72584
# Velocity P-wave (km/s) = 6.63953 7.37962 7.01934
#
# Compressibility (1/GPa) = 0.01614438
#
# Stress axis : x y z
#
# Youngs Moduli (GPa) = 103.54696 96.26371 141.14527
#
# Poissons Ratio (x) = 0.06299 0.30847
# Poissons Ratio (y) = 0.06776 0.37449
# Poissons Ratio (z) = 0.22630 0.25541
#
# Static dielectric constant tensor:
#      x y z
#    x 4.490310 0.000000 -0.590420 
#    y 0.000000 3.916540 0.000000 
#    z -0.590420 0.000000 4.258860 
# 
# 
# High freq. dielectric constant tensor:
#      x y z
#    x 1.825230 0.000000 -0.012620 
#    y 0.000000 1.818830 0.000000 
#    z -0.012620 0.000000 1.848940 
# 
# From -- ./inp_files/68071.got.cif
#   From: 2010.06.25/outbox.cif.g09.slc.cpg/sg13_35_cif.got.tgz:68071.got - 2010.06.28 04:50:58.
