data_PCOD8121601
_publ_section_title
;
Structure prediction by ZEFSAII (Michael W. Deem and Ramdas Pophale) SiO2 
 PCOD8121601
Probable space group: P 2/C
;
_chemical_formula_sum "Si O2"
_cell_formula_units_Z 26
_cell_length_a 8.163489
_cell_length_b 16.898187
_cell_length_c 13.517920
_cell_angle_alpha 90.000000
_cell_angle_beta 138.802050
_cell_angle_gamma 90.000000
_cell_volume 1228.255619
_symmetry_space_group_name_H-M "P 2/C"
_symmetry_group_IT_number 13
_symmetry_cell_setting 'monoclinic'
loop_
_space_group_symop_operation_xyz
x,y,z
-x,y,1/2-z
-x,-y,-z
x,-y,1/2+z
loop_
_atom_site_type_symbol
_atom_site_label
_atom_site_fract_x
_atom_site_fract_y
_atom_site_fract_z
Si Si1 0.002509 0.087142 0.958327
Si Si2 0.500000 0.173448 0.250000
Si Si3 0.390021 0.719870 0.383965
Si Si4 0.500000 0.818890 0.250000
Si Si5 0.101366 0.565284 0.190991
Si Si6 0.779169 0.721167 0.716913
Si Si7 0.000000 0.152592 0.750000
Si Si8 0.231503 0.411649 0.147675
O O1 0.752895 0.131420 0.880465
O O2 0.985391 0.090874 0.832621
O O3 0.267929 0.123011 0.106984
O O4 0.000000 0.000000 0.000000
O O5 0.375354 0.220119 0.284079
O O6 0.519978 0.762594 0.352600
O O7 0.239901 0.646825 0.271447
O O8 0.584412 0.684428 0.550235
O O9 0.229641 0.787331 0.365575
O O10 0.267354 0.496173 0.218285
O O11 0.000000 0.533918 0.250000
O O12 0.889243 0.582591 0.014551
O O13 0.902316 0.650940 0.839566
O O14 0.000000 0.760727 0.750000
O O15 0.500000 0.374574 0.250000
#
# Coordination Sequence:
#
# PCOD8121601 Si02
#       8
#     4   2   4   2   4   4   2   4
#     4  11  24  48  72 103 143 184 227 296 360 430
#     4  12  25  46  75 108 146 186 240 300 357 424
#     4  11  23  42  69  98 134 185 227 291 347 423
#     4  10  25  42  71 104 140 178 244 280 349 452
#     4  11  25  42  65  93 136 189 239 288 363 416
#     4  12  26  43  71 105 143 187 241 303 355 418
#     4  10  22  44  70 102 132 180 228 270 358 430
#     4  11  26  42  64  99 140 184 240 305 352 417
#
# _framework density 21.168232
#
# number of rings (size 3 to 8) (size 9 to 14) (size 15 to 20)
#    0.000    0.923    3.077    2.769    7.538    3.692 
#    4.154    2.308    0.000    0.000    0.000    0.000 
#    0.000    0.000    0.000    0.000    0.000    0.000 
#
# Total GULP energy -322129.807189 kJ/mol
# GULP energy per Si atom -12389.607969 kJ/mol
# Density = 2.112005 g / cm^3
# Si number density = 21.168232 Si / 1000 Ang^3
#
#
#
# Elastic Constant Matrix: (Units=GPa)
#
#
# Indices 1 2 3 4 5 6 
#
# 1 144.9719 48.5689 51.8843 0.0000 -0.0022 0.0000
# 2 48.5689 109.5027 41.1149 0.0000 -8.3581 0.0000
# 3 51.8843 41.1149 107.9129 0.0000 -7.3411 0.0000
# 4 0.0000 0.0000 0.0000 38.6202 0.0000 -9.3316
# 5 -0.0022 -8.3581 -7.3411 0.0000 35.1719 0.0000
# 6 0.0000 0.0000 0.0000 -9.3316 0.0000 23.7556
#
#
#
# Elastic Compliance Matrix: (Units=1/GPa)
#
#
# Indices 1 2 3 4 5 6 
#
# 1 0.009059 -0.002862 -0.003359 0.000000 -0.001381 0.000000
# 2 -0.002862 0.011663 -0.002921 0.000000 0.002162 0.000000
# 3 -0.003359 -0.002921 0.012119 0.000000 0.001835 0.000000
# 4 0.000000 0.000000 0.000000 0.028609 0.000000 0.011238
# 5 -0.001381 0.002162 0.001835 0.000000 0.029329 0.000000
# 6 0.000000 0.000000 0.000000 0.011238 0.000000 0.046510
#
#
# Mechanical properties :
#
#
# Convention : Reuss Voigt Hill
#
# Bulk Modulus (GPa) = 68.68995 71.72486 70.20740
# Shear Modulus (GPa) = 31.16732 34.23081 32.69906
#
# Velocity S-wave (km/s) = 3.84130 4.02566 3.93456
# Velocity P-wave (km/s) = 7.22455 7.45418 7.34026
#
# Compressibility (1/GPa) = 0.01455817
#
# Stress axis : x y z
#
# Youngs Moduli (GPa) = 110.38862 85.73928 82.51321
#
# Poissons Ratio (x) = 0.24540 0.27716
# Poissons Ratio (y) = 0.31595 0.24098
# Poissons Ratio (z) = 0.37079 0.25040
#
# Static dielectric constant tensor:
#      x y z
#    x 4.264240 0.000000 -0.150030 
#    y 0.000000 3.666410 0.000000 
#    z -0.150030 0.000000 3.746420 
# 
# 
# High freq. dielectric constant tensor:
#      x y z
#    x 1.850390 0.000000 -0.008980 
#    y 0.000000 1.816940 0.000000 
#    z -0.008980 0.000000 1.843950 
# 
# From -- ./inp_files/47997.got.cif
#   From: 2010.06.25/outbox.cif.g09.slc.cpg/sg13_24_cif.got.tgz:47997.got - 2010.06.28 04:50:58.
