data_PCOD8121010
_publ_section_title
;
Structure prediction by ZEFSAII (Michael W. Deem and Ramdas Pophale) SiO2 
 PCOD8121010
Probable space group: P 2/C
;
_chemical_formula_sum "Si O2"
_cell_formula_units_Z 28
_cell_length_a 11.925306
_cell_length_b 9.290036
_cell_length_c 15.214176
_cell_angle_alpha 90.000000
_cell_angle_beta 53.396282
_cell_angle_gamma 90.000000
_cell_volume 1353.104227
_symmetry_space_group_name_H-M "P 2/C"
_symmetry_group_IT_number 13
_symmetry_cell_setting 'monoclinic'
loop_
_space_group_symop_operation_xyz
x,y,z
-x,y,1/2-z
-x,-y,-z
x,-y,1/2+z
loop_
_atom_site_type_symbol
_atom_site_label
_atom_site_fract_x
_atom_site_fract_y
_atom_site_fract_z
Si Si1 0.839486 0.369641 0.515287
Si Si2 0.407008 0.066072 0.467195
Si Si3 0.140386 0.811250 0.650672
Si Si4 0.343695 0.132092 0.839945
Si Si5 0.320445 0.862721 0.736248
Si Si6 0.864005 0.316649 0.052455
Si Si7 0.890735 0.127867 0.874717
O O1 0.789914 0.308522 0.444208
O O2 0.755395 0.271468 0.624396
O O3 0.801613 0.537085 0.540199
O O4 0.005847 0.350115 0.445854
O O5 0.511557 0.159936 0.356183
O O6 0.276102 0.157037 0.568101
O O7 0.500000 0.000000 0.500000
O O8 0.335624 0.940775 0.440967
O O9 0.247862 0.856532 0.675654
O O10 0.000000 0.734863 0.750000
O O11 0.087089 0.956118 0.624902
O O12 0.500000 0.185366 0.750000
O O13 0.293307 0.020330 0.789143
O O14 0.262146 0.745568 0.830771
O O15 0.920647 0.207770 0.952142
O O16 0.000000 0.187830 0.750000
#
# Coordination Sequence:
#
# PCOD8121010 Si02
#       7
#     4   4   4   4   4   4   4
#     4  11  23  42  60  90 134 170 210 256 320 388
#     4  11  20  38  65  96 128 155 206 271 326 363
#     4  11  21  36  65  94 121 163 212 267 320 374
#     4  10  22  38  63  92 121 165 207 266 315 374
#     4  11  21  39  67  97 125 162 216 266 323 375
#     4  11  25  41  62  93 130 176 212 260 317 389
#     4  11  24  40  62  97 120 167 217 270 317 373
#
# _framework density 20.693158
#
# number of rings (size 3 to 8) (size 9 to 14) (size 15 to 20)
#    0.000    1.143    5.714    0.000    4.000    1.714 
#    2.571    0.000    0.000    1.714    0.000    0.000 
#    0.000    0.000    0.000    0.000    0.000    0.000 
#
# Total GULP energy -347023.580617 kJ/mol
# GULP energy per Si atom -12393.699308 kJ/mol
# Density = 2.064606 g / cm^3
# Si number density = 20.693158 Si / 1000 Ang^3
#
#
#
# Elastic Constant Matrix: (Units=GPa)
#
#
# Indices 1 2 3 4 5 6 
#
# 1 63.7088 29.0101 37.1343 0.0000 -5.3991 0.0000
# 2 29.0101 114.5504 60.0585 0.0000 -0.0596 0.0000
# 3 37.1343 60.0585 136.6251 0.0000 -18.0993 0.0000
# 4 0.0000 0.0000 0.0000 19.1834 0.0000 -3.4529
# 5 -5.3991 -0.0596 -18.0993 0.0000 50.0586 0.0000
# 6 0.0000 0.0000 0.0000 -3.4529 0.0000 24.9930
#
#
#
# Elastic Compliance Matrix: (Units=1/GPa)
#
#
# Indices 1 2 3 4 5 6 
#
# 1 0.019330 -0.002841 -0.003916 0.000000 0.000665 0.000000
# 2 -0.002841 0.011933 -0.004739 0.000000 -0.002006 0.000000
# 3 -0.003916 -0.004739 0.010934 0.000000 0.003525 0.000000
# 4 0.000000 0.000000 0.000000 0.053458 0.000000 0.007386
# 5 0.000665 -0.002006 0.003525 0.000000 0.021321 0.000000
# 6 0.000000 0.000000 0.000000 0.007386 0.000000 0.041032
#
#
# Mechanical properties :
#
#
# Convention : Reuss Voigt Hill
#
# Bulk Modulus (GPa) = 52.07629 63.03223 57.55426
# Shear Modulus (GPa) = 26.68074 31.42576 29.05325
#
# Velocity S-wave (km/s) = 3.59465 3.90122 3.75107
# Velocity P-wave (km/s) = 6.51531 7.12876 6.82893
#
# Compressibility (1/GPa) = 0.01920260
#
# Stress axis : x y z
#
# Youngs Moduli (GPa) = 51.73435 83.80139 91.45803
#
# Poissons Ratio (x) = 0.23812 0.35819
# Poissons Ratio (y) = 0.14700 0.43342
# Poissons Ratio (z) = 0.20262 0.39713
#
# Static dielectric constant tensor:
#      x y z
#    x 3.750640 0.000000 -0.259110 
#    y 0.000000 3.490170 0.000000 
#    z -0.259110 0.000000 4.252520 
# 
# 
# High freq. dielectric constant tensor:
#      x y z
#    x 1.806290 0.000000 -0.014220 
#    y 0.000000 1.767140 0.000000 
#    z -0.014220 0.000000 1.835510 
# 
# From -- ./inp_files/50241.got.cif
#   From: 2010.06.25/outbox.cif.g09.slc.cpg/sg13_26_cif.got.tgz:50241.got - 2010.06.28 04:50:58.
