data_PCOD8121049
_publ_section_title
;
Structure prediction by ZEFSAII (Michael W. Deem and Ramdas Pophale) SiO2 
 PCOD8121049
Probable space group: P 2/C
;
_chemical_formula_sum "Si O2"
_cell_formula_units_Z 24
_cell_length_a 9.591386
_cell_length_b 8.640889
_cell_length_c 21.518416
_cell_angle_alpha 90.000000
_cell_angle_beta 135.627169
_cell_angle_gamma 90.000000
_cell_volume 1247.179081
_symmetry_space_group_name_H-M "P 2/C"
_symmetry_group_IT_number 13
_symmetry_cell_setting 'monoclinic'
loop_
_space_group_symop_operation_xyz
x,y,z
-x,y,1/2-z
-x,-y,-z
x,-y,1/2+z
loop_
_atom_site_type_symbol
_atom_site_label
_atom_site_fract_x
_atom_site_fract_y
_atom_site_fract_z
Si Si1 0.002626 0.866556 0.583514
Si Si2 0.027054 0.877663 0.187815
Si Si3 0.643174 0.714289 0.009960
Si Si4 0.684350 0.073449 0.411596
Si Si5 0.453875 0.781645 0.304567
Si Si6 0.332685 0.642271 0.012090
O O1 0.893700 0.705158 0.564596
O O2 0.204052 0.833731 0.608328
O O3 0.847797 0.966890 0.495456
O O4 0.059902 0.960408 0.663266
O O5 0.218133 0.767198 0.240401
O O6 0.000000 0.923478 0.250000
O O7 0.840531 0.781776 0.103568
O O8 0.462559 0.730576 0.001047
O O9 0.587047 0.808160 0.929724
O O10 0.679995 0.538239 0.003771
O O11 0.513428 0.962265 0.330542
O O12 0.500000 0.722201 0.250000
O O13 0.570616 0.672047 0.389749
#
# Coordination Sequence:
#
# PCOD8121049 Si02
#       6
#     4   4   4   4   4   4
#     4   9  19  35  56  82 108 144 187 227 278 338
#     4  11  21  36  60  86 111 148 194 244 286 329
#     4  10  22  39  57  83 118 155 192 227 281 350
#     4   9  19  35  57  81 109 143 185 231 276 338
#     4  11  21  38  60  84 115 146 189 246 290 327
#     4  10  22  39  58  82 117 158 189 227 283 349
#
# _framework density 19.243428000000002
#
# number of rings (size 3 to 8) (size 9 to 14) (size 15 to 20)
#    0.000    2.000    3.333    0.000    4.667    2.667 
#    0.000    3.333    0.000    0.000    0.000    0.000 
#    0.000    0.000    0.000    0.000    0.000    0.000 
#
# Total GULP energy -297610.434179 kJ/mol
# GULP energy per Si atom -12400.434757 kJ/mol
# Density = 1.919963 g / cm^3
# Si number density = 19.243428 Si / 1000 Ang^3
#
#
#
# Elastic Constant Matrix: (Units=GPa)
#
#
# Indices 1 2 3 4 5 6 
#
# 1 113.9935 24.4322 31.4883 0.0000 -28.4216 0.0000
# 2 24.4322 55.7074 20.2109 0.0000 -13.2906 0.0000
# 3 31.4883 20.2109 71.5036 0.0000 -20.0562 0.0000
# 4 0.0000 0.0000 0.0000 97.0022 0.0000 10.9785
# 5 -28.4216 -13.2906 -20.0562 0.0000 35.3334 0.0000
# 6 0.0000 0.0000 0.0000 10.9785 0.0000 32.0896
#
#
#
# Elastic Compliance Matrix: (Units=1/GPa)
#
#
# Indices 1 2 3 4 5 6 
#
# 1 0.011777 -0.002576 -0.002465 0.000000 0.007105 0.000000
# 2 -0.002576 0.021380 -0.003847 0.000000 0.003787 0.000000
# 3 -0.002465 -0.003847 0.018074 0.000000 0.006829 0.000000
# 4 0.000000 0.000000 0.000000 0.010724 0.000000 -0.003669
# 5 0.007105 0.003787 0.006829 0.000000 0.039318 0.000000
# 6 0.000000 0.000000 0.000000 -0.003669 0.000000 0.032418
#
#
# Mechanical properties :
#
#
# Convention : Reuss Voigt Hill
#
# Bulk Modulus (GPa) = 29.89095 43.71857 36.80476
# Shear Modulus (GPa) = 30.74706 43.88992 37.31849
#
# Velocity S-wave (km/s) = 4.00158 4.78093 4.40851
# Velocity P-wave (km/s) = 6.07593 7.29687 6.71421
#
# Compressibility (1/GPa) = 0.03345494
#
# Stress axis : x y z
#
# Youngs Moduli (GPa) = 84.91183 46.77373 55.32867
#
# Poissons Ratio (x) = 0.12047 0.13640
# Poissons Ratio (y) = 0.21870 0.21283
# Poissons Ratio (z) = 0.20934 0.17993
#
# Static dielectric constant tensor:
#      x y z
#    x 3.922860 0.000000 -0.053940 
#    y 0.000000 3.267860 0.000000 
#    z -0.053940 0.000000 3.568570 
# 
# 
# High freq. dielectric constant tensor:
#      x y z
#    x 1.769550 0.000000 -0.007500 
#    y 0.000000 1.719950 0.000000 
#    z -0.007500 0.000000 1.745180 
# 
# From -- ./inp_files/52854.got.cif
#   From: 2010.06.25/outbox.cif.g09.slc.cpg/sg13_27_cif.got.tgz:52854.got - 2010.06.28 04:50:58.
