data_PCOD8121081
_publ_section_title
;
Structure prediction by ZEFSAII (Michael W. Deem and Ramdas Pophale) SiO2 
 PCOD8121081
Probable space group: P 2/C
;
_chemical_formula_sum "Si O2"
_cell_formula_units_Z 16
_cell_length_a 11.756318
_cell_length_b 15.123685
_cell_length_c 5.027513
_cell_angle_alpha 90.000000
_cell_angle_beta 119.481858
_cell_angle_gamma 90.000000
_cell_volume 778.138134
_symmetry_space_group_name_H-M "P 2/C"
_symmetry_group_IT_number 13
_symmetry_cell_setting 'monoclinic'
loop_
_space_group_symop_operation_xyz
x,y,z
-x,y,1/2-z
-x,-y,-z
x,-y,1/2+z
loop_
_atom_site_type_symbol
_atom_site_label
_atom_site_fract_x
_atom_site_fract_y
_atom_site_fract_z
Si Si1 0.282519 0.442084 0.739300
Si Si2 0.705434 0.792049 0.849163
Si Si3 0.500000 0.649198 0.750000
Si Si4 0.500000 0.937542 0.750000
Si Si5 0.850120 0.739513 0.508720
O O1 0.256623 0.521600 0.506812
O O2 0.185508 0.363908 0.542199
O O3 0.433129 0.407622 0.934687
O O4 0.824826 0.780667 0.190566
O O5 0.611360 0.707354 0.740499
O O6 0.628243 0.878383 0.855013
O O7 0.763265 0.795752 0.618873
O O8 0.500000 0.000000 0.500000
O O9 0.000000 0.750691 0.750000
#
# Coordination Sequence:
#
# PCOD8121081 Si02
#       5
#     4   4   2   2   4
#     4  11  22  34  53  81 114 152 199 257 305 337
#     4  10  22  39  62  89 115 151 195 232 285 359
#     4   9  20  36  56  81 114 150 194 247 306 356
#     4  11  22  40  70 101 126 142 170 235 300 350
#     4  11  23  40  59  80 115 164 207 239 277 336
#
# _framework density 20.561902
#
# number of rings (size 3 to 8) (size 9 to 14) (size 15 to 20)
#    0.000    1.500    0.000    6.000    0.000   13.000 
#    0.000    0.000    0.000   15.000    0.000    0.000 
#    0.000    0.000    0.000    0.000    0.000    0.000 
#
# Total GULP energy -198323.526039 kJ/mol
# GULP energy per Si atom -12395.220377 kJ/mol
# Density = 2.051510 g / cm^3
# Si number density = 20.561902 Si / 1000 Ang^3
#
#
#
# Elastic Constant Matrix: (Units=GPa)
#
#
# Indices 1 2 3 4 5 6 
#
# 1 75.6179 26.1511 26.7529 0.0000 -2.3806 0.0000
# 2 26.1511 99.0347 23.7168 0.0000 -0.6337 0.0000
# 3 26.7529 23.7168 77.3366 0.0000 0.9525 0.0000
# 4 0.0000 0.0000 0.0000 33.4657 0.0000 -11.7265
# 5 -2.3806 -0.6337 0.9525 0.0000 44.9808 0.0000
# 6 0.0000 0.0000 0.0000 -11.7265 0.0000 19.4967
#
#
#
# Elastic Compliance Matrix: (Units=1/GPa)
#
#
# Indices 1 2 3 4 5 6 
#
# 1 0.015946 -0.003110 -0.004574 0.000000 0.000897 0.000000
# 2 -0.003110 0.011507 -0.002454 0.000000 0.000049 0.000000
# 3 -0.004574 -0.002454 0.015272 0.000000 -0.000600 0.000000
# 4 0.000000 0.000000 0.000000 0.037861 0.000000 0.022772
# 5 0.000897 0.000049 -0.000600 0.000000 0.022293 0.000000
# 6 0.000000 0.000000 0.000000 0.022772 0.000000 0.064987
#
#
# Mechanical properties :
#
#
# Convention : Reuss Voigt Hill
#
# Bulk Modulus (GPa) = 44.54077 45.02562 44.78320
# Shear Modulus (GPa) = 25.55940 31.27988 28.41964
#
# Velocity S-wave (km/s) = 3.52951 3.90456 3.72176
# Velocity P-wave (km/s) = 6.19021 6.50173 6.34789
#
# Compressibility (1/GPa) = 0.02245134
#
# Stress axis : x y z
#
# Youngs Moduli (GPa) = 62.71101 86.90733 65.47733
#
# Poissons Ratio (x) = 0.27026 0.29947
# Poissons Ratio (y) = 0.19501 0.16065
# Poissons Ratio (z) = 0.28682 0.21323
#
# Static dielectric constant tensor:
#      x y z
#    x 3.520850 0.000000 -0.061780 
#    y 0.000000 3.938590 0.000000 
#    z -0.061780 0.000000 3.996030 
# 
# 
# High freq. dielectric constant tensor:
#      x y z
#    x 1.788980 0.000000 -0.011450 
#    y 0.000000 1.793950 0.000000 
#    z -0.011450 0.000000 1.822030 
# 
# From -- ./inp_files/3138.got.cif
#   From: 2010.06.25/outbox.cif.g09.slc.cpg/sg13_2_cif.got.tgz:3138.got - 2010.06.28 04:50:58.
