data_PCOD8121427
_publ_section_title
;
Structure prediction by ZEFSAII (Michael W. Deem and Ramdas Pophale) SiO2 
 PCOD8121427
Probable space group: P 2/C
;
_chemical_formula_sum "Si O2"
_cell_formula_units_Z 26
_cell_length_a 15.765820
_cell_length_b 5.271085
_cell_length_c 14.539445
_cell_angle_alpha 90.000000
_cell_angle_beta 111.419386
_cell_angle_gamma 90.000000
_cell_volume 1124.818666
_symmetry_space_group_name_H-M "P 2/C"
_symmetry_group_IT_number 13
_symmetry_cell_setting 'monoclinic'
loop_
_space_group_symop_operation_xyz
x,y,z
-x,y,1/2-z
-x,-y,-z
x,-y,1/2+z
loop_
_atom_site_type_symbol
_atom_site_label
_atom_site_fract_x
_atom_site_fract_y
_atom_site_fract_z
Si Si1 0.199549 0.590180 0.218271
Si Si2 0.616580 0.116381 0.657578
Si Si3 0.060279 0.746216 0.018995
Si Si4 0.662982 0.265453 0.313817
Si Si5 0.698234 0.911959 0.012048
Si Si6 0.808796 0.402827 0.090083
Si Si7 0.500000 0.391421 0.750000
O O1 0.287133 0.752298 0.280701
O O2 0.126544 0.758655 0.134146
O O3 0.236228 0.378957 0.161303
O O4 0.154793 0.463648 0.292049
O O5 0.610119 0.130836 0.543982
O O6 0.528458 0.234563 0.670742
O O7 0.624799 0.833690 0.701412
O O8 0.112549 0.713083 0.943256
O O9 0.000000 0.500000 0.000000
O O10 0.000000 0.000000 0.000000
O O11 0.668779 0.045530 0.394299
O O12 0.587942 0.460211 0.321552
O O13 0.763586 0.662538 0.034302
O O14 0.739355 0.168896 0.069290
#
# Coordination Sequence:
#
# PCOD8121427 Si02
#       7
#     4   4   4   4   4   4   2
#     4  10  23  43  71  95 139 185 229 286 343 419
#     4  10  22  42  66  98 133 180 234 280 350 413
#     4  12  27  44  70 107 143 179 230 291 355 422
#     4  11  21  42  68  96 136 183 232 284 353 404
#     4  11  23  39  75  99 129 184 238 283 334 423
#     4  11  23  45  69 104 134 180 239 279 347 420
#     4  10  24  40  60 100 142 180 224 296 348 414
#
# _framework density 23.114834999999999
#
# number of rings (size 3 to 8) (size 9 to 14) (size 15 to 20)
#    0.000    1.231    3.077    2.308    4.308    1.231 
#    0.000    4.615    0.000    0.000    0.000    0.000 
#    0.000    0.000    0.000    0.000    0.000    0.000 
#
# Total GULP energy -322155.968888 kJ/mol
# GULP energy per Si atom -12390.614188 kJ/mol
# Density = 2.306222 g / cm^3
# Si number density = 23.114835 Si / 1000 Ang^3
#
#
#
# Elastic Constant Matrix: (Units=GPa)
#
#
# Indices 1 2 3 4 5 6 
#
# 1 100.5560 20.0888 31.9738 0.0000 -31.8061 0.0000
# 2 20.0888 102.4227 7.2617 0.0000 -3.5685 0.0000
# 3 31.9738 7.2617 99.2749 0.0000 -30.0034 0.0000
# 4 0.0000 0.0000 0.0000 29.9846 0.0000 -0.0192
# 5 -31.8061 -3.5685 -30.0034 0.0000 32.5107 0.0000
# 6 0.0000 0.0000 0.0000 -0.0192 0.0000 30.2825
#
#
#
# Elastic Compliance Matrix: (Units=1/GPa)
#
#
# Indices 1 2 3 4 5 6 
#
# 1 0.014996 -0.002423 -0.000415 0.000000 0.014022 0.000000
# 2 -0.002423 0.010214 -0.000477 0.000000 -0.001690 0.000000
# 3 -0.000415 -0.000477 0.014011 0.000000 0.012472 0.000000
# 4 0.000000 0.000000 0.000000 0.033350 0.000000 0.000021
# 5 0.014022 -0.001690 0.012472 0.000000 0.055802 0.000000
# 6 0.000000 0.000000 0.000000 0.000021 0.000000 0.033022
#
#
# Mechanical properties :
#
#
# Convention : Reuss Voigt Hill
#
# Bulk Modulus (GPa) = 30.68447 46.76691 38.72569
# Shear Modulus (GPa) = 27.95013 34.75085 31.35049
#
# Velocity S-wave (km/s) = 3.48111 3.88158 3.68678
# Velocity P-wave (km/s) = 5.42781 6.35336 5.90873
#
# Compressibility (1/GPa) = 0.03258978
#
# Stress axis : x y z
#
# Youngs Moduli (GPa) = 66.68468 97.90750 71.37260
#
# Poissons Ratio (x) = 0.23726 0.02959
# Poissons Ratio (y) = 0.16160 0.03408
# Poissons Ratio (z) = 0.02765 0.04675
#
# Static dielectric constant tensor:
#      x y z
#    x 4.461700 0.000000 -1.179940 
#    y 0.000000 4.340180 0.000000 
#    z -1.179940 0.000000 6.092220 
# 
# 
# High freq. dielectric constant tensor:
#      x y z
#    x 1.907380 0.000000 -0.032600 
#    y 0.000000 1.920480 0.000000 
#    z -0.032600 0.000000 1.914690 
# 
# From -- ./inp_files/52304.got.cif
#   From: 2010.06.25/outbox.cif.g09.slc.cpg/sg13_27_cif.got.tgz:52304.got - 2010.06.28 04:50:58.
