data_PCOD8121051
_publ_section_title
;
Structure prediction by ZEFSAII (Michael W. Deem and Ramdas Pophale) SiO2 
 PCOD8121051
Probable space group: P 2/C
;
_chemical_formula_sum "Si O2"
_cell_formula_units_Z 16
_cell_length_a 9.005784
_cell_length_b 7.053748
_cell_length_c 27.401315
_cell_angle_alpha 90.000000
_cell_angle_beta 27.992307
_cell_angle_gamma 90.000000
_cell_volume 816.981978
_symmetry_space_group_name_H-M "P 2/C"
_symmetry_group_IT_number 13
_symmetry_cell_setting 'monoclinic'
loop_
_space_group_symop_operation_xyz
x,y,z
-x,y,1/2-z
-x,-y,-z
x,-y,1/2+z
loop_
_atom_site_type_symbol
_atom_site_label
_atom_site_fract_x
_atom_site_fract_y
_atom_site_fract_z
Si Si1 0.235477 0.695149 0.290058
Si Si2 0.354199 0.122005 0.499453
Si Si3 0.790294 0.530859 0.854597
Si Si4 0.646053 0.849810 0.345477
O O1 0.500000 0.614684 0.250000
O O2 0.411953 0.804343 0.194495
O O3 0.015160 0.843598 0.383437
O O4 0.026096 0.520961 0.330705
O O5 0.528416 0.323980 0.448337
O O6 0.500000 0.000000 0.500000
O O7 0.397112 0.007619 0.436175
O O8 0.614832 0.340433 0.887074
O O9 0.000000 0.619093 0.750000
O O10 0.000000 0.931988 0.250000
#
# Coordination Sequence:
#
# PCOD8121051 Si02
#       4
#     4   4   4   4
#     4  10  22  39  57  88 126 148 187 251 293 333
#     4  12  20  34  68  84 110 157 203 228 284 353
#     4   9  20  37  61  82 112 153 200 231 278 349
#     4   9  19  37  57  87 115 149 201 238 272 345
#
# _framework density 19.584277
#
# number of rings (size 3 to 8) (size 9 to 14) (size 15 to 20)
#    0.000    2.500    5.000    1.500    0.000    1.000 
#    0.000    6.250    0.000    0.000    0.000    0.000 
#    0.000    0.000    0.000    0.000    0.000    0.000 
#
# Total GULP energy -198349.482168 kJ/mol
# GULP energy per Si atom -12396.842636 kJ/mol
# Density = 1.953970 g / cm^3
# Si number density = 19.584277 Si / 1000 Ang^3
#
#
#
# Elastic Constant Matrix: (Units=GPa)
#
#
# Indices 1 2 3 4 5 6 
#
# 1 122.7482 36.9273 46.1658 0.0000 4.9273 0.0000
# 2 36.9273 95.1511 57.3583 0.0000 4.3363 0.0000
# 3 46.1658 57.3583 89.1027 0.0000 14.4437 0.0000
# 4 0.0000 0.0000 0.0000 37.5823 0.0000 10.3429
# 5 4.9273 4.3363 14.4437 0.0000 20.8557 0.0000
# 6 0.0000 0.0000 0.0000 10.3429 0.0000 13.4010
#
#
#
# Elastic Compliance Matrix: (Units=1/GPa)
#
#
# Indices 1 2 3 4 5 6 
#
# 1 0.010232 -0.001173 -0.004724 0.000000 0.001098 0.000000
# 2 -0.001173 0.017710 -0.011536 0.000000 0.004584 0.000000
# 3 -0.004724 -0.011536 0.023123 0.000000 -0.012499 0.000000
# 4 0.000000 0.000000 0.000000 0.033784 0.000000 -0.026075
# 5 0.001098 0.004584 -0.012499 0.000000 0.055392 0.000000
# 6 0.000000 0.000000 0.000000 -0.026075 0.000000 0.094746
#
#
# Mechanical properties :
#
#
# Convention : Reuss Voigt Hill
#
# Bulk Modulus (GPa) = 61.73386 65.32276 63.52831
# Shear Modulus (GPa) = 18.16508 25.47118 21.81813
#
# Velocity S-wave (km/s) = 3.04885 3.61029 3.34138
# Velocity P-wave (km/s) = 6.63209 7.12783 6.88442
#
# Compressibility (1/GPa) = 0.01619857
#
# Stress axis : x y z
#
# Youngs Moduli (GPa) = 97.72784 56.46589 43.24733
#
# Poissons Ratio (x) = 0.06625 0.20432
# Poissons Ratio (y) = 0.11466 0.49888
# Poissons Ratio (z) = 0.46171 0.65137
#
# Static dielectric constant tensor:
#      x y z
#    x 3.315360 0.000000 0.392040 
#    y 0.000000 3.460590 0.000000 
#    z 0.392040 0.000000 3.907410 
# 
# 
# High freq. dielectric constant tensor:
#      x y z
#    x 1.734390 0.000000 0.034080 
#    y 0.000000 1.749530 0.000000 
#    z 0.034080 0.000000 1.770750 
# 
# From -- ./inp_files/45648.got.cif
#   From: 2010.06.25/outbox.cif.g09.slc.cpg/sg13_23_cif.got.tgz:45648.got - 2010.06.28 04:50:58.
