data_PCOD8122603
_publ_section_title
;
Structure prediction by ZEFSAII (Michael W. Deem and Ramdas Pophale) SiO2 
 PCOD8122603
Probable space group: P 2/C
;
_chemical_formula_sum "Si O2"
_cell_formula_units_Z 24
_cell_length_a 22.291113
_cell_length_b 9.236944
_cell_length_c 10.187190
_cell_angle_alpha 90.000000
_cell_angle_beta 143.762611
_cell_angle_gamma 90.000000
_cell_volume 1239.935339
_symmetry_space_group_name_H-M "P 2/C"
_symmetry_group_IT_number 13
_symmetry_cell_setting 'monoclinic'
loop_
_space_group_symop_operation_xyz
x,y,z
-x,y,1/2-z
-x,-y,-z
x,-y,1/2+z
loop_
_atom_site_type_symbol
_atom_site_label
_atom_site_fract_x
_atom_site_fract_y
_atom_site_fract_z
Si Si1 0.698032 0.874768 0.662977
Si Si2 0.060188 0.431099 0.724511
Si Si3 0.738739 0.080975 0.949493
Si Si4 0.098608 0.117628 0.852373
Si Si5 0.726818 0.583957 0.406284
Si Si6 0.615954 0.571189 0.484325
O O1 0.683603 0.938370 0.491620
O O2 0.627883 0.734678 0.560067
O O3 0.668681 0.998015 0.717865
O O4 0.817140 0.831117 0.891009
O O5 0.066712 0.258280 0.712189
O O6 0.000000 0.467078 0.750000
O O7 0.000000 0.500000 0.500000
O O8 0.171954 0.493721 0.933216
O O9 0.751222 0.247265 0.933017
O O10 0.851003 0.006100 0.150783
O O11 0.000000 0.051362 0.750000
O O12 0.681393 0.549046 0.468638
O O13 0.649206 0.540854 0.154815
O O14 0.500000 0.538245 0.250000
#
# Coordination Sequence:
#
# PCOD8122603 Si02
#       6
#     4   4   4   4   4   4
#     4   9  20  41  56  84 121 157 195 253 299 361
#     4  11  23  37  60  89 123 168 200 240 306 363
#     4   9  21  35  60  83 119 157 193 245 309 345
#     4   9  20  38  58  80 125 158 198 237 295 360
#     4  11  22  41  61  91 126 152 209 259 300 368
#     4  11  23  42  66  87 117 165 206 261 317 356
#
# _framework density 19.355848999999999
#
# number of rings (size 3 to 8) (size 9 to 14) (size 15 to 20)
#    1.000    1.000    1.667    1.500    7.000    5.333 
#    0.000    4.167    0.000    0.000    0.000    0.000 
#    0.000    0.000    0.000    0.000    0.000    0.000 
#
# Total GULP energy -297528.025222 kJ/mol
# GULP energy per Si atom -12397.001051 kJ/mol
# Density = 1.931179 g / cm^3
# Si number density = 19.355849 Si / 1000 Ang^3
#
#
#
# Elastic Constant Matrix: (Units=GPa)
#
#
# Indices 1 2 3 4 5 6 
#
# 1 76.2552 47.5498 12.4968 0.0000 -17.7386 0.0000
# 2 47.5498 95.1968 16.3251 0.0000 -16.0134 0.0000
# 3 12.4968 16.3251 74.4288 0.0000 -5.2236 0.0000
# 4 0.0000 0.0000 0.0000 21.9665 0.0000 4.7424
# 5 -17.7386 -16.0134 -5.2236 0.0000 31.4235 0.0000
# 6 0.0000 0.0000 0.0000 4.7424 0.0000 3.6723
#
#
#
# Elastic Compliance Matrix: (Units=1/GPa)
#
#
# Indices 1 2 3 4 5 6 
#
# 1 0.020395 -0.008867 -0.001000 0.000000 0.006828 0.000000
# 2 -0.008867 0.015690 -0.001763 0.000000 0.002697 0.000000
# 3 -0.001000 -0.001763 0.014052 0.000000 0.000873 0.000000
# 4 0.000000 0.000000 0.000000 0.063123 0.000000 -0.081517
# 5 0.006828 0.002697 0.000873 0.000000 0.037197 0.000000
# 6 0.000000 0.000000 0.000000 -0.081517 0.000000 0.377577
#
#
# Mechanical properties :
#
#
# Convention : Reuss Voigt Hill
#
# Bulk Modulus (GPa) = 37.20903 44.29158 40.75031
# Shear Modulus (GPa) = 8.92453 22.71307 15.81880
#
# Velocity S-wave (km/s) = 2.14960 3.42928 2.86188
# Velocity P-wave (km/s) = 5.04246 6.21389 5.65857
#
# Compressibility (1/GPa) = 0.02687519
#
# Stress axis : x y z
#
# Youngs Moduli (GPa) = 49.03073 63.73645 71.16629
#
# Poissons Ratio (x) = 0.56516 0.07119
# Poissons Ratio (y) = 0.43476 0.12548
# Poissons Ratio (z) = 0.04905 0.11238
#
# Static dielectric constant tensor:
#      x y z
#    x 3.473150 0.000000 -0.127640 
#    y 0.000000 3.479170 0.000000 
#    z -0.127640 0.000000 3.457160 
# 
# 
# High freq. dielectric constant tensor:
#      x y z
#    x 1.749390 0.000000 -0.007590 
#    y 0.000000 1.754350 0.000000 
#    z -0.007590 0.000000 1.747520 
# 
# From -- ./inp_files/41628.got.cif
#   From: 2010.06.25/outbox.cif.g09.slc.cpg/sg13_21_cif.got.tgz:41628.got - 2010.06.28 04:50:58.
