data_PCOD8122843
_publ_section_title
;
Structure prediction by ZEFSAII (Michael W. Deem and Ramdas Pophale) SiO2 
 PCOD8122843
Probable space group: P 2/C
;
_chemical_formula_sum "Si O2"
_cell_formula_units_Z 22
_cell_length_a 13.857385
_cell_length_b 6.523220
_cell_length_c 21.548068
_cell_angle_alpha 90.000000
_cell_angle_beta 149.065866
_cell_angle_gamma 90.000000
_cell_volume 1001.287970
_symmetry_space_group_name_H-M "P 2/C"
_symmetry_group_IT_number 13
_symmetry_cell_setting 'monoclinic'
loop_
_space_group_symop_operation_xyz
x,y,z
-x,y,1/2-z
-x,-y,-z
x,-y,1/2+z
loop_
_atom_site_type_symbol
_atom_site_label
_atom_site_fract_x
_atom_site_fract_y
_atom_site_fract_z
Si Si1 0.718671 0.360439 0.886155
Si Si2 0.204398 0.017828 0.474715
Si Si3 0.000000 0.797183 0.750000
Si Si4 0.571685 0.808525 0.998284
Si Si5 0.252855 0.492395 0.818435
Si Si6 0.977313 0.693808 0.418410
O O1 0.500000 0.405993 0.750000
O O2 0.834944 0.247740 0.895548
O O3 0.718092 0.216695 0.946836
O O4 0.833036 0.571006 0.959002
O O5 0.110114 0.062797 0.357631
O O6 0.372448 0.875479 0.541271
O O7 0.050679 0.907047 0.432196
O O8 0.855847 0.662188 0.705749
O O9 0.731719 0.711307 0.130900
O O10 0.445199 0.611304 0.910808
O O11 0.500000 0.000000 0.000000
O O12 0.144117 0.439770 0.695847
#
# Coordination Sequence:
#
# PCOD8122843 Si02
#       6
#     4   4   2   4   4   4
#     4  11  28  48  72 102 138 188 245 292 348 417
#     4  12  25  44  71 104 143 183 235 291 356 419
#     4  12  22  42  70 106 140 180 222 290 356 424
#     4  11  25  41  69 108 140 185 230 288 356 425
#     4  11  24  42  70 101 145 179 233 287 356 420
#     4  11  26  48  73  99 141 190 240 293 348 420
#
# _framework density 21.971702000000001
#
# number of rings (size 3 to 8) (size 9 to 14) (size 15 to 20)
#    0.000    0.727    3.636    2.727    5.091    0.727 
#    3.273    0.000    0.000    0.000    0.000    0.000 
#    0.000    0.000    0.000    0.000    0.000    0.000 
#
# Total GULP energy -272621.125458 kJ/mol
# GULP energy per Si atom -12391.869339 kJ/mol
# Density = 2.192169 g / cm^3
# Si number density = 21.971702 Si / 1000 Ang^3
#
#
#
# Elastic Constant Matrix: (Units=GPa)
#
#
# Indices 1 2 3 4 5 6 
#
# 1 119.6153 28.6163 41.3035 0.0000 8.2524 0.0000
# 2 28.6163 89.6539 43.4116 0.0000 6.4712 0.0000
# 3 41.3035 43.4116 142.5773 0.0000 1.3022 0.0000
# 4 0.0000 0.0000 0.0000 36.1083 0.0000 5.3993
# 5 8.2524 6.4712 1.3022 0.0000 35.4702 0.0000
# 6 0.0000 0.0000 0.0000 5.3993 0.0000 58.4671
#
#
#
# Elastic Compliance Matrix: (Units=1/GPa)
#
#
# Indices 1 2 3 4 5 6 
#
# 1 0.009705 -0.001891 -0.002219 0.000000 -0.001831 0.000000
# 2 -0.001891 0.013632 -0.003585 0.000000 -0.001915 0.000000
# 3 -0.002219 -0.003585 0.008740 0.000000 0.000849 0.000000
# 4 0.000000 0.000000 0.000000 0.028082 0.000000 -0.002593
# 5 -0.001831 -0.001915 0.000849 0.000000 0.028937 0.000000
# 6 0.000000 0.000000 0.000000 -0.002593 0.000000 0.017343
#
#
# Mechanical properties :
#
#
# Convention : Reuss Voigt Hill
#
# Bulk Modulus (GPa) = 59.92767 64.27880 62.10324
# Shear Modulus (GPa) = 39.24865 41.91011 40.57938
#
# Velocity S-wave (km/s) = 4.23108 4.37218 4.30221
# Velocity P-wave (km/s) = 7.15567 7.40316 7.28046
#
# Compressibility (1/GPa) = 0.01668678
#
# Stress axis : x y z
#
# Youngs Moduli (GPa) = 103.03826 73.35727 114.41072
#
# Poissons Ratio (x) = 0.13873 0.25387
# Poissons Ratio (y) = 0.19485 0.41019
# Poissons Ratio (z) = 0.22864 0.26301
#
# Static dielectric constant tensor:
#      x y z
#    x 4.316930 0.000000 0.081870 
#    y 0.000000 4.080900 0.000000 
#    z 0.081870 0.000000 4.000660 
# 
# 
# High freq. dielectric constant tensor:
#      x y z
#    x 1.877630 0.000000 0.002550 
#    y 0.000000 1.872440 0.000000 
#    z 0.002550 0.000000 1.867930 
# 
# From -- ./inp_files/87043.got.cif
#   From: 2010.06.25/outbox.cif.g09.slc.cpg/sg13_44_cif.got.tgz:87043.got - 2010.06.28 04:50:58.
