data_PCOD8122897
_publ_section_title
;
Structure prediction by ZEFSAII (Michael W. Deem and Ramdas Pophale) SiO2 
 PCOD8122897
Probable space group: P 2/C
;
_chemical_formula_sum "Si O2"
_cell_formula_units_Z 30
_cell_length_a 20.740759
_cell_length_b 11.089271
_cell_length_c 11.490506
_cell_angle_alpha 90.000000
_cell_angle_beta 31.587709
_cell_angle_gamma 90.000000
_cell_volume 1384.315013
_symmetry_space_group_name_H-M "P 2/C"
_symmetry_group_IT_number 13
_symmetry_cell_setting 'monoclinic'
loop_
_space_group_symop_operation_xyz
x,y,z
-x,y,1/2-z
-x,-y,-z
x,-y,1/2+z
loop_
_atom_site_type_symbol
_atom_site_label
_atom_site_fract_x
_atom_site_fract_y
_atom_site_fract_z
Si Si1 0.989744 0.787685 0.891613
Si Si2 0.257616 0.824576 0.551779
Si Si3 0.415515 0.885467 0.097421
Si Si4 0.624907 0.280095 0.191328
Si Si5 0.500000 0.482293 0.250000
Si Si6 0.307450 0.636869 0.665726
Si Si7 0.767369 0.911006 0.324809
Si Si8 0.064630 0.480784 0.026984
O O1 0.914415 0.662447 0.995725
O O2 0.000000 0.848837 0.750000
O O3 0.125833 0.763374 0.730736
O O4 0.911214 0.881170 0.088009
O O5 0.357190 0.814209 0.295827
O O6 0.310813 0.755124 0.579961
O O7 0.239901 0.965815 0.595296
O O8 0.304584 0.927949 0.185723
O O9 0.495361 0.786901 0.907212
O O10 0.500000 0.000000 0.000000
O O11 0.602457 0.403525 0.157456
O O12 0.694567 0.312416 0.201902
O O13 0.714341 0.195691 0.982610
O O14 0.431887 0.563242 0.450758
O O15 0.192068 0.550827 0.822437
O O16 0.000000 0.522944 0.250000
O O17 0.000000 0.500000 0.000000
#
# Coordination Sequence:
#
# PCOD8122897 Si02
#       8
#     4   4   4   4   2   4   4   4
#     4  11  24  46  71 100 137 186 240 294 366 430
#     4  12  26  45  71 105 144 186 239 300 360 434
#     4  12  24  45  72 102 143 189 237 288 359 441
#     4  12  26  45  72 108 140 193 237 299 364 433
#     4  12  26  48  70 106 148 186 244 296 368 432
#     4  12  28  45  73 106 149 188 245 305 364 432
#     4  12  25  45  73 103 142 187 239 300 361 439
#     4  11  26  47  74 105 141 193 246 301 367 441
#
# _framework density 21.671368000000001
#
# number of rings (size 3 to 8) (size 9 to 14) (size 15 to 20)
#    0.000    0.267    5.333    3.200    3.733    1.067 
#    0.000    0.667    0.000    0.000    0.000    0.000 
#    0.000    0.000    0.000    0.000    0.000    0.000 
#
# Total GULP energy -372033.806722 kJ/mol
# GULP energy per Si atom -12401.126891 kJ/mol
# Density = 2.162204 g / cm^3
# Si number density = 21.671368 Si / 1000 Ang^3
#
#
#
# Elastic Constant Matrix: (Units=GPa)
#
#
# Indices 1 2 3 4 5 6 
#
# 1 109.1354 21.3160 22.3159 0.0000 15.9697 0.0000
# 2 21.3160 76.4152 34.2850 0.0000 -0.6441 0.0000
# 3 22.3159 34.2850 116.5936 0.0000 9.9372 0.0000
# 4 0.0000 0.0000 0.0000 -10.9690 0.0000 2.8029
# 5 15.9697 -0.6441 9.9372 0.0000 34.8582 0.0000
# 6 0.0000 0.0000 0.0000 2.8029 0.0000 31.1594
#
#
#
# Elastic Compliance Matrix: (Units=1/GPa)
#
#
# Indices 1 2 3 4 5 6 
#
# 1 0.010520 -0.002589 -0.000858 0.000000 -0.004623 0.000000
# 2 -0.002589 0.015798 -0.004382 0.000000 0.002727 0.000000
# 3 -0.000858 -0.004382 0.010252 0.000000 -0.002610 0.000000
# 4 0.000000 0.000000 0.000000 -0.089117 0.000000 0.008016
# 5 -0.004623 0.002727 -0.002610 0.000000 0.031600 0.000000
# 6 0.000000 0.000000 0.000000 0.008016 0.000000 0.031372
#
#
# Mechanical properties :
#
#
# Convention : Reuss Voigt Hill
#
# Bulk Modulus (GPa) = 47.81996 50.88644 49.35320
# Shear Modulus (GPa) = 151.26594 25.95821 88.61207
#
# Velocity S-wave (km/s) = 8.36370 3.46470 6.40139
# Velocity P-wave (km/s) = 10.74162 6.28788 8.80113
#
# Compressibility (1/GPa) = 0.02091177
#
# Stress axis : x y z
#
# Youngs Moduli (GPa) = 95.05253 63.30041 97.53951
#
# Poissons Ratio (x) = 0.16385 0.08373
# Poissons Ratio (y) = 0.24604 0.42746
# Poissons Ratio (z) = 0.08160 0.27741
#
# Static dielectric constant tensor:
#      x y z
#    x 4.032260 0.000000 0.119760 
#    y 0.000000 3.921120 0.000000 
#    z 0.119760 0.000000 4.139600 
# 
# 
# High freq. dielectric constant tensor:
#      x y z
#    x 1.857950 0.000000 0.008590 
#    y 0.000000 1.858530 0.000000 
#    z 0.008590 0.000000 1.864100 
# 
# From -- ./inp_files/40869.got.cif
#   From: 2010.06.25/outbox.cif.g09.slc.cpg/sg13_21_cif.got.tgz:40869.got - 2010.06.28 04:50:58.
