data_PCOD8122576
_publ_section_title
;
Structure prediction by ZEFSAII (Michael W. Deem and Ramdas Pophale) SiO2 
 PCOD8122576
Probable space group: P 2/C
;
_chemical_formula_sum "Si O2"
_cell_formula_units_Z 16
_cell_length_a 9.068807
_cell_length_b 9.290713
_cell_length_c 16.933860
_cell_angle_alpha 90.000000
_cell_angle_beta 29.678727
_cell_angle_gamma 90.000000
_cell_volume 706.447321
_symmetry_space_group_name_H-M "P 2/C"
_symmetry_group_IT_number 13
_symmetry_cell_setting 'monoclinic'
loop_
_space_group_symop_operation_xyz
x,y,z
-x,y,1/2-z
-x,-y,-z
x,-y,1/2+z
loop_
_atom_site_type_symbol
_atom_site_label
_atom_site_fract_x
_atom_site_fract_y
_atom_site_fract_z
Si Si1 0.443073 0.188752 0.182516
Si Si2 0.131246 0.546475 0.774930
Si Si3 0.134848 0.953049 0.519518
Si Si4 0.422814 0.655927 0.373730
O O1 0.500000 0.201005 0.250000
O O2 0.413486 0.345207 0.157156
O O3 0.135115 0.106611 0.302808
O O4 0.705017 0.095387 0.019420
O O5 0.286145 0.389723 0.710248
O O6 0.000000 0.568705 0.750000
O O7 0.879050 0.576332 0.957602
O O8 0.384370 0.828058 0.394141
O O9 0.000000 0.000000 0.500000
O O10 0.500000 0.603011 0.250000
#
# Coordination Sequence:
#
# PCOD8122576 Si02
#       4
#     4   4   4   4
#     4   9  18  35  58  84 113 149 191 236 282 338
#     4  11  24  40  56  85 123 154 187 237 290 340
#     4   9  18  34  58  88 113 141 190 245 283 327
#     4  11  22  39  63  87 112 152 198 238 281 339
#
# _framework density 22.648540000000001
#
# number of rings (size 3 to 8) (size 9 to 14) (size 15 to 20)
#    0.000    2.000    0.000    4.500    0.000    6.000 
#    0.000    6.250    0.000    0.000    0.000    0.000 
#    0.000    0.000    0.000    0.000    0.000    0.000 
#
# Total GULP energy -198270.926006 kJ/mol
# GULP energy per Si atom -12391.932875 kJ/mol
# Density = 2.259699 g / cm^3
# Si number density = 22.648540 Si / 1000 Ang^3
#
#
#
# Elastic Constant Matrix: (Units=GPa)
#
#
# Indices 1 2 3 4 5 6 
#
# 1 98.2595 58.6981 31.7575 0.0000 -18.3636 0.0000
# 2 58.6981 101.2978 29.9977 0.0000 -17.0789 0.0000
# 3 31.7575 29.9977 62.8968 0.0000 -8.3279 0.0000
# 4 0.0000 0.0000 0.0000 42.3255 0.0000 -26.3046
# 5 -18.3636 -17.0789 -8.3279 0.0000 23.7728 0.0000
# 6 0.0000 0.0000 0.0000 -26.3046 0.0000 29.4437
#
#
#
# Elastic Compliance Matrix: (Units=1/GPa)
#
#
# Indices 1 2 3 4 5 6 
#
# 1 0.017351 -0.007727 -0.004232 0.000000 0.006369 0.000000
# 2 -0.007727 0.016034 -0.003157 0.000000 0.004444 0.000000
# 3 -0.004232 -0.003157 0.019723 0.000000 0.001372 0.000000
# 4 0.000000 0.000000 0.000000 0.053120 0.000000 0.047457
# 5 0.006369 0.004444 0.001372 0.000000 0.050658 0.000000
# 6 0.000000 0.000000 0.000000 0.047457 0.000000 0.076361
#
#
# Mechanical properties :
#
#
# Convention : Reuss Voigt Hill
#
# Bulk Modulus (GPa) = 43.71515 55.92899 49.82207
# Shear Modulus (GPa) = 18.44299 28.57512 23.50905
#
# Velocity S-wave (km/s) = 2.85671 3.55586 3.22529
# Velocity P-wave (km/s) = 5.49768 6.45033 5.99297
#
# Compressibility (1/GPa) = 0.02287536
#
# Stress axis : x y z
#
# Youngs Moduli (GPa) = 57.63197 62.36860 50.70136
#
# Poissons Ratio (x) = 0.48194 0.21458
# Poissons Ratio (y) = 0.44534 0.16006
# Poissons Ratio (z) = 0.24391 0.19690
#
# Static dielectric constant tensor:
#      x y z
#    x 3.733400 0.000000 -0.497680 
#    y 0.000000 4.512290 0.000000 
#    z -0.497680 0.000000 4.415660 
# 
# 
# High freq. dielectric constant tensor:
#      x y z
#    x 1.855610 0.000000 -0.034800 
#    y 0.000000 1.902290 0.000000 
#    z -0.034800 0.000000 1.890100 
# 
# From -- ./inp_files/11497.got.cif
#   From: 2010.06.25/outbox.cif.g09.slc.cpg/sg13_6_cif.got.tgz:11497.got - 2010.06.28 04:50:58.
