data_PCOD8122723
_publ_section_title
;
Structure prediction by ZEFSAII (Michael W. Deem and Ramdas Pophale) SiO2 
 PCOD8122723
Probable space group: P 2/C
;
_chemical_formula_sum "Si O2"
_cell_formula_units_Z 28
_cell_length_a 8.231913
_cell_length_b 16.208366
_cell_length_c 18.287309
_cell_angle_alpha 90.000000
_cell_angle_beta 147.720257
_cell_angle_gamma 90.000000
_cell_volume 1303.090424
_symmetry_space_group_name_H-M "P 2/C"
_symmetry_group_IT_number 13
_symmetry_cell_setting 'monoclinic'
loop_
_space_group_symop_operation_xyz
x,y,z
-x,y,1/2-z
-x,-y,-z
x,-y,1/2+z
loop_
_atom_site_type_symbol
_atom_site_label
_atom_site_fract_x
_atom_site_fract_y
_atom_site_fract_z
Si Si1 0.617326 0.894475 0.215228
Si Si2 0.837824 0.475827 0.613148
Si Si3 0.626390 0.086700 0.219589
Si Si4 0.757565 0.823789 0.033440
Si Si5 0.080959 0.643516 0.641731
Si Si6 0.773231 0.187966 0.052788
Si Si7 0.733424 0.657073 0.950100
O O1 0.500000 0.868490 0.250000
O O2 0.927800 0.849585 0.308578
O O3 0.698551 0.990682 0.243383
O O4 0.347995 0.866807 0.059933
O O5 0.500000 0.500000 0.500000
O O6 0.845117 0.404649 0.555471
O O7 0.000000 0.445774 0.750000
O O8 0.989673 0.556731 0.639452
O O9 0.500000 0.115556 0.250000
O O10 0.917885 0.141181 0.305461
O O11 0.351481 0.101430 0.059045
O O12 0.488124 0.804909 0.986703
O O13 0.844680 0.746474 0.016303
O O14 0.374423 0.666540 0.800938
O O15 0.122631 0.629314 0.571522
O O16 0.837931 0.716761 0.558179
#
# Coordination Sequence:
#
# PCOD8122723 Si02
#       7
#     4   4   4   4   4   4   4
#     4  11  25  44  64  95 137 176 225 279 332 397
#     4  12  25  44  71 102 138 170 216 277 336 393
#     4  11  23  42  68  95 130 181 228 271 331 402
#     4  12  25  41  67 100 135 172 223 280 337 389
#     4  11  24  45  71  99 135 180 227 269 330 407
#     4  12  25  41  69  99 133 178 221 279 337 394
#     4  11  24  45  71  99 136 179 227 271 327 407
#
# _framework density 21.487380999999999
#
# number of rings (size 3 to 8) (size 9 to 14) (size 15 to 20)
#    0.000    0.571    2.857    5.571    0.000    8.000 
#    0.000    1.429    0.000    0.000    0.000    0.000 
#    0.000    0.000    0.000    0.000    0.000    0.000 
#
# Total GULP energy -347206.434845 kJ/mol
# GULP energy per Si atom -12400.229816 kJ/mol
# Density = 2.143847 g / cm^3
# Si number density = 21.487381 Si / 1000 Ang^3
#
#
#
# Elastic Constant Matrix: (Units=GPa)
#
#
# Indices 1 2 3 4 5 6 
#
# 1 96.0965 40.0661 28.2382 0.0000 -7.4733 0.0000
# 2 40.0661 87.2429 39.3723 0.0000 -1.6232 0.0000
# 3 28.2382 39.3723 85.4721 0.0000 -11.4536 0.0000
# 4 0.0000 0.0000 0.0000 48.6096 0.0000 -22.3803
# 5 -7.4733 -1.6232 -11.4536 0.0000 37.2219 0.0000
# 6 0.0000 0.0000 0.0000 -22.3803 0.0000 57.7346
#
#
#
# Elastic Compliance Matrix: (Units=1/GPa)
#
#
# Indices 1 2 3 4 5 6 
#
# 1 0.013257 -0.005292 -0.001686 0.000000 0.001912 0.000000
# 2 -0.005292 0.016661 -0.006229 0.000000 -0.002252 0.000000
# 3 -0.001686 -0.006229 0.015691 0.000000 0.004218 0.000000
# 4 0.000000 0.000000 0.000000 0.025041 0.000000 0.009707
# 5 0.001912 -0.002252 0.004218 0.000000 0.028450 0.000000
# 6 0.000000 0.000000 0.000000 0.009707 0.000000 0.021083
#
#
# Mechanical properties :
#
#
# Convention : Reuss Voigt Hill
#
# Bulk Modulus (GPa) = 52.09177 53.79606 52.94392
# Shear Modulus (GPa) = 32.68084 39.45554 36.06819
#
# Velocity S-wave (km/s) = 3.90414 4.28976 4.10149
# Velocity P-wave (km/s) = 6.67972 7.04461 6.86459
#
# Compressibility (1/GPa) = 0.01919689
#
# Stress axis : x y z
#
# Youngs Moduli (GPa) = 75.43425 60.01873 63.73010
#
# Poissons Ratio (x) = 0.31760 0.10744
# Poissons Ratio (y) = 0.39917 0.39695
# Poissons Ratio (z) = 0.12718 0.37383
#
# Static dielectric constant tensor:
#      x y z
#    x 3.953500 0.000000 -0.071930 
#    y 0.000000 3.794100 0.000000 
#    z -0.071930 0.000000 4.011750 
# 
# 
# High freq. dielectric constant tensor:
#      x y z
#    x 1.855120 0.000000 -0.002650 
#    y 0.000000 1.851890 0.000000 
#    z -0.002650 0.000000 1.852870 
# 
# From -- ./inp_files/76753.got.cif
#   From: 2010.06.25/outbox.cif.g09.slc.cpg/sg13_39_cif.got.tgz:76753.got - 2010.06.28 04:50:58.
