data_PCOD8122983
_publ_section_title
;
Structure prediction by ZEFSAII (Michael W. Deem and Ramdas Pophale) SiO2 
 PCOD8122983
Probable space group: P 2/C
;
_chemical_formula_sum "Si O2"
_cell_formula_units_Z 20
_cell_length_a 10.567871
_cell_length_b 5.272645
_cell_length_c 15.412588
_cell_angle_alpha 90.000000
_cell_angle_beta 104.092437
_cell_angle_gamma 90.000000
_cell_volume 832.952869
_symmetry_space_group_name_H-M "P 2/C"
_symmetry_group_IT_number 13
_symmetry_cell_setting 'monoclinic'
loop_
_space_group_symop_operation_xyz
x,y,z
-x,y,1/2-z
-x,-y,-z
x,-y,1/2+z
loop_
_atom_site_type_symbol
_atom_site_label
_atom_site_fract_x
_atom_site_fract_y
_atom_site_fract_z
Si Si1 0.427961 0.198455 0.927712
Si Si2 0.859120 0.567653 0.827238
Si Si3 0.312070 0.552118 0.044361
Si Si4 0.187850 0.066312 0.789513
Si Si5 0.920084 0.137060 0.061530
O O1 0.542637 0.363061 0.903418
O O2 0.342126 0.078729 0.836703
O O3 0.325022 0.361410 0.966181
O O4 0.500000 0.000000 0.000000
O O5 0.749509 0.580971 0.882793
O O6 0.858177 0.301499 0.776659
O O7 0.999047 0.611181 0.605266
O O8 0.829992 0.799692 0.759872
O O9 0.221633 0.785381 0.998166
O O10 0.098919 0.056292 0.861289
O O11 0.000000 0.000000 0.000000
#
# Coordination Sequence:
#
# PCOD8122983 Si02
#       5
#     4   4   4   4   4
#     4  11  25  50  78 100 148 198 260 303 363 462
#     4  12  29  48  75 117 155 190 247 316 387 437
#     4  11  26  49  75 110 143 204 254 302 371 454
#     4  12  28  50  74 114 151 197 244 318 382 434
#     4  12  26  50  80 108 153 203 256 302 377 466
#
# _framework density 24.010961999999999
#
# number of rings (size 3 to 8) (size 9 to 14) (size 15 to 20)
#    0.000    0.400    2.000    4.800    5.600   10.400 
#    0.000    0.000    0.000    0.000    0.000    0.000 
#    0.000    0.000    0.000    0.000    0.000    0.000 
#
# Total GULP energy -248057.364880 kJ/mol
# GULP energy per Si atom -12402.868244 kJ/mol
# Density = 2.395631 g / cm^3
# Si number density = 24.010962 Si / 1000 Ang^3
#
#
#
# Elastic Constant Matrix: (Units=GPa)
#
#
# Indices 1 2 3 4 5 6 
#
# 1 126.5099 30.7738 70.5464 0.0000 -23.3176 0.0000
# 2 30.7738 75.2031 20.4155 0.0000 -5.1347 0.0000
# 3 70.5464 20.4155 101.9551 0.0000 -12.5657 0.0000
# 4 0.0000 0.0000 0.0000 29.2754 0.0000 3.1891
# 5 -23.3176 -5.1347 -12.5657 0.0000 42.8038 0.0000
# 6 0.0000 0.0000 0.0000 3.1891 0.0000 52.7393
#
#
#
# Elastic Compliance Matrix: (Units=1/GPa)
#
#
# Indices 1 2 3 4 5 6 
#
# 1 0.014486 -0.003210 -0.008773 0.000000 0.004931 0.000000
# 2 -0.003210 0.014806 -0.000768 0.000000 -0.000198 0.000000
# 3 -0.008773 -0.000768 0.016012 0.000000 -0.000171 0.000000
# 4 0.000000 0.000000 0.000000 0.034385 0.000000 -0.002079
# 5 0.004931 -0.000198 -0.000171 0.000000 0.025975 0.000000
# 6 0.000000 0.000000 0.000000 -0.002079 0.000000 0.019087
#
#
# Mechanical properties :
#
#
# Convention : Reuss Voigt Hill
#
# Bulk Modulus (GPa) = 50.50123 60.79327 55.64725
# Shear Modulus (GPa) = 31.87705 37.09254 34.48479
#
# Velocity S-wave (km/s) = 3.64758 3.93468 3.79385
# Velocity P-wave (km/s) = 6.23041 6.78352 6.51284
#
# Compressibility (1/GPa) = 0.01980150
#
# Stress axis : x y z
#
# Youngs Moduli (GPa) = 69.03045 67.54127 62.45511
#
# Poissons Ratio (x) = 0.21678 0.54793
# Poissons Ratio (y) = 0.22156 0.04798
# Poissons Ratio (z) = 0.60562 0.05189
#
# Static dielectric constant tensor:
#      x y z
#    x 5.158620 0.000000 0.132930 
#    y 0.000000 4.321680 0.000000 
#    z 0.132930 0.000000 4.588340 
# 
# 
# High freq. dielectric constant tensor:
#      x y z
#    x 1.976330 0.000000 -0.000210 
#    y 0.000000 1.959040 0.000000 
#    z -0.000210 0.000000 1.954290 
# 
# From -- ./inp_files/48810.got.cif
#   From: 2010.06.25/outbox.cif.g09.slc.cpg/sg13_25_cif.got.tgz:48810.got - 2010.06.28 04:50:58.
