data_PCOD8122756
_publ_section_title
;
Structure prediction by ZEFSAII (Michael W. Deem and Ramdas Pophale) SiO2 
 PCOD8122756
Probable space group: P 2/C
;
_chemical_formula_sum "Si O2"
_cell_formula_units_Z 28
_cell_length_a 12.157058
_cell_length_b 9.119939
_cell_length_c 18.955096
_cell_angle_alpha 90.000000
_cell_angle_beta 35.785882
_cell_angle_gamma 90.000000
_cell_volume 1228.916680
_symmetry_space_group_name_H-M "P 2/C"
_symmetry_group_IT_number 13
_symmetry_cell_setting 'monoclinic'
loop_
_space_group_symop_operation_xyz
x,y,z
-x,y,1/2-z
-x,-y,-z
x,-y,1/2+z
loop_
_atom_site_type_symbol
_atom_site_label
_atom_site_fract_x
_atom_site_fract_y
_atom_site_fract_z
Si Si1 0.884288 0.329759 0.876313
Si Si2 0.500000 0.724371 0.250000
Si Si3 0.500000 0.748889 0.750000
Si Si4 0.686329 0.135018 0.287422
Si Si5 0.809989 0.486163 0.053973
Si Si6 0.509725 0.669554 0.980912
Si Si7 0.043323 0.994611 0.145497
Si Si8 0.553212 0.879476 0.082009
O O1 0.000000 0.395435 0.750000
O O2 0.870566 0.460533 0.940878
O O3 0.683524 0.275313 0.952509
O O4 0.979416 0.180445 0.856996
O O5 0.683862 0.628909 0.133596
O O6 0.460875 0.827614 0.203713
O O7 0.431093 0.853252 0.723539
O O8 0.315063 0.654428 0.862253
O O9 0.671062 0.285601 0.340490
O O10 0.902207 0.086545 0.168301
O O11 0.582449 0.001720 0.382669
O O12 0.000000 0.500000 0.000000
O O13 0.500000 0.500000 0.000000
O O14 0.556973 0.738677 0.030821
O O15 0.000000 0.030202 0.250000
O O16 0.241417 0.053365 0.016005
#
# Coordination Sequence:
#
# PCOD8122756 Si02
#       8
#     4   2   2   4   4   4   4   4
#     4  11  24  46  72 109 144 193 247 311 374 443
#     4  11  29  46  68 104 148 198 252 302 372 460
#     4  11  25  48  70 102 152 196 242 298 370 444
#     4  12  25  47  74 108 152 199 245 310 372 447
#     4  11  26  47  69 102 152 193 241 305 375 442
#     4  12  25  45  74 104 153 194 243 306 377 443
#     4  11  23  43  78 114 145 187 253 312 373 440
#     4  12  24  47  72 107 148 195 249 307 371 437
#
# _framework density 22.784295
#
# number of rings (size 3 to 8) (size 9 to 14) (size 15 to 20)
#    0.000    0.571    4.286    3.429    8.000    0.000 
#    2.571    2.143    0.000    0.000    0.000    0.000 
#    0.000    0.000    0.000    0.000    0.000    0.000 
#
# Total GULP energy -347170.621376 kJ/mol
# GULP energy per Si atom -12398.950763 kJ/mol
# Density = 2.273244 g / cm^3
# Si number density = 22.784295 Si / 1000 Ang^3
#
#
#
# Elastic Constant Matrix: (Units=GPa)
#
#
# Indices 1 2 3 4 5 6 
#
# 1 108.1890 28.6496 40.8273 0.0000 0.4287 0.0000
# 2 28.6496 107.8872 40.9939 0.0000 4.0653 0.0000
# 3 40.8273 40.9939 116.8732 0.0000 2.3651 0.0000
# 4 0.0000 0.0000 0.0000 39.2015 0.0000 -1.1219
# 5 0.4287 4.0653 2.3651 0.0000 50.9391 0.0000
# 6 0.0000 0.0000 0.0000 -1.1219 0.0000 26.4391
#
#
#
# Elastic Compliance Matrix: (Units=1/GPa)
#
#
# Indices 1 2 3 4 5 6 
#
# 1 0.010903 -0.001677 -0.003224 0.000000 0.000192 0.000000
# 2 -0.001677 0.010976 -0.003249 0.000000 -0.000711 0.000000
# 3 -0.003224 -0.003249 0.010827 0.000000 -0.000216 0.000000
# 4 0.000000 0.000000 0.000000 0.025540 0.000000 0.001084
# 5 0.000192 -0.000711 -0.000216 0.000000 0.019696 0.000000
# 6 0.000000 0.000000 0.000000 0.001084 0.000000 0.037869
#
#
# Mechanical properties :
#
#
# Convention : Reuss Voigt Hill
#
# Bulk Modulus (GPa) = 60.96296 61.54345 61.25320
# Shear Modulus (GPa) = 36.34202 38.14784 37.24493
#
# Velocity S-wave (km/s) = 3.99814 4.09627 4.04750
# Velocity P-wave (km/s) = 6.93744 7.03154 6.98465
#
# Compressibility (1/GPa) = 0.01640340
#
# Stress axis : x y z
#
# Youngs Moduli (GPa) = 91.71522 91.10887 92.36349
#
# Poissons Ratio (x) = 0.15283 0.29781
# Poissons Ratio (y) = 0.15385 0.30013
# Poissons Ratio (z) = 0.29572 0.29606
#
# Static dielectric constant tensor:
#      x y z
#    x 4.181860 0.000000 -0.076030 
#    y 0.000000 4.143660 0.000000 
#    z -0.076030 0.000000 4.267200 
# 
# 
# High freq. dielectric constant tensor:
#      x y z
#    x 1.896340 0.000000 -0.003630 
#    y 0.000000 1.905910 0.000000 
#    z -0.003630 0.000000 1.904280 
# 
# From -- ./inp_files/78234.got.cif
#   From: 2010.06.25/outbox.cif.g09.slc.cpg/sg13_40_cif.got.tgz:78234.got - 2010.06.28 04:50:58.
