data_PCOD8122023
_publ_section_title
;
Structure prediction by ZEFSAII (Michael W. Deem and Ramdas Pophale) SiO2 
 PCOD8122023
Probable space group: P 2/C
;
_chemical_formula_sum "Si O2"
_cell_formula_units_Z 24
_cell_length_a 11.486668
_cell_length_b 10.143149
_cell_length_c 11.165826
_cell_angle_alpha 90.000000
_cell_angle_beta 53.587931
_cell_angle_gamma 90.000000
_cell_volume 1046.957011
_symmetry_space_group_name_H-M "P 2/C"
_symmetry_group_IT_number 13
_symmetry_cell_setting 'monoclinic'
loop_
_space_group_symop_operation_xyz
x,y,z
-x,y,1/2-z
-x,-y,-z
x,-y,1/2+z
loop_
_atom_site_type_symbol
_atom_site_label
_atom_site_fract_x
_atom_site_fract_y
_atom_site_fract_z
Si Si1 0.423224 0.154811 0.176478
Si Si2 0.874411 0.215866 0.058771
Si Si3 0.804140 0.256731 0.543702
Si Si4 0.635536 0.868396 0.348669
Si Si5 0.086462 0.479713 0.572386
Si Si6 0.847931 0.991388 0.893231
O O1 0.500000 0.207542 0.250000
O O2 0.260441 0.213845 0.265629
O O3 0.428416 0.995099 0.180671
O O4 0.513420 0.201485 0.005013
O O5 0.847986 0.332808 0.977135
O O6 0.870030 0.073840 0.000187
O O7 0.026256 0.231591 0.032112
O O8 0.698689 0.243487 0.722175
O O9 0.790919 0.405107 0.499358
O O10 0.758533 0.142601 0.477542
O O11 0.766883 0.918714 0.348921
O O12 0.000000 0.490317 0.750000
O O13 0.000000 0.500000 0.500000
O O14 0.000000 0.945759 0.750000
#
# Coordination Sequence:
#
# PCOD8122023 Si02
#       6
#     4   4   4   4   4   4
#     4  11  22  37  56  89 125 163 203 255 316 376
#     4  11  21  38  61  91 120 164 211 254 316 376
#     4  11  22  40  61  94 124 160 206 263 325 371
#     4  11  22  36  60  91 124 162 203 264 319 374
#     4  10  24  41  63  92 131 165 204 261 323 379
#     4  12  20  33  64  92 120 149 213 264 310 371
#
# _framework density 22.923577000000002
#
# number of rings (size 3 to 8) (size 9 to 14) (size 15 to 20)
#    0.000    1.000    5.000    2.500    2.333    1.333 
#    0.000    0.833    0.000    5.000    0.000    0.000 
#    0.000    0.000    0.000    0.000    0.000    0.000 
#
# Total GULP energy -297451.377093 kJ/mol
# GULP energy per Si atom -12393.807379 kJ/mol
# Density = 2.287140 g / cm^3
# Si number density = 22.923577 Si / 1000 Ang^3
#
#
#
# Elastic Constant Matrix: (Units=GPa)
#
#
# Indices 1 2 3 4 5 6 
#
# 1 25.2603 -24.9725 17.1198 0.0000 -1.9761 0.0000
# 2 -24.9725 105.6833 49.3950 0.0000 6.2916 0.0000
# 3 17.1198 49.3950 220.8688 0.0000 -11.0363 0.0000
# 4 0.0000 0.0000 0.0000 35.7549 0.0000 -0.9284
# 5 -1.9761 6.2916 -11.0363 0.0000 30.3350 0.0000
# 6 0.0000 0.0000 0.0000 -0.9284 0.0000 3.7356
#
#
#
# Elastic Compliance Matrix: (Units=1/GPa)
#
#
# Indices 1 2 3 4 5 6 
#
# 1 0.066288 0.020501 -0.009900 0.000000 -0.003535 0.000000
# 2 0.020501 0.017203 -0.005651 0.000000 -0.004288 0.000000
# 3 -0.009900 -0.005651 0.006707 0.000000 0.002967 0.000000
# 4 0.000000 0.000000 0.000000 0.028150 0.000000 0.006996
# 5 -0.003535 -0.004288 0.002967 0.000000 0.034704 0.000000
# 6 0.000000 0.000000 0.000000 0.006996 0.000000 0.269431
#
#
# Mechanical properties :
#
#
# Convention : Reuss Voigt Hill
#
# Bulk Modulus (GPa) = 9.99008 48.32187 29.15598
# Shear Modulus (GPa) = 11.21209 34.64979 22.93094
#
# Velocity S-wave (km/s) = 2.21398 3.89206 3.16622
# Velocity P-wave (km/s) = 3.30198 6.42829 5.11008
#
# Compressibility (1/GPa) = 0.10009930
#
# Stress axis : x y z
#
# Youngs Moduli (GPa) = 15.08570 58.13012 149.10151
#
# Poissons Ratio (x) = -1.19172 1.47603
# Poissons Ratio (y) = -0.30927 0.84250
# Poissons Ratio (z) = 0.14934 0.32847
#
# Static dielectric constant tensor:
#      x y z
#    x 3.882310 0.000000 -0.015840 
#    y 0.000000 4.821610 0.000000 
#    z -0.015840 0.000000 4.687620 
# 
# 
# High freq. dielectric constant tensor:
#      x y z
#    x 1.879070 0.000000 0.008350 
#    y 0.000000 1.883360 0.000000 
#    z 0.008350 0.000000 1.925030 
# 
# From -- ./inp_files/33711.got.cif
#   From: 2010.06.25/outbox.cif.g09.slc.cpg/sg13_17_cif.got.tgz:33711.got - 2010.06.28 04:50:58.
