data_PCOD8122496
_publ_section_title
;
Structure prediction by ZEFSAII (Michael W. Deem and Ramdas Pophale) SiO2 
 PCOD8122496
Probable space group: P 2/C
;
_chemical_formula_sum "Si O2"
_cell_formula_units_Z 28
_cell_length_a 25.810861
_cell_length_b 9.646490
_cell_length_c 8.911140
_cell_angle_alpha 90.000000
_cell_angle_beta 35.201517
_cell_angle_gamma 90.000000
_cell_volume 1278.997506
_symmetry_space_group_name_H-M "P 2/C"
_symmetry_group_IT_number 13
_symmetry_cell_setting 'monoclinic'
loop_
_space_group_symop_operation_xyz
x,y,z
-x,y,1/2-z
-x,-y,-z
x,-y,1/2+z
loop_
_atom_site_type_symbol
_atom_site_label
_atom_site_fract_x
_atom_site_fract_y
_atom_site_fract_z
Si Si1 0.984877 0.361454 0.455557
Si Si2 0.263537 0.096276 0.800171
Si Si3 0.560055 0.589266 0.246603
Si Si4 0.688211 0.166798 0.476919
Si Si5 0.206340 0.625768 0.979941
Si Si6 0.941105 0.094426 0.240049
Si Si7 0.723835 0.396874 0.862722
O O1 0.883889 0.312582 0.734062
O O2 0.000000 0.397744 0.250000
O O3 0.000000 0.500000 0.500000
O O4 0.056842 0.246739 0.340962
O O5 0.286981 0.239406 0.663266
O O6 0.328283 0.973663 0.582981
O O7 0.273385 0.115358 0.954665
O O8 0.161699 0.048154 0.998249
O O9 0.500000 0.634963 0.250000
O O10 0.500000 0.500000 0.500000
O O11 0.599730 0.736867 0.214949
O O12 0.639317 0.487497 0.006354
O O13 0.759057 0.258812 0.217509
O O14 0.271865 0.599265 0.967238
O O15 0.194347 0.479256 0.916049
O O16 0.000000 0.111922 0.250000
O O17 0.000000 0.000000 0.000000
#
# Coordination Sequence:
#
# PCOD8122496 Si02
#       7
#     4   4   4   4   4   4   4
#     4  11  23  36  55  86 123 164 213 271 318 359
#     4  12  23  42  63  94 130 170 220 265 320 393
#     4  11  23  44  69  98 128 161 208 263 326 399
#     4  11  25  42  67  94 127 172 213 268 329 393
#     4  11  21  40  60  91 127 170 223 266 319 391
#     4  11  23  39  59  87 123 168 212 263 314 363
#     4  11  22  39  67  92 125 171 212 264 323 388
#
# _framework density 21.892146
#
# number of rings (size 3 to 8) (size 9 to 14) (size 15 to 20)
#    0.000    0.857    0.000   10.286    0.000    1.714 
#    0.000    3.571    0.000    0.000    0.000    0.000 
#    0.000    0.000    0.000    0.000    0.000    0.000 
#
# Total GULP energy -346965.229250 kJ/mol
# GULP energy per Si atom -12391.615330 kJ/mol
# Density = 2.184232 g / cm^3
# Si number density = 21.892146 Si / 1000 Ang^3
#
#
#
# Elastic Constant Matrix: (Units=GPa)
#
#
# Indices 1 2 3 4 5 6 
#
# 1 112.7495 38.6596 35.3695 0.0000 14.4929 0.0000
# 2 38.6596 173.2167 49.5905 0.0000 21.5398 0.0000
# 3 35.3695 49.5905 96.9956 0.0000 15.9348 0.0000
# 4 0.0000 0.0000 0.0000 48.2242 0.0000 8.0070
# 5 14.4929 21.5398 15.9348 0.0000 41.1721 0.0000
# 6 0.0000 0.0000 0.0000 8.0070 0.0000 30.5579
#
#
#
# Elastic Compliance Matrix: (Units=1/GPa)
#
#
# Indices 1 2 3 4 5 6 
#
# 1 0.010445 -0.001281 -0.002841 0.000000 -0.001907 0.000000
# 2 -0.001281 0.007140 -0.002823 0.000000 -0.002192 0.000000
# 3 -0.002841 -0.002823 0.013223 0.000000 -0.002641 0.000000
# 4 0.000000 0.000000 0.000000 0.021680 0.000000 -0.005681
# 5 -0.001907 -0.002192 -0.002641 0.000000 0.027128 0.000000
# 6 0.000000 0.000000 0.000000 -0.005681 0.000000 0.034213
#
#
# Mechanical properties :
#
#
# Convention : Reuss Voigt Hill
#
# Bulk Modulus (GPa) = 59.10785 70.02232 64.56509
# Shear Modulus (GPa) = 37.49342 41.28031 39.38687
#
# Velocity S-wave (km/s) = 4.14290 4.34709 4.24622
# Velocity P-wave (km/s) = 7.06704 7.56642 7.32099
#
# Compressibility (1/GPa) = 0.01691823
#
# Stress axis : x y z
#
# Youngs Moduli (GPa) = 95.74355 140.06049 75.62705
#
# Poissons Ratio (x) = 0.17938 0.21482
# Poissons Ratio (y) = 0.12262 0.21351
# Poissons Ratio (z) = 0.27196 0.39542
#
# Static dielectric constant tensor:
#      x y z
#    x -3.024180 0.000000 5.348780 
#    y 0.000000 4.415570 0.000000 
#    z 5.348780 0.000000 0.158590 
# 
# 
# High freq. dielectric constant tensor:
#      x y z
#    x 1.850920 0.000000 0.014230 
#    y 0.000000 1.880520 0.000000 
#    z 0.014230 0.000000 1.865610 
# 
# From -- ./inp_files/24543.got.cif
#   From: 2010.06.25/outbox.cif.g09.slc.cpg/sg13_13_cif.got.tgz:24543.got - 2010.06.28 04:50:58.
