data_PCOD8122718
_publ_section_title
;
Structure prediction by ZEFSAII (Michael W. Deem and Ramdas Pophale) SiO2 
 PCOD8122718
Probable space group: P 2/C
;
_chemical_formula_sum "Si O2"
_cell_formula_units_Z 20
_cell_length_a 5.569916
_cell_length_b 8.508649
_cell_length_c 23.829918
_cell_angle_alpha 90.000000
_cell_angle_beta 49.041563
_cell_angle_gamma 90.000000
_cell_volume 852.874886
_symmetry_space_group_name_H-M "P 2/C"
_symmetry_group_IT_number 13
_symmetry_cell_setting 'monoclinic'
loop_
_space_group_symop_operation_xyz
x,y,z
-x,y,1/2-z
-x,-y,-z
x,-y,1/2+z
loop_
_atom_site_type_symbol
_atom_site_label
_atom_site_fract_x
_atom_site_fract_y
_atom_site_fract_z
Si Si1 0.422313 0.882270 0.435366
Si Si2 0.357279 0.234250 0.709785
Si Si3 0.222181 0.381662 0.555553
Si Si4 0.601366 0.439218 0.175672
Si Si5 0.243881 0.792054 0.943320
O O1 0.398602 0.842985 0.372345
O O2 0.692366 0.770524 0.419878
O O3 0.097407 0.864730 0.521660
O O4 0.487667 0.071689 0.427713
O O5 0.500000 0.193511 0.750000
O O6 0.353176 0.422088 0.699799
O O7 0.000000 0.171698 0.750000
O O8 0.500000 0.500000 0.500000
O O9 0.123673 0.326012 0.509372
O O10 0.945297 0.477623 0.628585
O O11 0.500000 0.359920 0.250000
O O12 0.586942 0.302259 0.132242
#
# Coordination Sequence:
#
# PCOD8122718 Si02
#       5
#     4   4   4   4   4
#     4  11  23  42  66  96 140 178 228 285 357 418
#     4  11  24  44  70 102 140 188 238 290 351 425
#     4  12  22  42  71 100 133 181 234 294 347 424
#     4  11  23  43  68 100 134 180 239 291 350 420
#     4  11  24  41  65 100 132 179 230 289 351 422
#
# _framework density 23.450099000000002
#
# number of rings (size 3 to 8) (size 9 to 14) (size 15 to 20)
#    0.000    0.800    4.000    4.800    0.000    0.800 
#    0.000    3.000    0.000    0.000    0.000    0.000 
#    0.000    0.000    0.000    0.000    0.000    0.000 
#
# Total GULP energy -247816.193115 kJ/mol
# GULP energy per Si atom -12390.809656 kJ/mol
# Density = 2.339673 g / cm^3
# Si number density = 23.450099 Si / 1000 Ang^3
#
#
#
# Elastic Constant Matrix: (Units=GPa)
#
#
# Indices 1 2 3 4 5 6 
#
# 1 87.7859 28.2718 36.2881 0.0000 -0.5577 0.0000
# 2 28.2718 104.3269 45.4940 0.0000 8.4820 0.0000
# 3 36.2881 45.4940 154.5948 0.0000 17.7729 0.0000
# 4 0.0000 0.0000 0.0000 36.9335 0.0000 9.2122
# 5 -0.5577 8.4820 17.7729 0.0000 29.5592 0.0000
# 6 0.0000 0.0000 0.0000 9.2122 0.0000 29.8579
#
#
#
# Elastic Compliance Matrix: (Units=1/GPa)
#
#
# Indices 1 2 3 4 5 6 
#
# 1 0.013366 -0.002679 -0.002649 0.000000 0.002614 0.000000
# 2 -0.002679 0.011580 -0.002569 0.000000 -0.001829 0.000000
# 3 -0.002649 -0.002569 0.008344 0.000000 -0.004330 0.000000
# 4 0.000000 0.000000 0.000000 0.029333 0.000000 -0.009050
# 5 0.002614 -0.001829 -0.004330 0.000000 0.037008 0.000000
# 6 0.000000 0.000000 0.000000 -0.009050 0.000000 0.036284
#
#
# Mechanical properties :
#
#
# Convention : Reuss Voigt Hill
#
# Bulk Modulus (GPa) = 57.15732 62.97950 60.06841
# Shear Modulus (GPa) = 31.73752 35.04703 33.39227
#
# Velocity S-wave (km/s) = 3.68286 3.87012 3.77765
# Velocity P-wave (km/s) = 6.52009 6.84730 6.68570
#
# Compressibility (1/GPa) = 0.01749557
#
# Stress axis : x y z
#
# Youngs Moduli (GPa) = 74.81644 86.35491 119.84484
#
# Poissons Ratio (x) = 0.23137 0.31753
# Poissons Ratio (y) = 0.20045 0.30783
# Poissons Ratio (z) = 0.19823 0.22181
#
# Static dielectric constant tensor:
#      x y z
#    x 3.987160 0.000000 -0.057030 
#    y 0.000000 4.251800 0.000000 
#    z -0.057030 0.000000 4.634530 
# 
# 
# High freq. dielectric constant tensor:
#      x y z
#    x 1.904920 0.000000 0.003760 
#    y 0.000000 1.921840 0.000000 
#    z 0.003760 0.000000 1.945600 
# 
# From -- ./inp_files/83262.got.cif
#   From: 2010.06.25/outbox.cif.g09.slc.cpg/sg13_42_cif.got.tgz:83262.got - 2010.06.28 04:50:58.
