data_PCOD8122495
_publ_section_title
;
Structure prediction by ZEFSAII (Michael W. Deem and Ramdas Pophale) SiO2 
 PCOD8122495
Probable space group: P 2/C
;
_chemical_formula_sum "Si O2"
_cell_formula_units_Z 28
_cell_length_a 30.289480
_cell_length_b 8.396043
_cell_length_c 30.612741
_cell_angle_alpha 90.000000
_cell_angle_beta 9.384120
_cell_angle_gamma 90.000000
_cell_volume 1269.393302
_symmetry_space_group_name_H-M "P 2/C"
_symmetry_group_IT_number 13
_symmetry_cell_setting 'monoclinic'
loop_
_space_group_symop_operation_xyz
x,y,z
-x,y,1/2-z
-x,-y,-z
x,-y,1/2+z
loop_
_atom_site_type_symbol
_atom_site_label
_atom_site_fract_x
_atom_site_fract_y
_atom_site_fract_z
Si Si1 0.779399 0.501384 0.998596
Si Si2 0.741164 0.607829 0.751211
Si Si3 0.371126 0.296229 0.771846
Si Si4 0.771159 0.061850 0.255564
Si Si5 0.460593 0.629674 0.644446
Si Si6 0.988252 0.252909 0.859126
Si Si7 0.137295 0.083117 0.236023
O O1 0.500000 0.438938 0.250000
O O2 0.686258 0.636734 0.123737
O O3 0.946372 0.351408 0.855447
O O4 0.000000 0.578422 0.750000
O O5 0.779701 0.747120 0.748467
O O6 0.664853 0.682731 0.779059
O O7 0.000000 0.500000 0.500000
O O8 0.500000 0.500000 0.000000
O O9 0.408922 0.441786 0.701527
O O10 0.633369 0.182604 0.513241
O O11 0.115987 0.194313 0.006217
O O12 0.781588 0.007763 0.296062
O O13 0.500000 0.000000 0.500000
O O14 0.000000 0.000000 0.000000
O O15 0.779727 0.663010 0.337909
O O16 0.301682 0.737529 0.834209
O O17 0.059104 0.067506 0.781475
#
# Coordination Sequence:
#
# PCOD8122495 Si02
#       7
#     4   4   4   4   4   4   4
#     4  11  23  44  70  95 121 157 203 253 316 398
#     4  12  23  37  58  88 123 166 219 273 312 350
#     4  11  23  40  66  92 124 164 204 259 323 377
#     4  12  24  40  60  89 130 177 216 264 317 360
#     4  11  21  40  60  88 122 170 219 254 305 381
#     4  11  23  40  66  90 121 163 203 250 308 379
#     4  12  23  41  62  96 131 165 214 263 311 375
#
# _framework density 22.057780000000001
#
# number of rings (size 3 to 8) (size 9 to 14) (size 15 to 20)
#    0.000    0.571    0.000   11.143    0.000    0.000 
#    0.000    2.857    0.000    1.714    0.000    0.000 
#    0.000    0.000    0.000    0.000    0.000    0.000 
#
# Total GULP energy -347217.591453 kJ/mol
# GULP energy per Si atom -12400.628266 kJ/mol
# Density = 2.200758 g / cm^3
# Si number density = 22.057780 Si / 1000 Ang^3
#
#
#
# Elastic Constant Matrix: (Units=GPa)
#
#
# Indices 1 2 3 4 5 6 
#
# 1 84.5672 19.8174 18.5248 0.0000 -3.5507 0.0000
# 2 19.8174 133.9511 49.0151 0.0000 -1.6314 0.0000
# 3 18.5248 49.0151 140.9681 0.0000 -5.7397 0.0000
# 4 0.0000 0.0000 0.0000 43.8916 0.0000 -5.3599
# 5 -3.5507 -1.6314 -5.7397 0.0000 47.6951 0.0000
# 6 0.0000 0.0000 0.0000 -5.3599 0.0000 18.7554
#
#
#
# Elastic Compliance Matrix: (Units=1/GPa)
#
#
# Indices 1 2 3 4 5 6 
#
# 1 0.012433 -0.001425 -0.001108 0.000000 0.000743 0.000000
# 2 -0.001425 0.008717 -0.002850 0.000000 -0.000151 0.000000
# 3 -0.001108 -0.002850 0.008264 0.000000 0.000814 0.000000
# 4 0.000000 0.000000 0.000000 0.023607 0.000000 0.006747
# 5 0.000743 -0.000151 0.000814 0.000000 0.021115 0.000000
# 6 0.000000 0.000000 0.000000 0.006747 0.000000 0.055246
#
#
# Mechanical properties :
#
#
# Convention : Reuss Voigt Hill
#
# Bulk Modulus (GPa) = 53.62573 59.35567 56.49070
# Shear Modulus (GPa) = 34.16159 40.21036 37.18598
#
# Velocity S-wave (km/s) = 3.93966 4.27424 4.11036
# Velocity P-wave (km/s) = 6.71259 7.16425 6.94209
#
# Compressibility (1/GPa) = 0.01864777
#
# Stress axis : x y z
#
# Youngs Moduli (GPa) = 80.43269 114.71569 121.01402
#
# Poissons Ratio (x) = 0.16345 0.13410
# Poissons Ratio (y) = 0.11460 0.34488
# Poissons Ratio (z) = 0.08913 0.32693
#
# Static dielectric constant tensor:
#      x y z
#    x 4.611940 0.000000 0.290420 
#    y 0.000000 4.152600 0.000000 
#    z 0.290420 0.000000 4.364420 
# 
# 
# High freq. dielectric constant tensor:
#      x y z
#    x 1.857420 0.000000 -0.003150 
#    y 0.000000 1.870890 0.000000 
#    z -0.003150 0.000000 1.894040 
# 
# From -- ./inp_files/97979.got.cif
#   From: 2010.06.25/outbox.cif.g09.slc.cpg/sg13_49_cif.got.tgz:97979.got - 2010.06.28 04:50:58.
