data_PCOD8122129
_publ_section_title
;
Structure prediction by ZEFSAII (Michael W. Deem and Ramdas Pophale) SiO2 
 PCOD8122129
Probable space group: P 2/C
;
_chemical_formula_sum "Si O2"
_cell_formula_units_Z 24
_cell_length_a 13.102337
_cell_length_b 11.864396
_cell_length_c 18.820150
_cell_angle_alpha 90.000000
_cell_angle_beta 157.152569
_cell_angle_gamma 90.000000
_cell_volume 1135.954487
_symmetry_space_group_name_H-M "P 2/C"
_symmetry_group_IT_number 13
_symmetry_cell_setting 'monoclinic'
loop_
_space_group_symop_operation_xyz
x,y,z
-x,y,1/2-z
-x,-y,-z
x,-y,1/2+z
loop_
_atom_site_type_symbol
_atom_site_label
_atom_site_fract_x
_atom_site_fract_y
_atom_site_fract_z
Si Si1 0.129275 0.267043 0.704266
Si Si2 0.057354 0.852457 0.865132
Si Si3 0.723734 0.919422 0.950592
Si Si4 0.512750 0.780295 0.579238
Si Si5 0.539865 0.661146 0.358412
Si Si6 0.373081 0.594069 0.591706
O O1 0.347266 0.247454 0.903502
O O2 0.265115 0.309920 0.719641
O O3 0.982003 0.149912 0.592823
O O4 0.925834 0.361827 0.600374
O O5 0.797608 0.823867 0.741652
O O6 0.000000 0.900206 0.750000
O O7 0.231837 0.741660 0.967291
O O8 0.213298 0.948451 0.008032
O O9 0.500000 0.894169 0.750000
O O10 0.632556 0.878002 0.969701
O O11 0.544033 0.667337 0.646246
O O12 0.500000 0.678437 0.250000
O O13 0.625052 0.534530 0.432319
O O14 0.500000 0.609246 0.750000
#
# Coordination Sequence:
#
# PCOD8122129 Si02
#       6
#     4   4   4   4   4   4
#     4  11  23  45  69  97 134 173 224 265 330 396
#     4  12  26  44  67 100 135 168 225 273 329 386
#     4  11  26  45  71  97 129 179 217 272 332 390
#     4  11  24  44  70  96 134 176 217 270 328 396
#     4  11  27  42  67 100 134 174 222 274 328 381
#     4  10  24  44  69  97 131 179 218 272 328 386
#
# _framework density 21.127607000000001
#
# number of rings (size 3 to 8) (size 9 to 14) (size 15 to 20)
#    0.000    1.000    1.667    5.500    9.333    5.333 
#    0.000    0.000    0.000    0.000    0.000    0.000 
#    0.000    0.000    0.000    0.000    0.000    0.000 
#
# Total GULP energy -297769.558048 kJ/mol
# GULP energy per Si atom -12407.064919 kJ/mol
# Density = 2.107952 g / cm^3
# Si number density = 21.127607 Si / 1000 Ang^3
#
#
#
# Elastic Constant Matrix: (Units=GPa)
#
#
# Indices 1 2 3 4 5 6 
#
# 1 123.3944 47.2242 22.7685 0.0000 16.5509 0.0000
# 2 47.2242 158.0821 44.2961 0.0000 10.5010 0.0000
# 3 22.7685 44.2961 66.1743 0.0000 3.8590 0.0000
# 4 0.0000 0.0000 0.0000 22.3806 0.0000 -14.0549
# 5 16.5509 10.5010 3.8590 0.0000 42.1145 0.0000
# 6 0.0000 0.0000 0.0000 -14.0549 0.0000 15.1917
#
#
#
# Elastic Compliance Matrix: (Units=1/GPa)
#
#
# Indices 1 2 3 4 5 6 
#
# 1 0.009675 -0.002219 -0.001663 0.000000 -0.003097 0.000000
# 2 -0.002219 0.008387 -0.004805 0.000000 -0.000779 0.000000
# 3 -0.001663 -0.004805 0.018893 0.000000 0.000121 0.000000
# 4 0.000000 0.000000 0.000000 0.106639 0.000000 0.098660
# 5 -0.003097 -0.000779 0.000121 0.000000 0.025145 0.000000
# 6 0.000000 0.000000 0.000000 0.098660 0.000000 0.157102
#
#
# Mechanical properties :
#
#
# Convention : Reuss Voigt Hill
#
# Bulk Modulus (GPa) = 51.06887 64.02536 57.54712
# Shear Modulus (GPa) = 14.29617 31.49482 22.89550
#
# Velocity S-wave (km/s) = 2.60409 3.86514 3.29550
# Velocity P-wave (km/s) = 5.76765 7.09147 6.46354
#
# Compressibility (1/GPa) = 0.01958140
#
# Stress axis : x y z
#
# Youngs Moduli (GPa) = 103.35429 119.23489 52.92839
#
# Poissons Ratio (x) = 0.26453 0.08804
# Poissons Ratio (y) = 0.22930 0.25433
# Poissons Ratio (z) = 0.17191 0.57295
#
# Static dielectric constant tensor:
#      x y z
#    x 3.942360 0.000000 0.076760 
#    y 0.000000 3.940910 0.000000 
#    z 0.076760 0.000000 3.794530 
# 
# 
# High freq. dielectric constant tensor:
#      x y z
#    x 1.837760 0.000000 -0.000110 
#    y 0.000000 1.838240 0.000000 
#    z -0.000110 0.000000 1.835060 
# 
# From -- ./inp_files/80185.got.cif
#   From: 2010.06.25/outbox.cif.g09.slc.cpg/sg13_41_cif.got.tgz:80185.got - 2010.06.28 04:50:58.
