data_PCOD8122954
_publ_section_title
;
Structure prediction by ZEFSAII (Michael W. Deem and Ramdas Pophale) SiO2 
 PCOD8122954
Probable space group: P 2/C
;
_chemical_formula_sum "Si O2"
_cell_formula_units_Z 20
_cell_length_a 18.100958
_cell_length_b 8.446120
_cell_length_c 11.811298
_cell_angle_alpha 90.000000
_cell_angle_beta 29.763760
_cell_angle_gamma 90.000000
_cell_volume 896.416979
_symmetry_space_group_name_H-M "P 2/C"
_symmetry_group_IT_number 13
_symmetry_cell_setting 'monoclinic'
loop_
_space_group_symop_operation_xyz
x,y,z
-x,y,1/2-z
-x,-y,-z
x,-y,1/2+z
loop_
_atom_site_type_symbol
_atom_site_label
_atom_site_fract_x
_atom_site_fract_y
_atom_site_fract_z
Si Si1 0.343022 0.380574 0.407815
Si Si2 0.560787 0.822405 0.919132
Si Si3 0.200632 0.142041 0.215931
Si Si4 0.267353 0.302172 0.898521
Si Si5 0.870004 0.216195 0.641989
O O1 0.500000 0.441109 0.250000
O O2 0.371125 0.225742 0.292849
O O3 0.257983 0.518189 0.453071
O O4 0.227977 0.340803 0.659709
O O5 0.684017 0.785757 0.849211
O O6 0.423717 0.708658 0.126281
O O7 0.500000 0.000000 0.000000
O O8 0.042068 0.225518 0.449032
O O9 0.194576 0.956061 0.245760
O O10 0.257405 0.176055 0.013771
O O11 0.138212 0.258854 0.980470
#
# Coordination Sequence:
#
# PCOD8122954 Si02
#       5
#     4   4   4   4   4
#     4  12  25  44  72 101 144 184 232 291 350 413
#     4  12  23  44  74 102 134 185 238 284 341 411
#     4  11  25  46  71 101 137 182 234 288 347 409
#     4  12  25  45  72 100 139 183 231 286 348 416
#     4  11  26  47  69 101 141 181 233 286 345 421
#
# _framework density 22.311046999999999
#
# number of rings (size 3 to 8) (size 9 to 14) (size 15 to 20)
#    0.000    0.400    4.000    4.200    2.800    1.600 
#    3.600    0.000    0.000    0.000    0.000    0.000 
#    0.000    0.000    0.000    0.000    0.000    0.000 
#
# Total GULP energy -248111.805873 kJ/mol
# GULP energy per Si atom -12405.590294 kJ/mol
# Density = 2.226027 g / cm^3
# Si number density = 22.311047 Si / 1000 Ang^3
#
#
#
# Elastic Constant Matrix: (Units=GPa)
#
#
# Indices 1 2 3 4 5 6 
#
# 1 135.8891 47.2244 30.2335 0.0000 5.9890 0.0000
# 2 47.2244 108.9433 20.2284 0.0000 6.1170 0.0000
# 3 30.2335 20.2284 74.0305 0.0000 4.3003 0.0000
# 4 0.0000 0.0000 0.0000 19.3203 0.0000 9.0657
# 5 5.9890 6.1170 4.3003 0.0000 44.4505 0.0000
# 6 0.0000 0.0000 0.0000 9.0657 0.0000 33.7615
#
#
#
# Elastic Compliance Matrix: (Units=1/GPa)
#
#
# Indices 1 2 3 4 5 6 
#
# 1 0.009197 -0.003441 -0.002787 0.000000 -0.000496 0.000000
# 2 -0.003441 0.011009 -0.001550 0.000000 -0.000901 0.000000
# 3 -0.002787 -0.001550 0.015120 0.000000 -0.000874 0.000000
# 4 0.000000 0.000000 0.000000 0.059221 0.000000 -0.015902
# 5 -0.000496 -0.000901 -0.000874 0.000000 0.022772 0.000000
# 6 0.000000 0.000000 0.000000 -0.015902 0.000000 0.033890
#
#
# Mechanical properties :
#
#
# Convention : Reuss Voigt Hill
#
# Bulk Modulus (GPa) = 50.58303 57.13727 53.86015
# Shear Modulus (GPa) = 28.84235 34.25156 31.54695
#
# Velocity S-wave (km/s) = 3.59937 3.92239 3.76435
# Velocity P-wave (km/s) = 6.32415 6.79548 6.56405
#
# Compressibility (1/GPa) = 0.01976948
#
# Stress axis : x y z
#
# Youngs Moduli (GPa) = 108.73416 90.83226 66.13549
#
# Poissons Ratio (x) = 0.31258 0.18430
# Poissons Ratio (y) = 0.37419 0.10254
# Poissons Ratio (z) = 0.30302 0.14083
#
# Static dielectric constant tensor:
#      x y z
#    x 4.415180 0.000000 0.100520 
#    y 0.000000 3.858030 0.000000 
#    z 0.100520 0.000000 4.190730 
# 
# 
# High freq. dielectric constant tensor:
#      x y z
#    x 1.892050 0.000000 0.000680 
#    y 0.000000 1.874430 0.000000 
#    z 0.000680 0.000000 1.887380 
# 
# From -- ./inp_files/32419.got.cif
#   From: 2010.06.25/outbox.cif.g09.slc.cpg/sg13_17_cif.got.tgz:32419.got - 2010.06.28 04:50:58.
