data_PCOD8122299
_publ_section_title
;
Structure prediction by ZEFSAII (Michael W. Deem and Ramdas Pophale) SiO2 
 PCOD8122299
Probable space group: P 2/C
;
_chemical_formula_sum "Si O2"
_cell_formula_units_Z 30
_cell_length_a 9.667881
_cell_length_b 10.989025
_cell_length_c 19.329297
_cell_angle_alpha 90.000000
_cell_angle_beta 47.347577
_cell_angle_gamma 90.000000
_cell_volume 1510.344051
_symmetry_space_group_name_H-M "P 2/C"
_symmetry_group_IT_number 13
_symmetry_cell_setting 'monoclinic'
loop_
_space_group_symop_operation_xyz
x,y,z
-x,y,1/2-z
-x,-y,-z
x,-y,1/2+z
loop_
_atom_site_type_symbol
_atom_site_label
_atom_site_fract_x
_atom_site_fract_y
_atom_site_fract_z
Si Si1 0.347491 0.168109 0.859598
Si Si2 0.132326 0.394124 0.646798
Si Si3 0.599047 0.884718 0.645496
Si Si4 0.296561 0.810320 0.639037
Si Si5 0.842862 0.060285 0.855629
Si Si6 0.932956 0.210800 0.951270
Si Si7 0.000000 0.625536 0.750000
Si Si8 0.471617 0.250433 0.564555
O O1 0.500000 0.200827 0.750000
O O2 0.408749 0.242145 0.906425
O O3 0.142660 0.218003 0.909169
O O4 0.334244 0.023794 0.874490
O O5 0.106032 0.332134 0.580833
O O6 0.081834 0.538494 0.660677
O O7 0.341919 0.370865 0.605445
O O8 0.000000 0.331090 0.750000
O O9 0.500000 0.841894 0.750000
O O10 0.442233 0.873123 0.640330
O O11 0.779747 0.800441 0.565414
O O12 0.163198 0.713922 0.724291
O O13 0.392805 0.734098 0.546208
O O14 0.176257 0.915814 0.642884
O O15 0.908123 0.091834 0.911340
O O16 0.648715 0.127000 0.903295
O O17 0.000000 0.107786 0.750000
#
# Coordination Sequence:
#
# PCOD8122299 Si02
#       8
#     4   4   4   4   4   4   2   4
#     4  11  22  34  60 102 138 161 199 253 330 400
#     4   9  20  42  64  89 119 156 221 266 308 368
#     4  11  24  38  58  92 139 168 201 254 328 401
#     4  12  22  41  62  92 128 168 213 268 318 384
#     4  11  20  34  64  95 130 164 197 252 329 397
#     4  11  21  39  62  94 131 171 203 261 325 382
#     4  10  26  40  66  92 120 164 234 272 310 360
#     4  11  20  37  66  94 122 165 210 260 322 383
#
# _framework density 19.863025
#
# number of rings (size 3 to 8) (size 9 to 14) (size 15 to 20)
#    0.400    0.800    4.667    4.800    1.867    1.600 
#    0.000    0.000    2.933    1.600    0.000    0.000 
#    0.000    0.000    0.000    0.000    0.000    0.000 
#
# Total GULP energy -371842.210531 kJ/mol
# GULP energy per Si atom -12394.740351 kJ/mol
# Density = 1.981782 g / cm^3
# Si number density = 19.863025 Si / 1000 Ang^3
#
#
#
# Elastic Constant Matrix: (Units=GPa)
#
#
# Indices 1 2 3 4 5 6 
#
# 1 138.5147 25.4830 36.4187 0.0000 -2.0436 0.0000
# 2 25.4830 83.8251 13.9063 0.0000 -13.2658 0.0000
# 3 36.4187 13.9063 107.2759 0.0000 -3.0453 0.0000
# 4 0.0000 0.0000 0.0000 -77.2381 0.0000 62.4057
# 5 -2.0436 -13.2658 -3.0453 0.0000 31.1625 0.0000
# 6 0.0000 0.0000 0.0000 62.4057 0.0000 -30.3426
#
#
#
# Elastic Compliance Matrix: (Units=1/GPa)
#
#
# Indices 1 2 3 4 5 6 
#
# 1 0.008284 -0.002197 -0.002545 0.000000 -0.000641 0.000000
# 2 -0.002197 0.013622 -0.000862 0.000000 0.005571 0.000000
# 3 -0.002545 -0.000862 0.010311 0.000000 0.000474 0.000000
# 4 0.000000 0.000000 0.000000 0.019565 0.000000 0.040239
# 5 -0.000641 0.005571 0.000474 0.000000 0.034466 0.000000
# 6 0.000000 0.000000 0.000000 0.040239 0.000000 0.049803
#
#
# Mechanical properties :
#
#
# Convention : Reuss Voigt Hill
#
# Bulk Modulus (GPa) = 47.60193 53.47019 50.53606
# Shear Modulus (GPa) = 32.41235 1.63685 17.02460
#
# Velocity S-wave (km/s) = 4.04393 0.90877 2.93080
# Velocity P-wave (km/s) = 6.76917 5.29897 6.07868
#
# Compressibility (1/GPa) = 0.02100755
#
# Stress axis : x y z
#
# Youngs Moduli (GPa) = 120.72168 73.40988 96.98303
#
# Poissons Ratio (x) = 0.16131 0.24687
# Poissons Ratio (y) = 0.26527 0.08358
# Poissons Ratio (z) = 0.30730 0.06326
#
# Static dielectric constant tensor:
#      x y z
#    x 3.315670 0.000000 -0.146050 
#    y 0.000000 3.305530 0.000000 
#    z -0.146050 0.000000 3.869320 
# 
# 
# High freq. dielectric constant tensor:
#      x y z
#    x 1.768430 0.000000 -0.019200 
#    y 0.000000 1.748040 0.000000 
#    z -0.019200 0.000000 1.784920 
# 
# From -- ./inp_files/64446.got.cif
#   From: 2010.06.25/outbox.cif.g09.slc.cpg/sg13_33_cif.got.tgz:64446.got - 2010.06.28 04:50:58.
