data_PCOD8122826
_publ_section_title
;
Structure prediction by ZEFSAII (Michael W. Deem and Ramdas Pophale) SiO2 
 PCOD8122826
Probable space group: P 2/C
;
_chemical_formula_sum "Si O2"
_cell_formula_units_Z 28
_cell_length_a 11.408414
_cell_length_b 9.004083
_cell_length_c 14.906259
_cell_angle_alpha 90.000000
_cell_angle_beta 57.708853
_cell_angle_gamma 90.000000
_cell_volume 1294.395813
_symmetry_space_group_name_H-M "P 2/C"
_symmetry_group_IT_number 13
_symmetry_cell_setting 'monoclinic'
loop_
_space_group_symop_operation_xyz
x,y,z
-x,y,1/2-z
-x,-y,-z
x,-y,1/2+z
loop_
_atom_site_type_symbol
_atom_site_label
_atom_site_fract_x
_atom_site_fract_y
_atom_site_fract_z
Si Si1 0.148072 0.718482 0.342404
Si Si2 0.842455 0.301040 0.954201
Si Si3 0.588692 0.157891 0.130332
Si Si4 0.839647 0.470994 0.310323
Si Si5 0.850659 0.952254 0.304110
Si Si6 0.380407 0.811904 0.368044
Si Si7 0.638129 0.791735 0.921633
O O1 0.187732 0.582850 0.260821
O O2 0.242105 0.727281 0.392408
O O3 0.991591 0.692432 0.442136
O O4 0.171483 0.877701 0.284007
O O5 0.803616 0.453721 0.920498
O O6 0.858106 0.178462 0.871920
O O7 0.725520 0.259944 0.073916
O O8 0.500000 0.214162 0.250000
O O9 0.503458 0.185283 0.074337
O O10 0.636203 0.989020 0.123574
O O11 0.734776 0.335004 0.339815
O O12 0.000000 0.418714 0.250000
O O13 0.723498 0.056265 0.380846
O O14 0.000000 0.036670 0.250000
O O15 0.500000 0.763549 0.250000
O O16 0.409054 0.756074 0.457398
#
# Coordination Sequence:
#
# PCOD8122826 Si02
#       7
#     4   4   4   4   4   4   4
#     4   9  20  42  67  90 123 172 215 266 318 386
#     4   9  19  40  65  88 124 170 217 259 321 375
#     4  11  24  41  62  94 130 168 214 269 319 375
#     4   9  21  43  67  93 128 171 214 265 325 381
#     4   9  17  34  64  91 116 162 220 267 314 376
#     4  11  24  40  63  96 129 169 212 263 325 382
#     4  12  23  40  63  94 130 171 205 272 323 376
#
# _framework density 21.631713999999999
#
# number of rings (size 3 to 8) (size 9 to 14) (size 15 to 20)
#    0.000    2.000    1.429    4.286    4.000    1.143 
#    7.714    1.429    0.000    0.000    0.000    0.000 
#    0.000    0.000    0.000    0.000    0.000    0.000 
#
# Total GULP energy -347178.003747 kJ/mol
# GULP energy per Si atom -12399.214420 kJ/mol
# Density = 2.158248 g / cm^3
# Si number density = 21.631714 Si / 1000 Ang^3
#
#
#
# Elastic Constant Matrix: (Units=GPa)
#
#
# Indices 1 2 3 4 5 6 
#
# 1 92.3171 15.4282 24.4989 0.0000 11.9746 0.0000
# 2 15.4282 46.4559 -0.0433 0.0000 -1.0713 0.0000
# 3 24.4989 -0.0433 102.0963 0.0000 1.5514 0.0000
# 4 0.0000 0.0000 0.0000 13.5408 0.0000 4.6299
# 5 11.9746 -1.0713 1.5514 0.0000 34.2908 0.0000
# 6 0.0000 0.0000 0.0000 4.6299 0.0000 20.0271
#
#
#
# Elastic Compliance Matrix: (Units=1/GPa)
#
#
# Indices 1 2 3 4 5 6 
#
# 1 0.012965 -0.004413 -0.003044 0.000000 -0.004528 0.000000
# 2 -0.004413 0.023043 0.001035 0.000000 0.002214 0.000000
# 3 -0.003044 0.001035 0.010516 0.000000 0.000620 0.000000
# 4 0.000000 0.000000 0.000000 0.080190 0.000000 -0.018539
# 5 -0.004528 0.002214 0.000620 0.000000 0.030785 0.000000
# 6 0.000000 0.000000 0.000000 -0.018539 0.000000 0.054218
#
#
# Mechanical properties :
#
#
# Convention : Reuss Voigt Hill
#
# Bulk Modulus (GPa) = 29.69085 35.62631 32.65858
# Shear Modulus (GPa) = 21.20553 26.97077 24.08815
#
# Velocity S-wave (km/s) = 3.13437 3.53486 3.34062
# Velocity P-wave (km/s) = 5.18213 5.75895 5.47814
#
# Compressibility (1/GPa) = 0.03368041
#
# Stress axis : x y z
#
# Youngs Moduli (GPa) = 77.13170 43.39650 95.09179
#
# Poissons Ratio (x) = 0.19150 0.28947
# Poissons Ratio (y) = 0.34037 -0.09842
# Poissons Ratio (z) = 0.23480 -0.04492
#
# Static dielectric constant tensor:
#      x y z
#    x 4.066050 0.000000 -0.227990 
#    y 0.000000 3.686430 0.000000 
#    z -0.227990 0.000000 4.024410 
# 
# 
# High freq. dielectric constant tensor:
#      x y z
#    x 1.852200 0.000000 -0.010720 
#    y 0.000000 1.831990 0.000000 
#    z -0.010720 0.000000 1.847000 
# 
# From -- ./inp_files/50230.got.cif
#   From: 2010.06.25/outbox.cif.g09.slc.cpg/sg13_26_cif.got.tgz:50230.got - 2010.06.28 04:50:58.
