data_PCOD8122610
_publ_section_title
;
Structure prediction by ZEFSAII (Michael W. Deem and Ramdas Pophale) SiO2 
 PCOD8122610
Probable space group: P 2/C
;
_chemical_formula_sum "Si O2"
_cell_formula_units_Z 28
_cell_length_a 10.654166
_cell_length_b 14.629442
_cell_length_c 10.002995
_cell_angle_alpha 90.000000
_cell_angle_beta 58.371558
_cell_angle_gamma 90.000000
_cell_volume 1327.531852
_symmetry_space_group_name_H-M "P 2/C"
_symmetry_group_IT_number 13
_symmetry_cell_setting 'monoclinic'
loop_
_space_group_symop_operation_xyz
x,y,z
-x,y,1/2-z
-x,-y,-z
x,-y,1/2+z
loop_
_atom_site_type_symbol
_atom_site_label
_atom_site_fract_x
_atom_site_fract_y
_atom_site_fract_z
Si Si1 0.543258 0.769515 0.926170
Si Si2 0.258529 0.790809 0.925907
Si Si3 0.636969 0.564076 0.925516
Si Si4 0.800156 0.532081 0.093116
Si Si5 0.036231 0.637691 0.082694
Si Si6 0.102961 0.023293 0.567153
Si Si7 0.580665 0.059988 0.568517
O O1 0.371206 0.765332 0.981976
O O2 0.645172 0.817192 0.756827
O O3 0.597633 0.666980 0.911585
O O4 0.561768 0.832349 0.046551
O O5 0.151843 0.706152 0.949924
O O6 0.155968 0.873175 0.027418
O O7 0.750076 0.522507 0.754075
O O8 0.500000 0.500000 0.000000
O O9 0.677600 0.564924 0.058965
O O10 0.884880 0.626316 0.083913
O O11 0.899976 0.464780 0.947937
O O12 0.000000 0.674686 0.250000
O O13 0.000000 0.009164 0.750000
O O14 0.246226 0.959653 0.507091
O O15 0.000000 0.000000 0.500000
O O16 0.500000 0.035582 0.750000
O O17 0.500000 0.000000 0.500000
#
# Coordination Sequence:
#
# PCOD8122610 Si02
#       7
#     4   4   4   4   4   4   4
#     4  11  25  43  74 102 139 188 246 289 355 429
#     4  11  23  44  71 102 140 188 235 290 358 434
#     4  12  25  44  68 100 139 181 239 304 350 411
#     4  11  24  42  66  95 136 181 232 289 353 418
#     4  11  22  41  66  93 135 185 233 277 352 428
#     4  12  26  45  73 109 145 181 231 303 363 422
#     4  12  25  49  77 107 147 192 243 291 360 443
#
# _framework density 21.091773
#
# number of rings (size 3 to 8) (size 9 to 14) (size 15 to 20)
#    0.000    0.571    4.286    4.286    2.000    2.286 
#    0.000    1.429    0.000    0.000    0.000    0.000 
#    0.000    0.000    0.000    0.000    0.000    0.000 
#
# Total GULP energy -347128.657328 kJ/mol
# GULP energy per Si atom -12397.452047 kJ/mol
# Density = 2.104377 g / cm^3
# Si number density = 21.091773 Si / 1000 Ang^3
#
#
#
# Elastic Constant Matrix: (Units=GPa)
#
#
# Indices 1 2 3 4 5 6 
#
# 1 174.6433 68.8771 55.0500 0.0000 7.2258 0.0000
# 2 68.8771 103.1396 36.7443 0.0000 -1.7774 0.0000
# 3 55.0500 36.7443 122.3724 0.0000 0.1924 0.0000
# 4 0.0000 0.0000 0.0000 30.8673 0.0000 -5.1356
# 5 7.2258 -1.7774 0.1924 0.0000 37.7332 0.0000
# 6 0.0000 0.0000 0.0000 -5.1356 0.0000 43.4674
#
#
#
# Elastic Compliance Matrix: (Units=1/GPa)
#
#
# Indices 1 2 3 4 5 6 
#
# 1 0.008449 -0.004839 -0.002345 0.000000 -0.001834 0.000000
# 2 -0.004839 0.013638 -0.001921 0.000000 0.001579 0.000000
# 3 -0.002345 -0.001921 0.009803 0.000000 0.000309 0.000000
# 4 0.000000 0.000000 0.000000 0.033046 0.000000 0.003904
# 5 -0.001834 0.001579 0.000309 0.000000 0.026926 0.000000
# 6 0.000000 0.000000 0.000000 0.003904 0.000000 0.023467
#
#
# Mechanical properties :
#
#
# Convention : Reuss Voigt Hill
#
# Bulk Modulus (GPa) = 73.09270 80.16645 76.62957
# Shear Modulus (GPa) = 36.20558 38.37916 37.29237
#
# Velocity S-wave (km/s) = 4.14765 4.27034 4.20944
# Velocity P-wave (km/s) = 7.59389 7.89970 7.74830
#
# Compressibility (1/GPa) = 0.01368126
#
# Stress axis : x y z
#
# Youngs Moduli (GPa) = 118.35189 73.32230 102.00837
#
# Poissons Ratio (x) = 0.35478 0.23923
# Poissons Ratio (y) = 0.57266 0.19595
# Poissons Ratio (z) = 0.27756 0.14085
#
# Static dielectric constant tensor:
#      x y z
#    x 4.171940 0.000000 0.068510 
#    y 0.000000 3.700720 0.000000 
#    z 0.068510 0.000000 3.827780 
# 
# 
# High freq. dielectric constant tensor:
#      x y z
#    x 1.840110 0.000000 -0.005980 
#    y 0.000000 1.824470 0.000000 
#    z -0.005980 0.000000 1.834500 
# 
# From -- ./inp_files/16653.got.cif
#   From: 2010.06.25/outbox.cif.g09.slc.cpg/sg13_9_cif.got.tgz:16653.got - 2010.06.28 04:50:58.
