data_PCOD8122062
_publ_section_title
;
Structure prediction by ZEFSAII (Michael W. Deem and Ramdas Pophale) SiO2 
 PCOD8122062
Probable space group: P 2/C
;
_chemical_formula_sum "Si O2"
_cell_formula_units_Z 32
_cell_length_a 17.284499
_cell_length_b 7.109777
_cell_length_c 13.395162
_cell_angle_alpha 90.000000
_cell_angle_beta 69.546896
_cell_angle_gamma 90.000000
_cell_volume 1542.343503
_symmetry_space_group_name_H-M "P 2/C"
_symmetry_group_IT_number 13
_symmetry_cell_setting 'monoclinic'
loop_
_space_group_symop_operation_xyz
x,y,z
-x,y,1/2-z
-x,-y,-z
x,-y,1/2+z
loop_
_atom_site_type_symbol
_atom_site_label
_atom_site_fract_x
_atom_site_fract_y
_atom_site_fract_z
Si Si1 0.093713 0.695635 0.737598
Si Si2 0.642984 0.829050 0.034213
Si Si3 0.162974 0.285057 0.738747
Si Si4 0.344819 0.266979 0.741516
Si Si5 0.426970 0.595359 0.592544
Si Si6 0.477989 0.015419 0.146772
Si Si7 0.816116 0.992326 0.936010
Si Si8 0.088184 0.005103 0.410031
O O1 0.140766 0.500938 0.733377
O O2 0.138086 0.809902 0.629285
O O3 0.098188 0.811316 0.837672
O O4 0.000000 0.653769 0.750000
O O5 0.649472 0.746889 0.141845
O O6 0.556396 0.937941 0.047885
O O7 0.643699 0.657690 0.954817
O O8 0.717844 0.968225 0.977023
O O9 0.250922 0.259117 0.750481
O O10 0.160570 0.181431 0.633245
O O11 0.096682 0.184309 0.840810
O O12 0.385869 0.462909 0.692900
O O13 0.393747 0.099572 0.662937
O O14 0.500000 0.500000 0.500000
O O15 0.464521 0.766131 0.637909
O O16 0.500000 0.973344 0.250000
O O17 0.841130 0.018347 0.039095
O O18 0.000000 0.000000 0.500000
#
# Coordination Sequence:
#
# PCOD8122062 Si02
#       8
#     4   4   4   4   4   4   4   4
#     4  11  25  44  70 103 136 173 227 278 335 414
#     4  11  23  46  69  94 134 176 225 279 333 398
#     4  11  26  43  70 100 137 174 224 287 337 402
#     4  11  24  47  64  98 135 170 229 277 330 405
#     4  12  25  38  68  94 133 174 221 274 335 392
#     4  10  24  42  66  92 130 177 219 274 331 399
#     4  11  24  46  71  96 135 178 224 279 340 401
#     4  11  24  46  70  99 134 180 221 275 343 409
#
# _framework density 20.747648000000002
#
# number of rings (size 3 to 8) (size 9 to 14) (size 15 to 20)
#    0.000    1.000    3.750    1.875    5.250    2.500 
#    2.250    0.000    0.000    0.000    0.000    0.000 
#    0.000    0.000    0.000    0.000    0.000    0.000 
#
# Total GULP energy -396960.331667 kJ/mol
# GULP energy per Si atom -12405.010365 kJ/mol
# Density = 2.070043 g / cm^3
# Si number density = 20.747648 Si / 1000 Ang^3
#
#
#
# Elastic Constant Matrix: (Units=GPa)
#
#
# Indices 1 2 3 4 5 6 
#
# 1 113.4037 40.2173 25.7568 0.0000 -9.3146 0.0000
# 2 40.2173 144.8085 45.2116 0.0000 -3.2229 0.0000
# 3 25.7568 45.2116 94.2346 0.0000 -5.2653 0.0000
# 4 0.0000 0.0000 0.0000 24.3644 0.0000 1.7805
# 5 -9.3146 -3.2229 -5.2653 0.0000 37.4961 0.0000
# 6 0.0000 0.0000 0.0000 1.7805 0.0000 34.0645
#
#
#
# Elastic Compliance Matrix: (Units=1/GPa)
#
#
# Indices 1 2 3 4 5 6 
#
# 1 0.010157 -0.002286 -0.001561 0.000000 0.002107 0.000000
# 2 -0.002286 0.008638 -0.003537 0.000000 -0.000322 0.000000
# 3 -0.001561 -0.003537 0.012797 0.000000 0.001105 0.000000
# 4 0.000000 0.000000 0.000000 0.041201 0.000000 -0.002153
# 5 0.002107 -0.000322 0.001105 0.000000 0.027320 0.000000
# 6 0.000000 0.000000 0.000000 -0.002153 0.000000 0.029469
#
#
# Mechanical properties :
#
#
# Convention : Reuss Voigt Hill
#
# Bulk Modulus (GPa) = 59.44675 63.86869 61.65772
# Shear Modulus (GPa) = 33.34239 35.26909 34.30574
#
# Velocity S-wave (km/s) = 4.01314 4.12747 4.07071
# Velocity P-wave (km/s) = 7.08437 7.31881 7.20255
#
# Compressibility (1/GPa) = 0.01682178
#
# Stress axis : x y z
#
# Youngs Moduli (GPa) = 98.45819 115.76875 78.14046
#
# Poissons Ratio (x) = 0.26469 0.12201
# Poissons Ratio (y) = 0.22511 0.27641
# Poissons Ratio (z) = 0.15373 0.40951
#
# Static dielectric constant tensor:
#      x y z
#    x 3.946960 0.000000 0.022790 
#    y 0.000000 3.687750 0.000000 
#    z 0.022790 0.000000 4.194010 
# 
# 
# High freq. dielectric constant tensor:
#      x y z
#    x 1.825170 0.000000 0.002440 
#    y 0.000000 1.810750 0.000000 
#    z 0.002440 0.000000 1.830270 
# 
# From -- ./inp_files/54638.got.cif
#   From: 2010.06.25/outbox.cif.g09.slc.cpg/sg13_28_cif.got.tgz:54638.got - 2010.06.28 04:50:58.
