data_PCOD8122492
_publ_section_title
;
Structure prediction by ZEFSAII (Michael W. Deem and Ramdas Pophale) SiO2 
 PCOD8122492
Probable space group: P 2/C
;
_chemical_formula_sum "Si O2"
_cell_formula_units_Z 30
_cell_length_a 24.879415
_cell_length_b 11.184975
_cell_length_c 13.657963
_cell_angle_alpha 90.000000
_cell_angle_beta 158.054059
_cell_angle_gamma 90.000000
_cell_volume 1420.433674
_symmetry_space_group_name_H-M "P 2/C"
_symmetry_group_IT_number 13
_symmetry_cell_setting 'monoclinic'
loop_
_space_group_symop_operation_xyz
x,y,z
-x,y,1/2-z
-x,-y,-z
x,-y,1/2+z
loop_
_atom_site_type_symbol
_atom_site_label
_atom_site_fract_x
_atom_site_fract_y
_atom_site_fract_z
Si Si1 0.416048 0.502670 0.015199
Si Si2 0.175221 0.315206 0.408526
Si Si3 0.334879 0.839958 0.948484
Si Si4 0.837061 0.400074 0.323343
Si Si5 0.000000 0.474161 0.250000
Si Si6 0.858122 0.941219 0.713860
Si Si7 0.360587 0.921378 0.780822
Si Si8 0.500190 0.678260 0.509882
O O1 0.500000 0.555310 0.250000
O O2 0.416122 0.591775 0.922911
O O3 0.257400 0.488972 0.792916
O O4 0.479463 0.377826 0.082948
O O5 0.139116 0.398881 0.253010
O O6 0.124626 0.384114 0.420514
O O7 0.099969 0.185413 0.267020
O O8 0.345874 0.290378 0.701438
O O9 0.240352 0.721382 0.773610
O O10 0.265094 0.920612 0.914086
O O11 0.327056 0.918907 0.838603
O O12 0.500000 0.805529 0.250000
O O13 0.979359 0.433045 0.624246
O O14 0.786180 0.031644 0.515667
O O15 0.000000 0.000000 0.000000
O O16 0.398899 0.791411 0.803283
O O17 0.500000 0.000000 0.000000
#
# Coordination Sequence:
#
# PCOD8122492 Si02
#       8
#     4   4   4   4   2   4   4   4
#     4  11  21  39  66  96 134 163 211 278 336 390
#     4  11  23  44  65  88 135 175 221 267 345 401
#     4  11  22  43  73  96 128 181 228 278 339 409
#     4  11  22  40  67  91 128 177 222 259 335 413
#     4  12  26  42  62  98 136 180 214 280 340 410
#     4  11  27  47  67  98 135 178 227 285 344 407
#     4  12  22  42  73 100 130 172 232 281 332 401
#     4  11  22  40  67 102 124 170 224 279 332 402
#
# _framework density 21.120311000000001
#
# number of rings (size 3 to 8) (size 9 to 14) (size 15 to 20)
#    0.000    0.800    6.667    1.600    0.000    3.733 
#    4.800    0.000    0.000    0.000    0.000    0.000 
#    0.000    0.000    0.000    0.000    0.000    0.000 
#
# Total GULP energy -371757.525611 kJ/mol
# GULP energy per Si atom -12391.917520 kJ/mol
# Density = 2.107224 g / cm^3
# Si number density = 21.120311 Si / 1000 Ang^3
#
#
#
# Elastic Constant Matrix: (Units=GPa)
#
#
# Indices 1 2 3 4 5 6 
#
# 1 102.9569 43.0385 16.1323 0.0000 -14.2719 0.0000
# 2 43.0385 104.3527 35.0500 0.0000 -13.6245 0.0000
# 3 16.1323 35.0500 90.7095 0.0000 -14.5680 0.0000
# 4 0.0000 0.0000 0.0000 35.2632 0.0000 -4.6911
# 5 -14.2719 -13.6245 -14.5680 0.0000 29.1667 0.0000
# 6 0.0000 0.0000 0.0000 -4.6911 0.0000 26.0176
#
#
#
# Elastic Compliance Matrix: (Units=1/GPa)
#
#
# Indices 1 2 3 4 5 6 
#
# 1 0.012130 -0.004571 0.000238 0.000000 0.003919 0.000000
# 2 -0.004571 0.013031 -0.003918 0.000000 0.001894 0.000000
# 3 0.000238 -0.003918 0.013286 0.000000 0.004923 0.000000
# 4 0.000000 0.000000 0.000000 0.029055 0.000000 0.005239
# 5 0.003919 0.001894 0.004923 0.000000 0.039546 0.000000
# 6 0.000000 0.000000 0.000000 0.005239 0.000000 0.039380
#
#
# Mechanical properties :
#
#
# Convention : Reuss Voigt Hill
#
# Bulk Modulus (GPa) = 45.56718 54.05119 49.80919
# Shear Modulus (GPa) = 29.36928 31.67606 30.52267
#
# Velocity S-wave (km/s) = 3.73308 3.87692 3.80568
# Velocity P-wave (km/s) = 6.34059 6.75931 6.55329
#
# Compressibility (1/GPa) = 0.02194562
#
# Stress axis : x y z
#
# Youngs Moduli (GPa) = 82.44360 76.73756 75.26515
#
# Poissons Ratio (x) = 0.35077 -0.01795
# Poissons Ratio (y) = 0.37685 0.29491
# Poissons Ratio (z) = -0.01966 0.30068
#
# Static dielectric constant tensor:
#      x y z
#    x 4.121200 0.000000 -0.047260 
#    y 0.000000 4.051990 0.000000 
#    z -0.047260 0.000000 4.033420 
# 
# 
# High freq. dielectric constant tensor:
#      x y z
#    x 1.840120 0.000000 -0.001960 
#    y 0.000000 1.820720 0.000000 
#    z -0.001960 0.000000 1.820160 
# 
# From -- ./inp_files/59648.got.cif
#   From: 2010.06.25/outbox.cif.g09.slc.cpg/sg13_30_cif.got.tgz:59648.got - 2010.06.28 04:50:58.
