data_PCOD8122078
_publ_section_title
;
Structure prediction by ZEFSAII (Michael W. Deem and Ramdas Pophale) SiO2 
 PCOD8122078
Probable space group: P 2/C
;
_chemical_formula_sum "Si O2"
_cell_formula_units_Z 26
_cell_length_a 12.452935
_cell_length_b 11.157686
_cell_length_c 16.864953
_cell_angle_alpha 90.000000
_cell_angle_beta 150.546262
_cell_angle_gamma 90.000000
_cell_volume 1152.257230
_symmetry_space_group_name_H-M "P 2/C"
_symmetry_group_IT_number 13
_symmetry_cell_setting 'monoclinic'
loop_
_space_group_symop_operation_xyz
x,y,z
-x,y,1/2-z
-x,-y,-z
x,-y,1/2+z
loop_
_atom_site_type_symbol
_atom_site_label
_atom_site_fract_x
_atom_site_fract_y
_atom_site_fract_z
Si Si1 0.253621 0.610405 0.595636
Si Si2 0.500000 0.796213 0.250000
Si Si3 0.938595 0.055054 0.044862
Si Si4 0.961510 0.189212 0.633184
Si Si5 0.178787 0.769620 0.801155
Si Si6 0.610045 0.292800 0.656015
Si Si7 0.847720 0.464904 0.298982
O O1 0.500000 0.564065 0.750000
O O2 0.184035 0.616179 0.642807
O O3 0.234056 0.734982 0.533797
O O4 0.091244 0.516748 0.450198
O O5 0.709639 0.878157 0.396786
O O6 0.463189 0.708025 0.299982
O O7 0.133168 0.146406 0.195520
O O8 0.910285 0.950844 0.092272
O O9 0.000000 0.000000 0.000000
O O10 0.173702 0.215717 0.716985
O O11 0.000000 0.224687 0.750000
O O12 0.157636 0.627420 0.775789
O O13 0.000000 0.811553 0.750000
O O14 0.429835 0.779374 0.989317
O O15 0.663320 0.431724 0.668957
#
# Coordination Sequence:
#
# PCOD8122078 Si02
#       7
#     4   2   4   4   4   4   4
#     4  10  24  42  68  99 137 188 234 287 352 421
#     4  12  26  46  74 102 140 192 234 300 354 424
#     4  12  26  47  73 103 140 189 242 291 358 430
#     4  11  26  46  67 104 146 182 239 296 358 421
#     4  12  26  44  73 107 142 186 239 289 365 429
#     4  11  26  47  71 105 143 187 236 297 358 425
#     4  10  25  43  70 103 140 183 238 291 354 432
#
# _framework density 22.564404
#
# number of rings (size 3 to 8) (size 9 to 14) (size 15 to 20)
#    0.000    0.923    3.077    1.846   10.769    4.308 
#    0.000    0.000    0.000    0.000    0.000    0.000 
#    0.000    0.000    0.000    0.000    0.000    0.000 
#
# Total GULP energy -322353.174571 kJ/mol
# GULP energy per Si atom -12398.199022 kJ/mol
# Density = 2.251305 g / cm^3
# Si number density = 22.564404 Si / 1000 Ang^3
#
#
#
# Elastic Constant Matrix: (Units=GPa)
#
#
# Indices 1 2 3 4 5 6 
#
# 1 84.6554 33.9310 33.7303 0.0000 2.0539 0.0000
# 2 33.9310 113.9105 37.3611 0.0000 -3.7326 0.0000
# 3 33.7303 37.3611 127.0559 0.0000 2.6677 0.0000
# 4 0.0000 0.0000 0.0000 16.3195 0.0000 -13.1734
# 5 2.0539 -3.7326 2.6677 0.0000 29.8998 0.0000
# 6 0.0000 0.0000 0.0000 -13.1734 0.0000 38.9177
#
#
#
# Elastic Compliance Matrix: (Units=1/GPa)
#
#
# Indices 1 2 3 4 5 6 
#
# 1 0.014305 -0.003388 -0.002777 0.000000 -0.001158 0.000000
# 2 -0.003388 0.010583 -0.002249 0.000000 0.001755 0.000000
# 3 -0.002777 -0.002249 0.009289 0.000000 -0.000919 0.000000
# 4 0.000000 0.000000 0.000000 0.084314 0.000000 0.028540
# 5 -0.001158 0.001755 -0.000919 0.000000 0.033826 0.000000
# 6 0.000000 0.000000 0.000000 0.028540 0.000000 0.035356
#
#
# Mechanical properties :
#
#
# Convention : Reuss Voigt Hill
#
# Bulk Modulus (GPa) = 57.64460 59.51852 58.58156
# Shear Modulus (GPa) = 23.77725 31.73402 27.75563
#
# Velocity S-wave (km/s) = 3.24967 3.75424 3.51103
# Velocity P-wave (km/s) = 6.29942 6.72509 6.51573
#
# Compressibility (1/GPa) = 0.01734768
#
# Stress axis : x y z
#
# Youngs Moduli (GPa) = 69.90442 94.48788 107.65969
#
# Poissons Ratio (x) = 0.32015 0.29898
# Poissons Ratio (y) = 0.23685 0.24217
# Poissons Ratio (z) = 0.19413 0.21254
#
# Static dielectric constant tensor:
#      x y z
#    x 4.033220 0.000000 -0.096270 
#    y 0.000000 4.056050 0.000000 
#    z -0.096270 0.000000 4.178950 
# 
# 
# High freq. dielectric constant tensor:
#      x y z
#    x 1.885990 0.000000 -0.005400 
#    y 0.000000 1.892300 0.000000 
#    z -0.005400 0.000000 1.897490 
# 
# From -- ./inp_files/66737.got.cif
#   From: 2010.06.25/outbox.cif.g09.slc.cpg/sg13_34_cif.got.tgz:66737.got - 2010.06.28 04:50:58.
