data_PCOD8122845
_publ_section_title
;
Structure prediction by ZEFSAII (Michael W. Deem and Ramdas Pophale) SiO2 
 PCOD8122845
Probable space group: P 2/C
;
_chemical_formula_sum "Si O2"
_cell_formula_units_Z 18
_cell_length_a 15.885923
_cell_length_b 6.381796
_cell_length_c 14.110305
_cell_angle_alpha 90.000000
_cell_angle_beta 143.864894
_cell_angle_gamma 90.000000
_cell_volume 843.561020
_symmetry_space_group_name_H-M "P 2/C"
_symmetry_group_IT_number 13
_symmetry_cell_setting 'monoclinic'
loop_
_space_group_symop_operation_xyz
x,y,z
-x,y,1/2-z
-x,-y,-z
x,-y,1/2+z
loop_
_atom_site_type_symbol
_atom_site_label
_atom_site_fract_x
_atom_site_fract_y
_atom_site_fract_z
Si Si1 0.384309 0.407203 0.750831
Si Si2 0.346399 0.168042 0.527596
Si Si3 0.895617 0.692503 0.408451
Si Si4 0.941459 0.971598 0.800331
Si Si5 0.500000 0.786773 0.750000
O O1 0.321492 0.304031 0.598753
O O2 0.524156 0.277396 0.913304
O O3 0.264888 0.393482 0.723192
O O4 0.422887 0.647004 0.760690
O O5 0.202552 0.168382 0.335114
O O6 0.383791 0.930121 0.591112
O O7 0.000000 0.500000 0.500000
O O8 0.938196 0.848464 0.532169
O O9 0.903780 0.809523 0.315757
O O10 0.000000 0.025027 0.750000
#
# Coordination Sequence:
#
# PCOD8122845 Si02
#       5
#     4   4   4   4   2
#     4   9  19  38  59  93 123 151 212 253 296 368
#     4   9  19  38  65  86 117 167 202 249 303 367
#     4  11  26  40  62  96 128 160 206 261 304 368
#     4  11  24  43  63  89 126 169 205 251 314 366
#     4   8  18  32  66  88 118 162 202 252 302 350
#
# _framework density 21.338113
#
# number of rings (size 3 to 8) (size 9 to 14) (size 15 to 20)
#    0.000    2.667    2.222    0.000    3.111    7.111 
#    0.000    2.222    0.000    0.000    0.000    0.000 
#    0.000    0.000    0.000    0.000    0.000    0.000 
#
# Total GULP energy -223198.051615 kJ/mol
# GULP energy per Si atom -12399.891756 kJ/mol
# Density = 2.128955 g / cm^3
# Si number density = 21.338113 Si / 1000 Ang^3
#
#
#
# Elastic Constant Matrix: (Units=GPa)
#
#
# Indices 1 2 3 4 5 6 
#
# 1 130.9364 22.1916 15.6864 0.0000 19.5368 0.0000
# 2 22.1916 83.7214 -10.2821 0.0000 3.6311 0.0000
# 3 15.6864 -10.2821 67.3711 0.0000 12.9262 0.0000
# 4 0.0000 0.0000 0.0000 21.5831 0.0000 10.8827
# 5 19.5368 3.6311 12.9262 0.0000 38.9952 0.0000
# 6 0.0000 0.0000 0.0000 10.8827 0.0000 10.9135
#
#
#
# Elastic Compliance Matrix: (Units=1/GPa)
#
#
# Indices 1 2 3 4 5 6 
#
# 1 0.008786 -0.002383 -0.001717 0.000000 -0.003611 0.000000
# 2 -0.002383 0.012948 0.002705 0.000000 -0.000908 0.000000
# 3 -0.001717 0.002705 0.016594 0.000000 -0.004893 0.000000
# 4 0.000000 0.000000 0.000000 0.093186 0.000000 -0.092923
# 5 -0.003611 -0.000908 -0.004893 0.000000 0.029160 0.000000
# 6 0.000000 0.000000 0.000000 -0.092923 0.000000 0.184289
#
#
# Mechanical properties :
#
#
# Convention : Reuss Voigt Hill
#
# Bulk Modulus (GPa) = 28.13803 37.46899 32.80351
# Shear Modulus (GPa) = 13.90443 31.26058 22.58251
#
# Velocity S-wave (km/s) = 2.55546 3.83170 3.25671
# Velocity P-wave (km/s) = 4.68215 6.09702 5.43582
#
# Compressibility (1/GPa) = 0.03553908
#
# Stress axis : x y z
#
# Youngs Moduli (GPa) = 113.82316 77.23412 60.26127
#
# Poissons Ratio (x) = 0.18405 0.10344
# Poissons Ratio (y) = 0.27123 -0.16302
# Poissons Ratio (z) = 0.19538 -0.20893
#
# Static dielectric constant tensor:
#      x y z
#    x 3.733450 0.000000 0.239220 
#    y 0.000000 3.894950 0.000000 
#    z 0.239220 0.000000 3.887300 
# 
# 
# High freq. dielectric constant tensor:
#      x y z
#    x 1.827600 0.000000 0.017660 
#    y 0.000000 1.840680 0.000000 
#    z 0.017660 0.000000 1.831600 
# 
# From -- ./inp_files/51982.got.cif
#   From: 2010.06.25/outbox.cif.g09.slc.cpg/sg13_26_cif.got.tgz:51982.got - 2010.06.28 04:50:58.
