data_PCOD8122320
_publ_section_title
;
Structure prediction by ZEFSAII (Michael W. Deem and Ramdas Pophale) SiO2 
 PCOD8122320
Probable space group: P 2/C
;
_chemical_formula_sum "Si O2"
_cell_formula_units_Z 16
_cell_length_a 14.688567
_cell_length_b 10.841571
_cell_length_c 10.763233
_cell_angle_alpha 90.000000
_cell_angle_beta 25.465451
_cell_angle_gamma 90.000000
_cell_volume 736.969096
_symmetry_space_group_name_H-M "P 2/C"
_symmetry_group_IT_number 13
_symmetry_cell_setting 'monoclinic'
loop_
_space_group_symop_operation_xyz
x,y,z
-x,y,1/2-z
-x,-y,-z
x,-y,1/2+z
loop_
_atom_site_type_symbol
_atom_site_label
_atom_site_fract_x
_atom_site_fract_y
_atom_site_fract_z
Si Si1 0.732706 0.234015 0.925395
Si Si2 0.500000 0.312147 0.750000
Si Si3 0.129288 0.501922 0.714564
Si Si4 0.000000 0.051379 0.750000
Si Si5 0.789478 0.815878 0.074053
O O1 0.770069 0.368377 0.937905
O O2 0.765978 0.241534 0.737941
O O3 0.901958 0.135848 0.764832
O O4 0.500000 0.188241 0.250000
O O5 0.692498 0.398373 0.472983
O O6 0.425572 0.222247 0.731138
O O7 0.000000 0.539529 0.750000
O O8 0.000000 0.500000 0.000000
O O9 0.181698 0.965020 0.462389
O O10 0.000000 0.757017 0.750000
#
# Coordination Sequence:
#
# PCOD8122320 Si02
#       5
#     4   2   4   2   4
#     4  12  25  45  73 107 138 185 243 295 356 419
#     4  12  24  46  72 102 142 188 236 284 364 428
#     4  12  27  45  72 106 146 186 238 301 358 431
#     4  10  26  48  72 100 148 182 242 294 352 420
#     4  10  26  46  71 102 140 193 233 291 357 426
#
# _framework density 21.710545
#
# number of rings (size 3 to 8) (size 9 to 14) (size 15 to 20)
#    0.750    0.000    2.500    4.500    5.250    5.000 
#    0.000    0.000    0.000    0.000    0.000    0.000 
#    0.000    0.000    0.000    0.000    0.000    0.000 
#
# Total GULP energy -198387.227750 kJ/mol
# GULP energy per Si atom -12399.201734 kJ/mol
# Density = 2.166113 g / cm^3
# Si number density = 21.710545 Si / 1000 Ang^3
#
#
#
# Elastic Constant Matrix: (Units=GPa)
#
#
# Indices 1 2 3 4 5 6 
#
# 1 163.6077 46.2519 78.6567 0.0000 -14.2387 0.0000
# 2 46.2519 137.6483 39.1571 0.0000 -31.4848 0.0000
# 3 78.6567 39.1571 124.2591 0.0000 -5.8349 0.0000
# 4 0.0000 0.0000 0.0000 -61.9916 0.0000 -63.9308
# 5 -14.2387 -31.4848 -5.8349 0.0000 45.7106 0.0000
# 6 0.0000 0.0000 0.0000 -63.9308 0.0000 14.7815
#
#
#
# Elastic Compliance Matrix: (Units=1/GPa)
#
#
# Indices 1 2 3 4 5 6 
#
# 1 0.009144 -0.001259 -0.005330 0.000000 0.001301 0.000000
# 2 -0.001259 0.009610 -0.001951 0.000000 0.005978 0.000000
# 3 -0.005330 -0.001951 0.011967 0.000000 -0.001477 0.000000
# 4 0.000000 0.000000 0.000000 -0.002954 0.000000 -0.012777
# 5 0.001301 0.005978 -0.001477 0.000000 0.026211 0.000000
# 6 0.000000 0.000000 0.000000 -0.012777 0.000000 0.012390
#
#
# Mechanical properties :
#
#
# Convention : Reuss Voigt Hill
#
# Bulk Modulus (GPa) = 73.30588 83.73849 78.52219
# Shear Modulus (GPa) = 56.82116 17.13009 36.97562
#
# Velocity S-wave (km/s) = 5.12142 2.81200 4.13136
# Velocity P-wave (km/s) = 8.29520 7.01408 7.68139
#
# Compressibility (1/GPa) = 0.01364147
#
# Stress axis : x y z
#
# Youngs Moduli (GPa) = 109.36273 104.05579 83.56049
#
# Poissons Ratio (x) = 0.13096 0.44541
# Poissons Ratio (y) = 0.13764 0.16303
# Poissons Ratio (z) = 0.58295 0.20302
#
# Static dielectric constant tensor:
#      x y z
#    x 4.085910 0.000000 -0.487230 
#    y 0.000000 4.120360 0.000000 
#    z -0.487230 0.000000 4.014700 
# 
# 
# High freq. dielectric constant tensor:
#      x y z
#    x 1.856480 0.000000 -0.011910 
#    y 0.000000 1.875830 0.000000 
#    z -0.011910 0.000000 1.844250 
# 
# From -- ./inp_files/12001.got.cif
#   From: 2010.06.25/outbox.cif.g09.slc.cpg/sg13_7_cif.got.tgz:12001.got - 2010.06.28 04:50:58.
