data_PCOD8122856
_publ_section_title
;
Structure prediction by ZEFSAII (Michael W. Deem and Ramdas Pophale) SiO2 
 PCOD8122856
Probable space group: P 2/C
;
_chemical_formula_sum "Si O2"
_cell_formula_units_Z 24
_cell_length_a 21.546117
_cell_length_b 9.036457
_cell_length_c 13.979427
_cell_angle_alpha 90.000000
_cell_angle_beta 157.047232
_cell_angle_gamma 90.000000
_cell_volume 1061.427146
_symmetry_space_group_name_H-M "P 2/C"
_symmetry_group_IT_number 13
_symmetry_cell_setting 'monoclinic'
loop_
_space_group_symop_operation_xyz
x,y,z
-x,y,1/2-z
-x,-y,-z
x,-y,1/2+z
loop_
_atom_site_type_symbol
_atom_site_label
_atom_site_fract_x
_atom_site_fract_y
_atom_site_fract_z
Si Si1 0.765939 0.710654 0.891075
Si Si2 0.223204 0.470212 0.740107
Si Si3 0.571188 0.809342 0.019894
Si Si4 0.500000 0.982801 0.250000
Si Si5 0.000000 0.047120 0.750000
Si Si6 0.258835 0.154238 0.547457
Si Si7 0.863539 0.533463 0.675127
O O1 0.718514 0.620681 0.728826
O O2 0.613426 0.777609 0.726192
O O3 0.879396 0.846354 0.020741
O O4 0.857641 0.605237 0.096107
O O5 0.233907 0.495549 0.868085
O O6 0.045516 0.426911 0.456202
O O7 0.342598 0.342339 0.881861
O O8 0.589010 0.919008 0.955881
O O9 0.353434 0.115283 0.779069
O O10 0.634076 0.880231 0.392520
O O11 0.098328 0.944751 0.815458
O O12 0.216153 0.326857 0.489298
#
# Coordination Sequence:
#
# PCOD8122856 Si02
#       7
#     4   4   4   2   2   4   4
#     4  12  24  47  73 102 141 188 242 299 354 426
#     4  11  24  43  76 105 139 186 241 304 349 423
#     4  12  26  48  73 106 145 192 240 298 367 420
#     4  12  28  46  68 108 152 184 240 294 364 446
#     4  12  26  46  76 100 146 194 228 298 364 430
#     4  12  28  47  75 106 149 191 237 299 362 437
#     4  11  25  45  71 110 139 183 247 296 356 423
#
# _framework density 22.611066000000001
#
# number of rings (size 3 to 8) (size 9 to 14) (size 15 to 20)
#    0.000    0.333    5.000    3.000    2.333    0.000 
#    0.000    2.500    0.000    0.000    0.000    0.000 
#    0.000    0.000    0.000    0.000    0.000    0.000 
#
# Total GULP energy -297766.602008 kJ/mol
# GULP energy per Si atom -12406.941750 kJ/mol
# Density = 2.255960 g / cm^3
# Si number density = 22.611066 Si / 1000 Ang^3
#
#
#
# Elastic Constant Matrix: (Units=GPa)
#
#
# Indices 1 2 3 4 5 6 
#
# 1 132.2773 40.7786 36.9128 0.0000 3.0041 0.0000
# 2 40.7786 101.2936 40.1057 0.0000 12.1603 0.0000
# 3 36.9128 40.1057 86.7580 0.0000 7.0904 0.0000
# 4 0.0000 0.0000 0.0000 19.5371 0.0000 -4.3673
# 5 3.0041 12.1603 7.0904 0.0000 45.3011 0.0000
# 6 0.0000 0.0000 0.0000 -4.3673 0.0000 42.6866
#
#
#
# Elastic Compliance Matrix: (Units=1/GPa)
#
#
# Indices 1 2 3 4 5 6 
#
# 1 0.009122 -0.002671 -0.002690 0.000000 0.000533 0.000000
# 2 -0.002671 0.013130 -0.004720 0.000000 -0.002609 0.000000
# 3 -0.002690 -0.004720 0.014925 0.000000 -0.000891 0.000000
# 4 0.000000 0.000000 0.000000 0.052383 0.000000 0.005359
# 5 0.000533 -0.002609 -0.000891 0.000000 0.022879 0.000000
# 6 0.000000 0.000000 0.000000 0.005359 0.000000 0.023975
#
#
# Mechanical properties :
#
#
# Convention : Reuss Voigt Hill
#
# Bulk Modulus (GPa) = 58.77092 61.76925 60.27009
# Shear Modulus (GPa) = 30.81731 35.00706 32.91219
#
# Velocity S-wave (km/s) = 3.69579 3.93902 3.81934
# Velocity P-wave (km/s) = 6.65285 6.93291 6.79432
#
# Compressibility (1/GPa) = 0.01701522
#
# Stress axis : x y z
#
# Youngs Moduli (GPa) = 109.62650 76.16414 67.00035
#
# Poissons Ratio (x) = 0.20346 0.18022
# Poissons Ratio (y) = 0.29284 0.31622
# Poissons Ratio (z) = 0.29487 0.35947
#
# Static dielectric constant tensor:
#      x y z
#    x 4.280530 0.000000 0.085450 
#    y 0.000000 4.111110 0.000000 
#    z 0.085450 0.000000 4.042030 
# 
# 
# High freq. dielectric constant tensor:
#      x y z
#    x 1.900310 0.000000 0.014260 
#    y 0.000000 1.906550 0.000000 
#    z 0.014260 0.000000 1.889800 
# 
# From -- ./inp_files/58766.got.cif
#   From: 2010.06.25/outbox.cif.g09.slc.cpg/sg13_30_cif.got.tgz:58766.got - 2010.06.28 04:50:58.
