data_PCOD8122045
_publ_section_title
;
Structure prediction by ZEFSAII (Michael W. Deem and Ramdas Pophale) SiO2 
 PCOD8122045
Probable space group: P 2/C
;
_chemical_formula_sum "Si O2"
_cell_formula_units_Z 28
_cell_length_a 29.918972
_cell_length_b 5.182956
_cell_length_c 8.860572
_cell_angle_alpha 90.000000
_cell_angle_beta 117.367054
_cell_angle_gamma 90.000000
_cell_volume 1220.219524
_symmetry_space_group_name_H-M "P 2/C"
_symmetry_group_IT_number 13
_symmetry_cell_setting 'monoclinic'
loop_
_space_group_symop_operation_xyz
x,y,z
-x,y,1/2-z
-x,-y,-z
x,-y,1/2+z
loop_
_atom_site_type_symbol
_atom_site_label
_atom_site_fract_x
_atom_site_fract_y
_atom_site_fract_z
Si Si1 0.209845 0.711053 0.393363
Si Si2 0.905704 0.725292 0.243953
Si Si3 0.359350 0.197339 0.517903
Si Si4 0.245846 0.800337 0.783650
Si Si5 0.407842 0.512005 0.331559
Si Si6 0.446005 0.175213 0.151472
Si Si7 0.942529 0.781134 0.637728
O O1 0.151938 0.641517 0.328985
O O2 0.237044 0.764649 0.593156
O O3 0.235584 0.468164 0.352055
O O4 0.211681 0.966903 0.292593
O O5 0.931740 0.762081 0.444595
O O6 0.933152 0.494877 0.199153
O O7 0.908428 0.992528 0.155689
O O8 0.303051 0.106199 0.397630
O O9 0.384931 0.304972 0.408034
O O10 0.359454 0.391986 0.659572
O O11 0.396445 0.972642 0.630335
O O12 0.449338 0.408567 0.277451
O O13 0.436991 0.735904 0.466197
O O14 0.500000 0.027770 0.250000
O O15 0.000000 0.863440 0.750000
#
# Coordination Sequence:
#
# PCOD8122045 Si02
#       7
#     4   4   4   4   4   4   4
#     4  12  26  47  71 103 136 190 232 298 347 415
#     4  12  24  44  69  99 144 183 243 288 350 415
#     4  11  25  41  66  90 127 164 211 273 327 406
#     4  12  27  44  72 100 139 176 240 284 361 410
#     4  10  24  42  64  91 127 163 210 257 337 383
#     4  11  24  42  66  95 128 167 212 262 333 402
#     4  12  24  42  69 104 144 189 234 291 351 416
#
# _framework density 22.94669
#
# number of rings (size 3 to 8) (size 9 to 14) (size 15 to 20)
#    0.000    0.571    0.000    7.714    8.000    4.571 
#    0.000    0.000    0.000    0.000    0.000    0.000 
#    0.000    0.000    0.000    0.000    0.000    0.000 
#
# Total GULP energy -347235.984174 kJ/mol
# GULP energy per Si atom -12401.285149 kJ/mol
# Density = 2.289446 g / cm^3
# Si number density = 22.946690 Si / 1000 Ang^3
#
#
#
# Elastic Constant Matrix: (Units=GPa)
#
#
# Indices 1 2 3 4 5 6 
#
# 1 63.0117 13.4437 20.4404 0.0000 17.8622 0.0000
# 2 13.4437 109.1586 23.4808 0.0000 -18.1247 0.0000
# 3 20.4404 23.4808 90.5398 0.0000 -13.1569 0.0000
# 4 0.0000 0.0000 0.0000 22.1933 0.0000 -1.4487
# 5 17.8622 -18.1247 -13.1569 0.0000 52.3363 0.0000
# 6 0.0000 0.0000 0.0000 -1.4487 0.0000 23.7868
#
#
#
# Elastic Compliance Matrix: (Units=1/GPa)
#
#
# Indices 1 2 3 4 5 6 
#
# 1 0.020946 -0.003016 -0.005332 0.000000 -0.009533 0.000000
# 2 -0.003016 0.010558 -0.001429 0.000000 0.004326 0.000000
# 3 -0.005332 -0.001429 0.013297 0.000000 0.004668 0.000000
# 4 0.000000 0.000000 0.000000 0.045239 0.000000 0.002755
# 5 -0.009533 0.004326 0.004668 0.000000 0.025033 0.000000
# 6 0.000000 0.000000 0.000000 0.002755 0.000000 0.042208
#
#
# Mechanical properties :
#
#
# Convention : Reuss Voigt Hill
#
# Bulk Modulus (GPa) = 39.60610 41.93776 40.77193
# Shear Modulus (GPa) = 26.99072 33.35296 30.17184
#
# Velocity S-wave (km/s) = 3.43335 3.81661 3.63004
# Velocity P-wave (km/s) = 5.74584 6.14312 5.94780
#
# Compressibility (1/GPa) = 0.02524864
#
# Stress axis : x y z
#
# Youngs Moduli (GPa) = 47.74279 94.71439 75.20236
#
# Poissons Ratio (x) = 0.28562 0.40098
# Poissons Ratio (y) = 0.14397 0.10744
# Poissons Ratio (z) = 0.25456 0.13531
#
# Static dielectric constant tensor:
#      x y z
#    x 4.070360 0.000000 -0.031470 
#    y 0.000000 4.254290 0.000000 
#    z -0.031470 0.000000 4.383640 
# 
# 
# High freq. dielectric constant tensor:
#      x y z
#    x 1.908820 0.000000 -0.007420 
#    y 0.000000 1.909800 0.000000 
#    z -0.007420 0.000000 1.932670 
# 
# From -- ./inp_files/24797.got.cif
#   From: 2010.06.25/outbox.cif.g09.slc.cpg/sg13_13_cif.got.tgz:24797.got - 2010.06.28 04:50:58.
