data_PCOD8122108
_publ_section_title
;
Structure prediction by ZEFSAII (Michael W. Deem and Ramdas Pophale) SiO2 
 PCOD8122108
Probable space group: P 2/C
;
_chemical_formula_sum "Si O2"
_cell_formula_units_Z 22
_cell_length_a 7.962162
_cell_length_b 9.582000
_cell_length_c 21.684300
_cell_angle_alpha 90.000000
_cell_angle_beta 34.429911
_cell_angle_gamma 90.000000
_cell_volume 935.376813
_symmetry_space_group_name_H-M "P 2/C"
_symmetry_group_IT_number 13
_symmetry_cell_setting 'monoclinic'
loop_
_space_group_symop_operation_xyz
x,y,z
-x,y,1/2-z
-x,-y,-z
x,-y,1/2+z
loop_
_atom_site_type_symbol
_atom_site_label
_atom_site_fract_x
_atom_site_fract_y
_atom_site_fract_z
Si Si1 0.669568 0.287254 0.838229
Si Si2 0.000000 0.288673 0.250000
Si Si3 0.444347 0.947363 0.337801
Si Si4 0.487547 0.163273 0.017273
Si Si5 0.837800 0.794229 0.522262
Si Si6 0.495552 0.555190 0.677370
O O1 0.708549 0.140889 0.788996
O O2 0.480972 0.397232 0.854680
O O3 0.000000 0.345004 0.750000
O O4 0.487439 0.257083 0.955964
O O5 0.193537 0.193633 0.145745
O O6 0.202767 0.380717 0.234231
O O7 0.500000 0.968234 0.250000
O O8 0.158527 0.852659 0.441084
O O9 0.416093 0.100597 0.374637
O O10 0.782604 0.210380 0.965558
O O11 0.500000 0.000000 0.000000
O O12 0.785557 0.642700 0.568110
O O13 0.500000 0.553597 0.750000
#
# Coordination Sequence:
#
# PCOD8122108 Si02
#       6
#     4   2   4   4   4   4
#     4  12  26  45  71 107 143 189 242 299 360 433
#     4  10  26  46  70 108 146 192 240 304 362 436
#     4  11  23  43  67 105 142 182 245 300 354 433
#     4  11  24  44  72 104 145 188 240 302 366 434
#     4  10  24  43  70 104 137 192 234 301 365 424
#     4  11  25  47  72 105 144 194 236 296 368 434
#
# _framework density 23.519933000000002
#
# number of rings (size 3 to 8) (size 9 to 14) (size 15 to 20)
#    0.000    1.091    2.727    2.182    3.818    6.545 
#    3.273    0.000    0.000    0.000    0.000    0.000 
#    0.000    0.000    0.000    0.000    0.000    0.000 
#
# Total GULP energy -272792.439959 kJ/mol
# GULP energy per Si atom -12399.656362 kJ/mol
# Density = 2.346640 g / cm^3
# Si number density = 23.519933 Si / 1000 Ang^3
#
#
#
# Elastic Constant Matrix: (Units=GPa)
#
#
# Indices 1 2 3 4 5 6 
#
# 1 92.9625 18.1311 23.2666 0.0000 34.0024 0.0000
# 2 18.1311 118.1566 34.4737 0.0000 21.0610 0.0000
# 3 23.2666 34.4737 87.3599 0.0000 23.9577 0.0000
# 4 0.0000 0.0000 0.0000 32.2174 0.0000 7.6159
# 5 34.0024 21.0610 23.9577 0.0000 45.5839 0.0000
# 6 0.0000 0.0000 0.0000 7.6159 0.0000 41.8012
#
#
#
# Elastic Compliance Matrix: (Units=1/GPa)
#
#
# Indices 1 2 3 4 5 6 
#
# 1 0.014880 -0.000108 -0.001040 0.000000 -0.010503 0.000000
# 2 -0.000108 0.009892 -0.003089 0.000000 -0.002867 0.000000
# 3 -0.001040 -0.003089 0.014417 0.000000 -0.005374 0.000000
# 4 0.000000 0.000000 0.000000 0.032436 0.000000 -0.005910
# 5 -0.010503 -0.002867 -0.005374 0.000000 0.033921 0.000000
# 6 0.000000 0.000000 0.000000 -0.005910 0.000000 0.024999
#
#
# Mechanical properties :
#
#
# Convention : Reuss Voigt Hill
#
# Bulk Modulus (GPa) = 32.55689 50.02463 41.29076
# Shear Modulus (GPa) = 33.49933 38.76102 36.13018
#
# Velocity S-wave (km/s) = 3.77808 4.06397 3.92363
# Velocity P-wave (km/s) = 5.73621 6.58303 6.17416
#
# Compressibility (1/GPa) = 0.03071546
#
# Stress axis : x y z
#
# Youngs Moduli (GPa) = 67.20439 101.09152 69.36472
#
# Poissons Ratio (x) = 0.01089 0.07215
# Poissons Ratio (y) = 0.00724 0.21425
# Poissons Ratio (z) = 0.06990 0.31224
#
# Static dielectric constant tensor:
#      x y z
#    x 4.456890 0.000000 0.031160 
#    y 0.000000 4.288550 0.000000 
#    z 0.031160 0.000000 4.202170 
# 
# 
# High freq. dielectric constant tensor:
#      x y z
#    x 1.948270 0.000000 0.011090 
#    y 0.000000 1.940560 0.000000 
#    z 0.011090 0.000000 1.922300 
# 
# From -- ./inp_files/75542.got.cif
#   From: 2010.06.25/outbox.cif.g09.slc.cpg/sg13_38_cif.got.tgz:75542.got - 2010.06.28 04:50:58.
