data_PCOD8122691
_publ_section_title
;
Structure prediction by ZEFSAII (Michael W. Deem and Ramdas Pophale) SiO2 
 PCOD8122691
Probable space group: P 2/C
;
_chemical_formula_sum "Si O2"
_cell_formula_units_Z 30
_cell_length_a 11.378307
_cell_length_b 6.451144
_cell_length_c 19.673001
_cell_angle_alpha 90.000000
_cell_angle_beta 112.581634
_cell_angle_gamma 90.000000
_cell_volume 1333.348025
_symmetry_space_group_name_H-M "P 2/C"
_symmetry_group_IT_number 13
_symmetry_cell_setting 'monoclinic'
loop_
_space_group_symop_operation_xyz
x,y,z
-x,y,1/2-z
-x,-y,-z
x,-y,1/2+z
loop_
_atom_site_type_symbol
_atom_site_label
_atom_site_fract_x
_atom_site_fract_y
_atom_site_fract_z
Si Si1 0.500000 0.030088 0.750000
Si Si2 0.926628 0.089252 0.919159
Si Si3 0.245646 0.768126 0.692273
Si Si4 0.636943 0.015887 0.563988
Si Si5 0.482875 0.678217 0.366247
Si Si6 0.731567 0.616605 0.660755
Si Si7 0.249974 0.443612 0.573155
Si Si8 0.839481 0.319660 0.572604
O O1 0.464265 0.192483 0.684306
O O2 0.376331 0.890869 0.735307
O O3 0.811707 0.229322 0.918964
O O4 0.020074 0.222035 0.891203
O O5 0.868939 0.906343 0.861255
O O6 0.000000 0.000000 0.000000
O O7 0.194282 0.688672 0.754700
O O8 0.271874 0.584890 0.644533
O O9 0.694466 0.800051 0.601147
O O10 0.500000 0.000000 0.500000
O O11 0.616582 0.170576 0.620810
O O12 0.738944 0.131554 0.538602
O O13 0.399086 0.473750 0.335765
O O14 0.613089 0.605337 0.432600
O O15 0.814783 0.455595 0.634838
O O16 0.162455 0.547460 0.496749
#
# Coordination Sequence:
#
# PCOD8122691 Si02
#       8
#     2   4   4   4   4   4   4   4
#     4  12  22  44  72 110 150 180 238 310 376 434
#     4  12  28  49  76 106 143 192 259 302 358 434
#     4  12  26  45  77 107 147 195 239 311 370 434
#     4  11  24  42  70 102 148 189 242 290 366 437
#     4  11  23  40  68 109 144 182 234 297 368 443
#     4  11  25  46  70 106 152 189 241 301 375 436
#     4  12  25  45  77 109 143 191 245 304 367 436
#     4  11  27  45  73 104 145 195 246 301 355 446
#
# _framework density 22.499752999999998
#
# number of rings (size 3 to 8) (size 9 to 14) (size 15 to 20)
#    0.000    0.533    4.000    3.600    5.600    2.133 
#    0.000    4.000    0.000    0.000    0.000    0.000 
#    0.000    0.000    0.000    0.000    0.000    0.000 
#
# Total GULP energy -371899.974411 kJ/mol
# GULP energy per Si atom -12396.665814 kJ/mol
# Density = 2.244854 g / cm^3
# Si number density = 22.499753 Si / 1000 Ang^3
#
#
#
# Elastic Constant Matrix: (Units=GPa)
#
#
# Indices 1 2 3 4 5 6 
#
# 1 97.6298 41.2424 33.5628 0.0000 6.8271 0.0000
# 2 41.2424 116.8317 41.5165 0.0000 1.5758 0.0000
# 3 33.5628 41.5165 108.8677 0.0000 0.1231 0.0000
# 4 0.0000 0.0000 0.0000 53.1296 0.0000 -3.7818
# 5 6.8271 1.5758 0.1231 0.0000 33.3297 0.0000
# 6 0.0000 0.0000 0.0000 -3.7818 0.0000 40.6549
#
#
#
# Elastic Compliance Matrix: (Units=1/GPa)
#
#
# Indices 1 2 3 4 5 6 
#
# 1 0.012811 -0.003571 -0.002585 0.000000 -0.002446 0.000000
# 2 -0.003571 0.010903 -0.003057 0.000000 0.000227 0.000000
# 3 -0.002585 -0.003057 0.011148 0.000000 0.000633 0.000000
# 4 0.000000 0.000000 0.000000 0.018947 0.000000 0.001763
# 5 -0.002446 0.000227 0.000633 0.000000 0.030491 0.000000
# 6 0.000000 0.000000 0.000000 0.001763 0.000000 0.024761
#
#
# Mechanical properties :
#
#
# Convention : Reuss Voigt Hill
#
# Bulk Modulus (GPa) = 60.84401 61.77472 61.30936
# Shear Modulus (GPa) = 37.60359 39.22335 38.41347
#
# Velocity S-wave (km/s) = 4.09258 4.17979 4.13641
# Velocity P-wave (km/s) = 7.03086 7.12808 7.07964
#
# Compressibility (1/GPa) = 0.01643547
#
# Stress axis : x y z
#
# Youngs Moduli (GPa) = 78.05875 91.71628 89.70556
#
# Poissons Ratio (x) = 0.32750 0.23189
# Poissons Ratio (y) = 0.27873 0.27426
# Poissons Ratio (z) = 0.20178 0.28041
#
# Static dielectric constant tensor:
#      x y z
#    x 3.881670 0.000000 -0.012650 
#    y 0.000000 4.637850 0.000000 
#    z -0.012650 0.000000 4.027850 
# 
# 
# High freq. dielectric constant tensor:
#      x y z
#    x 1.888380 0.000000 -0.002010 
#    y 0.000000 1.910720 0.000000 
#    z -0.002010 0.000000 1.878540 
# 
# From -- ./inp_files/77569.got.cif
#   From: 2010.06.25/outbox.cif.g09.slc.cpg/sg13_39_cif.got.tgz:77569.got - 2010.06.28 04:50:58.
