data_PCOD8122134
_publ_section_title
;
Structure prediction by ZEFSAII (Michael W. Deem and Ramdas Pophale) SiO2 
 PCOD8122134
Probable space group: P 2/C
;
_chemical_formula_sum "Si O2"
_cell_formula_units_Z 16
_cell_length_a 13.624551
_cell_length_b 8.896589
_cell_length_c 7.958289
_cell_angle_alpha 90.000000
_cell_angle_beta 141.695200
_cell_angle_gamma 90.000000
_cell_volume 597.927293
_symmetry_space_group_name_H-M "P 2/C"
_symmetry_group_IT_number 13
_symmetry_cell_setting 'monoclinic'
loop_
_space_group_symop_operation_xyz
x,y,z
-x,y,1/2-z
-x,-y,-z
x,-y,1/2+z
loop_
_atom_site_type_symbol
_atom_site_label
_atom_site_fract_x
_atom_site_fract_y
_atom_site_fract_z
Si Si1 0.163188 0.650932 0.423413
Si Si2 0.000000 0.066659 0.750000
Si Si3 0.278348 0.135062 0.679759
Si Si4 0.685498 0.381438 0.024948
Si Si5 0.500000 0.068370 0.250000
O O1 0.255691 0.554004 0.409666
O O2 0.000000 0.562258 0.250000
O O3 0.106649 0.816724 0.277223
O O4 0.271851 0.680072 0.733921
O O5 0.879388 0.961175 0.484034
O O6 0.231555 0.283502 0.511151
O O7 0.394325 0.037262 0.722102
O O8 0.379722 0.175463 0.983296
O O9 0.500000 0.374067 0.750000
#
# Coordination Sequence:
#
# PCOD8122134 Si02
#       5
#     4   2   4   4   2
#     4  10  26  48  69 102 144 185 237 281 351 419
#     4  10  26  44  70 106 138 188 224 290 346 420
#     4  11  24  46  74 104 144 180 238 286 355 412
#     4  12  25  48  72 104 139 189 234 292 347 415
#     4  10  24  44  70 110 140 180 228 302 344 416
#
# _framework density 26.759105999999999
#
# number of rings (size 3 to 8) (size 9 to 14) (size 15 to 20)
#    0.750    0.500    1.250    3.000    5.250    6.000 
#    4.500    0.000    0.000    0.000    0.000    0.000 
#    0.000    0.000    0.000    0.000    0.000    0.000 
#
# Total GULP energy -198231.194397 kJ/mol
# GULP energy per Si atom -12389.449650 kJ/mol
# Density = 2.669820 g / cm^3
# Si number density = 26.759106 Si / 1000 Ang^3
#
#
#
# Elastic Constant Matrix: (Units=GPa)
#
#
# Indices 1 2 3 4 5 6 
#
# 1 43.0129 44.4002 46.6743 0.0000 14.4642 0.0000
# 2 44.4002 112.9471 32.5376 0.0000 17.2257 0.0000
# 3 46.6743 32.5376 154.1004 0.0000 21.3133 0.0000
# 4 0.0000 0.0000 0.0000 65.6885 0.0000 29.9156
# 5 14.4642 17.2257 21.3133 0.0000 43.3339 0.0000
# 6 0.0000 0.0000 0.0000 29.9156 0.0000 33.9621
#
#
#
# Elastic Compliance Matrix: (Units=1/GPa)
#
#
# Indices 1 2 3 4 5 6 
#
# 1 0.057999 -0.018196 -0.012927 0.000000 -0.005768 0.000000
# 2 -0.018196 0.015506 0.002414 0.000000 -0.001278 0.000000
# 3 -0.012927 0.002414 0.010119 0.000000 -0.001622 0.000000
# 4 0.000000 0.000000 0.000000 0.025421 0.000000 -0.022392
# 5 -0.005768 -0.001278 -0.001622 0.000000 0.026307 0.000000
# 6 0.000000 0.000000 0.000000 -0.022392 0.000000 0.049169
#
#
# Mechanical properties :
#
#
# Convention : Reuss Voigt Hill
#
# Bulk Modulus (GPa) = 38.15946 61.92050 50.03998
# Shear Modulus (GPa) = 19.94616 41.02681 30.48648
#
# Velocity S-wave (km/s) = 2.73316 3.91985 3.37900
# Velocity P-wave (km/s) = 4.92458 6.60887 5.82789
#
# Compressibility (1/GPa) = 0.02620582
#
# Stress axis : x y z
#
# Youngs Moduli (GPa) = 17.24179 64.49070 98.82154
#
# Poissons Ratio (x) = 1.17347 1.27747
# Poissons Ratio (y) = 0.31373 -0.23854
# Poissons Ratio (z) = 0.22288 -0.15567
#
# Static dielectric constant tensor:
#      x y z
#    x 4.807230 0.000000 0.200930 
#    y 0.000000 4.823420 0.000000 
#    z 0.200930 0.000000 5.263250 
# 
# 
# High freq. dielectric constant tensor:
#      x y z
#    x 2.067240 0.000000 0.022670 
#    y 0.000000 2.071070 0.000000 
#    z 0.022670 0.000000 2.086130 
# 
# From -- ./inp_files/21289.got.cif
#   From: 2010.06.25/outbox.cif.g09.slc.cpg/sg13_11_cif.got.tgz:21289.got - 2010.06.28 04:50:58.
