data_PCOD8122863
_publ_section_title
;
Structure prediction by ZEFSAII (Michael W. Deem and Ramdas Pophale) SiO2 
 PCOD8122863
Probable space group: P 2/C
;
_chemical_formula_sum "Si O2"
_cell_formula_units_Z 20
_cell_length_a 8.252604
_cell_length_b 11.529002
_cell_length_c 11.764806
_cell_angle_alpha 90.000000
_cell_angle_beta 128.929433
_cell_angle_gamma 90.000000
_cell_volume 870.768448
_symmetry_space_group_name_H-M "P 2/C"
_symmetry_group_IT_number 13
_symmetry_cell_setting 'monoclinic'
loop_
_space_group_symop_operation_xyz
x,y,z
-x,y,1/2-z
-x,-y,-z
x,-y,1/2+z
loop_
_atom_site_type_symbol
_atom_site_label
_atom_site_fract_x
_atom_site_fract_y
_atom_site_fract_z
Si Si1 0.882734 0.501057 0.822977
Si Si2 0.407094 0.127394 0.468218
Si Si3 0.903047 0.125564 0.963041
Si Si4 0.720424 0.744605 0.791670
Si Si5 0.777199 0.739562 0.209711
O O1 0.733377 0.612179 0.756392
O O2 0.741672 0.384708 0.755636
O O3 0.000000 0.506958 0.750000
O O4 0.000000 0.500000 0.000000
O O5 0.260552 0.138836 0.510297
O O6 0.257920 0.159971 0.298188
O O7 0.586919 0.227689 0.542778
O O8 0.500000 0.000000 0.500000
O O9 0.770132 0.151962 0.792575
O O10 0.083815 0.224141 0.042170
O O11 0.000000 0.000000 0.000000
O O12 0.500000 0.767709 0.750000
O O13 0.000000 0.736486 0.250000
#
# Coordination Sequence:
#
# PCOD8122863 Si02
#       5
#     4   4   4   4   4
#     4  11  25  48  77 107 147 193 244 301 368 436
#     4  12  26  44  69 106 141 186 241 296 366 435
#     4  12  24  44  70  97 140 187 236 298 361 434
#     4  12  26  45  71 102 143 187 244 300 363 431
#     4  11  24  44  71 101 143 183 240 295 361 431
#
# _framework density 22.968219000000001
#
# number of rings (size 3 to 8) (size 9 to 14) (size 15 to 20)
#    0.000    0.400    2.000    7.200    2.800    2.400 
#    0.000    0.000    0.000    0.000    0.000    0.000 
#    0.000    0.000    0.000    0.000    0.000    0.000 
#
# Total GULP energy -247825.315429 kJ/mol
# GULP energy per Si atom -12391.265771 kJ/mol
# Density = 2.291594 g / cm^3
# Si number density = 22.968219 Si / 1000 Ang^3
#
#
#
# Elastic Constant Matrix: (Units=GPa)
#
#
# Indices 1 2 3 4 5 6 
#
# 1 112.7160 12.9830 14.9258 0.0000 3.0941 0.0000
# 2 12.9830 157.2356 21.2955 0.0000 3.4207 0.0000
# 3 14.9258 21.2955 74.8806 0.0000 -12.2685 0.0000
# 4 0.0000 0.0000 0.0000 43.4355 0.0000 8.8030
# 5 3.0941 3.4207 -12.2685 0.0000 42.5679 0.0000
# 6 0.0000 0.0000 0.0000 8.8030 0.0000 25.1069
#
#
#
# Elastic Compliance Matrix: (Units=1/GPa)
#
#
# Indices 1 2 3 4 5 6 
#
# 1 0.009210 -0.000479 -0.001892 0.000000 -0.001176 0.000000
# 2 -0.000479 0.006691 -0.001984 0.000000 -0.001075 0.000000
# 3 -0.001892 -0.001984 0.015056 0.000000 0.004636 0.000000
# 4 0.000000 0.000000 0.000000 0.024784 0.000000 -0.008690
# 5 -0.001176 -0.001075 0.004636 0.000000 0.025000 0.000000
# 6 0.000000 0.000000 0.000000 -0.008690 0.000000 0.042876
#
#
# Mechanical properties :
#
#
# Convention : Reuss Voigt Hill
#
# Bulk Modulus (GPa) = 44.94886 49.24899 47.09892
# Shear Modulus (GPa) = 35.78018 41.93058 38.85538
#
# Velocity S-wave (km/s) = 3.95120 4.27733 4.11749
# Velocity P-wave (km/s) = 6.35834 6.77369 6.56930
#
# Compressibility (1/GPa) = 0.02224751
#
# Stress axis : x y z
#
# Youngs Moduli (GPa) = 108.57920 149.44466 66.42072
#
# Poissons Ratio (x) = 0.07152 0.12570
# Poissons Ratio (y) = 0.05196 0.13176
# Poissons Ratio (z) = 0.20548 0.29645
#
# Static dielectric constant tensor:
#      x y z
#    x 4.110940 0.000000 -0.302950 
#    y 0.000000 4.490900 0.000000 
#    z -0.302950 0.000000 4.175610 
# 
# 
# High freq. dielectric constant tensor:
#      x y z
#    x 1.907280 0.000000 -0.011540 
#    y 0.000000 1.925950 0.000000 
#    z -0.011540 0.000000 1.921440 
# 
# From -- ./inp_files/29646.got.cif
#   From: 2010.06.25/outbox.cif.g09.slc.cpg/sg13_15_cif.got.tgz:29646.got - 2010.06.28 04:50:58.
