data_PCOD8122449
_publ_section_title
;
Structure prediction by ZEFSAII (Michael W. Deem and Ramdas Pophale) SiO2 
 PCOD8122449
Probable space group: P 2/C
;
_chemical_formula_sum "Si O2"
_cell_formula_units_Z 32
_cell_length_a 20.586570
_cell_length_b 13.750024
_cell_length_c 9.859222
_cell_angle_alpha 90.000000
_cell_angle_beta 136.510212
_cell_angle_gamma 90.000000
_cell_volume 1920.705216
_symmetry_space_group_name_H-M "P 2/C"
_symmetry_group_IT_number 13
_symmetry_cell_setting 'monoclinic'
loop_
_space_group_symop_operation_xyz
x,y,z
-x,y,1/2-z
-x,-y,-z
x,-y,1/2+z
loop_
_atom_site_type_symbol
_atom_site_label
_atom_site_fract_x
_atom_site_fract_y
_atom_site_fract_z
Si Si1 0.608692 0.585783 0.572814
Si Si2 0.106153 0.913598 0.555164
Si Si3 0.371518 0.209358 0.805479
Si Si4 0.300941 0.098075 0.452088
Si Si5 0.593914 0.198989 0.117167
Si Si6 0.096324 0.902170 0.230000
Si Si7 0.384415 0.418882 0.720997
Si Si8 0.706491 0.868542 0.041894
O O1 0.634740 0.692111 0.667470
O O2 0.653742 0.506588 0.742936
O O3 0.651342 0.567606 0.487476
O O4 0.496660 0.578672 0.395442
O O5 0.199756 0.857625 0.748876
O O6 0.117138 0.941174 0.413476
O O7 0.008201 0.851575 0.430500
O O8 0.094942 0.011484 0.621448
O O9 0.319420 0.129159 0.634433
O O10 0.344432 0.317220 0.715771
O O11 0.334704 0.197278 0.901607
O O12 0.482931 0.194508 0.971812
O O13 0.384954 0.142137 0.489632
O O14 0.298484 0.982428 0.430249
O O15 0.643396 0.145588 0.315012
O O16 0.184949 0.834082 0.322046
#
# Coordination Sequence:
#
# PCOD8122449 Si02
#       8
#     4   4   4   4   4   4   4   4
#     4   9  18  32  52  69  93 122 165 211 259 292
#     4   9  18  32  52  70  92 125 165 213 261 292
#     4  11  23  34  49  70 105 136 175 207 238 291
#     4  11  21  35  50  70 100 141 174 206 241 287
#     4  11  21  36  49  70 101 140 173 206 242 289
#     4   9  18  33  50  71  93 123 167 214 257 295
#     4   9  18  33  50  71  91 125 162 213 258 290
#     4  11  23  33  48  73 101 139 174 206 239 287
#
# _framework density 16.660547999999999
#
# number of rings (size 3 to 8) (size 9 to 14) (size 15 to 20)
#    0.000    2.000    2.500    1.500    7.000    3.000 
#    0.000    0.000    0.000    0.000    0.000    0.000 
#    0.000    6.000    0.000    0.000    0.000    0.000 
#
# Total GULP energy -396603.557469 kJ/mol
# GULP energy per Si atom -12393.861171 kJ/mol
# Density = 1.662263 g / cm^3
# Si number density = 16.660548 Si / 1000 Ang^3
#
#
#
# Elastic Constant Matrix: (Units=GPa)
#
#
# Indices 1 2 3 4 5 6 
#
# 1 82.1239 25.9755 31.7182 0.0000 5.9807 0.0000
# 2 25.9755 68.6349 15.3016 0.0000 0.7830 0.0000
# 3 31.7182 15.3016 68.4586 0.0000 7.9227 0.0000
# 4 0.0000 0.0000 0.0000 14.6337 0.0000 -11.8812
# 5 5.9807 0.7830 7.9227 0.0000 19.0040 0.0000
# 6 0.0000 0.0000 0.0000 -11.8812 0.0000 12.9355
#
#
#
# Elastic Compliance Matrix: (Units=1/GPa)
#
#
# Indices 1 2 3 4 5 6 
#
# 1 0.016237 -0.004738 -0.006194 0.000000 -0.002332 0.000000
# 2 -0.004738 0.016729 -0.001720 0.000000 0.001519 0.000000
# 3 -0.006194 -0.001720 0.018522 0.000000 -0.005701 0.000000
# 4 0.000000 0.000000 0.000000 0.268751 0.000000 0.246846
# 5 -0.002332 0.001519 -0.005701 0.000000 0.055669 0.000000
# 6 0.000000 0.000000 0.000000 0.246846 0.000000 0.304033
#
#
# Mechanical properties :
#
#
# Convention : Reuss Voigt Hill
#
# Bulk Modulus (GPa) = 38.19078 40.57864 39.38471
# Shear Modulus (GPa) = 7.00307 19.06278 13.03292
#
# Velocity S-wave (km/s) = 2.05244 3.38625 2.79993
# Velocity P-wave (km/s) = 5.34690 6.30063 5.84326
#
# Compressibility (1/GPa) = 0.02618433
#
# Stress axis : x y z
#
# Youngs Moduli (GPa) = 61.58604 59.77653 53.99130
#
# Poissons Ratio (x) = 0.28320 0.33443
# Poissons Ratio (y) = 0.29177 0.09286
# Poissons Ratio (z) = 0.38148 0.10281
#
# Static dielectric constant tensor:
#      x y z
#    x 3.499860 0.000000 0.058410 
#    y 0.000000 2.950400 0.000000 
#    z 0.058410 0.000000 3.358920 
# 
# 
# High freq. dielectric constant tensor:
#      x y z
#    x 1.644120 0.000000 -0.020290 
#    y 0.000000 1.603400 0.000000 
#    z -0.020290 0.000000 1.647500 
# 
# From -- ./inp_files/19662.got.cif
#   From: 2010.06.25/outbox.cif.g09.slc.cpg/sg13_10_cif.got.tgz:19662.got - 2010.06.28 04:50:58.
