data_PCOD8122697
_publ_section_title
;
Structure prediction by ZEFSAII (Michael W. Deem and Ramdas Pophale) SiO2 
 PCOD8122697
Probable space group: P 2/C
;
_chemical_formula_sum "Si O2"
_cell_formula_units_Z 28
_cell_length_a 17.855414
_cell_length_b 11.571173
_cell_length_c 20.889640
_cell_angle_alpha 90.000000
_cell_angle_beta 19.589868
_cell_angle_gamma 90.000000
_cell_volume 1447.079388
_symmetry_space_group_name_H-M "P 2/C"
_symmetry_group_IT_number 13
_symmetry_cell_setting 'monoclinic'
loop_
_space_group_symop_operation_xyz
x,y,z
-x,y,1/2-z
-x,-y,-z
x,-y,1/2+z
loop_
_atom_site_type_symbol
_atom_site_label
_atom_site_fract_x
_atom_site_fract_y
_atom_site_fract_z
Si Si1 0.907084 0.722091 0.430316
Si Si2 0.661537 0.703979 0.504832
Si Si3 0.041000 0.337344 0.959814
Si Si4 0.636505 0.035975 0.011769
Si Si5 0.357053 0.534097 0.677346
Si Si6 0.818353 0.084009 0.617315
Si Si7 0.912043 0.980541 0.415773
O O1 0.714031 0.677595 0.537393
O O2 0.855019 0.854596 0.490254
O O3 0.128037 0.710362 0.210693
O O4 0.926286 0.652223 0.481252
O O5 0.549033 0.831269 0.588458
O O6 0.510809 0.598215 0.604659
O O7 0.259416 0.417872 0.787025
O O8 0.134509 0.211648 0.897083
O O9 0.857514 0.379604 0.160357
O O10 0.429188 0.953910 0.161831
O O11 0.764645 0.996604 0.972298
O O12 0.819981 0.016877 0.808831
O O13 0.500000 0.500000 0.500000
O O14 0.838198 0.078937 0.524740
O O15 0.000000 0.000000 0.500000
#
# Coordination Sequence:
#
# PCOD8122697 Si02
#       7
#     4   4   4   4   4   4   4
#     4   9  17  36  60  92 116 142 204 249 286 350
#     4   9  18  35  65  88 113 155 197 249 295 342
#     4  11  24  38  58  90 120 152 198 246 296 368
#     4   9  20  37  61  88 118 158 202 244 296 359
#     4  11  23  41  60  81 119 159 196 250 307 345
#     4  12  22  34  58  93 125 154 192 243 313 366
#     4   9  19  37  58  87 123 158 193 245 297 356
#
# _framework density 19.349318
#
# number of rings (size 3 to 8) (size 9 to 14) (size 15 to 20)
#    0.000    2.000    2.857    3.000    0.000    2.286 
#    0.000    0.000   12.571    1.714    0.000    0.000 
#    0.000    0.000    0.000    0.000    0.000    0.000 
#
# Total GULP energy -346964.485465 kJ/mol
# GULP energy per Si atom -12391.588767 kJ/mol
# Density = 1.930528 g / cm^3
# Si number density = 19.349318 Si / 1000 Ang^3
#
#
#
# Elastic Constant Matrix: (Units=GPa)
#
#
# Indices 1 2 3 4 5 6 
#
# 1 80.7990 54.5133 41.2110 0.0000 -1.9438 0.0000
# 2 54.5133 128.0798 52.8935 0.0000 -17.7447 0.0000
# 3 41.2110 52.8935 116.2722 0.0000 -5.6601 0.0000
# 4 0.0000 0.0000 0.0000 31.6707 0.0000 -9.7475
# 5 -1.9438 -17.7447 -5.6601 0.0000 28.6307 0.0000
# 6 0.0000 0.0000 0.0000 -9.7475 0.0000 30.0627
#
#
#
# Elastic Compliance Matrix: (Units=1/GPa)
#
#
# Indices 1 2 3 4 5 6 
#
# 1 0.018929 -0.007066 -0.003681 0.000000 -0.003822 0.000000
# 2 -0.007066 0.013065 -0.003098 0.000000 0.007005 0.000000
# 3 -0.003681 -0.003098 0.011318 0.000000 0.000067 0.000000
# 4 0.000000 0.000000 0.000000 0.035075 0.000000 0.011373
# 5 -0.003822 0.007005 0.000067 0.000000 0.039023 0.000000
# 6 0.000000 0.000000 0.000000 0.011373 0.000000 0.036951
#
#
# Mechanical properties :
#
#
# Convention : Reuss Voigt Hill
#
# Bulk Modulus (GPa) = 64.01127 69.15408 66.58267
# Shear Modulus (GPa) = 26.70110 29.84169 28.27140
#
# Velocity S-wave (km/s) = 3.71880 3.93142 3.82659
# Velocity P-wave (km/s) = 7.18283 7.51169 7.34910
#
# Compressibility (1/GPa) = 0.01562225
#
# Stress axis : x y z
#
# Youngs Moduli (GPa) = 52.82874 76.54053 88.35729
#
# Poissons Ratio (x) = 0.54084 0.32522
# Poissons Ratio (y) = 0.37329 0.27373
# Poissons Ratio (z) = 0.19445 0.23712
#
# Static dielectric constant tensor:
#      x y z
#    x 3.745060 0.000000 0.059030 
#    y 0.000000 3.543800 0.000000 
#    z 0.059030 0.000000 3.842620 
# 
# 
# High freq. dielectric constant tensor:
#      x y z
#    x 1.743790 0.000000 0.002020 
#    y 0.000000 1.728310 0.000000 
#    z 0.002020 0.000000 1.774000 
# 
# From -- ./inp_files/81042.got.cif
#   From: 2010.06.25/outbox.cif.g09.slc.cpg/sg13_41_cif.got.tgz:81042.got - 2010.06.28 04:50:58.
