data_PCOD8122073
_publ_section_title
;
Structure prediction by ZEFSAII (Michael W. Deem and Ramdas Pophale) SiO2 
 PCOD8122073
Probable space group: P 2/C
;
_chemical_formula_sum "Si O2"
_cell_formula_units_Z 14
_cell_length_a 19.468367
_cell_length_b 5.004594
_cell_length_c 8.862049
_cell_angle_alpha 90.000000
_cell_angle_beta 137.654709
_cell_angle_gamma 90.000000
_cell_volume 581.611043
_symmetry_space_group_name_H-M "P 2/C"
_symmetry_group_IT_number 13
_symmetry_cell_setting 'monoclinic'
loop_
_space_group_symop_operation_xyz
x,y,z
-x,y,1/2-z
-x,-y,-z
x,-y,1/2+z
loop_
_atom_site_type_symbol
_atom_site_label
_atom_site_fract_x
_atom_site_fract_y
_atom_site_fract_z
Si Si1 0.500000 0.500366 0.250000
Si Si2 0.177264 0.845617 0.461165
Si Si3 0.891425 0.644816 0.823142
Si Si4 0.404032 0.185075 0.344413
O O1 0.416800 0.348513 0.213078
O O2 0.584306 0.653099 0.483525
O O3 0.133846 0.744871 0.550159
O O4 0.182902 0.589242 0.358347
O O5 0.293307 0.954289 0.666603
O O6 0.110452 0.093401 0.289044
O O7 0.000000 0.500000 0.000000
O O8 0.500000 0.000000 0.500000
#
# Coordination Sequence:
#
# PCOD8122073 Si02
#       4
#     2   4   4   4
#     4  10  24  42  68 104 156 192 248 300 358 438
#     4  12  28  48  82 111 155 203 253 312 396 451
#     4  12  28  52  79 114 149 199 262 324 382 454
#     4  11  25  42  72 106 154 193 248 297 372 453
#
# _framework density 24.071071
#
# number of rings (size 3 to 8) (size 9 to 14) (size 15 to 20)
#    0.000    0.571    0.000    6.000   16.000    2.286 
#    0.000    0.000    0.000    0.000    0.000    0.000 
#    0.000    0.000    0.000    0.000    0.000    0.000 
#
# Total GULP energy -173456.243996 kJ/mol
# GULP energy per Si atom -12389.731714 kJ/mol
# Density = 2.401628 g / cm^3
# Si number density = 24.071071 Si / 1000 Ang^3
#
#
#
# Elastic Constant Matrix: (Units=GPa)
#
#
# Indices 1 2 3 4 5 6 
#
# 1 139.7944 71.0448 114.0481 0.0000 3.6953 0.0000
# 2 71.0448 164.4459 73.8691 0.0000 -8.8251 0.0000
# 3 114.0481 73.8691 143.0273 0.0000 -0.4595 0.0000
# 4 0.0000 0.0000 0.0000 66.1749 0.0000 -13.4373
# 5 3.6953 -8.8251 -0.4595 0.0000 48.5641 0.0000
# 6 0.0000 0.0000 0.0000 -13.4373 0.0000 46.6481
#
#
#
# Elastic Compliance Matrix: (Units=1/GPa)
#
#
# Indices 1 2 3 4 5 6 
#
# 1 0.021192 -0.002184 -0.015777 0.000000 -0.002159 0.000000
# 2 -0.002184 0.008239 -0.002508 0.000000 0.001640 0.000000
# 3 -0.015777 -0.002508 0.020870 0.000000 0.000942 0.000000
# 4 0.000000 0.000000 0.000000 0.016050 0.000000 0.004623
# 5 -0.002159 0.001640 0.000942 0.000000 0.021063 0.000000
# 6 0.000000 0.000000 0.000000 0.004623 0.000000 0.022769
#
#
# Mechanical properties :
#
#
# Convention : Reuss Voigt Hill
#
# Bulk Modulus (GPa) = 106.80833 107.24351 107.02592
# Shear Modulus (GPa) = 32.41642 44.83111 38.62376
#
# Velocity S-wave (km/s) = 3.67372 4.32029 4.01006
# Velocity P-wave (km/s) = 7.90337 8.33883 8.12402
#
# Compressibility (1/GPa) = 0.00936257
#
# Stress axis : x y z
#
# Youngs Moduli (GPa) = 47.18863 121.36678 47.91477
#
# Poissons Ratio (x) = 0.26509 0.75594
# Poissons Ratio (y) = 0.10307 0.12019
# Poissons Ratio (z) = 0.74448 0.30445
#
# Static dielectric constant tensor:
#      x y z
#    x 4.327030 0.000000 -0.267140 
#    y 0.000000 4.475110 0.000000 
#    z -0.267140 0.000000 4.741860 
# 
# 
# High freq. dielectric constant tensor:
#      x y z
#    x 1.963830 0.000000 -0.010600 
#    y 0.000000 1.958710 0.000000 
#    z -0.010600 0.000000 1.982110 
# 
# From -- ./inp_files/22138.got.cif
#   From: 2010.06.25/outbox.cif.g09.slc.cpg/sg13_12_cif.got.tgz:22138.got - 2010.06.28 04:50:58.
