data_PCOD8122381
_publ_section_title
;
Structure prediction by ZEFSAII (Michael W. Deem and Ramdas Pophale) SiO2 
 PCOD8122381
Probable space group: P 2/C
;
_chemical_formula_sum "Si O2"
_cell_formula_units_Z 20
_cell_length_a 7.492161
_cell_length_b 22.016409
_cell_length_c 4.998929
_cell_angle_alpha 90.000000
_cell_angle_beta 70.985363
_cell_angle_gamma 90.000000
_cell_volume 779.583075
_symmetry_space_group_name_H-M "P 2/C"
_symmetry_group_IT_number 13
_symmetry_cell_setting 'monoclinic'
loop_
_space_group_symop_operation_xyz
x,y,z
-x,y,1/2-z
-x,-y,-z
x,-y,1/2+z
loop_
_atom_site_type_symbol
_atom_site_label
_atom_site_fract_x
_atom_site_fract_y
_atom_site_fract_z
Si Si1 0.725181 0.963789 0.135575
Si Si2 0.740168 0.246131 0.014870
Si Si3 0.198003 0.633477 0.741660
Si Si4 0.714964 0.169938 0.550942
Si Si5 0.500000 0.313225 0.750000
Si Si6 0.500000 0.542993 0.750000
O O1 0.500000 0.961747 0.250000
O O2 0.806195 0.896872 0.026704
O O3 0.800602 0.987669 0.382274
O O4 0.851209 0.305062 0.068223
O O5 0.727541 0.193013 0.240233
O O6 0.828779 0.215954 0.698257
O O7 0.535696 0.271545 0.998378
O O8 0.318965 0.646535 0.412736
O O9 0.314594 0.585500 0.861237
O O10 0.000000 0.604036 0.750000
O O11 0.500000 0.165555 0.750000
O O12 0.500000 0.500000 0.500000
#
# Coordination Sequence:
#
# PCOD8122381 Si02
#       6
#     4   4   4   4   2   2
#     4   9  17  28  41  68 117 176 233 290 350 417
#     4  12  22  38  64  99 135 182 232 297 369 435
#     4  12  27  48  79 110 149 195 238 297 369 428
#     4  11  19  30  54  86 127 180 238 292 363 433
#     4  12  21  46  70 104 150 187 236 292 364 444
#     4  12  29  54  80 110 152 195 246 296 340 420
#
# _framework density 25.654741000000001
#
# number of rings (size 3 to 8) (size 9 to 14) (size 15 to 20)
#    0.000    0.800    5.000    3.600    0.000    4.800 
#    0.000    0.000    0.000    0.000    0.000    0.000 
#    0.000   16.000    0.000    4.200    0.000    0.400 
#
# Total GULP energy -247900.976325 kJ/mol
# GULP energy per Si atom -12395.048816 kJ/mol
# Density = 2.559635 g / cm^3
# Si number density = 25.654741 Si / 1000 Ang^3
#
#
#
# Elastic Constant Matrix: (Units=GPa)
#
#
# Indices 1 2 3 4 5 6 
#
# 1 98.5678 43.4074 34.8879 0.0000 8.3615 0.0000
# 2 43.4074 179.1983 61.8190 0.0000 14.1728 0.0000
# 3 34.8879 61.8190 160.1871 0.0000 35.3137 0.0000
# 4 0.0000 0.0000 0.0000 40.0244 0.0000 22.7989
# 5 8.3615 14.1728 35.3137 0.0000 34.0589 0.0000
# 6 0.0000 0.0000 0.0000 22.7989 0.0000 18.1267
#
#
#
# Elastic Compliance Matrix: (Units=1/GPa)
#
#
# Indices 1 2 3 4 5 6 
#
# 1 0.011739 -0.002262 -0.001628 0.000000 -0.000253 0.000000
# 2 -0.002262 0.006874 -0.002141 0.000000 -0.000085 0.000000
# 3 -0.001628 -0.002141 0.009254 0.000000 -0.008305 0.000000
# 4 0.000000 0.000000 0.000000 0.088113 0.000000 -0.110825
# 5 -0.000253 -0.000085 -0.008305 0.000000 0.038069 0.000000
# 6 0.000000 0.000000 0.000000 -0.110825 0.000000 0.194557
#
#
# Mechanical properties :
#
#
# Convention : Reuss Voigt Hill
#
# Bulk Modulus (GPa) = 63.27312 79.79797 71.53554
# Shear Modulus (GPa) = 13.66353 38.29791 25.98072
#
# Velocity S-wave (km/s) = 2.31030 3.86789 3.18576
# Velocity P-wave (km/s) = 5.64212 7.14980 6.44023
#
# Compressibility (1/GPa) = 0.01580450
#
# Stress axis : x y z
#
# Youngs Moduli (GPa) = 85.18537 145.48099 108.05586
#
# Poissons Ratio (x) = 0.32907 0.17593
# Poissons Ratio (y) = 0.19268 0.23139
# Poissons Ratio (z) = 0.13869 0.31153
#
# Static dielectric constant tensor:
#      x y z
#    x 4.351580 0.000000 0.412460 
#    y 0.000000 5.085610 0.000000 
#    z 0.412460 0.000000 4.628670 
# 
# 
# High freq. dielectric constant tensor:
#      x y z
#    x 1.999370 0.000000 0.024550 
#    y 0.000000 2.026370 0.000000 
#    z 0.024550 0.000000 2.034210 
# 
# From -- ./inp_files/2064.got.cif
#   From: 2010.06.25/outbox.cif.g09.slc.cpg/sg13_2_cif.got.tgz:2064.got - 2010.06.28 04:50:58.
