data_PCOD8122345
_publ_section_title
;
Structure prediction by ZEFSAII (Michael W. Deem and Ramdas Pophale) SiO2 
 PCOD8122345
Probable space group: P 2/C
;
_chemical_formula_sum "Si O2"
_cell_formula_units_Z 22
_cell_length_a 17.603269
_cell_length_b 6.015227
_cell_length_c 9.139488
_cell_angle_alpha 90.000000
_cell_angle_beta 75.828347
_cell_angle_gamma 90.000000
_cell_volume 938.306789
_symmetry_space_group_name_H-M "P 2/C"
_symmetry_group_IT_number 13
_symmetry_cell_setting 'monoclinic'
loop_
_space_group_symop_operation_xyz
x,y,z
-x,y,1/2-z
-x,-y,-z
x,-y,1/2+z
loop_
_atom_site_type_symbol
_atom_site_label
_atom_site_fract_x
_atom_site_fract_y
_atom_site_fract_z
Si Si1 0.568961 0.678839 0.466919
Si Si2 0.000000 0.989215 0.750000
Si Si3 0.610861 0.000370 0.697500
Si Si4 0.935014 0.360259 0.948900
Si Si5 0.137565 0.659861 0.739512
Si Si6 0.313936 0.711832 0.587844
O O1 0.500000 0.500000 0.500000
O O2 0.560575 0.835303 0.615505
O O3 0.649630 0.537760 0.427503
O O4 0.559761 0.835978 0.327132
O O5 0.976420 0.126511 0.904855
O O6 0.920886 0.861873 0.754163
O O7 0.663217 0.847493 0.777803
O O8 0.663008 0.156437 0.569377
O O9 0.906541 0.447019 0.805934
O O10 0.856668 0.363471 0.087638
O O11 0.000000 0.500000 0.000000
O O12 0.220992 0.694069 0.626378
#
# Coordination Sequence:
#
# PCOD8122345 Si02
#       6
#     4   2   4   4   4   4
#     4  11  26  50  79 110 150 195 238 301 361 433
#     4  12  24  44  70  96 140 190 244 302 370 422
#     4  10  26  49  73 113 145 191 246 285 370 441
#     4  12  24  46  66 102 138 187 247 299 365 430
#     4  12  28  42  71 102 141 189 242 301 361 436
#     4  11  27  45  73 107 150 191 240 308 363 433
#
# _framework density 23.446490000000001
#
# number of rings (size 3 to 8) (size 9 to 14) (size 15 to 20)
#    0.000    0.727    3.636    1.636    7.636    8.727 
#    0.000    2.727    0.000    0.000    0.000    0.000 
#    0.000    0.000    0.000    0.000    0.000    0.000 
#
# Total GULP energy -272644.061598 kJ/mol
# GULP energy per Si atom -12392.911891 kJ/mol
# Density = 2.339312 g / cm^3
# Si number density = 23.446490 Si / 1000 Ang^3
#
#
#
# Elastic Constant Matrix: (Units=GPa)
#
#
# Indices 1 2 3 4 5 6 
#
# 1 127.2397 58.7018 52.3169 0.0000 -17.4769 0.0000
# 2 58.7018 149.1592 74.8252 0.0000 -3.0825 0.0000
# 3 52.3169 74.8252 170.3165 0.0000 -1.8356 0.0000
# 4 0.0000 0.0000 0.0000 44.7598 0.0000 -9.3931
# 5 -17.4769 -3.0825 -1.8356 0.0000 34.5444 0.0000
# 6 0.0000 0.0000 0.0000 -9.3931 0.0000 22.9995
#
#
#
# Elastic Compliance Matrix: (Units=1/GPa)
#
#
# Indices 1 2 3 4 5 6 
#
# 1 0.010802 -0.003218 -0.001849 0.000000 0.005080 0.000000
# 2 -0.003218 0.009570 -0.003226 0.000000 -0.000946 0.000000
# 3 -0.001849 -0.003226 0.007848 0.000000 -0.000806 0.000000
# 4 0.000000 0.000000 0.000000 0.024436 0.000000 0.009980
# 5 0.005080 -0.000946 -0.000806 0.000000 0.031391 0.000000
# 6 0.000000 0.000000 0.000000 0.009980 0.000000 0.047555
#
#
# Mechanical properties :
#
#
# Convention : Reuss Voigt Hill
#
# Bulk Modulus (GPa) = 85.96690 90.93367 88.45029
# Shear Modulus (GPa) = 32.88047 37.85219 35.36633
#
# Velocity S-wave (km/s) = 3.74888 4.02233 3.88801
# Velocity P-wave (km/s) = 7.44872 7.77431 7.61326
#
# Compressibility (1/GPa) = 0.01163238
#
# Stress axis : x y z
#
# Youngs Moduli (GPa) = 92.57427 104.49855 127.42108
#
# Poissons Ratio (x) = 0.33632 0.23566
# Poissons Ratio (y) = 0.29795 0.41103
# Poissons Ratio (z) = 0.17121 0.33709
#
# Static dielectric constant tensor:
#      x y z
#    x 3.714010 0.000000 0.739520 
#    y 0.000000 4.744390 0.000000 
#    z 0.739520 0.000000 1.203980 
# 
# 
# High freq. dielectric constant tensor:
#      x y z
#    x 1.911000 0.000000 -0.005480 
#    y 0.000000 1.944140 0.000000 
#    z -0.005480 0.000000 1.961320 
# 
# From -- ./inp_files/22258.got.cif
#   From: 2010.06.25/outbox.cif.g09.slc.cpg/sg13_12_cif.got.tgz:22258.got - 2010.06.28 04:50:58.
