data_PCOD8122817
_publ_section_title
;
Structure prediction by ZEFSAII (Michael W. Deem and Ramdas Pophale) SiO2 
 PCOD8122817
Probable space group: P 2/C
;
_chemical_formula_sum "Si O2"
_cell_formula_units_Z 14
_cell_length_a 5.535891
_cell_length_b 9.475884
_cell_length_c 11.259577
_cell_angle_alpha 90.000000
_cell_angle_beta 96.343980
_cell_angle_gamma 90.000000
_cell_volume 587.031942
_symmetry_space_group_name_H-M "P 2/C"
_symmetry_group_IT_number 13
_symmetry_cell_setting 'monoclinic'
loop_
_space_group_symop_operation_xyz
x,y,z
-x,y,1/2-z
-x,-y,-z
x,-y,1/2+z
loop_
_atom_site_type_symbol
_atom_site_label
_atom_site_fract_x
_atom_site_fract_y
_atom_site_fract_z
Si Si1 0.500000 0.792033 0.750000
Si Si2 0.042934 0.320774 0.884686
Si Si3 0.258704 0.921230 0.529693
Si Si4 0.708132 0.401838 0.059126
O O1 0.298890 0.887331 0.671453
O O2 0.360189 0.697406 0.836669
O O3 0.000000 0.261949 0.750000
O O4 0.092765 0.488018 0.880817
O O5 0.807423 0.303656 0.957199
O O6 0.255193 0.225783 0.955240
O O7 0.500000 0.000000 0.500000
O O8 0.000000 0.000000 0.500000
O O9 0.500000 0.500000 0.000000
#
# Coordination Sequence:
#
# PCOD8122817 Si02
#       4
#     2   4   4   4
#     4  12  26  52  84 106 166 196 270 334 396 470
#     4  11  26  45  76 111 158 195 262 323 395 478
#     4  12  30  52  77 112 154 221 266 318 393 474
#     4  11  23  47  75 118 148 202 252 332 411 465
#
# _framework density 23.848786
#
# number of rings (size 3 to 8) (size 9 to 14) (size 15 to 20)
#    0.000    0.571    2.857    3.429    8.000    2.286 
#    0.000    0.000    0.000    0.000    0.000    0.000 
#    0.000    0.000    0.000    0.000    0.000    0.000 
#
# Total GULP energy -173556.537961 kJ/mol
# GULP energy per Si atom -12396.895569 kJ/mol
# Density = 2.379450 g / cm^3
# Si number density = 23.848786 Si / 1000 Ang^3
#
#
#
# Elastic Constant Matrix: (Units=GPa)
#
#
# Indices 1 2 3 4 5 6 
#
# 1 160.5758 66.6178 87.8266 0.0000 -14.6409 0.0000
# 2 66.6178 109.2858 71.6478 0.0000 -5.2152 0.0000
# 3 87.8266 71.6478 232.5726 0.0000 -2.6709 0.0000
# 4 0.0000 0.0000 0.0000 57.4854 0.0000 5.4375
# 5 -14.6409 -5.2152 -2.6709 0.0000 50.2819 0.0000
# 6 0.0000 0.0000 0.0000 5.4375 0.0000 48.9528
#
#
#
# Elastic Compliance Matrix: (Units=1/GPa)
#
#
# Indices 1 2 3 4 5 6 
#
# 1 0.009367 -0.004139 -0.002237 0.000000 0.002179 0.000000
# 2 -0.004139 0.013346 -0.002548 0.000000 0.000044 0.000000
# 3 -0.002237 -0.002548 0.005923 0.000000 -0.000601 0.000000
# 4 0.000000 0.000000 0.000000 0.017580 0.000000 -0.001953
# 5 0.002179 0.000044 -0.000601 0.000000 0.020495 0.000000
# 6 0.000000 0.000000 0.000000 -0.001953 0.000000 0.020645
#
#
# Mechanical properties :
#
#
# Convention : Reuss Voigt Hill
#
# Bulk Modulus (GPa) = 92.70277 106.06873 99.38575
# Shear Modulus (GPa) = 45.95585 49.76682 47.86134
#
# Velocity S-wave (km/s) = 4.39449 4.57307 4.48467
# Velocity P-wave (km/s) = 8.04389 8.51211 8.28131
#
# Compressibility (1/GPa) = 0.01078716
#
# Stress axis : x y z
#
# Youngs Moduli (GPa) = 106.75609 74.92896 168.84685
#
# Poissons Ratio (x) = 0.31016 0.37773
# Poissons Ratio (y) = 0.44190 0.43019
# Poissons Ratio (z) = 0.23882 0.19090
#
# Static dielectric constant tensor:
#      x y z
#    x 4.328190 0.000000 0.087240 
#    y 0.000000 5.118950 0.000000 
#    z 0.087240 0.000000 4.510170 
# 
# 
# High freq. dielectric constant tensor:
#      x y z
#    x 1.948790 0.000000 0.002620 
#    y 0.000000 1.958520 0.000000 
#    z 0.002620 0.000000 1.954180 
# 
# From -- ./inp_files/25238.got.cif
#   From: 2010.06.25/outbox.cif.g09.slc.cpg/sg13_13_cif.got.tgz:25238.got - 2010.06.28 04:50:58.
