data_PCOD8122223
_publ_section_title
;
Structure prediction by ZEFSAII (Michael W. Deem and Ramdas Pophale) SiO2 
 PCOD8122223
Probable space group: P 2/C
;
_chemical_formula_sum "Si O2"
_cell_formula_units_Z 16
_cell_length_a 7.907501
_cell_length_b 12.637653
_cell_length_c 8.903338
_cell_angle_alpha 90.000000
_cell_angle_beta 126.536733
_cell_angle_gamma 90.000000
_cell_volume 714.876629
_symmetry_space_group_name_H-M "P 2/C"
_symmetry_group_IT_number 13
_symmetry_cell_setting 'monoclinic'
loop_
_space_group_symop_operation_xyz
x,y,z
-x,y,1/2-z
-x,-y,-z
x,-y,1/2+z
loop_
_atom_site_type_symbol
_atom_site_label
_atom_site_fract_x
_atom_site_fract_y
_atom_site_fract_z
Si Si1 0.000000 0.169981 0.750000
Si Si2 0.500000 0.529895 0.250000
Si Si3 0.262360 0.209974 0.157189
Si Si4 0.229470 0.602302 0.838804
Si Si5 0.342789 0.976556 0.286203
O O1 0.874388 0.241512 0.563183
O O2 0.840726 0.100459 0.763055
O O3 0.630441 0.602305 0.435774
O O4 0.661771 0.459280 0.240667
O O5 0.500000 0.242039 0.250000
O O6 0.190364 0.276734 0.263894
O O7 0.236541 0.084626 0.169855
O O8 0.000000 0.551692 0.750000
O O9 0.500000 0.921939 0.250000
O O10 0.500000 0.000000 0.500000
#
# Coordination Sequence:
#
# PCOD8122223 Si02
#       5
#     2   2   4   4   4
#     4  12  24  44  68  92 138 188 214 276 332 378
#     4  10  24  48  72  96 138 168 216 278 336 398
#     4  11  24  43  63 100 135 168 228 274 319 396
#     4  11  24  45  72 101 130 175 218 271 338 401
#     4  11  23  42  66  93 133 177 224 272 323 386
#
# _framework density 22.381485000000001
#
# number of rings (size 3 to 8) (size 9 to 14) (size 15 to 20)
#    0.000    1.000    6.250    1.500    1.750    2.000 
#    4.500    0.000    0.000    0.000    0.000    0.000 
#    0.000    0.000    0.000    0.000    0.000    0.000 
#
# Total GULP energy -198361.441094 kJ/mol
# GULP energy per Si atom -12397.590068 kJ/mol
# Density = 2.233054 g / cm^3
# Si number density = 22.381485 Si / 1000 Ang^3
#
#
#
# Elastic Constant Matrix: (Units=GPa)
#
#
# Indices 1 2 3 4 5 6 
#
# 1 182.6525 40.1614 61.6630 0.0000 -2.2137 0.0000
# 2 40.1614 58.1851 39.3350 0.0000 -3.8424 0.0000
# 3 61.6630 39.3350 208.1574 0.0000 1.9100 0.0000
# 4 0.0000 0.0000 0.0000 16.3210 0.0000 -15.8551
# 5 -2.2137 -3.8424 1.9100 0.0000 38.9857 0.0000
# 6 0.0000 0.0000 0.0000 -15.8551 0.0000 10.0500
#
#
#
# Elastic Compliance Matrix: (Units=1/GPa)
#
#
# Indices 1 2 3 4 5 6 
#
# 1 0.006740 -0.003780 -0.001283 0.000000 0.000073 0.000000
# 2 -0.003780 0.022001 -0.003057 0.000000 0.002104 0.000000
# 3 -0.001283 -0.003057 0.005768 0.000000 -0.000657 0.000000
# 4 0.000000 0.000000 0.000000 -0.115043 0.000000 -0.181495
# 5 0.000073 0.002104 -0.000657 0.000000 0.025894 0.000000
# 6 0.000000 0.000000 0.000000 -0.181495 0.000000 -0.186827
#
#
# Mechanical properties :
#
#
# Convention : Reuss Voigt Hill
#
# Bulk Modulus (GPa) = 54.73770 81.25707 67.99738
# Shear Modulus (GPa) = -22.81672 33.59371 5.38849
#
# Velocity S-wave (km/s) = -3.19634 3.87843 1.55332
# Velocity P-wave (km/s) = 3.29965 7.51269 5.80208
#
# Compressibility (1/GPa) = 0.01826894
#
# Stress axis : x y z
#
# Youngs Moduli (GPa) = 148.36694 45.45201 173.37555
#
# Poissons Ratio (x) = 0.17181 0.22244
# Poissons Ratio (y) = 0.56083 0.53002
# Poissons Ratio (z) = 0.19035 0.13895
#
# Static dielectric constant tensor:
#      x y z
#    x 4.175760 0.000000 0.036060 
#    y 0.000000 3.340040 0.000000 
#    z 0.036060 0.000000 4.403420 
# 
# 
# High freq. dielectric constant tensor:
#      x y z
#    x 1.901780 0.000000 -0.000140 
#    y 0.000000 1.843120 0.000000 
#    z -0.000140 0.000000 1.905710 
# 
# From -- ./inp_files/11176.got.cif
#   From: 2010.06.25/outbox.cif.g09.slc.cpg/sg13_6_cif.got.tgz:11176.got - 2010.06.28 04:50:58.
