data_PCOD8122337
_publ_section_title
;
Structure prediction by ZEFSAII (Michael W. Deem and Ramdas Pophale) SiO2 
 PCOD8122337
Probable space group: P 2/C
;
_chemical_formula_sum "Si O2"
_cell_formula_units_Z 18
_cell_length_a 15.398739
_cell_length_b 5.037814
_cell_length_c 20.968548
_cell_angle_alpha 90.000000
_cell_angle_beta 152.460974
_cell_angle_gamma 90.000000
_cell_volume 752.088629
_symmetry_space_group_name_H-M "P 2/C"
_symmetry_group_IT_number 13
_symmetry_cell_setting 'monoclinic'
loop_
_space_group_symop_operation_xyz
x,y,z
-x,y,1/2-z
-x,-y,-z
x,-y,1/2+z
loop_
_atom_site_type_symbol
_atom_site_label
_atom_site_fract_x
_atom_site_fract_y
_atom_site_fract_z
Si Si1 0.290231 0.752855 0.016837
Si Si2 0.252697 0.024712 0.113216
Si Si3 0.677605 0.526756 0.260004
Si Si4 0.017683 0.640124 0.135503
Si Si5 0.000000 0.069118 0.750000
O O1 0.176463 0.892941 0.886403
O O2 0.156902 0.555577 0.969091
O O3 0.467895 0.606860 0.101444
O O4 0.369540 0.957538 0.123233
O O5 0.344440 0.257020 0.214768
O O6 0.224150 0.756766 0.134631
O O7 0.048186 0.120336 0.953938
O O8 0.805518 0.486703 0.280409
O O9 0.079253 0.751330 0.244401
#
# Coordination Sequence:
#
# PCOD8122337 Si02
#       5
#     4   4   4   4   2
#     4  11  26  45  73 104 147 191 236 298 347 425
#     4  11  25  43  69 110 144 179 231 291 359 426
#     4  12  27  42  75 109 142 185 235 289 367 425
#     4  11  25  47  71 102 147 189 236 296 348 424
#     4  10  26  48  72  98 142 198 246 292 352 406
#
# _framework density 23.933347000000001
#
# number of rings (size 3 to 8) (size 9 to 14) (size 15 to 20)
#    0.000    0.889    2.222    2.667   15.556    0.889 
#    0.000    4.444    0.000    0.000    0.000    0.000 
#    0.000    0.000    0.000    0.000    0.000    0.000 
#
# Total GULP energy -223196.506502 kJ/mol
# GULP energy per Si atom -12399.805917 kJ/mol
# Density = 2.387887 g / cm^3
# Si number density = 23.933347 Si / 1000 Ang^3
#
#
#
# Elastic Constant Matrix: (Units=GPa)
#
#
# Indices 1 2 3 4 5 6 
#
# 1 117.2908 22.8169 60.6354 0.0000 21.2173 0.0000
# 2 22.8169 76.6270 11.8436 0.0000 -1.9942 0.0000
# 3 60.6354 11.8436 96.9186 0.0000 -5.3299 0.0000
# 4 0.0000 0.0000 0.0000 42.7859 0.0000 -1.9133
# 5 21.2173 -1.9942 -5.3299 0.0000 49.9341 0.0000
# 6 0.0000 0.0000 0.0000 -1.9133 0.0000 15.3966
#
#
#
# Elastic Compliance Matrix: (Units=1/GPa)
#
#
# Indices 1 2 3 4 5 6 
#
# 1 0.015680 -0.003354 -0.009832 0.000000 -0.007846 0.000000
# 2 -0.003354 0.014025 0.000496 0.000000 0.002038 0.000000
# 3 -0.009832 0.000496 0.016737 0.000000 0.005984 0.000000
# 4 0.000000 0.000000 0.000000 0.023503 0.000000 0.002921
# 5 -0.007846 0.002038 0.005984 0.000000 0.024080 0.000000
# 6 0.000000 0.000000 0.000000 0.002921 0.000000 0.065313
#
#
# Mechanical properties :
#
#
# Convention : Reuss Voigt Hill
#
# Bulk Modulus (GPa) = 47.47272 53.49203 50.48237
# Shear Modulus (GPa) = 26.07729 34.65935 30.36832
#
# Velocity S-wave (km/s) = 3.30446 3.80960 3.56599
# Velocity P-wave (km/s) = 5.86837 6.46140 6.17201
#
# Compressibility (1/GPa) = 0.02106473
#
# Stress axis : x y z
#
# Youngs Moduli (GPa) = 63.77507 71.30054 59.74663
#
# Poissons Ratio (x) = 0.23911 0.58741
# Poissons Ratio (y) = 0.21388 -0.02965
# Poissons Ratio (z) = 0.62701 -0.03539
#
# Static dielectric constant tensor:
#      x y z
#    x 4.189170 0.000000 -0.078080 
#    y 0.000000 4.612810 0.000000 
#    z -0.078080 0.000000 4.118090 
# 
# 
# High freq. dielectric constant tensor:
#      x y z
#    x 1.940680 0.000000 -0.000560 
#    y 0.000000 1.961490 0.000000 
#    z -0.000560 0.000000 1.944200 
# 
# From -- ./inp_files/65194.got.cif
#   From: 2010.06.25/outbox.cif.g09.slc.cpg/sg13_33_cif.got.tgz:65194.got - 2010.06.28 04:50:58.
