data_PCOD8122466
_publ_section_title
;
Structure prediction by ZEFSAII (Michael W. Deem and Ramdas Pophale) SiO2 
 PCOD8122466
Probable space group: P 2/C
;
_chemical_formula_sum "Si O2"
_cell_formula_units_Z 24
_cell_length_a 10.453416
_cell_length_b 12.786638
_cell_length_c 17.082668
_cell_angle_alpha 90.000000
_cell_angle_beta 30.135779
_cell_angle_gamma 90.000000
_cell_volume 1146.352146
_symmetry_space_group_name_H-M "P 2/C"
_symmetry_group_IT_number 13
_symmetry_cell_setting 'monoclinic'
loop_
_space_group_symop_operation_xyz
x,y,z
-x,y,1/2-z
-x,-y,-z
x,-y,1/2+z
loop_
_atom_site_type_symbol
_atom_site_label
_atom_site_fract_x
_atom_site_fract_y
_atom_site_fract_z
Si Si1 0.000000 0.111547 0.250000
Si Si2 0.190183 0.045567 0.520150
Si Si3 0.506095 0.809040 0.545129
Si Si4 0.252567 0.198920 0.746653
Si Si5 0.788558 0.568348 0.256307
Si Si6 0.500000 0.921177 0.250000
Si Si7 0.356315 0.415841 0.486732
O O1 0.222425 0.190114 0.159948
O O2 0.062984 0.040091 0.142786
O O3 0.447723 0.089120 0.425362
O O4 0.017919 0.146104 0.593288
O O5 0.260495 0.994021 0.399494
O O6 0.697143 0.819719 0.371163
O O7 0.567146 0.705737 0.564194
O O8 0.256687 0.321845 0.763030
O O9 0.458454 0.147725 0.694787
O O10 0.595223 0.481018 0.323515
O O11 0.698247 0.570743 0.393181
O O12 0.092199 0.546622 0.084628
#
# Coordination Sequence:
#
# PCOD8122466 Si02
#       7
#     2   4   4   4   4   2   4
#     4  12  22  34  62  92 124 160 208 258 302 372
#     4  12  22  41  62  88 125 170 213 251 310 369
#     4  11  21  37  62  93 124 162 209 262 313 365
#     4  11  21  39  62  88 128 167 205 255 318 369
#     4   9  18  34  59  89 122 155 199 258 319 371
#     4  12  26  38  58  96 128 170 210 250 308 384
#     4   9  18  33  59  91 121 154 199 261 319 366
#
# _framework density 20.935974999999999
#
# number of rings (size 3 to 8) (size 9 to 14) (size 15 to 20)
#    0.000    1.333    5.000    2.000    0.000    4.000 
#    0.000    0.000    0.000    2.000    0.000    0.000 
#    0.000    0.000    0.000    0.000    0.000    0.000 
#
# Total GULP energy -297435.302021 kJ/mol
# GULP energy per Si atom -12393.137584 kJ/mol
# Density = 2.088832 g / cm^3
# Si number density = 20.935975 Si / 1000 Ang^3
#
#
#
# Elastic Constant Matrix: (Units=GPa)
#
#
# Indices 1 2 3 4 5 6 
#
# 1 46.5915 36.0259 24.7754 0.0000 -21.1120 0.0000
# 2 36.0259 123.7889 58.7489 0.0000 -12.5984 0.0000
# 3 24.7754 58.7489 83.6573 0.0000 -18.9350 0.0000
# 4 0.0000 0.0000 0.0000 33.4563 0.0000 -11.0232
# 5 -21.1120 -12.5984 -18.9350 0.0000 40.9661 0.0000
# 6 0.0000 0.0000 0.0000 -11.0232 0.0000 21.7094
#
#
#
# Elastic Compliance Matrix: (Units=1/GPa)
#
#
# Indices 1 2 3 4 5 6 
#
# 1 0.035259 -0.008085 -0.001356 0.000000 0.015058 0.000000
# 2 -0.008085 0.013973 -0.008252 0.000000 -0.003684 0.000000
# 3 -0.001356 -0.008252 0.019452 0.000000 0.005755 0.000000
# 4 0.000000 0.000000 0.000000 0.035895 0.000000 0.018226
# 5 0.015058 -0.003684 0.005755 0.000000 0.033697 0.000000
# 6 0.000000 0.000000 0.000000 0.018226 0.000000 0.055317
#
#
# Mechanical properties :
#
#
# Convention : Reuss Voigt Hill
#
# Bulk Modulus (GPa) = 30.03164 54.79313 42.41238
# Shear Modulus (GPa) = 20.82647 28.19218 24.50932
#
# Velocity S-wave (km/s) = 3.15742 3.67357 3.42523
# Velocity P-wave (km/s) = 5.26004 6.64997 5.99542
#
# Compressibility (1/GPa) = 0.03329822
#
# Stress axis : x y z
#
# Youngs Moduli (GPa) = 28.36142 71.56895 51.40763
#
# Poissons Ratio (x) = 0.57866 0.06971
# Poissons Ratio (y) = 0.22931 0.42419
# Poissons Ratio (z) = 0.03846 0.59056
#
# Static dielectric constant tensor:
#      x y z
#    x 3.672290 0.000000 -0.303660 
#    y 0.000000 3.908620 0.000000 
#    z -0.303660 0.000000 3.732130 
# 
# 
# High freq. dielectric constant tensor:
#      x y z
#    x 1.800610 0.000000 -0.029060 
#    y 0.000000 1.821090 0.000000 
#    z -0.029060 0.000000 1.802840 
# 
# From -- ./inp_files/33373.got.cif
#   From: 2010.06.25/outbox.cif.g09.slc.cpg/sg13_17_cif.got.tgz:33373.got - 2010.06.28 04:50:58.
