data_PCOD8122069
_publ_section_title
;
Structure prediction by ZEFSAII (Michael W. Deem and Ramdas Pophale) SiO2 
 PCOD8122069
Probable space group: P 2/C
;
_chemical_formula_sum "Si O2"
_cell_formula_units_Z 12
_cell_length_a 17.191309
_cell_length_b 5.233943
_cell_length_c 10.309432
_cell_angle_alpha 90.000000
_cell_angle_beta 35.934908
_cell_angle_gamma 90.000000
_cell_volume 544.391650
_symmetry_space_group_name_H-M "P 2/C"
_symmetry_group_IT_number 13
_symmetry_cell_setting 'monoclinic'
loop_
_space_group_symop_operation_xyz
x,y,z
-x,y,1/2-z
-x,-y,-z
x,-y,1/2+z
loop_
_atom_site_type_symbol
_atom_site_label
_atom_site_fract_x
_atom_site_fract_y
_atom_site_fract_z
Si Si1 0.648797 0.683826 0.027148
Si Si2 0.134212 0.964204 0.895638
Si Si3 0.232270 0.527535 0.371155
O O1 0.500000 0.783735 0.250000
O O2 0.699597 0.521901 0.081216
O O3 0.744213 0.928262 0.871326
O O4 0.655012 0.497033 0.893253
O O5 0.153687 0.791131 0.460004
O O6 0.129886 0.711271 0.993776
O O7 0.000000 0.000000 0.000000
#
# Coordination Sequence:
#
# PCOD8122069 Si02
#       3
#     4   4   4
#     4  10  24  43  69  99 135 175 222 275 334 395
#     4  10  24  43  65  96 136 176 220 268 331 395
#     4  10  24  42  67  96 133 174 221 274 328 395
#
# _framework density 22.042954000000002
#
# number of rings (size 3 to 8) (size 9 to 14) (size 15 to 20)
#    2.000    0.000    0.000    2.000    4.667    4.000 
#    0.000    0.000    0.000    0.000    0.000    0.000 
#    0.000    0.000    0.000    0.000    0.000    0.000 
#
# Total GULP energy -148686.159385 kJ/mol
# GULP energy per Si atom -12390.513282 kJ/mol
# Density = 2.199278 g / cm^3
# Si number density = 22.042954 Si / 1000 Ang^3
#
#
#
# Elastic Constant Matrix: (Units=GPa)
#
#
# Indices 1 2 3 4 5 6 
#
# 1 92.9809 26.0795 30.5650 0.0000 -3.2429 0.0000
# 2 26.0795 145.4555 12.2222 0.0000 -6.3735 0.0000
# 3 30.5650 12.2222 53.9912 0.0000 3.4231 0.0000
# 4 0.0000 0.0000 0.0000 9.6609 0.0000 -8.1513
# 5 -3.2429 -6.3735 3.4231 0.0000 47.8872 0.0000
# 6 0.0000 0.0000 0.0000 -8.1513 0.0000 30.2274
#
#
#
# Elastic Compliance Matrix: (Units=1/GPa)
#
#
# Indices 1 2 3 4 5 6 
#
# 1 0.013750 -0.001785 -0.007458 0.000000 0.001227 0.000000
# 2 -0.001785 0.007293 -0.000698 0.000000 0.000900 0.000000
# 3 -0.007458 -0.000698 0.023044 0.000000 -0.002245 0.000000
# 4 0.000000 0.000000 0.000000 0.133999 0.000000 0.036135
# 5 0.001227 0.000900 -0.002245 0.000000 0.021246 0.000000
# 6 0.000000 0.000000 0.000000 0.036135 0.000000 0.042827
#
#
# Mechanical properties :
#
#
# Convention : Reuss Voigt Hill
#
# Bulk Modulus (GPa) = 41.31151 47.79565 44.55358
# Shear Modulus (GPa) = 18.51121 32.45916 25.48519
#
# Velocity S-wave (km/s) = 2.90104 3.84153 3.40392
# Velocity P-wave (km/s) = 5.47754 6.43479 5.97536
#
# Compressibility (1/GPa) = 0.02420633
#
# Stress axis : x y z
#
# Youngs Moduli (GPa) = 72.72827 137.11760 43.39593
#
# Poissons Ratio (x) = 0.24474 0.32363
# Poissons Ratio (y) = 0.12981 0.03027
# Poissons Ratio (z) = 0.54238 0.09565
#
# Static dielectric constant tensor:
#      x y z
#    x 3.863190 0.000000 0.085170 
#    y 0.000000 3.784610 0.000000 
#    z 0.085170 0.000000 3.828850 
# 
# 
# High freq. dielectric constant tensor:
#      x y z
#    x 1.867250 0.000000 0.010870 
#    y 0.000000 1.857480 0.000000 
#    z 0.010870 0.000000 1.857450 
# 
# From -- ./inp_files/20385.got.cif
#   From: 2010.06.25/outbox.cif.g09.slc.cpg/sg13_11_cif.got.tgz:20385.got - 2010.06.28 04:50:58.
