data_PCOD8122982
_publ_section_title
;
Structure prediction by ZEFSAII (Michael W. Deem and Ramdas Pophale) SiO2 
 PCOD8122982
Probable space group: P 2/C
;
_chemical_formula_sum "Si O2"
_cell_formula_units_Z 26
_cell_length_a 16.064867
_cell_length_b 6.406424
_cell_length_c 22.874023
_cell_angle_alpha 90.000000
_cell_angle_beta 150.630311
_cell_angle_gamma 90.000000
_cell_volume 1154.579176
_symmetry_space_group_name_H-M "P 2/C"
_symmetry_group_IT_number 13
_symmetry_cell_setting 'monoclinic'
loop_
_space_group_symop_operation_xyz
x,y,z
-x,y,1/2-z
-x,-y,-z
x,-y,1/2+z
loop_
_atom_site_type_symbol
_atom_site_label
_atom_site_fract_x
_atom_site_fract_y
_atom_site_fract_z
Si Si1 0.625846 0.693568 0.583661
Si Si2 0.102682 0.504468 0.675526
Si Si3 0.500000 0.384541 0.250000
Si Si4 0.073659 0.861638 0.994052
Si Si5 0.644608 0.293900 0.755873
Si Si6 0.202885 0.205185 0.998341
Si Si7 0.435938 0.993355 0.553473
O O1 0.500000 0.500000 0.500000
O O2 0.809914 0.605238 0.714014
O O3 0.643682 0.821865 0.534538
O O4 0.565075 0.850821 0.596757
O O5 0.235392 0.349852 0.725497
O O6 0.058103 0.678531 0.600314
O O7 0.931262 0.391887 0.591913
O O8 0.469726 0.514426 0.291532
O O9 0.335305 0.248282 0.132369
O O10 0.251424 0.765943 0.122897
O O11 0.099772 0.997537 0.952139
O O12 0.000000 0.000000 0.000000
O O13 0.530331 0.099119 0.666133
O O14 0.290891 0.159144 0.990016
#
# Coordination Sequence:
#
# PCOD8122982 Si02
#       7
#     4   4   2   4   4   4   4
#     4  11  25  50  77  99 135 191 245 296 354 414
#     4  12  25  44  73 104 143 185 236 299 356 422
#     4  12  24  42  72 104 150 194 226 292 358 434
#     4  12  23  41  68 106 145 183 223 287 357 429
#     4  12  22  44  73 103 143 186 235 285 360 428
#     4  12  26  44  69 108 148 183 232 292 359 430
#     4  11  26  46  77 102 138 191 243 294 352 428
#
# _framework density 22.519027999999999
#
# number of rings (size 3 to 8) (size 9 to 14) (size 15 to 20)
#    0.000    0.308    4.615    5.077    0.000    0.000 
#    0.000    4.615    0.000    0.000    0.000    0.000 
#    0.000    0.000    0.000    0.000    0.000    0.000 
#
# Total GULP energy -322558.792318 kJ/mol
# GULP energy per Si atom -12406.107397 kJ/mol
# Density = 2.246777 g / cm^3
# Si number density = 22.519028 Si / 1000 Ang^3
#
#
#
# Elastic Constant Matrix: (Units=GPa)
#
#
# Indices 1 2 3 4 5 6 
#
# 1 85.0352 28.8614 31.7300 0.0000 7.7830 0.0000
# 2 28.8614 105.0353 50.9024 0.0000 1.5662 0.0000
# 3 31.7300 50.9024 136.8842 0.0000 -2.1698 0.0000
# 4 0.0000 0.0000 0.0000 42.6090 0.0000 -7.5352
# 5 7.7830 1.5662 -2.1698 0.0000 30.2595 0.0000
# 6 0.0000 0.0000 0.0000 -7.5352 0.0000 47.2887
#
#
#
# Elastic Compliance Matrix: (Units=1/GPa)
#
#
# Indices 1 2 3 4 5 6 
#
# 1 0.013836 -0.002643 -0.002281 0.000000 -0.003586 0.000000
# 2 -0.002643 0.012144 -0.003907 0.000000 -0.000229 0.000000
# 3 -0.002281 -0.003907 0.009310 0.000000 0.001457 0.000000
# 4 0.000000 0.000000 0.000000 0.024150 0.000000 0.003848
# 5 -0.003586 -0.000229 0.001457 0.000000 0.034086 0.000000
# 6 0.000000 0.000000 0.000000 0.003848 0.000000 0.021760
#
#
# Mechanical properties :
#
#
# Convention : Reuss Voigt Hill
#
# Bulk Modulus (GPa) = 56.72776 61.10468 58.91622
# Shear Modulus (GPa) = 36.01700 38.39552 37.20626
#
# Velocity S-wave (km/s) = 4.00359 4.13368 4.06915
# Velocity P-wave (km/s) = 6.82769 7.06941 6.94960
#
# Compressibility (1/GPa) = 0.01762805
#
# Stress axis : x y z
#
# Youngs Moduli (GPa) = 72.27389 82.34848 107.40989
#
# Poissons Ratio (x) = 0.21763 0.24504
# Poissons Ratio (y) = 0.19101 0.41962
# Poissons Ratio (z) = 0.16488 0.32172
#
# Static dielectric constant tensor:
#      x y z
#    x 4.378560 0.000000 -0.149980 
#    y 0.000000 4.912660 0.000000 
#    z -0.149980 0.000000 4.319460 
# 
# 
# High freq. dielectric constant tensor:
#      x y z
#    x 1.877140 0.000000 0.004570 
#    y 0.000000 1.907190 0.000000 
#    z 0.004570 0.000000 1.886000 
# 
# From -- ./inp_files/87768.got.cif
#   From: 2010.06.25/outbox.cif.g09.slc.cpg/sg13_44_cif.got.tgz:87768.got - 2010.06.28 04:50:58.
