data_PCOD8122727
_publ_section_title
;
Structure prediction by ZEFSAII (Michael W. Deem and Ramdas Pophale) SiO2 
 PCOD8122727
Probable space group: P 2/C
;
_chemical_formula_sum "Si O2"
_cell_formula_units_Z 28
_cell_length_a 13.726053
_cell_length_b 9.450298
_cell_length_c 18.845484
_cell_angle_alpha 90.000000
_cell_angle_beta 31.890111
_cell_angle_gamma 90.000000
_cell_volume 1291.434365
_symmetry_space_group_name_H-M "P 2/C"
_symmetry_group_IT_number 13
_symmetry_cell_setting 'monoclinic'
loop_
_space_group_symop_operation_xyz
x,y,z
-x,y,1/2-z
-x,-y,-z
x,-y,1/2+z
loop_
_atom_site_type_symbol
_atom_site_label
_atom_site_fract_x
_atom_site_fract_y
_atom_site_fract_z
Si Si1 0.772465 0.261580 0.446189
Si Si2 0.240307 0.355774 0.338468
Si Si3 0.407836 0.644429 0.577684
Si Si4 0.411500 0.879524 0.217025
Si Si5 0.822600 0.346201 0.562536
Si Si6 0.500000 0.859426 0.750000
Si Si7 0.662459 0.891225 0.386891
Si Si8 0.000000 0.974230 0.750000
O O1 0.762793 0.325064 0.371875
O O2 0.563995 0.222054 0.590689
O O3 0.838475 0.368447 0.467429
O O4 0.907951 0.127028 0.365924
O O5 0.330146 0.345691 0.205341
O O6 0.274303 0.515600 0.344790
O O7 0.326522 0.243776 0.341698
O O8 0.023503 0.322498 0.471631
O O9 0.500000 0.500000 0.500000
O O10 0.584841 0.744458 0.462817
O O11 0.301660 0.795864 0.347201
O O12 0.275988 0.900353 0.233933
O O13 0.504723 0.029571 0.181390
O O14 0.500000 0.000000 0.500000
O O15 0.847068 0.923691 0.313937
#
# Coordination Sequence:
#
# PCOD8122727 Si02
#       8
#     4   4   4   4   4   2   4   2
#     4  11  23  42  72 100 131 186 229 273 347 412
#     4  11  27  44  67 103 137 175 232 289 341 409
#     4  11  24  45  73  99 137 181 229 288 344 413
#     4  11  23  43  67  98 137 180 224 273 343 415
#     4  11  25  47  68  97 139 182 228 280 346 417
#     4  12  26  38  68 102 134 176 224 276 352 394
#     4  11  23  45  70 101 138 177 231 282 340 411
#     4  12  24  42  74 102 138 182 230 292 342 410
#
# _framework density 21.681318999999998
#
# number of rings (size 3 to 8) (size 9 to 14) (size 15 to 20)
#    0.000    0.857    4.286    3.429    6.000    1.714 
#    0.000    2.143    0.000    0.000    0.000    0.000 
#    0.000    0.000    0.000    0.000    0.000    0.000 
#
# Total GULP energy -346950.184178 kJ/mol
# GULP energy per Si atom -12391.078006 kJ/mol
# Density = 2.163197 g / cm^3
# Si number density = 21.681319 Si / 1000 Ang^3
#
#
#
# Elastic Constant Matrix: (Units=GPa)
#
#
# Indices 1 2 3 4 5 6 
#
# 1 148.5243 67.4058 48.2884 0.0000 6.9452 0.0000
# 2 67.4058 145.9947 46.3811 0.0000 -4.3344 0.0000
# 3 48.2884 46.3811 81.8831 0.0000 4.3951 0.0000
# 4 0.0000 0.0000 0.0000 35.6706 0.0000 0.5110
# 5 6.9452 -4.3344 4.3951 0.0000 39.0789 0.0000
# 6 0.0000 0.0000 0.0000 0.5110 0.0000 34.9774
#
#
#
# Elastic Compliance Matrix: (Units=1/GPa)
#
#
# Indices 1 2 3 4 5 6 
#
# 1 0.009478 -0.003264 -0.003653 0.000000 -0.001636 0.000000
# 2 -0.003264 0.009561 -0.003601 0.000000 0.002046 0.000000
# 3 -0.003653 -0.003601 0.016492 0.000000 -0.001605 0.000000
# 4 0.000000 0.000000 0.000000 0.028040 0.000000 -0.000410
# 5 -0.001636 0.002046 -0.001605 0.000000 0.026287 0.000000
# 6 0.000000 0.000000 0.000000 -0.000410 0.000000 0.028596
#
#
# Mechanical properties :
#
#
# Convention : Reuss Voigt Hill
#
# Bulk Modulus (GPa) = 68.98165 77.83921 73.41043
# Shear Modulus (GPa) = 34.64445 36.23383 35.43914
#
# Velocity S-wave (km/s) = 4.00170 4.09247 4.04734
# Velocity P-wave (km/s) = 7.29635 7.63613 7.46817
#
# Compressibility (1/GPa) = 0.01449661
#
# Stress axis : x y z
#
# Youngs Moduli (GPa) = 105.50212 104.58839 60.63414
#
# Poissons Ratio (x) = 0.34141 0.22149
# Poissons Ratio (y) = 0.34439 0.21832
# Poissons Ratio (z) = 0.38539 0.37658
#
# Static dielectric constant tensor:
#      x y z
#    x 4.372540 0.000000 0.178010 
#    y 0.000000 3.919520 0.000000 
#    z 0.178010 0.000000 3.833740 
# 
# 
# High freq. dielectric constant tensor:
#      x y z
#    x 1.873770 0.000000 0.002360 
#    y 0.000000 1.849660 0.000000 
#    z 0.002360 0.000000 1.843000 
# 
# From -- ./inp_files/79961.got.cif
#   From: 2010.06.25/outbox.cif.g09.slc.cpg/sg13_40_cif.got.tgz:79961.got - 2010.06.28 04:50:58.
