data_PCOD8122701
_publ_section_title
;
Structure prediction by ZEFSAII (Michael W. Deem and Ramdas Pophale) SiO2 
 PCOD8122701
Probable space group: P 2/C
;
_chemical_formula_sum "Si O2"
_cell_formula_units_Z 22
_cell_length_a 15.631949
_cell_length_b 11.806723
_cell_length_c 18.751921
_cell_angle_alpha 90.000000
_cell_angle_beta 161.354287
_cell_angle_gamma 90.000000
_cell_volume 1106.500956
_symmetry_space_group_name_H-M "P 2/C"
_symmetry_group_IT_number 13
_symmetry_cell_setting 'monoclinic'
loop_
_space_group_symop_operation_xyz
x,y,z
-x,y,1/2-z
-x,-y,-z
x,-y,1/2+z
loop_
_atom_site_type_symbol
_atom_site_label
_atom_site_fract_x
_atom_site_fract_y
_atom_site_fract_z
Si Si1 0.288833 0.080377 0.796612
Si Si2 0.077431 0.750409 0.890122
Si Si3 0.728152 0.968393 0.380663
Si Si4 0.500000 0.562728 0.250000
Si Si5 0.318934 0.510079 0.751707
Si Si6 0.524591 0.314662 0.011192
O O1 0.354243 0.067341 0.764420
O O2 0.322205 0.208565 0.852103
O O3 0.988399 0.047457 0.581421
O O4 0.500000 0.000000 0.000000
O O5 0.000000 0.785697 0.750000
O O6 0.817698 0.732987 0.731904
O O7 0.234616 0.852398 0.048410
O O8 0.251462 0.637237 0.027779
O O9 0.500000 0.030690 0.250000
O O10 0.587519 0.480226 0.255641
O O11 0.434943 0.395452 0.876612
O O12 0.000000 0.500000 0.500000
O O13 0.453912 0.617600 0.897359
#
# Coordination Sequence:
#
# PCOD8122701 Si02
#       6
#     4   4   4   2   4   4
#     4  11  24  42  70  94 134 175 217 267 332 397
#     4  12  21  36  69  99 127 155 221 285 327 373
#     4  11  24  39  66 101 132 172 218 275 331 387
#     4  12  22  38  62 100 128 166 218 274 322 386
#     4  11  24  40  68  90 132 171 213 268 327 382
#     4  11  23  41  64  97 127 173 213 266 329 387
#
# _framework density 19.882494000000001
#
# number of rings (size 3 to 8) (size 9 to 14) (size 15 to 20)
#    0.000    0.727    6.364    2.182    0.000    0.000 
#    0.000    0.000   12.000    0.000    0.000    0.000 
#    0.000    0.000    0.000    0.000    0.000    0.000 
#
# Total GULP energy -272774.843338 kJ/mol
# GULP energy per Si atom -12398.856515 kJ/mol
# Density = 1.983724 g / cm^3
# Si number density = 19.882494 Si / 1000 Ang^3
#
#
#
# Elastic Constant Matrix: (Units=GPa)
#
#
# Indices 1 2 3 4 5 6 
#
# 1 174.1557 59.3842 62.0054 0.0000 -5.5878 0.0000
# 2 59.3842 110.9166 40.4642 0.0000 -8.2928 0.0000
# 3 62.0054 40.4642 104.4187 0.0000 -3.1768 0.0000
# 4 0.0000 0.0000 0.0000 40.7360 0.0000 -1.3561
# 5 -5.5878 -8.2928 -3.1768 0.0000 43.5222 0.0000
# 6 0.0000 0.0000 0.0000 -1.3561 0.0000 24.1267
#
#
#
# Elastic Compliance Matrix: (Units=1/GPa)
#
#
# Indices 1 2 3 4 5 6 
#
# 1 0.008053 -0.002974 -0.003623 0.000000 0.000203 0.000000
# 2 -0.002974 0.011727 -0.002728 0.000000 0.001653 0.000000
# 3 -0.003623 -0.002728 0.012784 0.000000 -0.000052 0.000000
# 4 0.000000 0.000000 0.000000 0.024594 0.000000 0.001382
# 5 0.000203 0.001653 -0.000052 0.000000 0.023314 0.000000
# 6 0.000000 0.000000 0.000000 0.001382 0.000000 0.041526
#
#
# Mechanical properties :
#
#
# Convention : Reuss Voigt Hill
#
# Bulk Modulus (GPa) = 71.87599 79.24431 75.56015
# Shear Modulus (GPa) = 34.41497 36.85280 35.63388
#
# Velocity S-wave (km/s) = 4.16494 4.30993 4.23806
# Velocity P-wave (km/s) = 7.70441 8.04427 7.87617
#
# Compressibility (1/GPa) = 0.01391285
#
# Stress axis : x y z
#
# Youngs Moduli (GPa) = 124.18302 85.27256 78.22454
#
# Poissons Ratio (x) = 0.25364 0.28340
# Poissons Ratio (y) = 0.36938 0.21339
# Poissons Ratio (z) = 0.44991 0.23261
#
# Static dielectric constant tensor:
#      x y z
#    x 4.048200 0.000000 -0.157220 
#    y 0.000000 -4.050870 0.000000 
#    z -0.157220 0.000000 3.848410 
# 
# 
# High freq. dielectric constant tensor:
#      x y z
#    x 1.780030 0.000000 -0.006430 
#    y 0.000000 1.762150 0.000000 
#    z -0.006430 0.000000 1.799060 
# 
# From -- ./inp_files/43608.got.cif
#   From: 2010.06.25/outbox.cif.g09.slc.cpg/sg13_22_cif.got.tgz:43608.got - 2010.06.28 04:50:58.
