data_PCOD8122016
_publ_section_title
;
Structure prediction by ZEFSAII (Michael W. Deem and Ramdas Pophale) SiO2 
 PCOD8122016
Probable space group: P 2/C
;
_chemical_formula_sum "Si O2"
_cell_formula_units_Z 22
_cell_length_a 13.945815
_cell_length_b 14.552088
_cell_length_c 13.836613
_cell_angle_alpha 90.000000
_cell_angle_beta 158.586000
_cell_angle_gamma 90.000000
_cell_volume 1025.217291
_symmetry_space_group_name_H-M "P 2/C"
_symmetry_group_IT_number 13
_symmetry_cell_setting 'monoclinic'
loop_
_space_group_symop_operation_xyz
x,y,z
-x,y,1/2-z
-x,-y,-z
x,-y,1/2+z
loop_
_atom_site_type_symbol
_atom_site_label
_atom_site_fract_x
_atom_site_fract_y
_atom_site_fract_z
Si Si1 0.500000 0.665524 0.750000
Si Si2 0.479565 0.399330 0.023064
Si Si3 0.013646 0.290367 0.504422
Si Si4 0.281623 0.001005 0.214366
Si Si5 0.227284 0.174780 0.537343
Si Si6 0.859820 0.827611 0.025002
O O1 0.441013 0.599887 0.603302
O O2 0.264325 0.733065 0.554647
O O3 0.211736 0.367359 0.723935
O O4 0.500000 0.500000 0.000000
O O5 0.721412 0.332907 0.221632
O O6 0.097067 0.254733 0.478297
O O7 0.040307 0.204502 0.604339
O O8 0.318317 0.913503 0.182188
O O9 0.500000 0.000000 0.500000
O O10 0.328840 0.092879 0.193840
O O11 0.000000 0.000000 0.000000
O O12 0.500000 0.214406 0.750000
O O13 0.000000 0.144502 0.250000
O O14 0.000000 0.871759 0.250000
#
# Coordination Sequence:
#
# PCOD8122016 Si02
#       6
#     2   4   4   4   4   4
#     4  10  24  40  72 104 134 178 230 278 356 424
#     4  11  24  46  72 106 141 174 228 297 357 423
#     4  11  24  45  72 100 138 183 229 290 350 419
#     4  12  27  42  68 100 139 186 234 296 346 400
#     4  12  26  46  67  97 143 190 241 281 349 426
#     4  11  23  42  72 100 139 178 237 289 348 410
#
# _framework density 21.458866
#
# number of rings (size 3 to 8) (size 9 to 14) (size 15 to 20)
#    0.000    0.727    3.636    3.273    8.909    0.000 
#    4.909    0.000    0.000    0.000    0.000    0.000 
#    0.000    0.000    0.000    0.000    0.000    0.000 
#
# Total GULP energy -272758.651678 kJ/mol
# GULP energy per Si atom -12398.120531 kJ/mol
# Density = 2.141002 g / cm^3
# Si number density = 21.458866 Si / 1000 Ang^3
#
#
#
# Elastic Constant Matrix: (Units=GPa)
#
#
# Indices 1 2 3 4 5 6 
#
# 1 124.9802 41.4887 37.8080 0.0000 -9.3442 0.0000
# 2 41.4887 96.3037 16.1913 0.0000 -22.8775 0.0000
# 3 37.8080 16.1913 122.3067 0.0000 -17.0954 0.0000
# 4 0.0000 0.0000 0.0000 12.9084 0.0000 -13.5420
# 5 -9.3442 -22.8775 -17.0954 0.0000 46.6673 0.0000
# 6 0.0000 0.0000 0.0000 -13.5420 0.0000 28.1115
#
#
#
# Elastic Compliance Matrix: (Units=1/GPa)
#
#
# Indices 1 2 3 4 5 6 
#
# 1 0.010125 -0.004142 -0.002721 0.000000 -0.001000 0.000000
# 2 -0.004142 0.013520 0.000317 0.000000 0.005915 0.000000
# 3 -0.002721 0.000317 0.009402 0.000000 0.003055 0.000000
# 4 0.000000 0.000000 0.000000 0.156621 0.000000 0.075448
# 5 -0.001000 0.005915 0.003055 0.000000 0.025247 0.000000
# 6 0.000000 0.000000 0.000000 0.075448 0.000000 0.071918
#
#
# Mechanical properties :
#
#
# Convention : Reuss Voigt Hill
#
# Bulk Modulus (GPa) = 50.11209 59.39630 54.75419
# Shear Modulus (GPa) = 16.30918 34.07760 25.19339
#
# Velocity S-wave (km/s) = 2.75984 3.98935 3.43013
# Velocity P-wave (km/s) = 5.79301 6.99708 6.42332
#
# Compressibility (1/GPa) = 0.01995526
#
# Stress axis : x y z
#
# Youngs Moduli (GPa) = 98.76883 73.96503 106.35605
#
# Poissons Ratio (x) = 0.30635 0.28942
# Poissons Ratio (y) = 0.40909 -0.03374
# Poissons Ratio (z) = 0.26877 -0.02347
#
# Static dielectric constant tensor:
#      x y z
#    x 4.471790 0.000000 -0.207880 
#    y 0.000000 3.834240 0.000000 
#    z -0.207880 0.000000 3.600160 
# 
# 
# High freq. dielectric constant tensor:
#      x y z
#    x 1.860440 0.000000 -0.005500 
#    y 0.000000 1.832140 0.000000 
#    z -0.005500 0.000000 1.849620 
# 
# From -- ./inp_files/34635.got.cif
#   From: 2010.06.25/outbox.cif.g09.slc.cpg/sg13_18_cif.got.tgz:34635.got - 2010.06.28 04:50:58.
