data_PCOD8122252
_publ_section_title
;
Structure prediction by ZEFSAII (Michael W. Deem and Ramdas Pophale) SiO2 
 PCOD8122252
Probable space group: P 2/C
;
_chemical_formula_sum "Si O2"
_cell_formula_units_Z 22
_cell_length_a 11.517249
_cell_length_b 5.223439
_cell_length_c 21.421035
_cell_angle_alpha 90.000000
_cell_angle_beta 144.895697
_cell_angle_gamma 90.000000
_cell_volume 741.078050
_symmetry_space_group_name_H-M "P 2/C"
_symmetry_group_IT_number 13
_symmetry_cell_setting 'monoclinic'
loop_
_space_group_symop_operation_xyz
x,y,z
-x,y,1/2-z
-x,-y,-z
x,-y,1/2+z
loop_
_atom_site_type_symbol
_atom_site_label
_atom_site_fract_x
_atom_site_fract_y
_atom_site_fract_z
Si Si1 0.650272 0.320388 0.151243
Si Si2 0.171537 0.283791 0.615575
Si Si3 0.453201 0.759842 0.129120
Si Si4 0.000000 0.351025 0.750000
Si Si5 0.713316 0.959779 0.555827
Si Si6 0.049975 0.200232 0.121951
O O1 0.471526 0.512757 0.091647
O O2 0.590286 0.177126 0.058758
O O3 0.739741 0.149486 0.247300
O O4 0.854397 0.485844 0.229139
O O5 0.369570 0.241518 0.744192
O O6 0.240116 0.256463 0.572805
O O7 0.077955 0.564280 0.585681
O O8 0.017547 0.058650 0.566779
O O9 0.440303 0.007937 0.073227
O O10 0.141544 0.183471 0.857998
O O11 0.861040 0.754682 0.586301
#
# Coordination Sequence:
#
# PCOD8122252 Si02
#       6
#     4   4   4   2   4   4
#     4  11  23  44  67 102 138 183 223 297 353 417
#     4  10  25  49  68  98 139 192 223 290 340 407
#     4  10  25  44  66 102 138 178 239 282 349 411
#     4  12  22  44  66 100 140 178 228 278 368 408
#     4  12  23  41  71 103 133 185 229 291 347 419
#     4  11  22  45  75  93 141 184 235 276 348 414
#
# _framework density 29.686481000000001
#
# number of rings (size 3 to 8) (size 9 to 14) (size 15 to 20)
#    0.000    1.091    3.636    2.727    0.000    8.000 
#    9.818    0.000    0.000    0.000    0.000    0.000 
#    0.000    0.000    0.000    0.000    0.000    0.000 
#
# Total GULP energy -272795.622081 kJ/mol
# GULP energy per Si atom -12399.801004 kJ/mol
# Density = 2.961891 g / cm^3
# Si number density = 29.686481 Si / 1000 Ang^3
#
#
#
# Elastic Constant Matrix: (Units=GPa)
#
#
# Indices 1 2 3 4 5 6 
#
# 1 206.9111 75.7342 29.2653 0.0000 -3.7017 0.0000
# 2 75.7342 151.9865 16.9167 0.0000 -9.7996 0.0000
# 3 29.2653 16.9167 123.2318 0.0000 -15.4481 0.0000
# 4 0.0000 0.0000 0.0000 50.3402 0.0000 6.1353
# 5 -3.7017 -9.7996 -15.4481 0.0000 52.3441 0.0000
# 6 0.0000 0.0000 0.0000 6.1353 0.0000 33.1982
#
#
#
# Elastic Compliance Matrix: (Units=1/GPa)
#
#
# Indices 1 2 3 4 5 6 
#
# 1 0.006049 -0.002921 -0.001091 0.000000 -0.000441 0.000000
# 2 -0.002921 0.008145 -0.000269 0.000000 0.001239 0.000000
# 3 -0.001091 -0.000269 0.008717 0.000000 0.002445 0.000000
# 4 0.000000 0.000000 0.000000 0.020323 0.000000 -0.003756
# 5 -0.000441 0.001239 0.002445 0.000000 0.020027 0.000000
# 6 0.000000 0.000000 0.000000 -0.003756 0.000000 0.030816
#
#
# Mechanical properties :
#
#
# Convention : Reuss Voigt Hill
#
# Bulk Modulus (GPa) = 69.69103 80.66244 75.17673
# Shear Modulus (GPa) = 46.54593 51.19072 48.86832
#
# Velocity S-wave (km/s) = 3.96399 4.15707 4.06168
# Velocity P-wave (km/s) = 6.66915 7.09028 6.88294
#
# Compressibility (1/GPa) = 0.01434905
#
# Stress axis : x y z
#
# Youngs Moduli (GPa) = 165.32962 122.77659 114.71471
#
# Poissons Ratio (x) = 0.35863 0.12512
# Poissons Ratio (y) = 0.48293 0.03087
# Poissons Ratio (z) = 0.18033 0.03304
#
# Static dielectric constant tensor:
#      x y z
#    x 6.392480 0.000000 -0.222920 
#    y 0.000000 5.555110 0.000000 
#    z -0.222920 0.000000 6.365320 
# 
# 
# High freq. dielectric constant tensor:
#      x y z
#    x 2.244110 0.000000 -0.003140 
#    y 0.000000 2.204510 0.000000 
#    z -0.003140 0.000000 2.281940 
# 
# From -- ./inp_files/85917.got.cif
#   From: 2010.06.25/outbox.cif.g09.slc.cpg/sg13_43_cif.got.tgz:85917.got - 2010.06.28 04:50:58.
