data_PCOD8122323
_publ_section_title
;
Structure prediction by ZEFSAII (Michael W. Deem and Ramdas Pophale) SiO2 
 PCOD8122323
Probable space group: P 2/C
;
_chemical_formula_sum "Si O2"
_cell_formula_units_Z 18
_cell_length_a 9.065674
_cell_length_b 19.158132
_cell_length_c 5.207051
_cell_angle_alpha 90.000000
_cell_angle_beta 55.109143
_cell_angle_gamma 90.000000
_cell_volume 741.801507
_symmetry_space_group_name_H-M "P 2/C"
_symmetry_group_IT_number 13
_symmetry_cell_setting 'monoclinic'
loop_
_space_group_symop_operation_xyz
x,y,z
-x,y,1/2-z
-x,-y,-z
x,-y,1/2+z
loop_
_atom_site_type_symbol
_atom_site_label
_atom_site_fract_x
_atom_site_fract_y
_atom_site_fract_z
Si Si1 0.000000 0.784353 0.750000
Si Si2 0.645467 0.159236 0.402297
Si Si3 0.500000 0.285227 0.250000
Si Si4 0.500000 0.952779 0.750000
Si Si5 0.707632 0.456780 0.529650
Si Si6 0.858153 0.658747 0.190126
O O1 0.844076 0.835910 0.815733
O O2 0.073996 0.735950 0.447990
O O3 0.575843 0.236403 0.400368
O O4 0.660345 0.104040 0.147883
O O5 0.500000 0.128163 0.750000
O O6 0.340135 0.336684 0.490271
O O7 0.500000 0.000000 0.500000
O O8 0.500000 0.434182 0.750000
O O9 0.753807 0.485884 0.202731
O O10 0.834174 0.389547 0.459945
O O11 0.000000 0.625743 0.250000
#
# Coordination Sequence:
#
# PCOD8122323 Si02
#       6
#     2   4   2   2   4   4
#     4  12  26  44  68 118 144 190 242 300 376 430
#     4  11  23  44  75 106 155 189 235 301 353 422
#     4  11  24  42  66 106 144 193 234 304 370 423
#     4  11  24  48  80 110 144 203 248 280 348 427
#     4  10  26  47  70  99 137 192 248 307 374 443
#     4  12  27  42  72 104 145 186 249 304 370 455
#
# _framework density 24.265253000000001
#
# number of rings (size 3 to 8) (size 9 to 14) (size 15 to 20)
#    0.000    0.889    5.556    0.000   10.889    0.889 
#    0.000    1.111    0.000    0.000    0.000    0.000 
#    0.000    0.000    0.000    0.000    0.000    0.000 
#
# Total GULP energy -223109.615083 kJ/mol
# GULP energy per Si atom -12394.978616 kJ/mol
# Density = 2.421002 g / cm^3
# Si number density = 24.265253 Si / 1000 Ang^3
#
#
#
# Elastic Constant Matrix: (Units=GPa)
#
#
# Indices 1 2 3 4 5 6 
#
# 1 214.2553 74.6951 46.3616 0.0000 -2.8179 0.0000
# 2 74.6951 104.4698 8.7194 0.0000 2.6877 0.0000
# 3 46.3616 8.7194 70.0855 0.0000 -6.4935 0.0000
# 4 0.0000 0.0000 0.0000 24.9274 0.0000 23.8514
# 5 -2.8179 2.6877 -6.4935 0.0000 43.5161 0.0000
# 6 0.0000 0.0000 0.0000 23.8514 0.0000 42.3416
#
#
#
# Elastic Compliance Matrix: (Units=1/GPa)
#
#
# Indices 1 2 3 4 5 6 
#
# 1 0.007267 -0.004850 -0.004190 0.000000 0.000145 0.000000
# 2 -0.004850 0.012936 0.001516 0.000000 -0.000887 0.000000
# 3 -0.004190 0.001516 0.017053 0.000000 0.002180 0.000000
# 4 0.000000 0.000000 0.000000 0.087020 0.000000 -0.049019
# 5 0.000145 -0.000887 0.002180 0.000000 0.023369 0.000000
# 6 0.000000 0.000000 0.000000 -0.049019 0.000000 0.051231
#
#
# Mechanical properties :
#
#
# Convention : Reuss Voigt Hill
#
# Bulk Modulus (GPa) = 45.02609 72.04031 58.53320
# Shear Modulus (GPa) = 22.59121 39.42598 31.00859
#
# Velocity S-wave (km/s) = 3.05456 4.03524 3.57865
# Velocity P-wave (km/s) = 5.57104 7.17384 6.42264
#
# Compressibility (1/GPa) = 0.02220934
#
# Stress axis : x y z
#
# Youngs Moduli (GPa) = 137.61609 77.30491 58.63963
#
# Poissons Ratio (x) = 0.37490 0.24571
# Poissons Ratio (y) = 0.66738 -0.08893
# Poissons Ratio (z) = 0.57662 -0.11723
#
# Static dielectric constant tensor:
#      x y z
#    x 4.755650 0.000000 0.109580 
#    y 0.000000 4.432310 0.000000 
#    z 0.109580 0.000000 4.521510 
# 
# 
# High freq. dielectric constant tensor:
#      x y z
#    x 1.987000 0.000000 0.016590 
#    y 0.000000 1.956400 0.000000 
#    z 0.016590 0.000000 1.945510 
# 
# From -- ./inp_files/1522.got.cif
#   From: 2010.06.25/outbox.cif.g09.slc.cpg/sg13_1_cif.got.tgz:1522.got - 2010.06.28 04:50:58.
