data_PCOD8122406
_publ_section_title
;
Structure prediction by ZEFSAII (Michael W. Deem and Ramdas Pophale) SiO2 
 PCOD8122406
Probable space group: P 2/C
;
_chemical_formula_sum "Si O2"
_cell_formula_units_Z 28
_cell_length_a 14.982810
_cell_length_b 15.586902
_cell_length_c 13.817165
_cell_angle_alpha 90.000000
_cell_angle_beta 28.058048
_cell_angle_gamma 90.000000
_cell_volume 1517.776465
_symmetry_space_group_name_H-M "P 2/C"
_symmetry_group_IT_number 13
_symmetry_cell_setting 'monoclinic'
loop_
_space_group_symop_operation_xyz
x,y,z
-x,y,1/2-z
-x,-y,-z
x,-y,1/2+z
loop_
_atom_site_type_symbol
_atom_site_label
_atom_site_fract_x
_atom_site_fract_y
_atom_site_fract_z
Si Si1 0.571408 0.506114 0.785610
Si Si2 0.960429 0.013252 0.394682
Si Si3 0.700397 0.046067 0.298966
Si Si4 0.917662 0.379137 0.433893
Si Si5 0.375791 0.789420 0.516519
Si Si6 0.295040 0.396435 0.170272
Si Si7 0.781970 0.805231 0.039378
O O1 0.500000 0.539382 0.750000
O O2 0.723389 0.430150 0.631610
O O3 0.659805 0.586519 0.759741
O O4 0.389798 0.470435 0.015575
O O5 0.910681 0.113769 0.440999
O O6 0.000000 0.976912 0.250000
O O7 0.152519 0.997664 0.270953
O O8 0.784479 0.960761 0.609747
O O9 0.685039 0.145694 0.341068
O O10 0.500000 0.000000 0.500000
O O11 0.880869 0.278922 0.486653
O O12 0.000000 0.399387 0.250000
O O13 0.069564 0.404896 0.370299
O O14 0.377128 0.694931 0.559474
O O15 0.580334 0.817459 0.282645
O O16 0.232352 0.794439 0.563101
#
# Coordination Sequence:
#
# PCOD8122406 Si02
#       7
#     4   4   4   4   4   4   4
#     4  11  22  39  57  84 120 157 199 238 288 355
#     4  11  22  38  59  89 119 154 190 236 300 356
#     4  11  23  37  59  88 120 153 192 240 292 354
#     4  12  20  34  59  93 119 147 189 248 303 346
#     4  11  20  37  60  89 118 153 192 244 301 349
#     4  11  23  37  61  85 118 157 193 246 295 343
#     4  11  20  34  63  90 121 146 187 249 311 347
#
# _framework density 18.448039000000001
#
# number of rings (size 3 to 8) (size 9 to 14) (size 15 to 20)
#    0.000    0.857    7.143    1.714    0.000    0.571 
#    0.000    0.000    3.143    0.857    0.000    0.000 
#    0.000    0.000    0.000    0.000    0.000    0.000 
#
# Total GULP energy -347277.764439 kJ/mol
# GULP energy per Si atom -12402.777301 kJ/mol
# Density = 1.840605 g / cm^3
# Si number density = 18.448039 Si / 1000 Ang^3
#
#
#
# Elastic Constant Matrix: (Units=GPa)
#
#
# Indices 1 2 3 4 5 6 
#
# 1 130.3512 45.8310 49.4854 0.0000 2.8218 0.0000
# 2 45.8310 72.3285 21.5060 0.0000 6.1068 0.0000
# 3 49.4854 21.5060 87.1810 0.0000 -0.1479 0.0000
# 4 0.0000 0.0000 0.0000 29.8036 0.0000 -0.1390
# 5 2.8218 6.1068 -0.1479 0.0000 36.5686 0.0000
# 6 0.0000 0.0000 0.0000 -0.1390 0.0000 29.7044
#
#
#
# Elastic Compliance Matrix: (Units=1/GPa)
#
#
# Indices 1 2 3 4 5 6 
#
# 1 0.011711 -0.005880 -0.005196 0.000000 0.000057 0.000000
# 2 -0.005880 0.018106 -0.001133 0.000000 -0.002574 0.000000
# 3 -0.005196 -0.001133 0.014701 0.000000 0.000650 0.000000
# 4 0.000000 0.000000 0.000000 0.033554 0.000000 0.000157
# 5 0.000057 -0.002574 0.000650 0.000000 0.027774 0.000000
# 6 0.000000 0.000000 0.000000 0.000157 0.000000 0.033666
#
#
# Mechanical properties :
#
#
# Convention : Reuss Voigt Hill
#
# Bulk Modulus (GPa) = 49.75692 58.16729 53.96211
# Shear Modulus (GPa) = 29.30327 30.75119 30.02723
#
# Velocity S-wave (km/s) = 3.98982 4.08721 4.03881
# Velocity P-wave (km/s) = 6.94657 7.33979 7.14589
#
# Compressibility (1/GPa) = 0.02009771
#
# Stress axis : x y z
#
# Youngs Moduli (GPa) = 85.39331 55.23022 68.02425
#
# Poissons Ratio (x) = 0.32476 0.35349
# Poissons Ratio (y) = 0.50212 0.07708
# Poissons Ratio (z) = 0.44374 0.06258
#
# Static dielectric constant tensor:
#      x y z
#    x 3.503250 0.000000 -0.024200 
#    y 0.000000 3.264730 0.000000 
#    z -0.024200 0.000000 3.695670 
# 
# 
# High freq. dielectric constant tensor:
#      x y z
#    x 1.706860 0.000000 -0.012200 
#    y 0.000000 1.694180 0.000000 
#    z -0.012200 0.000000 1.739030 
# 
# From -- ./inp_files/53822.got.cif
#   From: 2010.06.25/outbox.cif.g09.slc.cpg/sg13_27_cif.got.tgz:53822.got - 2010.06.28 04:50:58.
