data_PCOD8122561
_publ_section_title
;
Structure prediction by ZEFSAII (Michael W. Deem and Ramdas Pophale) SiO2 
 PCOD8122561
Probable space group: P 2/C
;
_chemical_formula_sum "Si O2"
_cell_formula_units_Z 28
_cell_length_a 20.543033
_cell_length_b 8.321918
_cell_length_c 14.142256
_cell_angle_alpha 90.000000
_cell_angle_beta 147.773630
_cell_angle_gamma 90.000000
_cell_volume 1289.289127
_symmetry_space_group_name_H-M "P 2/C"
_symmetry_group_IT_number 13
_symmetry_cell_setting 'monoclinic'
loop_
_space_group_symop_operation_xyz
x,y,z
-x,y,1/2-z
-x,-y,-z
x,-y,1/2+z
loop_
_atom_site_type_symbol
_atom_site_label
_atom_site_fract_x
_atom_site_fract_y
_atom_site_fract_z
Si Si1 0.827508 0.910266 0.778532
Si Si2 0.358295 0.475708 0.068746
Si Si3 0.543000 0.182856 0.549575
Si Si4 0.040992 0.884831 0.899988
Si Si5 0.312380 0.616113 0.819187
Si Si6 0.379471 0.133238 0.056382
Si Si7 0.754424 0.651879 0.403876
O O1 0.778346 0.759538 0.772999
O O2 0.923087 0.846513 0.818676
O O3 0.725218 0.003589 0.591374
O O4 0.875787 0.014343 0.925843
O O5 0.500000 0.525408 0.250000
O O6 0.337182 0.285505 0.069642
O O7 0.271972 0.597832 0.021212
O O8 0.316062 0.495516 0.910171
O O9 0.444491 0.312801 0.458935
O O10 0.580323 0.222800 0.489458
O O11 0.659386 0.207163 0.760113
O O12 0.500000 0.000000 0.500000
O O13 0.000000 0.972456 0.750000
O O14 0.110697 0.723573 0.949698
O O15 0.261839 0.513950 0.671041
O O16 0.500000 0.047382 0.250000
#
# Coordination Sequence:
#
# PCOD8122561 Si02
#       7
#     4   4   4   4   4   4   4
#     4  11  25  45  70 100 135 187 232 286 347 403
#     4  11  22  37  65  99 139 182 220 277 353 417
#     4  12  22  40  66  99 143 177 216 278 349 410
#     4  11  25  48  69  91 137 186 239 290 330 410
#     4  12  22  40  68 100 138 178 222 288 345 411
#     4  11  23  42  66 104 143 180 225 284 354 426
#     4  12  24  43  66  96 139 176 232 285 342 405
#
# _framework density 21.717393999999999
#
# number of rings (size 3 to 8) (size 9 to 14) (size 15 to 20)
#    0.000    0.571    5.714    3.000    0.000    5.714 
#    0.000    3.571    0.000    0.000    0.000    0.000 
#    0.000    0.000    0.000    0.000    0.000    0.000 
#
# Total GULP energy -347005.431874 kJ/mol
# GULP energy per Si atom -12393.051138 kJ/mol
# Density = 2.166796 g / cm^3
# Si number density = 21.717394 Si / 1000 Ang^3
#
#
#
# Elastic Constant Matrix: (Units=GPa)
#
#
# Indices 1 2 3 4 5 6 
#
# 1 93.8183 40.0452 22.4272 0.0000 21.1453 0.0000
# 2 40.0452 104.0237 39.8970 0.0000 16.3715 0.0000
# 3 22.4272 39.8970 100.8197 0.0000 13.3824 0.0000
# 4 0.0000 0.0000 0.0000 -11.0987 0.0000 -1.4914
# 5 21.1453 16.3715 13.3824 0.0000 32.4251 0.0000
# 6 0.0000 0.0000 0.0000 -1.4914 0.0000 23.2415
#
#
#
# Elastic Compliance Matrix: (Units=1/GPa)
#
#
# Indices 1 2 3 4 5 6 
#
# 1 0.014110 -0.004122 -0.000595 0.000000 -0.006875 0.000000
# 2 -0.004122 0.013076 -0.003955 0.000000 -0.002282 0.000000
# 3 -0.000595 -0.003955 0.011954 0.000000 -0.002549 0.000000
# 4 0.000000 0.000000 0.000000 -0.089331 0.000000 -0.005732
# 5 -0.006875 -0.002282 -0.002549 0.000000 0.037528 0.000000
# 6 0.000000 0.000000 0.000000 -0.005732 0.000000 0.042659
#
#
# Mechanical properties :
#
#
# Convention : Reuss Voigt Hill
#
# Bulk Modulus (GPa) = 45.87740 55.93341 50.90540
# Shear Modulus (GPa) = 91.56766 21.99973 56.78370
#
# Velocity S-wave (km/s) = 6.50037 3.18622 5.11893
# Velocity P-wave (km/s) = 8.80400 6.27272 7.64387
#
# Compressibility (1/GPa) = 0.02179723
#
# Stress axis : x y z
#
# Youngs Moduli (GPa) = 70.87226 76.47743 83.65114
#
# Poissons Ratio (x) = 0.31520 0.04979
# Poissons Ratio (y) = 0.29210 0.33081
# Poissons Ratio (z) = 0.04218 0.30244
#
# Static dielectric constant tensor:
#      x y z
#    x 4.233120 0.000000 -0.057190 
#    y 0.000000 3.760920 0.000000 
#    z -0.057190 0.000000 3.962960 
# 
# 
# High freq. dielectric constant tensor:
#      x y z
#    x 1.865290 0.000000 -0.010360 
#    y 0.000000 1.852340 0.000000 
#    z -0.010360 0.000000 1.851700 
# 
# From -- ./inp_files/49958.got.cif
#   From: 2010.06.25/outbox.cif.g09.slc.cpg/sg13_25_cif.got.tgz:49958.got - 2010.06.28 04:50:58.
