data_PCOD8122071
_publ_section_title
;
Structure prediction by ZEFSAII (Michael W. Deem and Ramdas Pophale) SiO2 
 PCOD8122071
Probable space group: P 2/C
;
_chemical_formula_sum "Si O2"
_cell_formula_units_Z 28
_cell_length_a 15.514616
_cell_length_b 11.594306
_cell_length_c 8.986522
_cell_angle_alpha 90.000000
_cell_angle_beta 48.941074
_cell_angle_gamma 90.000000
_cell_volume 1218.901530
_symmetry_space_group_name_H-M "P 2/C"
_symmetry_group_IT_number 13
_symmetry_cell_setting 'monoclinic'
loop_
_space_group_symop_operation_xyz
x,y,z
-x,y,1/2-z
-x,-y,-z
x,-y,1/2+z
loop_
_atom_site_type_symbol
_atom_site_label
_atom_site_fract_x
_atom_site_fract_y
_atom_site_fract_z
Si Si1 0.745454 0.176246 0.351809
Si Si2 0.148116 0.438409 0.968989
Si Si3 0.500000 0.504969 0.750000
Si Si4 0.000000 0.005281 0.750000
Si Si5 0.322252 0.249671 0.751397
Si Si6 0.431155 0.662451 0.575531
Si Si7 0.160839 0.069963 0.817827
Si Si8 0.083649 0.363761 0.355521
O O1 0.684532 0.186751 0.580829
O O2 0.669610 0.244097 0.316341
O O3 0.763997 0.045992 0.281103
O O4 0.871999 0.233306 0.210379
O O5 0.270983 0.378833 0.808950
O O6 0.147376 0.571701 0.919357
O O7 0.117486 0.440102 0.175601
O O8 0.054043 0.364971 0.978824
O O9 0.419617 0.586042 0.738415
O O10 0.577520 0.422362 0.558149
O O11 0.088057 0.927189 0.554454
O O12 0.926016 0.084999 0.722299
O O13 0.452085 0.263814 0.554371
O O14 0.251964 0.172893 0.713188
#
# Coordination Sequence:
#
# PCOD8122071 Si02
#       8
#     4   4   2   2   4   4   4   4
#     4  11  23  41  66  93 129 178 214 278 330 395
#     4   9  20  36  55  85 121 159 201 256 326 387
#     4  10  24  42  68 100 132 174 224 280 306 396
#     4  10  24  42  68  96 126 170 230 288 314 398
#     4  11  23  41  66  93 129 178 214 278 330 395
#     4  11  24  43  68  99 136 174 224 266 337 390
#     4  11  24  43  66  96 132 173 229 272 342 392
#     4   9  20  36  55  85 121 159 201 256 326 387
#
# _framework density 22.971502999999998
#
# number of rings (size 3 to 8) (size 9 to 14) (size 15 to 20)
#    0.000    1.714    2.857    0.000    8.000    1.714 
#    2.571    0.000    0.000    0.000    0.000    0.000 
#    0.000    0.000    0.000    0.000    0.000    0.000 
#
# Total GULP energy -347205.782053 kJ/mol
# GULP energy per Si atom -12400.206502 kJ/mol
# Density = 2.291922 g / cm^3
# Si number density = 22.971503 Si / 1000 Ang^3
#
#
#
# Elastic Constant Matrix: (Units=GPa)
#
#
# Indices 1 2 3 4 5 6 
#
# 1 92.4547 27.0183 29.6810 0.0000 3.3449 0.0000
# 2 27.0183 69.4072 23.5187 0.0000 -0.6725 0.0000
# 3 29.6810 23.5187 59.9827 0.0000 4.4136 0.0000
# 4 0.0000 0.0000 0.0000 18.6861 0.0000 -0.4198
# 5 3.3449 -0.6725 4.4136 0.0000 34.7139 0.0000
# 6 0.0000 0.0000 0.0000 -0.4198 0.0000 40.3859
#
#
#
# Elastic Compliance Matrix: (Units=1/GPa)
#
#
# Indices 1 2 3 4 5 6 
#
# 1 0.013560 -0.003493 -0.005289 0.000000 -0.000702 0.000000
# 2 -0.003493 0.017562 -0.005256 0.000000 0.001345 0.000000
# 3 -0.005289 -0.005256 0.021521 0.000000 -0.002328 0.000000
# 4 0.000000 0.000000 0.000000 0.053528 0.000000 0.000556
# 5 -0.000702 0.001345 -0.002328 0.000000 0.029197 0.000000
# 6 0.000000 0.000000 0.000000 0.000556 0.000000 0.024767
#
#
# Mechanical properties :
#
#
# Convention : Reuss Voigt Hill
#
# Bulk Modulus (GPa) = 40.70615 42.47563 41.59089
# Shear Modulus (GPa) = 25.45834 28.19894 26.82864
#
# Velocity S-wave (km/s) = 3.33266 3.50746 3.42118
# Velocity P-wave (km/s) = 5.70680 5.91048 5.80953
#
# Compressibility (1/GPa) = 0.02456631
#
# Stress axis : x y z
#
# Youngs Moduli (GPa) = 73.74526 56.94219 46.46708
#
# Poissons Ratio (x) = 0.19892 0.24574
# Poissons Ratio (y) = 0.25762 0.24424
# Poissons Ratio (z) = 0.39001 0.29930
#
# Static dielectric constant tensor:
#      x y z
#    x 4.345170 0.000000 0.105880 
#    y 0.000000 3.832340 0.000000 
#    z 0.105880 0.000000 3.961610 
# 
# 
# High freq. dielectric constant tensor:
#      x y z
#    x 1.919960 0.000000 0.002220 
#    y 0.000000 1.889290 0.000000 
#    z 0.002220 0.000000 1.888060 
# 
# From -- ./inp_files/18971.got.cif
#   From: 2010.06.25/outbox.cif.g09.slc.cpg/sg13_10_cif.got.tgz:18971.got - 2010.06.28 04:50:58.
