data_PCOD8122795
_publ_section_title
;
Structure prediction by ZEFSAII (Michael W. Deem and Ramdas Pophale) SiO2 
 PCOD8122795
Probable space group: P 2/C
;
_chemical_formula_sum "Si O2"
_cell_formula_units_Z 28
_cell_length_a 9.245620
_cell_length_b 8.106691
_cell_length_c 28.124005
_cell_angle_alpha 90.000000
_cell_angle_beta 141.142461
_cell_angle_gamma 90.000000
_cell_volume 1322.488021
_symmetry_space_group_name_H-M "P 2/C"
_symmetry_group_IT_number 13
_symmetry_cell_setting 'monoclinic'
loop_
_space_group_symop_operation_xyz
x,y,z
-x,y,1/2-z
-x,-y,-z
x,-y,1/2+z
loop_
_atom_site_type_symbol
_atom_site_label
_atom_site_fract_x
_atom_site_fract_y
_atom_site_fract_z
Si Si1 0.000000 0.378363 0.250000
Si Si2 0.793047 0.025134 0.484313
Si Si3 0.620432 0.687939 0.485121
Si Si4 0.128746 0.234587 0.623872
Si Si5 0.500000 0.979782 0.750000
Si Si6 0.262095 0.469495 0.579393
Si Si7 0.150712 0.451606 0.883696
Si Si8 0.458035 0.213577 0.334073
O O1 0.924375 0.495463 0.187757
O O2 0.792024 0.260470 0.211323
O O3 0.565685 0.085318 0.399136
O O4 0.882501 0.166168 0.542673
O O5 0.724486 0.864735 0.497449
O O6 0.000000 0.000000 0.500000
O O7 0.608686 0.571127 0.436111
O O8 0.779507 0.611407 0.567236
O O9 0.355744 0.685410 0.435043
O O10 0.279360 0.318309 0.620630
O O11 0.073217 0.368723 0.649917
O O12 0.276039 0.087237 0.682494
O O13 0.569056 0.867418 0.723799
O O14 0.375523 0.630615 0.630827
O O15 0.000000 0.500000 0.500000
#
# Coordination Sequence:
#
# PCOD8122795 Si02
#       8
#     2   4   4   4   2   4   4   4
#     4  12  30  46  70  98 152 192 234 290 352 430
#     4  12  23  45  75 109 141 180 236 309 360 416
#     4  11  23  45  75 102 139 179 242 292 350 430
#     4  12  27  44  73 108 141 184 238 299 360 424
#     4  12  30  44  66 112 144 182 234 294 378 422
#     4  12  21  43  78 105 133 182 244 301 342 419
#     4  11  27  47  68 103 138 193 242 280 352 436
#     4  12  27  47  70 106 146 191 236 293 369 428
#
# _framework density 21.172214
#
# number of rings (size 3 to 8) (size 9 to 14) (size 15 to 20)
#    0.000    0.286    7.143    0.000    8.000    2.857 
#    0.000    0.000    0.000    0.000    0.000    0.000 
#    0.000    0.000    0.000    0.000    0.000    0.000 
#
# Total GULP energy -347323.373467 kJ/mol
# GULP energy per Si atom -12404.406195 kJ/mol
# Density = 2.112403 g / cm^3
# Si number density = 21.172214 Si / 1000 Ang^3
#
#
#
# Elastic Constant Matrix: (Units=GPa)
#
#
# Indices 1 2 3 4 5 6 
#
# 1 108.8719 45.4557 66.0888 0.0000 -3.8952 0.0000
# 2 45.4557 109.5937 53.5129 0.0000 -9.4736 0.0000
# 3 66.0888 53.5129 113.5539 0.0000 -14.5652 0.0000
# 4 0.0000 0.0000 0.0000 18.9430 0.0000 1.9847
# 5 -3.8952 -9.4736 -14.5652 0.0000 45.4798 0.0000
# 6 0.0000 0.0000 0.0000 1.9847 0.0000 46.1433
#
#
#
# Elastic Compliance Matrix: (Units=1/GPa)
#
#
# Indices 1 2 3 4 5 6 
#
# 1 0.014837 -0.002569 -0.007644 0.000000 -0.001713 0.000000
# 2 -0.002569 0.012319 -0.004181 0.000000 0.001007 0.000000
# 3 -0.007644 -0.004181 0.015673 0.000000 0.003494 0.000000
# 4 0.000000 0.000000 0.000000 0.053029 0.000000 -0.002281
# 5 -0.001713 0.001007 0.003494 0.000000 0.023170 0.000000
# 6 0.000000 0.000000 0.000000 -0.002281 0.000000 0.021770
#
#
# Mechanical properties :
#
#
# Convention : Reuss Voigt Hill
#
# Bulk Modulus (GPa) = 71.21981 73.57049 72.39515
# Shear Modulus (GPa) = 28.69183 33.24401 30.96792
#
# Velocity S-wave (km/s) = 3.68525 3.96684 3.82863
# Velocity P-wave (km/s) = 7.19857 7.47028 7.33569
#
# Compressibility (1/GPa) = 0.01404104
#
# Stress axis : x y z
#
# Youngs Moduli (GPa) = 67.40070 81.17714 63.80215
#
# Poissons Ratio (x) = 0.20858 0.48769
# Poissons Ratio (y) = 0.17318 0.26674
# Poissons Ratio (z) = 0.51520 0.33938
#
# Static dielectric constant tensor:
#      x y z
#    x 4.586270 0.000000 -0.125900 
#    y 0.000000 3.807640 0.000000 
#    z -0.125900 0.000000 4.092440 
# 
# 
# High freq. dielectric constant tensor:
#      x y z
#    x 1.841700 0.000000 -0.006040 
#    y 0.000000 1.833590 0.000000 
#    z -0.006040 0.000000 1.836290 
# 
# From -- ./inp_files/91348.got.cif
#   From: 2010.06.25/outbox.cif.g09.slc.cpg/sg13_46_cif.got.tgz:91348.got - 2010.06.28 04:50:58.
