data_PCOD8122186
_publ_section_title
;
Structure prediction by ZEFSAII (Michael W. Deem and Ramdas Pophale) SiO2 
 PCOD8122186
Probable space group: P 2/C
;
_chemical_formula_sum "Si O2"
_cell_formula_units_Z 32
_cell_length_a 15.452720
_cell_length_b 11.710488
_cell_length_c 19.365677
_cell_angle_alpha 90.000000
_cell_angle_beta 153.216522
_cell_angle_gamma 90.000000
_cell_volume 1579.149343
_symmetry_space_group_name_H-M "P 2/C"
_symmetry_group_IT_number 13
_symmetry_cell_setting 'monoclinic'
loop_
_space_group_symop_operation_xyz
x,y,z
-x,y,1/2-z
-x,-y,-z
x,-y,1/2+z
loop_
_atom_site_type_symbol
_atom_site_label
_atom_site_fract_x
_atom_site_fract_y
_atom_site_fract_z
Si Si1 0.410708 0.274289 0.613918
Si Si2 0.979263 0.716580 0.598114
Si Si3 0.353972 0.861187 0.843184
Si Si4 0.372807 0.123326 0.833857
Si Si5 0.809561 0.507271 0.230905
Si Si6 0.541941 0.515149 0.922662
Si Si7 0.042993 0.710890 0.074901
Si Si8 0.592831 0.276298 0.248110
O O1 0.500000 0.307893 0.750000
O O2 0.188261 0.241831 0.469525
O O3 0.514050 0.164602 0.653912
O O4 0.441009 0.382793 0.585669
O O5 0.897452 0.691149 0.462649
O O6 0.144949 0.812090 0.713791
O O7 0.050515 0.598703 0.681680
O O8 0.460394 0.795137 0.857440
O O9 0.327674 0.990104 0.798960
O O10 0.494228 0.845834 0.007109
O O11 0.166709 0.184673 0.693262
O O12 0.634971 0.461829 0.152512
O O13 0.921806 0.602548 0.352494
O O14 0.734121 0.549927 0.102245
O O15 0.501254 0.597257 0.828368
O O16 0.818930 0.732906 0.919707
O O17 0.500000 0.221157 0.250000
#
# Coordination Sequence:
#
# PCOD8122186 Si02
#       8
#     4   4   4   4   4   4   4   4
#     4  12  24  39  65 103 130 160 213 272 315 369
#     4  11  23  40  64  97 129 168 211 265 317 382
#     4  10  24  46  67  88 125 170 216 255 329 380
#     4  11  23  44  69  91 123 168 212 270 314 383
#     4  11  21  37  61  91 122 174 206 246 317 387
#     4  11  22  37  62  86 133 165 204 256 314 380
#     4  11  22  39  65  90 124 168 212 253 320 378
#     4  11  25  42  62  91 126 168 209 265 308 380
#
# _framework density 20.264074999999998
#
# number of rings (size 3 to 8) (size 9 to 14) (size 15 to 20)
#    0.000    1.000    5.000    2.250    3.500    4.500 
#    2.250    1.875    0.000    0.000    0.000    0.000 
#    0.000    0.000    0.000    0.000    0.000    0.000 
#
# Total GULP energy -396812.271493 kJ/mol
# GULP energy per Si atom -12400.383484 kJ/mol
# Density = 2.021795 g / cm^3
# Si number density = 20.264075 Si / 1000 Ang^3
#
#
#
# Elastic Constant Matrix: (Units=GPa)
#
#
# Indices 1 2 3 4 5 6 
#
# 1 78.8097 34.1379 32.7131 0.0000 8.5083 0.0000
# 2 34.1379 106.1861 47.1302 0.0000 6.0480 0.0000
# 3 32.7131 47.1302 102.6766 0.0000 -2.9302 0.0000
# 4 0.0000 0.0000 0.0000 21.3186 0.0000 -8.2703
# 5 8.5083 6.0480 -2.9302 0.0000 23.8089 0.0000
# 6 0.0000 0.0000 0.0000 -8.2703 0.0000 20.8904
#
#
#
# Elastic Compliance Matrix: (Units=1/GPa)
#
#
# Indices 1 2 3 4 5 6 
#
# 1 0.016274 -0.003201 -0.003872 0.000000 -0.005479 0.000000
# 2 -0.003201 0.012788 -0.004927 0.000000 -0.002711 0.000000
# 3 -0.003872 -0.004927 0.013357 0.000000 0.004279 0.000000
# 4 0.000000 0.000000 0.000000 0.055418 0.000000 0.021940
# 5 -0.005479 -0.002711 0.004279 0.000000 0.045174 0.000000
# 6 0.000000 0.000000 0.000000 0.021940 0.000000 0.056554
#
#
# Mechanical properties :
#
#
# Convention : Reuss Voigt Hill
#
# Bulk Modulus (GPa) = 54.29533 57.29276 55.79405
# Shear Modulus (GPa) = 21.76689 24.78300 23.27495
#
# Velocity S-wave (km/s) = 3.28100 3.50094 3.39275
# Velocity P-wave (km/s) = 6.41914 6.68405 6.55293
#
# Compressibility (1/GPa) = 0.01841779
#
# Stress axis : x y z
#
# Youngs Moduli (GPa) = 61.44679 78.19823 74.86868
#
# Poissons Ratio (x) = 0.25035 0.28988
# Poissons Ratio (y) = 0.19672 0.36890
# Poissons Ratio (z) = 0.23791 0.38530
#
# Static dielectric constant tensor:
#      x y z
#    x 3.734130 0.000000 -0.087540 
#    y 0.000000 3.581730 0.000000 
#    z -0.087540 0.000000 3.979350 
# 
# 
# High freq. dielectric constant tensor:
#      x y z
#    x 1.786200 0.000000 -0.006800 
#    y 0.000000 1.777060 0.000000 
#    z -0.006800 0.000000 1.813270 
# 
# From -- ./inp_files/68691.got.cif
#   From: 2010.06.25/outbox.cif.g09.slc.cpg/sg13_35_cif.got.tgz:68691.got - 2010.06.28 04:50:58.
