data_PCOD8122793
_publ_section_title
;
Structure prediction by ZEFSAII (Michael W. Deem and Ramdas Pophale) SiO2 
 PCOD8122793
Probable space group: P 2/C
;
_chemical_formula_sum "Si O2"
_cell_formula_units_Z 20
_cell_length_a 19.989723
_cell_length_b 5.537314
_cell_length_c 9.237332
_cell_angle_alpha 90.000000
_cell_angle_beta 126.527762
_cell_angle_gamma 90.000000
_cell_volume 821.628343
_symmetry_space_group_name_H-M "P 2/C"
_symmetry_group_IT_number 13
_symmetry_cell_setting 'monoclinic'
loop_
_space_group_symop_operation_xyz
x,y,z
-x,y,1/2-z
-x,-y,-z
x,-y,1/2+z
loop_
_atom_site_type_symbol
_atom_site_label
_atom_site_fract_x
_atom_site_fract_y
_atom_site_fract_z
Si Si1 0.288377 0.401334 0.624677
Si Si2 0.430157 0.698837 0.891126
Si Si3 0.379840 0.016491 0.587332
Si Si4 0.782591 0.737627 0.191138
Si Si5 0.027712 0.753800 0.117108
O O1 0.336300 0.595350 0.787831
O O2 0.365705 0.227679 0.685110
O O3 0.245417 0.494754 0.425306
O O4 0.215748 0.294387 0.632827
O O5 0.433092 0.806205 0.732389
O O6 0.500000 0.500000 0.000000
O O7 0.436648 0.903885 0.024136
O O8 0.285024 0.944605 0.425933
O O9 0.873664 0.794525 0.252289
O O10 0.000000 0.745808 0.250000
O O11 0.000000 0.500000 0.000000
O O12 0.000000 0.000000 0.000000
#
# Coordination Sequence:
#
# PCOD8122793 Si02
#       5
#     4   4   4   4   4
#     4  11  23  45  73 107 140 197 249 307 377 448
#     4  11  26  49  73 108 147 186 253 318 380 459
#     4  11  24  47  74 105 141 202 244 303 393 447
#     4  11  25  44  79 103 152 196 261 310 373 484
#     4  12  29  49  78 123 167 214 266 332 413 472
#
# _framework density 24.341908
#
# number of rings (size 3 to 8) (size 9 to 14) (size 15 to 20)
#    0.000    0.800    4.000    1.800    5.600    1.600 
#    3.600    1.000    0.000    0.000    0.000    0.000 
#    0.000    0.000    0.000    0.000    0.000    0.000 
#
# Total GULP energy -247814.013142 kJ/mol
# GULP energy per Si atom -12390.700657 kJ/mol
# Density = 2.428651 g / cm^3
# Si number density = 24.341908 Si / 1000 Ang^3
#
#
#
# Elastic Constant Matrix: (Units=GPa)
#
#
# Indices 1 2 3 4 5 6 
#
# 1 167.3877 46.3502 73.8809 0.0000 -6.6059 0.0000
# 2 46.3502 131.1148 68.0279 0.0000 4.2283 0.0000
# 3 73.8809 68.0279 121.1643 0.0000 -12.9373 0.0000
# 4 0.0000 0.0000 0.0000 42.7301 0.0000 -5.8872
# 5 -6.6059 4.2283 -12.9373 0.0000 43.0677 0.0000
# 6 0.0000 0.0000 0.0000 -5.8872 0.0000 37.0287
#
#
#
# Elastic Compliance Matrix: (Units=1/GPa)
#
#
# Indices 1 2 3 4 5 6 
#
# 1 0.008192 -0.000412 -0.004778 0.000000 -0.000138 0.000000
# 2 -0.000412 0.011163 -0.006343 0.000000 -0.003065 0.000000
# 3 -0.004778 -0.006343 0.015204 0.000000 0.004457 0.000000
# 4 0.000000 0.000000 0.000000 0.023927 0.000000 0.003804
# 5 -0.000138 -0.003065 0.004457 0.000000 0.024838 0.000000
# 6 0.000000 0.000000 0.000000 0.003804 0.000000 0.027611
#
#
# Mechanical properties :
#
#
# Convention : Reuss Voigt Hill
#
# Bulk Modulus (GPa) = 87.02336 88.46498 87.74417
# Shear Modulus (GPa) = 36.27606 39.99249 38.13428
#
# Velocity S-wave (km/s) = 3.86459 4.05773 3.96234
# Velocity P-wave (km/s) = 7.46602 7.64036 7.55369
#
# Compressibility (1/GPa) = 0.01149117
#
# Stress axis : x y z
#
# Youngs Moduli (GPa) = 122.07153 89.58560 65.77136
#
# Poissons Ratio (x) = 0.03693 0.31428
# Poissons Ratio (y) = 0.05032 0.41719
# Poissons Ratio (z) = 0.58331 0.56825
#
# Static dielectric constant tensor:
#      x y z
#    x 4.358630 0.000000 -0.127370 
#    y 0.000000 4.723000 0.000000 
#    z -0.127370 0.000000 4.563700 
# 
# 
# High freq. dielectric constant tensor:
#      x y z
#    x 1.975960 0.000000 -0.011210 
#    y 0.000000 1.976380 0.000000 
#    z -0.011210 0.000000 1.976470 
# 
# From -- ./inp_files/22312.got.cif
#   From: 2010.06.25/outbox.cif.g09.slc.cpg/sg13_12_cif.got.tgz:22312.got - 2010.06.28 04:50:58.
