data_PCOD8122152
_publ_section_title
;
Structure prediction by ZEFSAII (Michael W. Deem and Ramdas Pophale) SiO2 
 PCOD8122152
Probable space group: P 2/C
;
_chemical_formula_sum "Si O2"
_cell_formula_units_Z 20
_cell_length_a 8.833052
_cell_length_b 11.695393
_cell_length_c 18.028253
_cell_angle_alpha 90.000000
_cell_angle_beta 149.029422
_cell_angle_gamma 90.000000
_cell_volume 958.400898
_symmetry_space_group_name_H-M "P 2/C"
_symmetry_group_IT_number 13
_symmetry_cell_setting 'monoclinic'
loop_
_space_group_symop_operation_xyz
x,y,z
-x,y,1/2-z
-x,-y,-z
x,-y,1/2+z
loop_
_atom_site_type_symbol
_atom_site_label
_atom_site_fract_x
_atom_site_fract_y
_atom_site_fract_z
Si Si1 0.313918 0.778148 0.521123
Si Si2 0.473454 0.118305 0.945635
Si Si3 0.202990 0.608355 0.588503
Si Si4 0.778906 0.071821 0.819654
Si Si5 0.094015 0.178792 0.147040
O O1 0.302593 0.791110 0.427159
O O2 0.250768 0.649491 0.523333
O O3 0.640414 0.812099 0.683712
O O4 0.072746 0.857573 0.460796
O O5 0.287255 0.092783 0.794541
O O6 0.787900 0.174212 0.061463
O O7 0.500000 0.000000 0.000000
O O8 0.500000 0.563293 0.750000
O O9 0.082758 0.715507 0.585519
O O10 0.000000 0.500000 0.500000
O O11 0.500000 0.116278 0.750000
O O12 0.855105 0.941473 0.873811
#
# Coordination Sequence:
#
# PCOD8122152 Si02
#       5
#     4   4   4   4   4
#     4  11  23  39  63  95 130 172 212 265 328 384
#     4  12  23  37  62  99 140 167 206 257 326 401
#     4  10  24  45  67  90 124 173 230 277 317 376
#     4  12  23  37  60  98 136 174 209 259 327 404
#     4  11  22  39  63  92 131 171 211 264 326 393
#
# _framework density 20.868095
#
# number of rings (size 3 to 8) (size 9 to 14) (size 15 to 20)
#    0.000    0.800    4.000    4.200    0.000    4.800 
#    0.000    1.000    0.000    2.400    0.000    0.000 
#    0.000    0.000    0.000    0.000    0.000    0.000 
#
# Total GULP energy -247920.202944 kJ/mol
# GULP energy per Si atom -12396.010147 kJ/mol
# Density = 2.082060 g / cm^3
# Si number density = 20.868095 Si / 1000 Ang^3
#
#
#
# Elastic Constant Matrix: (Units=GPa)
#
#
# Indices 1 2 3 4 5 6 
#
# 1 125.3741 56.7371 50.7942 0.0000 2.9802 0.0000
# 2 56.7371 125.2555 78.8242 0.0000 1.5385 0.0000
# 3 50.7942 78.8242 80.7642 0.0000 9.8404 0.0000
# 4 0.0000 0.0000 0.0000 34.3377 0.0000 12.2131
# 5 2.9802 1.5385 9.8404 0.0000 46.1458 0.0000
# 6 0.0000 0.0000 0.0000 12.2131 0.0000 25.8503
#
#
#
# Elastic Compliance Matrix: (Units=1/GPa)
#
#
# Indices 1 2 3 4 5 6 
#
# 1 0.010837 -0.001523 -0.005391 0.000000 0.000500 0.000000
# 2 -0.001523 0.021546 -0.020529 0.000000 0.003758 0.000000
# 3 -0.005391 -0.020529 0.036634 0.000000 -0.006779 0.000000
# 4 0.000000 0.000000 0.000000 0.035005 0.000000 -0.016538
# 5 0.000500 0.003758 -0.006779 0.000000 0.022959 0.000000
# 6 0.000000 0.000000 0.000000 -0.016538 0.000000 0.046498
#
#
# Mechanical properties :
#
#
# Convention : Reuss Voigt Hill
#
# Bulk Modulus (GPa) = 70.75691 78.23385 74.49538
# Shear Modulus (GPa) = 21.45245 30.93598 26.19422
#
# Velocity S-wave (km/s) = 3.20973 3.85444 3.54676
# Velocity P-wave (km/s) = 6.90774 7.57496 7.24903
#
# Compressibility (1/GPa) = 0.01413290
#
# Stress axis : x y z
#
# Youngs Moduli (GPa) = 92.27388 46.41183 27.29734
#
# Poissons Ratio (x) = 0.07068 0.14715
# Poissons Ratio (y) = 0.14052 0.56038
# Poissons Ratio (z) = 0.49740 0.95278
#
# Static dielectric constant tensor:
#      x y z
#    x 4.110980 0.000000 -0.132790 
#    y 0.000000 3.599760 0.000000 
#    z -0.132790 0.000000 4.000750 
# 
# 
# High freq. dielectric constant tensor:
#      x y z
#    x 1.831000 0.000000 0.003860 
#    y 0.000000 1.777720 0.000000 
#    z 0.003860 0.000000 1.837230 
# 
# From -- ./inp_files/16007.got.cif
#   From: 2010.06.25/outbox.cif.g09.slc.cpg/sg13_9_cif.got.tgz:16007.got - 2010.06.28 04:50:58.
