data_PCOD8122357
_publ_section_title
;
Structure prediction by ZEFSAII (Michael W. Deem and Ramdas Pophale) SiO2 
 PCOD8122357
Probable space group: P 2/C
;
_chemical_formula_sum "Si O2"
_cell_formula_units_Z 26
_cell_length_a 22.195567
_cell_length_b 11.687340
_cell_length_c 8.620781
_cell_angle_alpha 90.000000
_cell_angle_beta 148.887800
_cell_angle_gamma 90.000000
_cell_volume 1155.527123
_symmetry_space_group_name_H-M "P 2/C"
_symmetry_group_IT_number 13
_symmetry_cell_setting 'monoclinic'
loop_
_space_group_symop_operation_xyz
x,y,z
-x,y,1/2-z
-x,-y,-z
x,-y,1/2+z
loop_
_atom_site_type_symbol
_atom_site_label
_atom_site_fract_x
_atom_site_fract_y
_atom_site_fract_z
Si Si1 0.500000 0.660645 0.750000
Si Si2 0.364878 0.215599 0.214262
Si Si3 0.704037 0.394798 0.894520
Si Si4 0.000000 0.274056 0.750000
Si Si5 0.172874 0.842158 0.829360
Si Si6 0.227699 0.605804 0.622460
Si Si7 0.737754 0.026126 0.692611
Si Si8 0.500000 0.081150 0.750000
O O1 0.589147 0.735098 0.845434
O O2 0.422763 0.584765 0.462154
O O3 0.294005 0.305814 0.159062
O O4 0.476151 0.163229 0.550414
O O5 0.271225 0.116706 0.967412
O O6 0.792463 0.487473 0.014376
O O7 0.746669 0.266351 0.954608
O O8 0.691124 0.417600 0.048923
O O9 0.956154 0.199326 0.505501
O O10 0.896136 0.351375 0.587337
O O11 0.217045 0.905660 0.771599
O O12 0.174534 0.925915 0.981371
O O13 0.608675 0.003730 0.472670
#
# Coordination Sequence:
#
# PCOD8122357 Si02
#       8
#     2   4   4   2   4   4   4   2
#     4  12  23  41  72 108 154 189 225 278 358 440
#     4  12  24  41  68 106 150 190 235 282 356 437
#     4  11  25  44  72 106 147 183 238 288 355 439
#     4  10  26  52  78 100 140 186 248 312 370 402
#     4  11  25  45  70 103 141 186 242 302 347 426
#     4  11  26  49  73 103 142 186 243 309 354 426
#     4  12  24  41  68 105 146 188 237 290 348 440
#     4  12  23  39  66 104 150 199 229 288 362 428
#
# _framework density 22.500553
#
# number of rings (size 3 to 8) (size 9 to 14) (size 15 to 20)
#    0.000    0.615    3.077    5.538    0.000    6.154 
#    0.000    0.000    0.000    0.000    0.000    0.000 
#    0.000    0.000    0.000    0.000    0.000    0.000 
#
# Total GULP energy -322412.576292 kJ/mol
# GULP energy per Si atom -12400.483704 kJ/mol
# Density = 2.244934 g / cm^3
# Si number density = 22.500553 Si / 1000 Ang^3
#
#
#
# Elastic Constant Matrix: (Units=GPa)
#
#
# Indices 1 2 3 4 5 6 
#
# 1 115.0675 62.8985 47.8484 0.0000 -13.1812 0.0000
# 2 62.8985 129.1733 49.9093 0.0000 -8.5310 0.0000
# 3 47.8484 49.9093 135.3023 0.0000 -16.4585 0.0000
# 4 0.0000 0.0000 0.0000 25.5306 0.0000 -9.0631
# 5 -13.1812 -8.5310 -16.4585 0.0000 32.4250 0.0000
# 6 0.0000 0.0000 0.0000 -9.0631 0.0000 35.1453
#
#
#
# Elastic Compliance Matrix: (Units=1/GPa)
#
#
# Indices 1 2 3 4 5 6 
#
# 1 0.012766 -0.005156 -0.002288 0.000000 0.002672 0.000000
# 2 -0.005156 0.011127 -0.002323 0.000000 -0.000348 0.000000
# 3 -0.002288 -0.002323 0.009453 0.000000 0.003257 0.000000
# 4 0.000000 0.000000 0.000000 0.043116 0.000000 0.011118
# 5 0.002672 -0.000348 0.003257 0.000000 0.033488 0.000000
# 6 0.000000 0.000000 0.000000 0.011118 0.000000 0.031320
#
#
# Mechanical properties :
#
#
# Convention : Reuss Voigt Hill
#
# Bulk Modulus (GPa) = 72.40002 77.87284 75.13643
# Shear Modulus (GPa) = 30.22814 33.21263 31.72039
#
# Velocity S-wave (km/s) = 3.66927 3.84615 3.75875
# Velocity P-wave (km/s) = 7.08507 7.37619 7.23210
#
# Compressibility (1/GPa) = 0.01381215
#
# Stress axis : x y z
#
# Youngs Moduli (GPa) = 78.33128 89.87289 105.78520
#
# Poissons Ratio (x) = 0.46338 0.24201
# Poissons Ratio (y) = 0.40387 0.24578
# Poissons Ratio (z) = 0.17921 0.20881
#
# Static dielectric constant tensor:
#      x y z
#    x 3.897800 0.000000 -0.343000 
#    y 0.000000 4.188510 0.000000 
#    z -0.343000 0.000000 4.231660 
# 
# 
# High freq. dielectric constant tensor:
#      x y z
#    x 1.875370 0.000000 -0.029170 
#    y 0.000000 1.900110 0.000000 
#    z -0.029170 0.000000 1.890470 
# 
# From -- ./inp_files/24180.got.cif
#   From: 2010.06.25/outbox.cif.g09.slc.cpg/sg13_13_cif.got.tgz:24180.got - 2010.06.28 04:50:58.
