data_PCOD8122254
_publ_section_title
;
Structure prediction by ZEFSAII (Michael W. Deem and Ramdas Pophale) SiO2 
 PCOD8122254
Probable space group: P 2/C
;
_chemical_formula_sum "Si O2"
_cell_formula_units_Z 26
_cell_length_a 23.116523
_cell_length_b 6.589506
_cell_length_c 16.655550
_cell_angle_alpha 90.000000
_cell_angle_beta 152.128663
_cell_angle_gamma 90.000000
_cell_volume 1186.054050
_symmetry_space_group_name_H-M "P 2/C"
_symmetry_group_IT_number 13
_symmetry_cell_setting 'monoclinic'
loop_
_space_group_symop_operation_xyz
x,y,z
-x,y,1/2-z
-x,-y,-z
x,-y,1/2+z
loop_
_atom_site_type_symbol
_atom_site_label
_atom_site_fract_x
_atom_site_fract_y
_atom_site_fract_z
Si Si1 0.459639 0.985535 0.042441
Si Si2 0.000000 0.449719 0.750000
Si Si3 0.069771 0.109413 0.724210
Si Si4 0.297214 0.057375 0.585613
Si Si5 0.765947 0.721160 0.202807
Si Si6 0.861703 0.761026 0.486678
Si Si7 0.619535 0.362196 0.944772
O O1 0.572428 0.056480 0.239522
O O2 0.423704 0.756828 0.027268
O O3 0.500000 0.000000 0.000000
O O4 0.346982 0.130953 0.920741
O O5 0.988599 0.317665 0.816291
O O6 0.889013 0.599587 0.590144
O O7 0.123267 0.149549 0.701642
O O8 0.974415 0.921707 0.611186
O O9 0.185585 0.089137 0.926392
O O10 0.263415 0.140066 0.632802
O O11 0.306237 0.216848 0.524149
O O12 0.825968 0.649044 0.360122
O O13 0.717034 0.534761 0.089835
O O14 0.500000 0.450402 0.750000
#
# Coordination Sequence:
#
# PCOD8122254 Si02
#       7
#     4   2   4   4   4   4   4
#     4  11  24  44  71  99 133 180 220 285 343 393
#     4  12  24  44  72  98 132 184 224 270 348 392
#     4  12  25  44  71  98 133 187 223 271 341 399
#     4  11  21  47  70  94 140 174 224 278 330 406
#     4  12  27  43  71 102 138 177 225 281 339 398
#     4  12  25  46  67 103 139 175 229 280 325 407
#     4  10  25  44  67 103 138 175 226 278 341 409
#
# _framework density 21.921430000000001
#
# number of rings (size 3 to 8) (size 9 to 14) (size 15 to 20)
#    0.000    0.615    6.154    1.385    2.154    3.692 
#    0.000    0.000    0.000    0.000    0.000    0.000 
#    0.000    0.000    0.000    0.000    0.000    0.000 
#
# Total GULP energy -322165.980634 kJ/mol
# GULP energy per Si atom -12390.999255 kJ/mol
# Density = 2.187154 g / cm^3
# Si number density = 21.921430 Si / 1000 Ang^3
#
#
#
# Elastic Constant Matrix: (Units=GPa)
#
#
# Indices 1 2 3 4 5 6 
#
# 1 135.8847 25.5999 17.7197 0.0000 -3.7048 0.0000
# 2 25.5999 72.6830 29.5800 0.0000 -5.8212 0.0000
# 3 17.7197 29.5800 88.4674 0.0000 -12.5810 0.0000
# 4 0.0000 0.0000 0.0000 19.8190 0.0000 -10.6184
# 5 -3.7048 -5.8212 -12.5810 0.0000 39.2527 0.0000
# 6 0.0000 0.0000 0.0000 -10.6184 0.0000 29.0931
#
#
#
# Elastic Compliance Matrix: (Units=1/GPa)
#
#
# Indices 1 2 3 4 5 6 
#
# 1 0.007927 -0.002480 -0.000738 0.000000 0.000144 0.000000
# 2 -0.002480 0.016719 -0.005002 0.000000 0.000642 0.000000
# 3 -0.000738 -0.005002 0.013630 0.000000 0.003557 0.000000
# 4 0.000000 0.000000 0.000000 0.062722 0.000000 0.022892
# 5 0.000144 0.000642 0.003557 0.000000 0.026725 0.000000
# 6 0.000000 0.000000 0.000000 0.022892 0.000000 0.042728
#
#
# Mechanical properties :
#
#
# Convention : Reuss Voigt Hill
#
# Bulk Modulus (GPa) = 45.79772 49.20378 47.50075
# Shear Modulus (GPa) = 25.75090 32.57534 29.16312
#
# Velocity S-wave (km/s) = 3.43109 3.85905 3.65135
# Velocity P-wave (km/s) = 6.05257 6.50774 6.28428
#
# Compressibility (1/GPa) = 0.02183515
#
# Stress axis : x y z
#
# Youngs Moduli (GPa) = 126.15829 59.81214 73.36877
#
# Poissons Ratio (x) = 0.14833 0.05415
# Poissons Ratio (y) = 0.31287 0.36700
# Poissons Ratio (z) = 0.09310 0.29919
#
# Static dielectric constant tensor:
#      x y z
#    x 4.394680 0.000000 -0.042800 
#    y 0.000000 3.768920 0.000000 
#    z -0.042800 0.000000 4.152870 
# 
# 
# High freq. dielectric constant tensor:
#      x y z
#    x 1.882590 0.000000 0.003960 
#    y 0.000000 1.839030 0.000000 
#    z 0.003960 0.000000 1.874760 
# 
# From -- ./inp_files/70996.got.cif
#   From: 2010.06.25/outbox.cif.g09.slc.cpg/sg13_36_cif.got.tgz:70996.got - 2010.06.28 04:50:58.
