data_PCOD8122759
_publ_section_title
;
Structure prediction by ZEFSAII (Michael W. Deem and Ramdas Pophale) SiO2 
 PCOD8122759
Probable space group: P 2/C
;
_chemical_formula_sum "Si O2"
_cell_formula_units_Z 18
_cell_length_a 12.580039
_cell_length_b 6.729673
_cell_length_c 18.511149
_cell_angle_alpha 90.000000
_cell_angle_beta 31.069824
_cell_angle_gamma 90.000000
_cell_volume 808.776044
_symmetry_space_group_name_H-M "P 2/C"
_symmetry_group_IT_number 13
_symmetry_cell_setting 'monoclinic'
loop_
_space_group_symop_operation_xyz
x,y,z
-x,y,1/2-z
-x,-y,-z
x,-y,1/2+z
loop_
_atom_site_type_symbol
_atom_site_label
_atom_site_fract_x
_atom_site_fract_y
_atom_site_fract_z
Si Si1 0.211009 0.639623 0.437431
Si Si2 0.257214 0.303924 0.304141
Si Si3 0.500000 0.982439 0.250000
Si Si4 0.479457 0.772121 0.530214
Si Si5 0.217145 0.488507 0.090483
O O1 0.317820 0.509557 0.310695
O O2 0.337281 0.837272 0.383787
O O3 0.197027 0.498053 0.515717
O O4 0.986981 0.717294 0.543470
O O5 0.316473 0.301657 0.185711
O O6 0.379076 0.115274 0.263479
O O7 0.707843 0.700782 0.421399
O O8 0.396044 0.669299 0.506138
O O9 0.500000 0.000000 0.500000
O O10 0.000000 0.426037 0.250000
#
# Coordination Sequence:
#
# PCOD8122759 Si02
#       5
#     4   4   2   4   4
#     4  11  24  44  70  94 139 180 225 281 333 403
#     4  11  24  44  67 100 133 178 228 277 339 401
#     4  12  22  40  66 102 132 172 230 278 332 390
#     4  11  24  43  68  99 134 174 223 277 339 400
#     4  11  23  44  66  95 134 178 221 274 339 401
#
# _framework density 22.255849999999999
#
# number of rings (size 3 to 8) (size 9 to 14) (size 15 to 20)
#    0.000    0.889    2.222    5.333    0.000    2.667 
#    8.000    0.000    0.000    0.000    0.000    0.000 
#    0.000    0.000    0.000    0.000    0.000    0.000 
#
# Total GULP energy -223167.141442 kJ/mol
# GULP energy per Si atom -12398.174525 kJ/mol
# Density = 2.220519 g / cm^3
# Si number density = 22.255850 Si / 1000 Ang^3
#
#
#
# Elastic Constant Matrix: (Units=GPa)
#
#
# Indices 1 2 3 4 5 6 
#
# 1 110.3767 52.7295 25.1174 0.0000 -8.0239 0.0000
# 2 52.7295 147.1660 29.6414 0.0000 -11.8268 0.0000
# 3 25.1174 29.6414 78.3734 0.0000 0.6268 0.0000
# 4 0.0000 0.0000 0.0000 30.6608 0.0000 -2.4798
# 5 -8.0239 -11.8268 0.6268 0.0000 42.0467 0.0000
# 6 0.0000 0.0000 0.0000 -2.4798 0.0000 34.1506
#
#
#
# Elastic Compliance Matrix: (Units=1/GPa)
#
#
# Indices 1 2 3 4 5 6 
#
# 1 0.011349 -0.003501 -0.002323 0.000000 0.001216 0.000000
# 2 -0.003501 0.008627 -0.002155 0.000000 0.001791 0.000000
# 3 -0.002323 -0.002155 0.014329 0.000000 -0.001263 0.000000
# 4 0.000000 0.000000 0.000000 0.032808 0.000000 0.002382
# 5 0.001216 0.001791 -0.001263 0.000000 0.024538 0.000000
# 6 0.000000 0.000000 0.000000 0.002382 0.000000 0.029455
#
#
# Mechanical properties :
#
#
# Convention : Reuss Voigt Hill
#
# Bulk Modulus (GPa) = 54.50290 61.21033 57.85661
# Shear Modulus (GPa) = 34.92100 36.60013 35.76056
#
# Velocity S-wave (km/s) = 3.96545 4.05966 4.01283
# Velocity P-wave (km/s) = 6.74602 7.03827 6.89369
#
# Compressibility (1/GPa) = 0.01834765
#
# Stress axis : x y z
#
# Youngs Moduli (GPa) = 88.11094 115.90931 69.78781
#
# Poissons Ratio (x) = 0.40579 0.16211
# Poissons Ratio (y) = 0.30847 0.15041
# Poissons Ratio (z) = 0.20468 0.24982
#
# Static dielectric constant tensor:
#      x y z
#    x 4.243630 0.000000 -0.114360 
#    y 0.000000 3.877520 0.000000 
#    z -0.114360 0.000000 3.944660 
# 
# 
# High freq. dielectric constant tensor:
#      x y z
#    x 1.898500 0.000000 -0.010580 
#    y 0.000000 1.868120 0.000000 
#    z -0.010580 0.000000 1.873350 
# 
# From -- ./inp_files/52421.got.cif
#   From: 2010.06.25/outbox.cif.g09.slc.cpg/sg13_27_cif.got.tgz:52421.got - 2010.06.28 04:50:58.
