data_PCOD8122502
_publ_section_title
;
Structure prediction by ZEFSAII (Michael W. Deem and Ramdas Pophale) SiO2 
 PCOD8122502
Probable space group: P 2/C
;
_chemical_formula_sum "Si O2"
_cell_formula_units_Z 22
_cell_length_a 23.352795
_cell_length_b 11.619564
_cell_length_c 10.965155
_cell_angle_alpha 90.000000
_cell_angle_beta 22.054053
_cell_angle_gamma 90.000000
_cell_volume 1117.201720
_symmetry_space_group_name_H-M "P 2/C"
_symmetry_group_IT_number 13
_symmetry_cell_setting 'monoclinic'
loop_
_space_group_symop_operation_xyz
x,y,z
-x,y,1/2-z
-x,-y,-z
x,-y,1/2+z
loop_
_atom_site_type_symbol
_atom_site_label
_atom_site_fract_x
_atom_site_fract_y
_atom_site_fract_z
Si Si1 0.179484 0.212126 0.266826
Si Si2 0.835789 0.176110 0.928074
Si Si3 0.659818 0.954771 0.229915
Si Si4 0.383121 0.579685 0.368122
Si Si5 0.500000 0.835650 0.750000
Si Si6 0.382034 0.664267 0.783915
O O1 0.186494 0.153546 0.384805
O O2 0.008892 0.205966 0.550427
O O3 0.292255 0.150063 0.950870
O O4 0.232785 0.343340 0.183352
O O5 0.737984 0.284516 0.075039
O O6 0.785026 0.055126 0.969468
O O7 0.631412 0.911864 0.424752
O O8 0.500000 0.000000 0.500000
O O9 0.500000 0.585741 0.250000
O O10 0.319992 0.450414 0.473273
O O11 0.463669 0.628113 0.088251
O O12 0.412785 0.760021 0.823565
#
# Coordination Sequence:
#
# PCOD8122502 Si02
#       6
#     4   4   4   4   2   4
#     4  11  24  42  64  91 127 170 205 252 320 373
#     4  11  24  42  62  93 130 165 207 255 314 380
#     4  12  23  40  66  91 124 165 210 261 309 369
#     4  11  21  40  69  91 122 164 214 262 309 366
#     4  12  22  38  62  98 126 158 212 264 316 358
#     4  11  23  39  65  95 125 158 213 265 306 370
#
# _framework density 19.692056000000001
#
# number of rings (size 3 to 8) (size 9 to 14) (size 15 to 20)
#    0.000    0.727    6.364    1.636    0.000    0.727 
#    0.000    0.000    0.000    0.000    0.000    0.000 
#    0.000    0.000    0.000    0.000    0.000    0.000 
#
# Total GULP energy -272824.876529 kJ/mol
# GULP energy per Si atom -12401.130751 kJ/mol
# Density = 1.964724 g / cm^3
# Si number density = 19.692056 Si / 1000 Ang^3
#
#
#
# Elastic Constant Matrix: (Units=GPa)
#
#
# Indices 1 2 3 4 5 6 
#
# 1 80.3744 33.4415 37.2453 0.0000 -3.3256 0.0000
# 2 33.4415 128.1762 48.6334 0.0000 -12.9469 0.0000
# 3 37.2453 48.6334 93.8098 0.0000 -7.7303 0.0000
# 4 0.0000 0.0000 0.0000 16.3076 0.0000 5.9754
# 5 -3.3256 -12.9469 -7.7303 0.0000 36.8489 0.0000
# 6 0.0000 0.0000 0.0000 5.9754 0.0000 39.4298
#
#
#
# Elastic Compliance Matrix: (Units=1/GPa)
#
#
# Indices 1 2 3 4 5 6 
#
# 1 0.015718 -0.002195 -0.005138 0.000000 -0.000430 0.000000
# 2 -0.002195 0.010231 -0.004226 0.000000 0.002510 0.000000
# 3 -0.005138 -0.004226 0.014989 0.000000 0.001196 0.000000
# 4 0.000000 0.000000 0.000000 0.064926 0.000000 -0.009839
# 5 -0.000430 0.002510 0.001196 0.000000 0.028232 0.000000
# 6 0.000000 0.000000 0.000000 -0.009839 0.000000 0.026853
#
#
# Mechanical properties :
#
#
# Convention : Reuss Voigt Hill
#
# Bulk Modulus (GPa) = 56.11394 60.11121 58.11258
# Shear Modulus (GPa) = 26.31468 30.71995 28.51731
#
# Velocity S-wave (km/s) = 3.65952 3.95399 3.80960
# Velocity P-wave (km/s) = 6.81276 7.17198 6.99468
#
# Compressibility (1/GPa) = 0.01782088
#
# Stress axis : x y z
#
# Youngs Moduli (GPa) = 63.62053 97.73850 66.71433
#
# Poissons Ratio (x) = 0.21452 0.34279
# Poissons Ratio (y) = 0.13964 0.28193
# Poissons Ratio (z) = 0.32690 0.41304
#
# Static dielectric constant tensor:
#      x y z
#    x 4.081060 0.000000 0.853800 
#    y 0.000000 4.009390 0.000000 
#    z 0.853800 0.000000 5.093710 
# 
# 
# High freq. dielectric constant tensor:
#      x y z
#    x 1.775960 0.000000 0.005900 
#    y 0.000000 1.782540 0.000000 
#    z 0.005900 0.000000 1.749360 
# 
# From -- ./inp_files/36866.got.cif
#   From: 2010.06.25/outbox.cif.g09.slc.cpg/sg13_19_cif.got.tgz:36866.got - 2010.06.28 04:50:58.
