data_PCOD8122362
_publ_section_title
;
Structure prediction by ZEFSAII (Michael W. Deem and Ramdas Pophale) SiO2 
 PCOD8122362
Probable space group: P 2/C
;
_chemical_formula_sum "Si O2"
_cell_formula_units_Z 10
_cell_length_a 9.455862
_cell_length_b 4.789291
_cell_length_c 7.685132
_cell_angle_alpha 90.000000
_cell_angle_beta 120.477841
_cell_angle_gamma 90.000000
_cell_volume 299.945924
_symmetry_space_group_name_H-M "P 2/C"
_symmetry_group_IT_number 13
_symmetry_cell_setting 'monoclinic'
loop_
_space_group_symop_operation_xyz
x,y,z
-x,y,1/2-z
-x,-y,-z
x,-y,1/2+z
loop_
_atom_site_type_symbol
_atom_site_label
_atom_site_fract_x
_atom_site_fract_y
_atom_site_fract_z
Si Si1 0.392509 0.248174 0.994455
Si Si2 0.185883 0.161887 0.178310
Si Si3 0.000000 0.617279 0.250000
O O1 0.216962 0.148269 0.786304
O O2 0.500000 0.500000 0.000000
O O3 0.351915 0.256068 0.176039
O O4 0.500000 0.000000 0.000000
O O5 0.155216 0.398382 0.310501
O O6 0.037779 0.185521 0.943966
#
# Coordination Sequence:
#
# PCOD8122362 Si02
#       3
#     4   4   2
#     4  12  29  52  82 122 172 227 281 349 425 508
#     4  11  27  51  86 126 173 223 285 351 427 510
#     4  10  26  54  88 130 172 226 282 352 430 510
#
# _framework density 33.33934
#
# number of rings (size 3 to 8) (size 9 to 14) (size 15 to 20)
#    0.000    0.800    0.000    3.600    0.000   27.200 
#    0.000    0.000    0.000    0.000    0.000    0.000 
#    0.000    0.000    0.000    0.000    0.000    0.000 
#
# Total GULP energy -123941.510302 kJ/mol
# GULP energy per Si atom -12394.151030 kJ/mol
# Density = 3.326346 g / cm^3
# Si number density = 33.339340 Si / 1000 Ang^3
#
#
#
# Elastic Constant Matrix: (Units=GPa)
#
#
# Indices 1 2 3 4 5 6 
#
# 1 285.3865 111.9712 60.7419 0.0000 -21.5474 0.0000
# 2 111.9712 333.1072 121.5912 0.0000 -15.8005 0.0000
# 3 60.7419 121.5912 206.9236 0.0000 -23.1527 0.0000
# 4 0.0000 0.0000 0.0000 70.8230 0.0000 -11.0193
# 5 -21.5474 -15.8005 -23.1527 0.0000 66.1813 0.0000
# 6 0.0000 0.0000 0.0000 -11.0193 0.0000 55.7911
#
#
#
# Elastic Compliance Matrix: (Units=1/GPa)
#
#
# Indices 1 2 3 4 5 6 
#
# 1 0.004129 -0.001196 -0.000407 0.000000 0.000917 0.000000
# 2 -0.001196 0.004169 -0.002114 0.000000 -0.000133 0.000000
# 3 -0.000407 -0.002114 0.006372 0.000000 0.001592 0.000000
# 4 0.000000 0.000000 0.000000 0.014567 0.000000 0.002877
# 5 0.000917 -0.000133 0.001592 0.000000 0.015934 0.000000
# 6 0.000000 0.000000 0.000000 0.002877 0.000000 0.018492
#
#
# Mechanical properties :
#
#
# Convention : Reuss Voigt Hill
#
# Bulk Modulus (GPa) = 138.16674 157.11398 147.64036
# Shear Modulus (GPa) = 68.01843 73.96662 70.99252
#
# Velocity S-wave (km/s) = 4.52174 4.71531 4.61954
# Velocity P-wave (km/s) = 8.29422 8.76776 8.53427
#
# Compressibility (1/GPa) = 0.00723763
#
# Stress axis : x y z
#
# Youngs Moduli (GPa) = 242.18712 239.84771 156.92811
#
# Poissons Ratio (x) = 0.28686 0.06383
# Poissons Ratio (y) = 0.28966 0.33171
# Poissons Ratio (z) = 0.09851 0.50699
#
# Static dielectric constant tensor:
#      x y z
#    x 3.952040 0.000000 -4.499110 
#    y 0.000000 4.780840 0.000000 
#    z -4.499110 0.000000 -0.080620 
# 
# 
# High freq. dielectric constant tensor:
#      x y z
#    x 2.482470 0.000000 0.059100 
#    y 0.000000 2.417720 0.000000 
#    z 0.059100 0.000000 2.431910 
# 
# From -- ./inp_files/14095.got.cif
#   From: 2010.06.25/outbox.cif.g09.slc.cpg/sg13_8_cif.got.tgz:14095.got - 2010.06.28 04:50:58.
