data_PCOD8122675
_publ_section_title
;
Structure prediction by ZEFSAII (Michael W. Deem and Ramdas Pophale) SiO2 
 PCOD8122675
Probable space group: P 2/C
;
_chemical_formula_sum "Si O2"
_cell_formula_units_Z 22
_cell_length_a 9.142892
_cell_length_b 13.904188
_cell_length_c 9.123939
_cell_angle_alpha 90.000000
_cell_angle_beta 67.674680
_cell_angle_gamma 90.000000
_cell_volume 1072.934024
_symmetry_space_group_name_H-M "P 2/C"
_symmetry_group_IT_number 13
_symmetry_cell_setting 'monoclinic'
loop_
_space_group_symop_operation_xyz
x,y,z
-x,y,1/2-z
-x,-y,-z
x,-y,1/2+z
loop_
_atom_site_type_symbol
_atom_site_label
_atom_site_fract_x
_atom_site_fract_y
_atom_site_fract_z
Si Si1 0.240580 0.296392 0.534302
Si Si2 0.613734 0.543662 0.335266
Si Si3 0.334366 0.040598 0.263110
Si Si4 0.093100 0.574939 0.865374
Si Si5 0.500000 0.221952 0.250000
Si Si6 0.160012 0.919292 0.109991
O O1 0.265970 0.373235 0.654517
O O2 0.114186 0.330535 0.459159
O O3 0.415568 0.288065 0.400441
O O4 0.180413 0.195218 0.620752
O O5 0.500000 0.583499 0.250000
O O6 0.500000 0.500000 0.500000
O O7 0.729268 0.460402 0.233338
O O8 0.500000 0.992799 0.250000
O O9 0.371216 0.153667 0.215286
O O10 0.185865 0.043203 0.434318
O O11 0.296960 0.976874 0.138788
O O12 0.000000 0.598905 0.750000
O O13 0.000000 0.500000 0.000000
O O14 0.000000 0.951583 0.250000
#
# Coordination Sequence:
#
# PCOD8122675 Si02
#       6
#     4   4   4   4   2   4
#     4  11  23  39  66  95 132 162 226 261 314 378
#     4  12  23  42  66  90 125 173 217 261 322 378
#     4   9  20  41  67  90 123 173 199 253 331 373
#     4  12  24  42  66  90 130 175 212 267 331 375
#     4   8  20  40  66  90 130 164 206 276 306 384
#     4  11  23  40  66  94 131 162 209 265 315 390
#
# _framework density 20.504525000000001
#
# number of rings (size 3 to 8) (size 9 to 14) (size 15 to 20)
#    0.545    0.727    3.636    2.182    2.545    0.727 
#    0.000    7.273    0.000    0.000    0.000    0.000 
#    0.000    0.000    0.000    0.000    0.000    0.000 
#
# Total GULP energy -272576.113887 kJ/mol
# GULP energy per Si atom -12389.823358 kJ/mol
# Density = 2.045786 g / cm^3
# Si number density = 20.504525 Si / 1000 Ang^3
#
#
#
# Elastic Constant Matrix: (Units=GPa)
#
#
# Indices 1 2 3 4 5 6 
#
# 1 86.1292 14.5093 32.2142 0.0000 8.4953 0.0000
# 2 14.5093 76.4771 21.8440 0.0000 18.3103 0.0000
# 3 32.2142 21.8440 80.8319 0.0000 0.5931 0.0000
# 4 0.0000 0.0000 0.0000 24.0670 0.0000 7.2566
# 5 8.4953 18.3103 0.5931 0.0000 57.7668 0.0000
# 6 0.0000 0.0000 0.0000 7.2566 0.0000 26.7668
#
#
#
# Elastic Compliance Matrix: (Units=1/GPa)
#
#
# Indices 1 2 3 4 5 6 
#
# 1 0.013898 -0.000687 -0.005340 0.000000 -0.001771 0.000000
# 2 -0.000687 0.015449 -0.003866 0.000000 -0.004756 0.000000
# 3 -0.005340 -0.003866 0.015531 0.000000 0.001851 0.000000
# 4 0.000000 0.000000 0.000000 0.045249 0.000000 -0.012267
# 5 -0.001771 -0.004756 0.001851 0.000000 0.019060 0.000000
# 6 0.000000 0.000000 0.000000 -0.012267 0.000000 0.040685
#
#
# Mechanical properties :
#
#
# Convention : Reuss Voigt Hill
#
# Bulk Modulus (GPa) = 39.85517 42.28592 41.07055
# Shear Modulus (GPa) = 28.08605 33.37817 30.73211
#
# Velocity S-wave (km/s) = 3.70503 4.03903 3.87563
# Velocity P-wave (km/s) = 6.14674 6.51300 6.33252
#
# Compressibility (1/GPa) = 0.02509084
#
# Stress axis : x y z
#
# Youngs Moduli (GPa) = 71.95121 64.72809 64.38822
#
# Poissons Ratio (x) = 0.04450 0.34384
# Poissons Ratio (y) = 0.04946 0.24893
# Poissons Ratio (z) = 0.38423 0.25025
#
# Static dielectric constant tensor:
#      x y z
#    x 3.881790 0.000000 -0.131160 
#    y 0.000000 3.365680 0.000000 
#    z -0.131160 0.000000 3.794650 
# 
# 
# High freq. dielectric constant tensor:
#      x y z
#    x 1.799730 0.000000 -0.019590 
#    y 0.000000 1.792010 0.000000 
#    z -0.019590 0.000000 1.807220 
# 
# From -- ./inp_files/12417.got.cif
#   From: 2010.06.25/outbox.cif.g09.slc.cpg/sg13_7_cif.got.tgz:12417.got - 2010.06.28 04:50:58.
