data_PCOD8122996
_publ_section_title
;
Structure prediction by ZEFSAII (Michael W. Deem and Ramdas Pophale) SiO2 
 PCOD8122996
Probable space group: P 2/C
;
_chemical_formula_sum "Si O2"
_cell_formula_units_Z 18
_cell_length_a 25.928650
_cell_length_b 5.131287
_cell_length_c 24.466622
_cell_angle_alpha 90.000000
_cell_angle_beta 169.002129
_cell_angle_gamma 90.000000
_cell_volume 621.006349
_symmetry_space_group_name_H-M "P 2/C"
_symmetry_group_IT_number 13
_symmetry_cell_setting 'monoclinic'
loop_
_space_group_symop_operation_xyz
x,y,z
-x,y,1/2-z
-x,-y,-z
x,-y,1/2+z
loop_
_atom_site_type_symbol
_atom_site_label
_atom_site_fract_x
_atom_site_fract_y
_atom_site_fract_z
Si Si1 0.783210 0.806246 0.829779
Si Si2 0.586922 0.916898 0.265991
Si Si3 0.083888 0.231905 0.742386
Si Si4 0.468922 0.689990 0.034969
Si Si5 0.000000 0.378901 0.250000
O O1 0.803398 0.756816 0.784752
O O2 0.553693 0.607637 0.613741
O O3 0.693401 0.103061 0.747281
O O4 0.057963 0.723437 0.149306
O O5 0.424002 0.728253 0.053830
O O6 0.716448 0.781629 0.454740
O O7 0.857260 0.015502 0.517427
O O8 0.384383 0.146512 0.072458
O O9 0.006201 0.473380 0.699209
#
# Coordination Sequence:
#
# PCOD8122996 Si02
#       5
#     4   4   4   4   2
#     4   9  18  39  70 107 147 190 243 309 382 460
#     4  11  26  46  72 106 145 195 253 315 385 458
#     4  11  26  46  72 106 145 195 253 315 385 458
#     4   9  18  39  70 107 147 190 243 309 382 460
#     4  12  26  50  74 104 148 206 258 332 378 470
#
# _framework density 28.985209000000001
#
# number of rings (size 3 to 8) (size 9 to 14) (size 15 to 20)
#    0.000    1.778    2.222    0.667    0.000    8.000 
#    0.000    0.000    0.000   13.333    0.000    0.000 
#    0.000    1.778    0.000    0.000    0.000    0.444 
#
# Total GULP energy -223022.916444 kJ/mol
# GULP energy per Si atom -12390.162025 kJ/mol
# Density = 2.891924 g / cm^3
# Si number density = 28.985209 Si / 1000 Ang^3
#
#
#
# Elastic Constant Matrix: (Units=GPa)
#
#
# Indices 1 2 3 4 5 6 
#
# 1 57.1920 6.8456 53.9311 0.0000 -32.5534 0.0000
# 2 6.8456 81.8816 31.9244 0.0000 -15.7747 0.0000
# 3 53.9311 31.9244 194.4908 0.0000 -46.5129 0.0000
# 4 0.0000 0.0000 0.0000 34.8225 0.0000 -21.6742
# 5 -32.5534 -15.7747 -46.5129 0.0000 62.6228 0.0000
# 6 0.0000 0.0000 0.0000 -21.6742 0.0000 22.9786
#
#
#
# Elastic Compliance Matrix: (Units=1/GPa)
#
#
# Indices 1 2 3 4 5 6 
#
# 1 0.029080 0.001973 -0.005659 0.000000 0.011411 0.000000
# 2 0.001973 0.013404 -0.002061 0.000000 0.002872 0.000000
# 3 -0.005659 -0.002061 0.007565 0.000000 0.002158 0.000000
# 4 0.000000 0.000000 0.000000 0.069548 0.000000 0.065600
# 5 0.011411 0.002872 0.002158 0.000000 0.024227 0.000000
# 6 0.000000 0.000000 0.000000 0.065600 0.000000 0.105395
#
#
# Mechanical properties :
#
#
# Convention : Reuss Voigt Hill
#
# Bulk Modulus (GPa) = 25.93530 57.66294 41.79912
# Shear Modulus (GPa) = 18.27727 40.14233 29.20980
#
# Velocity S-wave (km/s) = 2.51384 3.72549 3.17795
# Velocity P-wave (km/s) = 4.17050 6.20023 5.28375
#
# Compressibility (1/GPa) = 0.03855749
#
# Stress axis : x y z
#
# Youngs Moduli (GPa) = 34.38827 74.60198 132.18493
#
# Poissons Ratio (x) = -0.14722 0.74799
# Poissons Ratio (y) = -0.06786 0.27239
# Poissons Ratio (z) = 0.19459 0.15373
#
# Static dielectric constant tensor:
#      x y z
#    x 5.667500 0.000000 -1.183320 
#    y 0.000000 5.164510 0.000000 
#    z -1.183320 0.000000 6.204830 
# 
# 
# High freq. dielectric constant tensor:
#      x y z
#    x 2.175610 0.000000 -0.043590 
#    y 0.000000 2.174870 0.000000 
#    z -0.043590 0.000000 2.183680 
# 
# From -- ./inp_files/89803.got.cif
#   From: 2010.06.25/outbox.cif.g09.slc.cpg/sg13_45_cif.got.tgz:89803.got - 2010.06.28 04:50:58.
