data_PCOD8122397
_publ_section_title
;
Structure prediction by ZEFSAII (Michael W. Deem and Ramdas Pophale) SiO2 
 PCOD8122397
Probable space group: P 2/C
;
_chemical_formula_sum "Si O2"
_cell_formula_units_Z 16
_cell_length_a 14.058282
_cell_length_b 7.488698
_cell_length_c 12.787099
_cell_angle_alpha 90.000000
_cell_angle_beta 142.548359
_cell_angle_gamma 90.000000
_cell_volume 818.614818
_symmetry_space_group_name_H-M "P 2/C"
_symmetry_group_IT_number 13
_symmetry_cell_setting 'monoclinic'
loop_
_space_group_symop_operation_xyz
x,y,z
-x,y,1/2-z
-x,-y,-z
x,-y,1/2+z
loop_
_atom_site_type_symbol
_atom_site_label
_atom_site_fract_x
_atom_site_fract_y
_atom_site_fract_z
Si Si1 0.834640 0.275081 0.656375
Si Si2 0.090082 0.175604 0.550961
Si Si3 0.319726 0.056562 0.568974
Si Si4 0.136760 0.323174 0.294926
O O1 0.798196 0.484955 0.610835
O O2 0.000000 0.224477 0.750000
O O3 0.711072 0.151227 0.487146
O O4 0.826384 0.248383 0.773167
O O5 0.224418 0.131971 0.584474
O O6 0.952507 0.316243 0.395054
O O7 0.000000 0.000000 0.500000
O O8 0.500000 0.079301 0.750000
O O9 0.275979 0.178303 0.429045
O O10 0.000000 0.251593 0.250000
#
# Coordination Sequence:
#
# PCOD8122397 Si02
#       4
#     4   4   4   4
#     4  11  20  37  62  84 109 148 193 232 272 326
#     4  11  19  38  63  83 108 146 194 233 273 326
#     4  11  23  38  55  84 121 148 179 230 284 335
#     4   9  20  37  59  84 110 145 190 233 272 328
#
# _framework density 19.545213
#
# number of rings (size 3 to 8) (size 9 to 14) (size 15 to 20)
#    0.000    1.500    5.000    1.500    0.000    2.000 
#    0.000    1.250    0.000    0.000    0.000    0.000 
#    0.000    0.000    0.000    0.000    0.000    0.000 
#
# Total GULP energy -198238.114600 kJ/mol
# GULP energy per Si atom -12389.882162 kJ/mol
# Density = 1.950073 g / cm^3
# Si number density = 19.545213 Si / 1000 Ang^3
#
#
#
# Elastic Constant Matrix: (Units=GPa)
#
#
# Indices 1 2 3 4 5 6 
#
# 1 69.5866 20.3015 44.0035 0.0000 -4.1090 0.0000
# 2 20.3015 108.2501 50.1328 0.0000 17.0175 0.0000
# 3 44.0035 50.1328 123.5934 0.0000 11.8387 0.0000
# 4 0.0000 0.0000 0.0000 29.5598 0.0000 -8.1575
# 5 -4.1090 17.0175 11.8387 0.0000 28.1565 0.0000
# 6 0.0000 0.0000 0.0000 -8.1575 0.0000 21.1878
#
#
#
# Elastic Compliance Matrix: (Units=1/GPa)
#
#
# Indices 1 2 3 4 5 6 
#
# 1 0.019651 -0.001482 -0.007039 0.000000 0.006724 0.000000
# 2 -0.001482 0.012249 -0.003867 0.000000 -0.005994 0.000000
# 3 -0.007039 -0.003867 0.012545 0.000000 -0.003965 0.000000
# 4 0.000000 0.000000 0.000000 0.037851 0.000000 0.014573
# 5 0.006724 -0.005994 -0.003965 0.000000 0.041787 0.000000
# 6 0.000000 0.000000 0.000000 0.014573 0.000000 0.052808
#
#
# Mechanical properties :
#
#
# Convention : Reuss Voigt Hill
#
# Bulk Modulus (GPa) = 50.84095 58.92285 54.88190
# Shear Modulus (GPa) = 24.01255 28.24699 26.12977
#
# Velocity S-wave (km/s) = 3.50889 3.80572 3.66032
# Velocity P-wave (km/s) = 6.51804 7.03731 6.78265
#
# Compressibility (1/GPa) = 0.01966919
#
# Stress axis : x y z
#
# Youngs Moduli (GPa) = 50.88691 81.64077 79.70999
#
# Poissons Ratio (x) = 0.12102 0.56110
# Poissons Ratio (y) = 0.07544 0.30820
# Poissons Ratio (z) = 0.35821 0.31567
#
# Static dielectric constant tensor:
#      x y z
#    x 5.288360 0.000000 -3.502030 
#    y 0.000000 3.204710 0.000000 
#    z -3.502030 0.000000 8.662270 
# 
# 
# High freq. dielectric constant tensor:
#      x y z
#    x 1.739260 0.000000 -0.023870 
#    y 0.000000 1.773170 0.000000 
#    z -0.023870 0.000000 1.750300 
# 
# From -- ./inp_files/27356.got.cif
#   From: 2010.06.25/outbox.cif.g09.slc.cpg/sg13_14_cif.got.tgz:27356.got - 2010.06.28 04:50:58.
