data_PCOD8122526
_publ_section_title
;
Structure prediction by ZEFSAII (Michael W. Deem and Ramdas Pophale) SiO2 
 PCOD8122526
Probable space group: P 2/C
;
_chemical_formula_sum "Si O2"
_cell_formula_units_Z 28
_cell_length_a 14.441172
_cell_length_b 12.158871
_cell_length_c 9.316294
_cell_angle_alpha 90.000000
_cell_angle_beta 121.525582
_cell_angle_gamma 90.000000
_cell_volume 1394.394871
_symmetry_space_group_name_H-M "P 2/C"
_symmetry_group_IT_number 13
_symmetry_cell_setting 'monoclinic'
loop_
_space_group_symop_operation_xyz
x,y,z
-x,y,1/2-z
-x,-y,-z
x,-y,1/2+z
loop_
_atom_site_type_symbol
_atom_site_label
_atom_site_fract_x
_atom_site_fract_y
_atom_site_fract_z
Si Si1 0.080309 0.490617 0.935428
Si Si2 0.395187 0.379100 0.365466
Si Si3 0.110744 0.893142 0.421178
Si Si4 0.112380 0.883701 0.768681
Si Si5 0.375567 0.627438 0.345113
Si Si6 0.748906 0.685111 0.982868
Si Si7 0.239038 0.678888 0.978284
O O1 0.000000 0.447888 0.750000
O O2 0.169035 0.396328 0.034512
O O3 0.136429 0.607440 0.947559
O O4 0.000000 0.500000 0.000000
O O5 0.403720 0.504098 0.313658
O O6 0.508521 0.324971 0.509326
O O7 0.356193 0.301722 0.203791
O O8 0.306393 0.388523 0.417316
O O9 0.097200 0.902243 0.584151
O O10 0.199978 0.803889 0.451463
O O11 0.000000 0.859287 0.250000
O O12 0.151378 0.006530 0.382697
O O13 0.000000 0.845196 0.750000
O O14 0.201859 0.791992 0.874711
O O15 0.285580 0.629867 0.396587
O O16 0.323473 0.700674 0.176640
#
# Coordination Sequence:
#
# PCOD8122526 Si02
#       7
#     4   4   4   4   4   4   4
#     4  12  24  37  56  91 133 166 199 248 318 383
#     4  11  21  43  60  96 127 167 217 264 313 376
#     4  11  25  44  67  93 127 166 218 258 311 381
#     4  11  25  43  67  93 126 169 215 261 309 381
#     4  11  23  37  68  91 129 168 216 263 312 380
#     4  12  23  40  62  93 128 166 210 260 320 376
#     4  12  23  40  64  92 129 168 211 260 321 376
#
# _framework density 20.080394999999999
#
# number of rings (size 3 to 8) (size 9 to 14) (size 15 to 20)
#    0.000    0.571    4.286    5.143    6.000    2.286 
#    0.000    0.000    0.000    5.143    0.000    0.000 
#    0.000    0.000    0.000    0.000    0.000    0.000 
#
# Total GULP energy -347123.147027 kJ/mol
# GULP energy per Si atom -12397.255251 kJ/mol
# Density = 2.003469 g / cm^3
# Si number density = 20.080395 Si / 1000 Ang^3
#
#
#
# Elastic Constant Matrix: (Units=GPa)
#
#
# Indices 1 2 3 4 5 6 
#
# 1 68.9771 36.6423 37.0382 0.0000 -3.0046 0.0000
# 2 36.6423 89.5148 47.9930 0.0000 15.8139 0.0000
# 3 37.0382 47.9930 162.3037 0.0000 6.5625 0.0000
# 4 0.0000 0.0000 0.0000 31.9714 0.0000 -0.1047
# 5 -3.0046 15.8139 6.5625 0.0000 41.9114 0.0000
# 6 0.0000 0.0000 0.0000 -0.1047 0.0000 18.2362
#
#
#
# Elastic Compliance Matrix: (Units=1/GPa)
#
#
# Indices 1 2 3 4 5 6 
#
# 1 0.020169 -0.007756 -0.002502 0.000000 0.004764 0.000000
# 2 -0.007756 0.017127 -0.003030 0.000000 -0.006544 0.000000
# 3 -0.002502 -0.003030 0.007637 0.000000 -0.000232 0.000000
# 4 0.000000 0.000000 0.000000 0.031279 0.000000 0.000180
# 5 0.004764 -0.006544 -0.000232 0.000000 0.026707 0.000000
# 6 0.000000 0.000000 0.000000 0.000180 0.000000 0.054837
#
#
# Mechanical properties :
#
#
# Convention : Reuss Voigt Hill
#
# Bulk Modulus (GPa) = 54.47372 62.68251 58.57811
# Shear Modulus (GPa) = 26.25358 31.69860 28.97609
#
# Velocity S-wave (km/s) = 3.61975 3.97745 3.80281
# Velocity P-wave (km/s) = 6.68258 7.23720 6.96541
#
# Compressibility (1/GPa) = 0.01835748
#
# Stress axis : x y z
#
# Youngs Moduli (GPa) = 49.58165 58.38807 130.93363
#
# Poissons Ratio (x) = 0.45288 0.32755
# Poissons Ratio (y) = 0.38457 0.39670
# Poissons Ratio (z) = 0.12404 0.17690
#
# Static dielectric constant tensor:
#      x y z
#    x 3.734860 0.000000 0.056010 
#    y 0.000000 3.505950 0.000000 
#    z 0.056010 0.000000 3.993160 
# 
# 
# High freq. dielectric constant tensor:
#      x y z
#    x 1.787150 0.000000 -0.002970 
#    y 0.000000 1.751030 0.000000 
#    z -0.002970 0.000000 1.810510 
# 
# From -- ./inp_files/19111.got.cif
#   From: 2010.06.25/outbox.cif.g09.slc.cpg/sg13_10_cif.got.tgz:19111.got - 2010.06.28 04:50:58.
