data_PCOD8122552
_publ_section_title
;
Structure prediction by ZEFSAII (Michael W. Deem and Ramdas Pophale) SiO2 
 PCOD8122552
Probable space group: P 2/C
;
_chemical_formula_sum "Si O2"
_cell_formula_units_Z 20
_cell_length_a 14.333756
_cell_length_b 11.278109
_cell_length_c 7.140602
_cell_angle_alpha 90.000000
_cell_angle_beta 52.551620
_cell_angle_gamma 90.000000
_cell_volume 916.426694
_symmetry_space_group_name_H-M "P 2/C"
_symmetry_group_IT_number 13
_symmetry_cell_setting 'monoclinic'
loop_
_space_group_symop_operation_xyz
x,y,z
-x,y,1/2-z
-x,-y,-z
x,-y,1/2+z
loop_
_atom_site_type_symbol
_atom_site_label
_atom_site_fract_x
_atom_site_fract_y
_atom_site_fract_z
Si Si1 0.352037 0.398656 0.780633
Si Si2 0.592024 0.344438 0.369545
Si Si3 0.872053 0.270196 0.376060
Si Si4 0.873632 0.939120 0.145499
Si Si5 0.220063 0.165710 0.372471
O O1 0.449646 0.351972 0.507284
O O2 0.346767 0.541148 0.798758
O O3 0.390767 0.347348 0.930362
O O4 0.222285 0.349943 0.895226
O O5 0.652796 0.221931 0.226028
O O6 0.870664 0.138536 0.462116
O O7 0.845412 0.259521 0.185755
O O8 0.000000 0.329225 0.250000
O O9 0.771306 0.038986 0.245551
O O10 0.145735 0.855624 0.151492
O O11 0.000000 0.000000 0.000000
#
# Coordination Sequence:
#
# PCOD8122552 Si02
#       5
#     4   4   4   4   4
#     4   9  20  40  63  87 118 157 200 246 310 361
#     4   9  20  40  64  86 118 157 202 251 300 365
#     4  11  22  37  60  88 122 157 198 250 296 362
#     4  12  22  37  60  87 119 167 202 238 303 360
#     4  11  22  37  61  89 118 157 206 246 291 358
#
# _framework density 21.823896999999999
#
# number of rings (size 3 to 8) (size 9 to 14) (size 15 to 20)
#    0.000    1.600    4.000    0.600    2.800    0.000 
#    0.000    7.000    4.400    0.000    0.000    0.000 
#    0.000    0.000    0.000    0.000    0.000    0.000 
#
# Total GULP energy -247852.244135 kJ/mol
# GULP energy per Si atom -12392.612207 kJ/mol
# Density = 2.177422 g / cm^3
# Si number density = 21.823897 Si / 1000 Ang^3
#
#
#
# Elastic Constant Matrix: (Units=GPa)
#
#
# Indices 1 2 3 4 5 6 
#
# 1 61.8107 32.6981 46.5120 0.0000 -22.0875 0.0000
# 2 32.6981 111.7146 80.4313 0.0000 -33.7956 0.0000
# 3 46.5120 80.4313 147.8938 0.0000 -32.5260 0.0000
# 4 0.0000 0.0000 0.0000 342.6378 0.0000 -239.5975
# 5 -22.0875 -33.7956 -32.5260 0.0000 44.6057 0.0000
# 6 0.0000 0.0000 0.0000 -239.5975 0.0000 217.7195
#
#
#
# Elastic Compliance Matrix: (Units=1/GPa)
#
#
# Indices 1 2 3 4 5 6 
#
# 1 0.023073 -0.000870 -0.005259 0.000000 0.006931 0.000000
# 2 -0.000870 0.016414 -0.007161 0.000000 0.006783 0.000000
# 3 -0.005259 -0.007161 0.012558 0.000000 0.001128 0.000000
# 4 0.000000 0.000000 0.000000 0.012664 0.000000 0.013937
# 5 0.006931 0.006783 0.001128 0.000000 0.031812 0.000000
# 6 0.000000 0.000000 0.000000 0.013937 0.000000 0.019930
#
#
# Mechanical properties :
#
#
# Convention : Reuss Voigt Hill
#
# Bulk Modulus (GPa) = 39.27055 71.18909 55.22982
# Shear Modulus (GPa) = 32.99910 131.77777 82.38844
#
# Velocity S-wave (km/s) = 3.89274 7.77904 6.15089
# Velocity P-wave (km/s) = 6.18368 10.64778 8.70670
#
# Compressibility (1/GPa) = 0.02546437
#
# Stress axis : x y z
#
# Youngs Moduli (GPa) = 43.34140 60.92353 79.63115
#
# Poissons Ratio (x) = 0.05303 0.41874
# Poissons Ratio (y) = 0.03773 0.57025
# Poissons Ratio (z) = 0.22791 0.43628
#
# Static dielectric constant tensor:
#      x y z
#    x 4.193670 0.000000 -0.257410 
#    y 0.000000 3.942010 0.000000 
#    z -0.257410 0.000000 4.442580 
# 
# 
# High freq. dielectric constant tensor:
#      x y z
#    x 1.858390 0.000000 0.013150 
#    y 0.000000 1.833820 0.000000 
#    z 0.013150 0.000000 1.856490 
# 
# From -- ./inp_files/38538.got.cif
#   From: 2010.06.25/outbox.cif.g09.slc.cpg/sg13_20_cif.got.tgz:38538.got - 2010.06.28 04:50:58.
