data_PCOD8122750
_publ_section_title
;
Structure prediction by ZEFSAII (Michael W. Deem and Ramdas Pophale) SiO2 
 PCOD8122750
Probable space group: P 2/C
;
_chemical_formula_sum "Si O2"
_cell_formula_units_Z 24
_cell_length_a 11.409542
_cell_length_b 10.968706
_cell_length_c 11.495020
_cell_angle_alpha 90.000000
_cell_angle_beta 128.321578
_cell_angle_gamma 90.000000
_cell_volume 1128.625961
_symmetry_space_group_name_H-M "P 2/C"
_symmetry_group_IT_number 13
_symmetry_cell_setting 'monoclinic'
loop_
_space_group_symop_operation_xyz
x,y,z
-x,y,1/2-z
-x,-y,-z
x,-y,1/2+z
loop_
_atom_site_type_symbol
_atom_site_label
_atom_site_fract_x
_atom_site_fract_y
_atom_site_fract_z
Si Si1 0.108387 0.313360 0.959395
Si Si2 0.784743 0.635770 0.222083
Si Si3 0.537087 0.199880 0.502539
Si Si4 0.927967 0.029688 0.580905
Si Si5 0.375158 0.407212 0.268854
Si Si6 0.389099 0.027764 0.583975
O O1 0.166795 0.385979 0.881916
O O2 0.101832 0.171977 0.925886
O O3 0.938997 0.354038 0.891310
O O4 0.226934 0.339052 0.132752
O O5 0.679827 0.528148 0.201714
O O6 0.683083 0.759001 0.166971
O O7 0.453370 0.320414 0.409773
O O8 0.418578 0.115001 0.493861
O O9 0.592387 0.116828 0.429542
O O10 0.000000 0.988072 0.750000
O O11 0.778353 0.950670 0.478488
O O12 0.000000 0.000000 0.500000
O O13 0.500000 0.441419 0.250000
O O14 0.500000 0.072957 0.750000
#
# Coordination Sequence:
#
# PCOD8122750 Si02
#       6
#     4   4   4   4   4   4
#     4  11  23  45  70  94 139 187 226 284 362 413
#     4  11  23  44  66  96 130 182 230 281 348 419
#     4  11  23  43  69  97 138 172 232 285 355 414
#     4  12  26  46  75 104 145 189 234 288 358 426
#     4  12  24  42  70  98 132 182 232 289 348 422
#     4  11  25  42  69 103 136 182 232 290 351 423
#
# _framework density 21.264796
#
# number of rings (size 3 to 8) (size 9 to 14) (size 15 to 20)
#    0.000    0.667    5.000    2.500    9.333    0.667 
#    0.000    3.333    0.000    0.000    0.000    0.000 
#    0.000    0.000    0.000    0.000    0.000    0.000 
#
# Total GULP energy -297416.388284 kJ/mol
# GULP energy per Si atom -12392.349512 kJ/mol
# Density = 2.121640 g / cm^3
# Si number density = 21.264796 Si / 1000 Ang^3
#
#
#
# Elastic Constant Matrix: (Units=GPa)
#
#
# Indices 1 2 3 4 5 6 
#
# 1 149.4434 52.4214 64.6681 0.0000 19.6072 0.0000
# 2 52.4214 76.2143 22.3711 0.0000 4.4479 0.0000
# 3 64.6681 22.3711 120.3177 0.0000 12.2431 0.0000
# 4 0.0000 0.0000 0.0000 15.3311 0.0000 -7.7596
# 5 19.6072 4.4479 12.2431 0.0000 35.8621 0.0000
# 6 0.0000 0.0000 0.0000 -7.7596 0.0000 9.1166
#
#
#
# Elastic Compliance Matrix: (Units=1/GPa)
#
#
# Indices 1 2 3 4 5 6 
#
# 1 0.011364 -0.006254 -0.004550 0.000000 -0.003884 0.000000
# 2 -0.006254 0.017346 0.000007 0.000000 0.001265 0.000000
# 3 -0.004550 0.000007 0.010880 0.000000 -0.001228 0.000000
# 4 0.000000 0.000000 0.000000 0.114593 0.000000 0.097536
# 5 -0.003884 0.001265 -0.001228 0.000000 0.030270 0.000000
# 6 0.000000 0.000000 0.000000 0.097536 0.000000 0.192707
#
#
# Mechanical properties :
#
#
# Convention : Reuss Voigt Hill
#
# Bulk Modulus (GPa) = 55.56245 69.43296 62.49770
# Shear Modulus (GPa) = 12.35323 25.82962 19.09142
#
# Velocity S-wave (km/s) = 2.41285 3.48899 2.99957
# Velocity P-wave (km/s) = 5.82649 6.99666 6.43821
#
# Compressibility (1/GPa) = 0.01799777
#
# Stress axis : x y z
#
# Youngs Moduli (GPa) = 88.00056 57.64864 91.90971
#
# Poissons Ratio (x) = 0.36053 0.41815
# Poissons Ratio (y) = 0.55035 -0.00067
# Poissons Ratio (z) = 0.40037 -0.00042
#
# Static dielectric constant tensor:
#      x y z
#    x 4.105770 0.000000 0.480450 
#    y 0.000000 3.655290 0.000000 
#    z 0.480450 0.000000 3.704430 
# 
# 
# High freq. dielectric constant tensor:
#      x y z
#    x 1.844150 0.000000 0.022130 
#    y 0.000000 1.821440 0.000000 
#    z 0.022130 0.000000 1.840230 
# 
# From -- ./inp_files/33936.got.cif
#   From: 2010.06.25/outbox.cif.g09.slc.cpg/sg13_17_cif.got.tgz:33936.got - 2010.06.28 04:50:58.
