data_PCOD8122454
_publ_section_title
;
Structure prediction by ZEFSAII (Michael W. Deem and Ramdas Pophale) SiO2 
 PCOD8122454
Probable space group: P 2/C
;
_chemical_formula_sum "Si O2"
_cell_formula_units_Z 24
_cell_length_a 9.216148
_cell_length_b 8.744052
_cell_length_c 15.218304
_cell_angle_alpha 90.000000
_cell_angle_beta 87.100544
_cell_angle_gamma 90.000000
_cell_volume 1224.819533
_symmetry_space_group_name_H-M "P 2/C"
_symmetry_group_IT_number 13
_symmetry_cell_setting 'monoclinic'
loop_
_space_group_symop_operation_xyz
x,y,z
-x,y,1/2-z
-x,-y,-z
x,-y,1/2+z
loop_
_atom_site_type_symbol
_atom_site_label
_atom_site_fract_x
_atom_site_fract_y
_atom_site_fract_z
Si Si1 0.239828 0.704559 0.935210
Si Si2 0.886877 0.053040 0.180915
Si Si3 0.028229 0.219032 0.590729
Si Si4 0.282225 0.802139 0.212524
Si Si5 0.483237 0.162091 0.547114
Si Si6 0.276367 0.639019 0.380201
O O1 0.211206 0.809208 0.851552
O O2 0.283758 0.537261 0.903270
O O3 0.092725 0.732975 0.994939
O O4 0.378654 0.745644 0.987488
O O5 0.000000 0.115850 0.250000
O O6 0.766795 0.943959 0.227000
O O7 0.977548 0.959434 0.102670
O O8 0.146489 0.259462 0.660981
O O9 0.892444 0.325461 0.610363
O O10 0.413662 0.855223 0.146134
O O11 0.332813 0.668715 0.278617
O O12 0.634015 0.255283 0.553064
O O13 0.500000 0.000000 0.500000
#
# Coordination Sequence:
#
# PCOD8122454 Si02
#       6
#     4   4   4   4   4   4
#     4  11  22  36  56  87 117 145 185 236 287 338
#     4   9  18  34  59  87 112 146 195 236 273 331
#     4   9  19  37  59  81 112 152 190 228 276 337
#     4   9  20  39  59  81 110 149 190 233 281 335
#     4  11  23  40  60  79 110 154 197 234 278 341
#     4  11  21  36  57  85 117 148 183 233 293 344
#
# _framework density 19.594725
#
# number of rings (size 3 to 8) (size 9 to 14) (size 15 to 20)
#    0.000    2.000    0.000    5.500    0.000    4.000 
#    0.000    6.667    0.000    0.000    0.000    0.000 
#    0.000    0.000    0.000    0.000    0.000    0.000 
#
# Total GULP energy -297437.113383 kJ/mol
# GULP energy per Si atom -12393.213058 kJ/mol
# Density = 1.955013 g / cm^3
# Si number density = 19.594725 Si / 1000 Ang^3
#
#
#
# Elastic Constant Matrix: (Units=GPa)
#
#
# Indices 1 2 3 4 5 6 
#
# 1 72.2926 36.2335 37.1309 0.0000 -12.4358 0.0000
# 2 36.2335 137.3086 71.7684 0.0000 -5.8112 0.0000
# 3 37.1309 71.7684 111.5387 0.0000 -8.4526 0.0000
# 4 0.0000 0.0000 0.0000 25.1753 0.0000 7.5765
# 5 -12.4358 -5.8112 -8.4526 0.0000 22.9675 0.0000
# 6 0.0000 0.0000 0.0000 7.5765 0.0000 27.5779
#
#
#
# Elastic Compliance Matrix: (Units=1/GPa)
#
#
# Indices 1 2 3 4 5 6 
#
# 1 0.018465 -0.002468 -0.003959 0.000000 0.007916 0.000000
# 2 -0.002468 0.011304 -0.006518 0.000000 -0.000875 0.000000
# 3 -0.003959 -0.006518 0.014597 0.000000 0.001579 0.000000
# 4 0.000000 0.000000 0.000000 0.043302 0.000000 -0.011896
# 5 0.007916 -0.000875 0.001579 0.000000 0.048186 0.000000
# 6 0.000000 0.000000 0.000000 -0.011896 0.000000 0.039529
#
#
# Mechanical properties :
#
#
# Convention : Reuss Voigt Hill
#
# Bulk Modulus (GPa) = 54.12550 67.93393 61.02971
# Shear Modulus (GPa) = 24.10432 26.87794 25.49113
#
# Velocity S-wave (km/s) = 3.51114 3.70766 3.61074
# Velocity P-wave (km/s) = 6.64229 7.28517 6.97114
#
# Compressibility (1/GPa) = 0.01847558
#
# Stress axis : x y z
#
# Youngs Moduli (GPa) = 54.15680 88.46371 68.50707
#
# Poissons Ratio (x) = 0.21836 0.27120
# Poissons Ratio (y) = 0.13368 0.44654
# Poissons Ratio (z) = 0.21439 0.57661
#
# Static dielectric constant tensor:
#      x y z
#    x 3.964480 0.000000 -0.094510 
#    y 0.000000 3.390820 0.000000 
#    z -0.094510 0.000000 4.035320 
# 
# 
# High freq. dielectric constant tensor:
#      x y z
#    x 1.776620 0.000000 0.013360 
#    y 0.000000 1.741220 0.000000 
#    z 0.013360 0.000000 1.769540 
# 
# From -- ./inp_files/46135.got.cif
#   From: 2010.06.25/outbox.cif.g09.slc.cpg/sg13_24_cif.got.tgz:46135.got - 2010.06.28 04:50:58.
