data_PCOD8122802
_publ_section_title
;
Structure prediction by ZEFSAII (Michael W. Deem and Ramdas Pophale) SiO2 
 PCOD8122802
Probable space group: P 2/C
;
_chemical_formula_sum "Si O2"
_cell_formula_units_Z 26
_cell_length_a 16.062435
_cell_length_b 9.689833
_cell_length_c 20.908268
_cell_angle_alpha 90.000000
_cell_angle_beta 158.337594
_cell_angle_gamma 90.000000
_cell_volume 1201.249877
_symmetry_space_group_name_H-M "P 2/C"
_symmetry_group_IT_number 13
_symmetry_cell_setting 'monoclinic'
loop_
_space_group_symop_operation_xyz
x,y,z
-x,y,1/2-z
-x,-y,-z
x,-y,1/2+z
loop_
_atom_site_type_symbol
_atom_site_label
_atom_site_fract_x
_atom_site_fract_y
_atom_site_fract_z
Si Si1 0.892397 0.643812 0.400796
Si Si2 0.000000 0.037698 0.750000
Si Si3 0.120099 0.746301 0.433594
Si Si4 0.700955 0.903561 0.623849
Si Si5 0.500000 0.921489 0.750000
Si Si6 0.435863 0.389355 0.506343
Si Si7 0.914448 0.091179 0.996142
Si Si8 0.000000 0.519259 0.250000
O O1 0.632917 0.616261 0.199043
O O2 0.893088 0.749349 0.460441
O O3 0.000000 0.500000 0.500000
O O4 0.026251 0.714276 0.437236
O O5 0.980184 0.133566 0.798787
O O6 0.216712 0.939282 0.890595
O O7 0.370790 0.812067 0.611941
O O8 0.107892 0.607762 0.384072
O O9 0.591171 0.753873 0.549283
O O10 0.917548 0.915399 0.824317
O O11 0.500000 0.000000 0.500000
O O12 0.326210 0.024076 0.659716
O O13 0.500000 0.500000 0.500000
O O14 0.198540 0.422166 0.368667
O O15 0.000000 0.000000 0.000000
#
# Coordination Sequence:
#
# PCOD8122802 Si02
#       8
#     4   2   4   4   2   4   4   2
#     4  12  27  51  73 107 151 195 245 306 379 440
#     4  11  23  46  72 104 144 180 248 302 354 430
#     4  11  25  46  73 108 141 195 238 303 370 435
#     4  12  27  44  76 106 144 191 246 300 362 433
#     4  12  26  44  74 108 154 184 244 296 378 430
#     4  12  26  47  74 105 147 196 247 304 364 440
#     4  12  26  46  72 108 148 190 243 299 369 437
#     4  11  27  46  74 104 150 186 256 294 368 440
#
# _framework density 21.644121999999999
#
# number of rings (size 3 to 8) (size 9 to 14) (size 15 to 20)
#    0.000    0.308    4.615    3.231    8.615    1.231 
#    0.000    0.000    0.000    0.000    0.000    0.000 
#    0.000    0.000    0.000    0.000    0.000    0.000 
#
# Total GULP energy -322264.234571 kJ/mol
# GULP energy per Si atom -12394.778253 kJ/mol
# Density = 2.159486 g / cm^3
# Si number density = 21.644122 Si / 1000 Ang^3
#
#
#
# Elastic Constant Matrix: (Units=GPa)
#
#
# Indices 1 2 3 4 5 6 
#
# 1 117.7158 67.2324 60.4115 0.0000 21.3451 0.0000
# 2 67.2324 175.1051 78.9646 0.0000 11.6778 0.0000
# 3 60.4115 78.9646 156.6741 0.0000 18.2208 0.0000
# 4 0.0000 0.0000 0.0000 49.9388 0.0000 3.2000
# 5 21.3451 11.6778 18.2208 0.0000 41.1013 0.0000
# 6 0.0000 0.0000 0.0000 3.2000 0.0000 37.8425
#
#
#
# Elastic Compliance Matrix: (Units=1/GPa)
#
#
# Indices 1 2 3 4 5 6 
#
# 1 0.012556 -0.003332 -0.002650 0.000000 -0.004399 0.000000
# 2 -0.003332 0.008284 -0.002971 0.000000 0.000694 0.000000
# 3 -0.002650 -0.002971 0.009114 0.000000 -0.001820 0.000000
# 4 0.000000 0.000000 0.000000 0.020134 0.000000 -0.001703
# 5 -0.004399 0.000694 -0.001820 0.000000 0.027224 0.000000
# 6 0.000000 0.000000 0.000000 -0.001703 0.000000 0.026569
#
#
# Mechanical properties :
#
#
# Convention : Reuss Voigt Hill
#
# Bulk Modulus (GPa) = 83.01324 95.85689 89.43506
# Shear Modulus (GPa) = 39.74463 41.96897 40.85680
#
# Velocity S-wave (km/s) = 4.28983 4.40824 4.34944
# Velocity P-wave (km/s) = 7.93561 8.38415 8.16296
#
# Compressibility (1/GPa) = 0.01204627
#
# Stress axis : x y z
#
# Youngs Moduli (GPa) = 79.64238 120.71758 109.72668
#
# Poissons Ratio (x) = 0.40228 0.29081
# Poissons Ratio (y) = 0.26540 0.32598
# Poissons Ratio (z) = 0.21108 0.35863
#
# Static dielectric constant tensor:
#      x y z
#    x 4.359200 0.000000 -0.208200 
#    y 0.000000 5.347550 0.000000 
#    z -0.208200 0.000000 4.065900 
# 
# 
# High freq. dielectric constant tensor:
#      x y z
#    x 1.850410 0.000000 0.004700 
#    y 0.000000 1.876540 0.000000 
#    z 0.004700 0.000000 1.859250 
# 
# From -- ./inp_files/88085.got.cif
#   From: 2010.06.25/outbox.cif.g09.slc.cpg/sg13_45_cif.got.tgz:88085.got - 2010.06.28 04:50:58.
