data_PCOD8122273
_publ_section_title
;
Structure prediction by ZEFSAII (Michael W. Deem and Ramdas Pophale) SiO2 
 PCOD8122273
Probable space group: P 2/C
;
_chemical_formula_sum "Si O2"
_cell_formula_units_Z 20
_cell_length_a 5.081067
_cell_length_b 10.052481
_cell_length_c 20.546901
_cell_angle_alpha 90.000000
_cell_angle_beta 56.743709
_cell_angle_gamma 90.000000
_cell_volume 877.603105
_symmetry_space_group_name_H-M "P 2/C"
_symmetry_group_IT_number 13
_symmetry_cell_setting 'monoclinic'
loop_
_space_group_symop_operation_xyz
x,y,z
-x,y,1/2-z
-x,-y,-z
x,-y,1/2+z
loop_
_atom_site_type_symbol
_atom_site_label
_atom_site_fract_x
_atom_site_fract_y
_atom_site_fract_z
Si Si1 0.196364 0.999811 0.157260
Si Si2 0.136561 0.096491 0.427049
Si Si3 0.369817 0.701172 0.118669
Si Si4 0.782002 0.442795 0.669126
Si Si5 0.885814 0.383957 0.468761
O O1 0.486125 0.099346 0.127167
O O2 0.000000 0.989365 0.250000
O O3 0.985420 0.053596 0.127290
O O4 0.355371 0.859072 0.118439
O O5 0.049372 0.244160 0.460915
O O6 0.000000 0.000000 0.500000
O O7 0.625469 0.652848 0.136604
O O8 0.016744 0.649131 0.179539
O O9 0.508723 0.642511 0.030562
O O10 0.500000 0.503203 0.750000
O O11 0.001120 0.566500 0.617378
O O12 0.000000 0.500000 0.500000
#
# Coordination Sequence:
#
# PCOD8122273 Si02
#       5
#     4   4   4   4   4
#     4  12  26  44  73 106 144 186 236 296 359 414
#     4  12  26  47  72 103 142 186 235 292 351 423
#     4  11  23  43  69  99 137 184 235 282 347 424
#     4  11  23  40  65  99 140 178 229 292 353 411
#     4  10  25  45  71 101 137 187 235 284 347 422
#
# _framework density 22.789346999999999
#
# number of rings (size 3 to 8) (size 9 to 14) (size 15 to 20)
#    0.000    0.800    2.000    4.800    2.800    4.800 
#    0.000    0.000    0.000    0.000    0.000    0.000 
#    0.000    0.000    0.000    0.000    0.000    0.000 
#
# Total GULP energy -247904.066638 kJ/mol
# GULP energy per Si atom -12395.203332 kJ/mol
# Density = 2.273748 g / cm^3
# Si number density = 22.789347 Si / 1000 Ang^3
#
#
#
# Elastic Constant Matrix: (Units=GPa)
#
#
# Indices 1 2 3 4 5 6 
#
# 1 113.0969 17.3874 36.3118 0.0000 -4.8817 0.0000
# 2 17.3874 125.1340 42.5788 0.0000 4.3184 0.0000
# 3 36.3118 42.5788 145.3490 0.0000 -16.8392 0.0000
# 4 0.0000 0.0000 0.0000 32.4920 0.0000 -12.1942
# 5 -4.8817 4.3184 -16.8392 0.0000 43.6019 0.0000
# 6 0.0000 0.0000 0.0000 -12.1942 0.0000 20.5852
#
#
#
# Elastic Compliance Matrix: (Units=1/GPa)
#
#
# Indices 1 2 3 4 5 6 
#
# 1 0.009654 -0.000602 -0.002202 0.000000 0.000290 0.000000
# 2 -0.000602 0.009079 -0.002744 0.000000 -0.002026 0.000000
# 3 -0.002202 -0.002744 0.008623 0.000000 0.003355 0.000000
# 4 0.000000 0.000000 0.000000 0.039575 0.000000 0.023443
# 5 0.000290 -0.002026 0.003355 0.000000 0.024464 0.000000
# 6 0.000000 0.000000 0.000000 0.023443 0.000000 0.062466
#
#
# Mechanical properties :
#
#
# Convention : Reuss Voigt Hill
#
# Bulk Modulus (GPa) = 61.50229 64.01510 62.75870
# Shear Modulus (GPa) = 29.34699 38.48929 33.91814
#
# Velocity S-wave (km/s) = 3.59242 4.11410 3.86208
# Velocity P-wave (km/s) = 6.65231 7.12170 6.89100
#
# Compressibility (1/GPa) = 0.01625956
#
# Stress axis : x y z
#
# Youngs Moduli (GPa) = 103.58392 110.14834 115.97502
#
# Poissons Ratio (x) = 0.06634 0.25535
# Poissons Ratio (y) = 0.06238 0.31821
# Poissons Ratio (z) = 0.22807 0.30223
#
# Static dielectric constant tensor:
#      x y z
#    x 4.079280 0.000000 -0.221230 
#    y 0.000000 4.268750 0.000000 
#    z -0.221230 0.000000 4.819640 
# 
# 
# High freq. dielectric constant tensor:
#      x y z
#    x 1.895870 0.000000 -0.019210 
#    y 0.000000 1.901080 0.000000 
#    z -0.019210 0.000000 1.919300 
# 
# From -- ./inp_files/72931.got.cif
#   From: 2010.06.25/outbox.cif.g09.slc.cpg/sg13_37_cif.got.tgz:72931.got - 2010.06.28 04:50:58.
