data_PCOD8122032
_publ_section_title
;
Structure prediction by ZEFSAII (Michael W. Deem and Ramdas Pophale) SiO2 
 PCOD8122032
Probable space group: P 2/C
;
_chemical_formula_sum "Si O2"
_cell_formula_units_Z 24
_cell_length_a 19.436124
_cell_length_b 12.227739
_cell_length_c 14.736431
_cell_angle_alpha 90.000000
_cell_angle_beta 19.643319
_cell_angle_gamma 90.000000
_cell_volume 1177.332096
_symmetry_space_group_name_H-M "P 2/C"
_symmetry_group_IT_number 13
_symmetry_cell_setting 'monoclinic'
loop_
_space_group_symop_operation_xyz
x,y,z
-x,y,1/2-z
-x,-y,-z
x,-y,1/2+z
loop_
_atom_site_type_symbol
_atom_site_label
_atom_site_fract_x
_atom_site_fract_y
_atom_site_fract_z
Si Si1 0.577037 0.249960 0.054142
Si Si2 0.402821 0.381592 0.116707
Si Si3 0.033591 0.272467 0.515691
Si Si4 0.576077 0.218144 0.557611
Si Si5 0.328567 0.011118 0.592725
Si Si6 0.990888 0.950190 0.367039
O O1 0.430294 0.326799 0.179492
O O2 0.548095 0.124958 0.056849
O O3 0.808941 0.296746 0.756259
O O4 0.500000 0.263173 0.250000
O O5 0.517125 0.304959 0.899312
O O6 0.500000 0.500000 0.000000
O O7 0.156107 0.379936 0.401936
O O8 0.018962 0.181628 0.613300
O O9 0.173792 0.222270 0.259728
O O10 0.500000 0.255504 0.750000
O O11 0.515452 0.092054 0.609712
O O12 0.191301 0.010069 0.672144
O O13 0.204764 0.004445 0.840951
O O14 0.000000 0.984853 0.250000
#
# Coordination Sequence:
#
# PCOD8122032 Si02
#       6
#     4   4   4   4   4   4
#     4  11  23  38  66  94 124 165 210 247 316 381
#     4  10  24  42  62  88 119 159 218 259 308 369
#     4   8  21  39  60  88 128 151 203 265 294 359
#     4   9  19  39  62  84 130 163 195 263 312 363
#     4   9  19  33  54  98 125 160 205 246 303 381
#     4   9  17  32  58  87 132 169 196 242 314 372
#
# _framework density 20.385072999999998
#
# number of rings (size 3 to 8) (size 9 to 14) (size 15 to 20)
#    1.000    1.667    0.000    1.500    4.667    3.333 
#    0.000    0.833    3.667    0.000    0.000    0.000 
#    0.000    0.000    0.000    0.000    0.000    0.000 
#
# Total GULP energy -297317.698091 kJ/mol
# GULP energy per Si atom -12388.237420 kJ/mol
# Density = 2.033868 g / cm^3
# Si number density = 20.385073 Si / 1000 Ang^3
#
#
#
# Elastic Constant Matrix: (Units=GPa)
#
#
# Indices 1 2 3 4 5 6 
#
# 1 85.2719 38.9722 29.1261 0.0000 30.6577 0.0000
# 2 38.9722 129.8060 15.9888 0.0000 1.4539 0.0000
# 3 29.1261 15.9888 60.8120 0.0000 16.3017 0.0000
# 4 0.0000 0.0000 0.0000 14.2802 0.0000 -10.5834
# 5 30.6577 1.4539 16.3017 0.0000 41.8034 0.0000
# 6 0.0000 0.0000 0.0000 -10.5834 0.0000 26.7426
#
#
#
# Elastic Compliance Matrix: (Units=1/GPa)
#
#
# Indices 1 2 3 4 5 6 
#
# 1 0.020548 -0.005415 -0.004946 0.000000 -0.012953 0.000000
# 2 -0.005415 0.009402 -0.000955 0.000000 0.004017 0.000000
# 3 -0.004946 -0.000955 0.020194 0.000000 -0.004215 0.000000
# 4 0.000000 0.000000 0.000000 0.099090 0.000000 0.039215
# 5 -0.012953 0.004017 -0.004215 0.000000 0.034924 0.000000
# 6 0.000000 0.000000 0.000000 0.039215 0.000000 0.052913
#
#
# Mechanical properties :
#
#
# Convention : Reuss Voigt Hill
#
# Bulk Modulus (GPa) = 36.34747 49.34046 42.84397
# Shear Modulus (GPa) = 18.59609 29.35211 23.97410
#
# Velocity S-wave (km/s) = 3.02361 3.79870 3.43310
# Velocity P-wave (km/s) = 5.48259 6.59522 6.06447
#
# Compressibility (1/GPa) = 0.02751223
#
# Stress axis : x y z
#
# Youngs Moduli (GPa) = 48.66627 106.35768 49.52010
#
# Poissons Ratio (x) = 0.57592 0.24491
# Poissons Ratio (y) = 0.26353 0.04731
# Poissons Ratio (z) = 0.24069 0.10160
#
# Static dielectric constant tensor:
#      x y z
#    x 3.589330 0.000000 -0.077640 
#    y 0.000000 3.510940 0.000000 
#    z -0.077640 0.000000 3.673530 
# 
# 
# High freq. dielectric constant tensor:
#      x y z
#    x 1.787900 0.000000 0.008840 
#    y 0.000000 1.769840 0.000000 
#    z 0.008840 0.000000 1.783630 
# 
# From -- ./inp_files/57665.got.cif
#   From: 2010.06.25/outbox.cif.g09.slc.cpg/sg13_29_cif.got.tgz:57665.got - 2010.06.28 04:50:58.
