data_PCOD8122159
_publ_section_title
;
Structure prediction by ZEFSAII (Michael W. Deem and Ramdas Pophale) SiO2 
 PCOD8122159
Probable space group: P 2/C
;
_chemical_formula_sum "Si O2"
_cell_formula_units_Z 12
_cell_length_a 8.817068
_cell_length_b 7.906258
_cell_length_c 11.165506
_cell_angle_alpha 90.000000
_cell_angle_beta 43.516533
_cell_angle_gamma 90.000000
_cell_volume 535.942015
_symmetry_space_group_name_H-M "P 2/C"
_symmetry_group_IT_number 13
_symmetry_cell_setting 'monoclinic'
loop_
_space_group_symop_operation_xyz
x,y,z
-x,y,1/2-z
-x,-y,-z
x,-y,1/2+z
loop_
_atom_site_type_symbol
_atom_site_label
_atom_site_fract_x
_atom_site_fract_y
_atom_site_fract_z
Si Si1 0.706332 0.167040 0.202099
Si Si2 0.460764 0.682594 0.468895
Si Si3 0.191875 0.783438 0.398322
O O1 0.500000 0.250257 0.250000
O O2 0.643304 0.182384 0.378180
O O3 0.751253 0.981670 0.122784
O O4 0.934145 0.265910 0.047434
O O5 0.500000 0.500000 0.500000
O O6 0.301303 0.682030 0.445279
O O7 0.706588 0.733207 0.287569
#
# Coordination Sequence:
#
# PCOD8122159 Si02
#       3
#     4   4   4
#     4  11  23  43  72  97 132 174 226 278 327 394
#     4  11  24  44  67  97 139 175 219 276 335 399
#     4  10  24  45  68  98 132 176 231 270 327 398
#
# _framework density 22.390484000000001
#
# number of rings (size 3 to 8) (size 9 to 14) (size 15 to 20)
#    0.000    1.333    3.333    2.000    4.667    2.667 
#    6.000    0.000    0.000    0.000    0.000    0.000 
#    0.000    0.000    0.000    0.000    0.000    0.000 
#
# Total GULP energy -148708.927978 kJ/mol
# GULP energy per Si atom -12392.410665 kJ/mol
# Density = 2.233952 g / cm^3
# Si number density = 22.390484 Si / 1000 Ang^3
#
#
#
# Elastic Constant Matrix: (Units=GPa)
#
#
# Indices 1 2 3 4 5 6 
#
# 1 114.6823 39.1228 97.7083 0.0000 -32.0683 0.0000
# 2 39.1228 69.8103 26.3961 0.0000 -2.1674 0.0000
# 3 97.7083 26.3961 232.4500 0.0000 -27.1356 0.0000
# 4 0.0000 0.0000 0.0000 26.8620 0.0000 7.7630
# 5 -32.0683 -2.1674 -27.1356 0.0000 41.9305 0.0000
# 6 0.0000 0.0000 0.0000 7.7630 0.0000 36.5302
#
#
#
# Elastic Compliance Matrix: (Units=1/GPa)
#
#
# Indices 1 2 3 4 5 6 
#
# 1 0.019832 -0.008467 -0.006117 0.000000 0.010771 0.000000
# 2 -0.008467 0.018587 0.000870 0.000000 -0.004951 0.000000
# 3 -0.006117 0.000870 0.006743 0.000000 -0.000270 0.000000
# 4 0.000000 0.000000 0.000000 0.039663 0.000000 -0.008429
# 5 0.010771 -0.004951 -0.000270 0.000000 0.031656 0.000000
# 6 0.000000 0.000000 0.000000 -0.008429 0.000000 0.029166
#
#
# Mechanical properties :
#
#
# Convention : Reuss Voigt Hill
#
# Bulk Modulus (GPa) = 56.38873 82.59965 69.49419
# Shear Modulus (GPa) = 27.93532 37.97889 32.95710
#
# Velocity S-wave (km/s) = 3.53603 4.12297 3.84073
# Velocity P-wave (km/s) = 6.47381 7.72242 7.12552
#
# Compressibility (1/GPa) = 0.01773404
#
# Stress axis : x y z
#
# Youngs Moduli (GPa) = 50.42426 53.80228 148.30076
#
# Poissons Ratio (x) = 0.45552 0.90720
# Poissons Ratio (y) = 0.42692 -0.12906
# Poissons Ratio (z) = 0.30846 -0.04682
#
# Static dielectric constant tensor:
#      x y z
#    x 4.064600 0.000000 -0.274580 
#    y 0.000000 3.706320 0.000000 
#    z -0.274580 0.000000 4.881020 
# 
# 
# High freq. dielectric constant tensor:
#      x y z
#    x 1.875000 0.000000 -0.005730 
#    y 0.000000 1.861210 0.000000 
#    z -0.005730 0.000000 1.911800 
# 
# From -- ./inp_files/27201.got.cif
#   From: 2010.06.25/outbox.cif.g09.slc.cpg/sg13_14_cif.got.tgz:27201.got - 2010.06.28 04:50:58.
