data_PCOD8122203
_publ_section_title
;
Structure prediction by ZEFSAII (Michael W. Deem and Ramdas Pophale) SiO2 
 PCOD8122203
Probable space group: P 2/C
;
_chemical_formula_sum "Si O2"
_cell_formula_units_Z 20
_cell_length_a 11.795102
_cell_length_b 10.113570
_cell_length_c 11.287891
_cell_angle_alpha 90.000000
_cell_angle_beta 141.471423
_cell_angle_gamma 90.000000
_cell_volume 838.765843
_symmetry_space_group_name_H-M "P 2/C"
_symmetry_group_IT_number 13
_symmetry_cell_setting 'monoclinic'
loop_
_space_group_symop_operation_xyz
x,y,z
-x,y,1/2-z
-x,-y,-z
x,-y,1/2+z
loop_
_atom_site_type_symbol
_atom_site_label
_atom_site_fract_x
_atom_site_fract_y
_atom_site_fract_z
Si Si1 0.067690 0.145061 0.528789
Si Si2 0.702072 0.235914 0.161022
Si Si3 0.689636 0.761767 0.061766
Si Si4 0.607164 0.514262 0.461773
Si Si5 0.692990 0.966624 0.466519
O O1 0.216625 0.208024 0.736952
O O2 0.160119 0.125856 0.476906
O O3 0.894712 0.243895 0.386767
O O4 0.000000 0.000000 0.500000
O O5 0.531312 0.246377 0.110344
O O6 0.710278 0.346885 0.063859
O O7 0.683688 0.088463 0.092006
O O8 0.742280 0.613752 0.060354
O O9 0.747408 0.876930 0.016320
O O10 0.500000 0.525448 0.250000
O O11 0.500000 0.500000 0.500000
O O12 0.500000 0.949043 0.250000
#
# Coordination Sequence:
#
# PCOD8122203 Si02
#       5
#     4   4   4   4   4
#     4  12  25  41  67 104 140 177 239 291 350 422
#     4  11  23  43  70  99 137 184 234 289 353 422
#     4  11  24  45  69 101 139 183 233 297 354 418
#     4  10  24  46  73 103 141 185 237 292 353 424
#     4  12  22  40  70  96 135 183 232 289 352 415
#
# _framework density 23.844557999999999
#
# number of rings (size 3 to 8) (size 9 to 14) (size 15 to 20)
#    0.000    0.800    4.000    3.600    2.800    2.400 
#    0.000    0.000    8.800    0.000    0.000    0.000 
#    0.000    0.000    0.000    0.000    0.000    0.000 
#
# Total GULP energy -247779.387000 kJ/mol
# GULP energy per Si atom -12388.969350 kJ/mol
# Density = 2.379029 g / cm^3
# Si number density = 23.844558 Si / 1000 Ang^3
#
#
#
# Elastic Constant Matrix: (Units=GPa)
#
#
# Indices 1 2 3 4 5 6 
#
# 1 49.4822 7.1135 42.5674 0.0000 -4.7951 0.0000
# 2 7.1135 130.8341 41.2555 0.0000 8.3286 0.0000
# 3 42.5674 41.2555 124.7275 0.0000 10.1226 0.0000
# 4 0.0000 0.0000 0.0000 42.8674 0.0000 -12.0323
# 5 -4.7951 8.3286 10.1226 0.0000 23.2285 0.0000
# 6 0.0000 0.0000 0.0000 -12.0323 0.0000 25.4194
#
#
#
# Elastic Compliance Matrix: (Units=1/GPa)
#
#
# Indices 1 2 3 4 5 6 
#
# 1 0.031555 0.001395 -0.012149 0.000000 0.011308 0.000000
# 2 0.001395 0.008676 -0.003231 0.000000 -0.001415 0.000000
# 3 -0.012149 -0.003231 0.013831 0.000000 -0.007377 0.000000
# 4 0.000000 0.000000 0.000000 0.026902 0.000000 0.012734
# 5 0.011308 -0.001415 -0.007377 0.000000 0.049107 0.000000
# 6 0.000000 0.000000 0.000000 0.012734 0.000000 0.045368
#
#
# Mechanical properties :
#
#
# Convention : Reuss Voigt Hill
#
# Bulk Modulus (GPa) = 38.32331 54.10184 46.21257
# Shear Modulus (GPa) = 23.57311 32.57688 28.07499
#
# Velocity S-wave (km/s) = 3.14764 3.70025 3.43507
# Velocity P-wave (km/s) = 5.41454 6.40269 5.92923
#
# Compressibility (1/GPa) = 0.02609378
#
# Stress axis : x y z
#
# Youngs Moduli (GPa) = 31.69029 115.25583 72.30131
#
# Poissons Ratio (x) = -0.16081 0.87836
# Poissons Ratio (y) = -0.04422 0.23362
# Poissons Ratio (z) = 0.38499 0.37241
#
# Static dielectric constant tensor:
#      x y z
#    x 3.208920 0.000000 0.110760 
#    y 0.000000 5.134650 0.000000 
#    z 0.110760 0.000000 5.598190 
# 
# 
# High freq. dielectric constant tensor:
#      x y z
#    x 1.918630 0.000000 -0.013810 
#    y 0.000000 1.961500 0.000000 
#    z -0.013810 0.000000 1.949120 
# 
# From -- ./inp_files/34014.got.cif
#   From: 2010.06.25/outbox.cif.g09.slc.cpg/sg13_18_cif.got.tgz:34014.got - 2010.06.28 04:50:58.
