data_PCOD8122039
_publ_section_title
;
Structure prediction by ZEFSAII (Michael W. Deem and Ramdas Pophale) SiO2 
 PCOD8122039
Probable space group: P 2/C
;
_chemical_formula_sum "Si O2"
_cell_formula_units_Z 18
_cell_length_a 6.785313
_cell_length_b 18.430088
_cell_length_c 9.415457
_cell_angle_alpha 90.000000
_cell_angle_beta 132.799992
_cell_angle_gamma 90.000000
_cell_volume 863.922832
_symmetry_space_group_name_H-M "P 2/C"
_symmetry_group_IT_number 13
_symmetry_cell_setting 'monoclinic'
loop_
_space_group_symop_operation_xyz
x,y,z
-x,y,1/2-z
-x,-y,-z
x,-y,1/2+z
loop_
_atom_site_type_symbol
_atom_site_label
_atom_site_fract_x
_atom_site_fract_y
_atom_site_fract_z
Si Si1 0.692315 0.431384 0.595196
Si Si2 0.500000 0.333758 0.250000
Si Si3 0.203888 0.904797 0.597156
Si Si4 0.500000 0.331014 0.750000
Si Si5 0.000813 0.762018 0.590050
Si Si6 0.000000 0.000755 0.750000
O O1 0.500000 0.500000 0.500000
O O2 0.644252 0.384339 0.433545
O O3 0.636292 0.381681 0.701778
O O4 0.000000 0.458782 0.750000
O O5 0.734722 0.286132 0.298199
O O6 0.500000 0.871840 0.750000
O O7 0.005268 0.835258 0.496699
O O8 0.183938 0.949042 0.440608
O O9 0.170241 0.953420 0.722263
O O10 0.269228 0.281059 0.573036
O O11 0.000000 0.789619 0.750000
#
# Coordination Sequence:
#
# PCOD8122039 Si02
#       6
#     4   2   4   2   4   2
#     4  12  28  45  70 102 137 179 224 274 337 405
#     4  12  25  46  72  95 138 176 224 282 338 397
#     4  11  23  43  68  98 135 178 226 275 337 397
#     4  12  27  46  70 101 136 174 228 278 336 403
#     4  12  25  44  71 100 135 177 227 284 339 397
#     4  10  24  42  64 100 138 178 222 276 334 402
#
# _framework density 20.835194999999999
#
# number of rings (size 3 to 8) (size 9 to 14) (size 15 to 20)
#    0.000    0.444    6.667    1.333    3.111    5.333 
#    8.000    0.000    0.000    0.000    0.000    0.000 
#    0.000    0.000    0.000    0.000    0.000    0.000 
#
# Total GULP energy -223193.613367 kJ/mol
# GULP energy per Si atom -12399.645187 kJ/mol
# Density = 2.078777 g / cm^3
# Si number density = 20.835195 Si / 1000 Ang^3
#
#
#
# Elastic Constant Matrix: (Units=GPa)
#
#
# Indices 1 2 3 4 5 6 
#
# 1 104.2860 43.3428 54.6455 0.0000 13.9418 0.0000
# 2 43.3428 123.6390 43.9795 0.0000 6.9192 0.0000
# 3 54.6455 43.9795 108.1351 0.0000 0.3734 0.0000
# 4 0.0000 0.0000 0.0000 33.6097 0.0000 -2.5673
# 5 13.9418 6.9192 0.3734 0.0000 51.4086 0.0000
# 6 0.0000 0.0000 0.0000 -2.5673 0.0000 32.0339
#
#
#
# Elastic Compliance Matrix: (Units=1/GPa)
#
#
# Indices 1 2 3 4 5 6 
#
# 1 0.014402 -0.002652 -0.006187 0.000000 -0.003504 0.000000
# 2 -0.002652 0.010025 -0.002735 0.000000 -0.000610 0.000000
# 3 -0.006187 -0.002735 0.013480 0.000000 0.001948 0.000000
# 4 0.000000 0.000000 0.000000 0.029937 0.000000 0.002399
# 5 -0.003504 -0.000610 0.001948 0.000000 0.020470 0.000000
# 6 0.000000 0.000000 0.000000 0.002399 0.000000 0.031409
#
#
# Mechanical properties :
#
#
# Convention : Reuss Voigt Hill
#
# Bulk Modulus (GPa) = 67.75776 68.88842 68.32309
# Shear Modulus (GPa) = 33.83191 36.34991 35.09091
#
# Velocity S-wave (km/s) = 4.03399 4.18142 4.10837
# Velocity P-wave (km/s) = 7.36810 7.51316 7.44099
#
# Compressibility (1/GPa) = 0.01475846
#
# Stress axis : x y z
#
# Youngs Moduli (GPa) = 69.43680 99.75412 74.18406
#
# Poissons Ratio (x) = 0.26452 0.45899
# Poissons Ratio (y) = 0.18412 0.20289
# Poissons Ratio (z) = 0.42962 0.27283
#
# Static dielectric constant tensor:
#      x y z
#    x 3.982100 0.000000 -0.091220 
#    y 0.000000 3.884850 0.000000 
#    z -0.091220 0.000000 3.847110 
# 
# 
# High freq. dielectric constant tensor:
#      x y z
#    x 1.832770 0.000000 -0.004880 
#    y 0.000000 1.831190 0.000000 
#    z -0.004880 0.000000 1.819700 
# 
# From -- ./inp_files/9371.got.cif
#   From: 2010.06.25/outbox.cif.g09.slc.cpg/sg13_5_cif.got.tgz:9371.got - 2010.06.28 04:50:58.
