data_PCOD8122966
_publ_section_title
;
Structure prediction by ZEFSAII (Michael W. Deem and Ramdas Pophale) SiO2 
 PCOD8122966
Probable space group: P 2/C
;
_chemical_formula_sum "Si O2"
_cell_formula_units_Z 18
_cell_length_a 16.214431
_cell_length_b 5.336848
_cell_length_c 15.821389
_cell_angle_alpha 90.000000
_cell_angle_beta 33.931007
_cell_angle_gamma 90.000000
_cell_volume 764.216626
_symmetry_space_group_name_H-M "P 2/C"
_symmetry_group_IT_number 13
_symmetry_cell_setting 'monoclinic'
loop_
_space_group_symop_operation_xyz
x,y,z
-x,y,1/2-z
-x,-y,-z
x,-y,1/2+z
loop_
_atom_site_type_symbol
_atom_site_label
_atom_site_fract_x
_atom_site_fract_y
_atom_site_fract_z
Si Si1 0.965325 0.310727 0.377773
Si Si2 0.212639 0.807641 0.934080
Si Si3 0.466409 0.797722 0.099165
Si Si4 0.269547 0.395075 0.212943
Si Si5 0.500000 0.030618 0.250000
O O1 0.861561 0.542056 0.487517
O O2 0.000000 0.304544 0.250000
O O3 0.109725 0.368835 0.309168
O O4 0.896770 0.042202 0.460778
O O5 0.279007 0.813225 0.781212
O O6 0.348901 0.809748 0.884920
O O7 0.305392 0.666597 0.224267
O O8 0.478238 0.864846 0.186324
O O9 0.606619 0.615057 0.965311
O O10 0.500000 0.000000 0.000000
#
# Coordination Sequence:
#
# PCOD8122966 Si02
#       5
#     4   4   4   4   2
#     4  12  28  47  75 109 151 198 255 309 380 448
#     4  12  27  46  75 108 147 205 243 318 372 451
#     4  11  25  47  76 111 148 203 242 319 366 452
#     4  11  26  46  75 109 153 193 259 303 384 444
#     4  12  26  48  78 106 154 188 268 294 392 442
#
# _framework density 23.553531
#
# number of rings (size 3 to 8) (size 9 to 14) (size 15 to 20)
#    0.000    0.444    2.222    4.667    6.222    3.556 
#    0.000    0.000    0.000    0.000    0.000    0.000 
#    0.000    0.000    0.000    0.000    0.000    0.000 
#
# Total GULP energy -223059.312269 kJ/mol
# GULP energy per Si atom -12392.184015 kJ/mol
# Density = 2.349992 g / cm^3
# Si number density = 23.553531 Si / 1000 Ang^3
#
#
#
# Elastic Constant Matrix: (Units=GPa)
#
#
# Indices 1 2 3 4 5 6 
#
# 1 196.2407 61.6339 56.1183 0.0000 -11.1296 0.0000
# 2 61.6339 124.3524 40.3572 0.0000 -2.5313 0.0000
# 3 56.1183 40.3572 96.9963 0.0000 0.7869 0.0000
# 4 0.0000 0.0000 0.0000 35.6071 0.0000 0.5319
# 5 -11.1296 -2.5313 0.7869 0.0000 59.2464 0.0000
# 6 0.0000 0.0000 0.0000 0.5319 0.0000 35.2341
#
#
#
# Elastic Compliance Matrix: (Units=1/GPa)
#
#
# Indices 1 2 3 4 5 6 
#
# 1 0.006745 -0.002369 -0.002927 0.000000 0.001205 0.000000
# 2 -0.002369 0.010141 -0.002849 0.000000 0.000026 0.000000
# 3 -0.002927 -0.002849 0.013195 0.000000 -0.000847 0.000000
# 4 0.000000 0.000000 0.000000 0.028091 0.000000 -0.000424
# 5 0.001205 0.000026 -0.000847 0.000000 0.017117 0.000000
# 6 0.000000 0.000000 0.000000 -0.000424 0.000000 0.028388
#
#
# Mechanical properties :
#
#
# Convention : Reuss Voigt Hill
#
# Bulk Modulus (GPa) = 72.50469 81.53425 77.01947
# Shear Modulus (GPa) = 40.14028 43.31618 41.72823
#
# Velocity S-wave (km/s) = 4.13269 4.29307 4.21364
# Velocity P-wave (km/s) = 7.32270 7.69842 7.51291
#
# Compressibility (1/GPa) = 0.01379221
#
# Stress axis : x y z
#
# Youngs Moduli (GPa) = 148.25848 98.61081 75.78542
#
# Poissons Ratio (x) = 0.23359 0.22179
# Poissons Ratio (y) = 0.35119 0.21592
# Poissons Ratio (z) = 0.43389 0.28095
#
# Static dielectric constant tensor:
#      x y z
#    x 4.597680 0.000000 0.201880 
#    y 0.000000 4.529720 0.000000 
#    z 0.201880 0.000000 5.656380 
# 
# 
# High freq. dielectric constant tensor:
#      x y z
#    x 1.941920 0.000000 -0.000770 
#    y 0.000000 1.942740 0.000000 
#    z -0.000770 0.000000 1.960020 
# 
# From -- ./inp_files/52003.got.cif
#   From: 2010.06.25/outbox.cif.g09.slc.cpg/sg13_27_cif.got.tgz:52003.got - 2010.06.28 04:50:58.
