data_PCOD8122450
_publ_section_title
;
Structure prediction by ZEFSAII (Michael W. Deem and Ramdas Pophale) SiO2 
 PCOD8122450
Probable space group: P 2/C
;
_chemical_formula_sum "Si O2"
_cell_formula_units_Z 32
_cell_length_a 22.006739
_cell_length_b 13.608200
_cell_length_c 10.088286
_cell_angle_alpha 90.000000
_cell_angle_beta 142.935656
_cell_angle_gamma 90.000000
_cell_volume 1820.888096
_symmetry_space_group_name_H-M "P 2/C"
_symmetry_group_IT_number 13
_symmetry_cell_setting 'monoclinic'
loop_
_space_group_symop_operation_xyz
x,y,z
-x,y,1/2-z
-x,-y,-z
x,-y,1/2+z
loop_
_atom_site_type_symbol
_atom_site_label
_atom_site_fract_x
_atom_site_fract_y
_atom_site_fract_z
Si Si1 0.433872 0.610090 0.515389
Si Si2 0.888899 0.296743 0.799439
Si Si3 0.204819 0.597148 0.128401
Si Si4 0.779957 0.633368 0.857159
Si Si5 0.881813 0.084839 0.893290
Si Si6 0.878841 0.077580 0.185899
Si Si7 0.552528 0.623342 0.471245
Si Si8 0.124385 0.293093 0.239823
O O1 0.317670 0.641438 0.326279
O O2 0.481431 0.657413 0.467095
O O3 0.441562 0.493425 0.526786
O O4 0.500000 0.653488 0.750000
O O5 0.845890 0.383530 0.817265
O O6 0.848652 0.308220 0.580451
O O7 0.851349 0.193794 0.794663
O O8 0.008584 0.302555 0.997367
O O9 0.204332 0.482234 0.097133
O O10 0.138820 0.648792 0.901258
O O11 0.664856 0.665061 0.683856
O O12 0.806647 0.661796 0.754119
O O13 0.836146 0.007826 0.707570
O O14 0.837681 0.063765 0.963811
O O15 0.001175 0.074538 0.107176
O O16 0.842180 0.180900 0.181000
O O17 0.500000 0.667659 0.250000
#
# Coordination Sequence:
#
# PCOD8122450 Si02
#       8
#     4   4   4   4   4   4   4   4
#     4   9  17  30  51  71  91 124 167 220 270 295
#     4  11  22  35  49  72 109 141 176 213 240 293
#     4  11  21  35  51  71 104 144 179 209 247 299
#     4  11  23  33  49  75 104 144 181 206 242 300
#     4   9  18  33  53  73  95 128 167 218 266 296
#     4   9  18  33  53  73  95 127 170 216 265 298
#     4   9  17  32  49  69  95 124 167 221 265 294
#     4  11  22  35  49  72 107 145 176 208 245 293
#
# _framework density 17.573841999999999
#
# number of rings (size 3 to 8) (size 9 to 14) (size 15 to 20)
#    0.000    2.000    1.250    3.000    1.750    7.000 
#    0.000    0.000    0.000    0.000    0.000    0.000 
#    0.000   20.000    0.000    0.000    0.000    0.000 
#
# Total GULP energy -396838.740464 kJ/mol
# GULP energy per Si atom -12401.210639 kJ/mol
# Density = 1.753384 g / cm^3
# Si number density = 17.573842 Si / 1000 Ang^3
#
#
#
# Elastic Constant Matrix: (Units=GPa)
#
#
# Indices 1 2 3 4 5 6 
#
# 1 78.6824 13.1859 24.5302 0.0000 -6.7857 0.0000
# 2 13.1859 63.0173 26.2437 0.0000 -2.0583 0.0000
# 3 24.5302 26.2437 84.2669 0.0000 -12.1516 0.0000
# 4 0.0000 0.0000 0.0000 9.6870 0.0000 -12.1627
# 5 -6.7857 -2.0583 -12.1516 0.0000 29.1783 0.0000
# 6 0.0000 0.0000 0.0000 -12.1627 0.0000 18.2595
#
#
#
# Elastic Compliance Matrix: (Units=1/GPa)
#
#
# Indices 1 2 3 4 5 6 
#
# 1 0.014174 -0.001489 -0.003407 0.000000 0.001772 0.000000
# 2 -0.001489 0.018426 -0.005498 0.000000 -0.001336 0.000000
# 3 -0.003407 -0.005498 0.015321 0.000000 0.005200 0.000000
# 4 0.000000 0.000000 0.000000 0.630733 0.000000 0.420133
# 5 0.001772 -0.001336 0.005200 0.000000 0.036756 0.000000
# 6 0.000000 0.000000 0.000000 0.420133 0.000000 0.334617
#
#
# Mechanical properties :
#
#
# Convention : Reuss Voigt Hill
#
# Bulk Modulus (GPa) = 36.85446 39.32068 38.08757
# Shear Modulus (GPa) = 4.63024 22.22542 13.42783
#
# Velocity S-wave (km/s) = 1.62495 3.56010 2.76720
# Velocity P-wave (km/s) = 4.95352 6.27074 5.65064
#
# Compressibility (1/GPa) = 0.02713376
#
# Stress axis : x y z
#
# Youngs Moduli (GPa) = 70.55268 54.27071 65.27058
#
# Poissons Ratio (x) = 0.08082 0.22235
# Poissons Ratio (y) = 0.10506 0.35884
# Poissons Ratio (z) = 0.24035 0.29837
#
# Static dielectric constant tensor:
#      x y z
#    x 3.315900 0.000000 -0.181500 
#    y 0.000000 3.077960 0.000000 
#    z -0.181500 0.000000 3.306590 
# 
# 
# High freq. dielectric constant tensor:
#      x y z
#    x 1.681350 0.000000 -0.022980 
#    y 0.000000 1.646090 0.000000 
#    z -0.022980 0.000000 1.677140 
# 
# From -- ./inp_files/19393.got.cif
#   From: 2010.06.25/outbox.cif.g09.slc.cpg/sg13_10_cif.got.tgz:19393.got - 2010.06.28 04:50:58.
