data_PCOD8122493
_publ_section_title
;
Structure prediction by ZEFSAII (Michael W. Deem and Ramdas Pophale) SiO2 
 PCOD8122493
Probable space group: P 2/C
;
_chemical_formula_sum "Si O2"
_cell_formula_units_Z 30
_cell_length_a 20.028209
_cell_length_b 6.462912
_cell_length_c 22.909758
_cell_angle_alpha 90.000000
_cell_angle_beta 27.968697
_cell_angle_gamma 90.000000
_cell_volume 1390.764545
_symmetry_space_group_name_H-M "P 2/C"
_symmetry_group_IT_number 13
_symmetry_cell_setting 'monoclinic'
loop_
_space_group_symop_operation_xyz
x,y,z
-x,y,1/2-z
-x,-y,-z
x,-y,1/2+z
loop_
_atom_site_type_symbol
_atom_site_label
_atom_site_fract_x
_atom_site_fract_y
_atom_site_fract_z
Si Si1 0.500000 0.980707 0.750000
Si Si2 0.018322 0.797725 0.801766
Si Si3 0.620259 0.633996 0.579819
Si Si4 0.268319 0.698184 0.414807
Si Si5 0.253884 0.463970 0.185588
Si Si6 0.650192 0.428435 0.767640
Si Si7 0.540116 0.855313 0.021803
Si Si8 0.223262 0.843627 0.134731
O O1 0.621151 0.121675 0.684678
O O2 0.569748 0.846292 0.646127
O O3 0.118805 0.654773 0.763568
O O4 0.000000 0.709085 0.750000
O O5 0.073018 0.035937 0.754801
O O6 0.870017 0.799854 0.950228
O O7 0.662800 0.468683 0.595333
O O8 0.492092 0.553132 0.639063
O O9 0.760430 0.684873 0.432339
O O10 0.244390 0.594040 0.369565
O O11 0.259703 0.452832 0.251736
O O12 0.396914 0.361551 0.050238
O O13 0.246459 0.707451 0.174977
O O14 0.595918 0.204669 0.833784
O O15 0.658451 0.978488 0.967188
O O16 0.500000 0.000000 0.000000
#
# Coordination Sequence:
#
# PCOD8122493 Si02
#       8
#     2   4   4   4   4   4   4   4
#     4  12  22  44  68 104 132 180 234 276 376 422
#     4  11  27  47  67  95 137 189 239 290 345 428
#     4  12  23  42  73 105 138 180 230 296 358 417
#     4  12  26  46  67 104 146 180 237 299 354 425
#     4  11  24  42  69 101 141 183 238 280 348 423
#     4  12  22  43  69 107 144 177 223 302 358 412
#     4  11  21  39  69 106 140 177 226 289 352 412
#     4  11  23  41  67  99 129 183 236 280 344 412
#
# _framework density 21.570868999999998
#
# number of rings (size 3 to 8) (size 9 to 14) (size 15 to 20)
#    0.000    0.533    5.333    3.600    1.867    3.200 
#    0.000    0.667    0.000    0.000    0.000    0.000 
#    0.000    0.000    0.000    0.000    0.000    0.000 
#
# Total GULP energy -371927.167616 kJ/mol
# GULP energy per Si atom -12397.572254 kJ/mol
# Density = 2.152177 g / cm^3
# Si number density = 21.570869 Si / 1000 Ang^3
#
#
#
# Elastic Constant Matrix: (Units=GPa)
#
#
# Indices 1 2 3 4 5 6 
#
# 1 146.8823 47.8796 47.3632 0.0000 16.8113 0.0000
# 2 47.8796 102.7781 34.0443 0.0000 -0.8821 0.0000
# 3 47.3632 34.0443 115.7776 0.0000 9.0235 0.0000
# 4 0.0000 0.0000 0.0000 31.2604 0.0000 -3.9553
# 5 16.8113 -0.8821 9.0235 0.0000 28.5138 0.0000
# 6 0.0000 0.0000 0.0000 -3.9553 0.0000 30.8094
#
#
#
# Elastic Compliance Matrix: (Units=1/GPa)
#
#
# Indices 1 2 3 4 5 6 
#
# 1 0.009296 -0.003587 -0.002371 0.000000 -0.004841 0.000000
# 2 -0.003587 0.012216 -0.002378 0.000000 0.003245 0.000000
# 3 -0.002371 -0.002378 0.010461 0.000000 -0.001986 0.000000
# 4 0.000000 0.000000 0.000000 0.032518 0.000000 0.004175
# 5 -0.004841 0.003245 -0.001986 0.000000 0.038654 0.000000
# 6 0.000000 0.000000 0.000000 0.004175 0.000000 0.032994
#
#
# Mechanical properties :
#
#
# Convention : Reuss Voigt Hill
#
# Bulk Modulus (GPa) = 65.34911 69.33468 67.34190
# Shear Modulus (GPa) = 31.66361 33.86011 32.76186
#
# Velocity S-wave (km/s) = 3.83546 3.96626 3.90141
# Velocity P-wave (km/s) = 7.06931 7.29297 7.18201
#
# Compressibility (1/GPa) = 0.01530243
#
# Stress axis : x y z
#
# Youngs Moduli (GPa) = 107.57322 81.85938 95.59216
#
# Poissons Ratio (x) = 0.29361 0.22663
# Poissons Ratio (y) = 0.38584 0.22729
# Poissons Ratio (z) = 0.25504 0.19464
#
# Static dielectric constant tensor:
#      x y z
#    x 4.115260 0.000000 0.160110 
#    y 0.000000 4.139550 0.000000 
#    z 0.160110 0.000000 3.926270 
# 
# 
# High freq. dielectric constant tensor:
#      x y z
#    x 1.852970 0.000000 0.013560 
#    y 0.000000 1.856400 0.000000 
#    z 0.013560 0.000000 1.829400 
# 
# From -- ./inp_files/88340.got.cif
#   From: 2010.06.25/outbox.cif.g09.slc.cpg/sg13_45_cif.got.tgz:88340.got - 2010.06.28 04:50:58.
