data_PCOD8122017
_publ_section_title
;
Structure prediction by ZEFSAII (Michael W. Deem and Ramdas Pophale) SiO2 
 PCOD8122017
Probable space group: P 2/C
;
_chemical_formula_sum "Si O2"
_cell_formula_units_Z 20
_cell_length_a 11.004958
_cell_length_b 8.389609
_cell_length_c 9.680118
_cell_angle_alpha 90.000000
_cell_angle_beta 91.657650
_cell_angle_gamma 90.000000
_cell_volume 893.365091
_symmetry_space_group_name_H-M "P 2/C"
_symmetry_group_IT_number 13
_symmetry_cell_setting 'monoclinic'
loop_
_space_group_symop_operation_xyz
x,y,z
-x,y,1/2-z
-x,-y,-z
x,-y,1/2+z
loop_
_atom_site_type_symbol
_atom_site_label
_atom_site_fract_x
_atom_site_fract_y
_atom_site_fract_z
Si Si1 0.750996 0.885776 0.835631
Si Si2 0.113300 0.579721 0.933067
Si Si3 0.388570 0.938121 0.408032
Si Si4 0.000000 0.848067 0.750000
Si Si5 0.259093 0.506569 0.684714
Si Si6 0.500000 0.657369 0.250000
O O1 0.888243 0.951329 0.809061
O O2 0.750878 0.695380 0.834650
O O3 0.650292 0.955127 0.725371
O O4 0.724620 0.936499 0.991449
O O5 0.178190 0.468675 0.818428
O O6 0.065951 0.744838 0.870541
O O7 0.210396 0.602610 0.058052
O O8 0.000000 0.500000 0.000000
O O9 0.429810 0.763755 0.360258
O O10 0.500000 0.000000 0.500000
O O11 0.399647 0.461543 0.688553
#
# Coordination Sequence:
#
# PCOD8122017 Si02
#       6
#     4   4   4   2   4   2
#     4  11  25  47  69  99 137 182 227 284 341 406
#     4  11  19  42  65 105 138 170 212 289 352 389
#     4  12  26  47  67  93 142 187 223 276 342 406
#     4  10  24  40  76 100 140 176 228 284 348 404
#     4  11  26  41  73 103 138 171 235 286 337 409
#     4  12  28  42  70 106 132 186 230 280 346 400
#
# _framework density 22.387264999999999
#
# number of rings (size 3 to 8) (size 9 to 14) (size 15 to 20)
#    0.000    0.800    6.000    1.200    8.400    2.400 
#    0.000    0.000    0.000    0.000    0.000    0.000 
#    0.000    0.000    0.000    0.000    0.000    0.000 
#
# Total GULP energy -247825.720787 kJ/mol
# GULP energy per Si atom -12391.286039 kJ/mol
# Density = 2.233631 g / cm^3
# Si number density = 22.387265 Si / 1000 Ang^3
#
#
#
# Elastic Constant Matrix: (Units=GPa)
#
#
# Indices 1 2 3 4 5 6 
#
# 1 137.0737 17.6581 50.9672 0.0000 -1.8161 0.0000
# 2 17.6581 29.8534 4.3498 0.0000 -5.3539 0.0000
# 3 50.9672 4.3498 139.4914 0.0000 -11.8511 0.0000
# 4 0.0000 0.0000 0.0000 18.5235 0.0000 -5.4415
# 5 -1.8161 -5.3539 -11.8511 0.0000 52.8724 0.0000
# 6 0.0000 0.0000 0.0000 -5.4415 0.0000 32.5115
#
#
#
# Elastic Compliance Matrix: (Units=1/GPa)
#
#
# Indices 1 2 3 4 5 6 
#
# 1 0.009155 -0.005107 -0.003265 0.000000 -0.000935 0.000000
# 2 -0.005107 0.037050 0.001034 0.000000 0.003808 0.000000
# 3 -0.003265 0.001034 0.008491 0.000000 0.001896 0.000000
# 4 0.000000 0.000000 0.000000 0.056777 0.000000 0.009503
# 5 -0.000935 0.003808 0.001896 0.000000 0.019692 0.000000
# 6 0.000000 0.000000 0.000000 0.009503 0.000000 0.032349
#
#
# Mechanical properties :
#
#
# Convention : Reuss Voigt Hill
#
# Bulk Modulus (GPa) = 24.98762 50.26317 37.62539
# Shear Modulus (GPa) = 26.10567 36.34438 31.22502
#
# Velocity S-wave (km/s) = 3.41852 4.03356 3.73871
# Velocity P-wave (km/s) = 5.17373 6.64780 5.95654
#
# Compressibility (1/GPa) = 0.04001982
#
# Stress axis : x y z
#
# Youngs Moduli (GPa) = 109.23102 26.99053 117.77545
#
# Poissons Ratio (x) = 0.13784 0.38456
# Poissons Ratio (y) = 0.55784 -0.12180
# Poissons Ratio (z) = 0.35666 -0.02791
#
# Static dielectric constant tensor:
#      x y z
#    x 4.909200 0.000000 -0.520100 
#    y 0.000000 3.574690 0.000000 
#    z -0.520100 0.000000 4.295330 
# 
# 
# High freq. dielectric constant tensor:
#      x y z
#    x 1.912930 0.000000 -0.010030 
#    y 0.000000 1.844380 0.000000 
#    z -0.010030 0.000000 1.897210 
# 
# From -- ./inp_files/14858.got.cif
#   From: 2010.06.25/outbox.cif.g09.slc.cpg/sg13_8_cif.got.tgz:14858.got - 2010.06.28 04:50:58.
