data_PCOD8122952
_publ_section_title
;
Structure prediction by ZEFSAII (Michael W. Deem and Ramdas Pophale) SiO2 
 PCOD8122952
Probable space group: P 2/C
;
_chemical_formula_sum "Si O2"
_cell_formula_units_Z 20
_cell_length_a 21.531846
_cell_length_b 5.247548
_cell_length_c 10.380066
_cell_angle_alpha 90.000000
_cell_angle_beta 139.909502
_cell_angle_gamma 90.000000
_cell_volume 755.303480
_symmetry_space_group_name_H-M "P 2/C"
_symmetry_group_IT_number 13
_symmetry_cell_setting 'monoclinic'
loop_
_space_group_symop_operation_xyz
x,y,z
-x,y,1/2-z
-x,-y,-z
x,-y,1/2+z
loop_
_atom_site_type_symbol
_atom_site_label
_atom_site_fract_x
_atom_site_fract_y
_atom_site_fract_z
Si Si1 0.366335 0.267516 0.173635
Si Si2 0.500000 0.579970 0.250000
Si Si3 0.864568 0.040999 0.341965
Si Si4 0.000000 0.753722 0.250000
Si Si5 0.660601 0.944881 0.611565
Si Si6 0.836021 0.464882 0.641203
O O1 0.467362 0.417364 0.324721
O O2 0.372810 0.037588 0.290130
O O3 0.276677 0.444695 0.077083
O O4 0.352611 0.187325 0.001758
O O5 0.595053 0.730220 0.442063
O O6 0.775070 0.110794 0.294710
O O7 0.857770 0.246796 0.216995
O O8 0.966649 0.069101 0.577771
O O9 0.858621 0.751692 0.283441
O O10 0.908125 0.578391 0.136625
#
# Coordination Sequence:
#
# PCOD8122952 Si02
#       6
#     4   2   4   2   4   4
#     4  11  25  47  71 107 146 195 244 311 371 447
#     4  12  24  44  76 102 146 188 254 302 384 438
#     4  11  25  46  70 107 148 190 245 304 366 443
#     4  12  24  46  76 106 142 198 244 298 374 440
#     4  11  25  47  71 107 146 195 244 311 371 447
#     4  11  25  46  70 107 148 190 245 304 366 443
#
# _framework density 26.479420999999999
#
# number of rings (size 3 to 8) (size 9 to 14) (size 15 to 20)
#    0.000    0.800    4.000    2.400    0.000    8.000 
#    3.600    0.000    0.000    0.000    0.000    0.000 
#    0.000    0.000    0.000    0.000    0.000    0.000 
#
# Total GULP energy -247796.592612 kJ/mol
# GULP energy per Si atom -12389.829631 kJ/mol
# Density = 2.641915 g / cm^3
# Si number density = 26.479421 Si / 1000 Ang^3
#
#
#
# Elastic Constant Matrix: (Units=GPa)
#
#
# Indices 1 2 3 4 5 6 
#
# 1 109.4507 2.0464 17.7723 0.0000 27.1382 0.0000
# 2 2.0464 47.7782 -10.3234 0.0000 2.3006 0.0000
# 3 17.7723 -10.3234 59.7149 0.0000 4.8194 0.0000
# 4 0.0000 0.0000 0.0000 17.6599 0.0000 4.4137
# 5 27.1382 2.3006 4.8194 0.0000 48.3287 0.0000
# 6 0.0000 0.0000 0.0000 4.4137 0.0000 24.5238
#
#
#
# Elastic Compliance Matrix: (Units=1/GPa)
#
#
# Indices 1 2 3 4 5 6 
#
# 1 0.011096 -0.000833 -0.002971 0.000000 -0.005895 0.000000
# 2 -0.000833 0.021902 0.004114 0.000000 -0.000985 0.000000
# 3 -0.002971 0.004114 0.018371 0.000000 -0.000360 0.000000
# 4 0.000000 0.000000 0.000000 0.059293 0.000000 -0.010671
# 5 -0.005895 -0.000985 -0.000360 0.000000 0.024085 0.000000
# 6 0.000000 0.000000 0.000000 -0.010671 0.000000 0.042697
#
#
# Mechanical properties :
#
#
# Convention : Reuss Voigt Hill
#
# Bulk Modulus (GPa) = 19.23502 26.21493 22.72497
# Shear Modulus (GPa) = 25.75287 31.93237 28.84262
#
# Velocity S-wave (km/s) = 3.12198 3.47642 3.30395
# Velocity P-wave (km/s) = 4.50284 5.10251 4.81202
#
# Compressibility (1/GPa) = 0.05198852
#
# Stress axis : x y z
#
# Youngs Moduli (GPa) = 90.12138 45.65782 54.43482
#
# Poissons Ratio (x) = 0.03805 0.16171
# Poissons Ratio (y) = 0.07510 -0.22394
# Poissons Ratio (z) = 0.26773 -0.18783
#
# Static dielectric constant tensor:
#      x y z
#    x 5.343350 0.000000 0.324210 
#    y 0.000000 4.311180 0.000000 
#    z 0.324210 0.000000 4.875400 
# 
# 
# High freq. dielectric constant tensor:
#      x y z
#    x 2.082980 0.000000 0.023810 
#    y 0.000000 2.035050 0.000000 
#    z 0.023810 0.000000 2.065440 
# 
# From -- ./inp_files/35226.got.cif
#   From: 2010.06.25/outbox.cif.g09.slc.cpg/sg13_18_cif.got.tgz:35226.got - 2010.06.28 04:50:58.
