data_PCOD8122305
_publ_section_title
;
Structure prediction by ZEFSAII (Michael W. Deem and Ramdas Pophale) SiO2 
 PCOD8122305
Probable space group: P 2/C
;
_chemical_formula_sum "Si O2"
_cell_formula_units_Z 22
_cell_length_a 18.734533
_cell_length_b 5.042657
_cell_length_c 14.835138
_cell_angle_alpha 90.000000
_cell_angle_beta 135.433581
_cell_angle_gamma 90.000000
_cell_volume 983.484250
_symmetry_space_group_name_H-M "P 2/C"
_symmetry_group_IT_number 13
_symmetry_cell_setting 'monoclinic'
loop_
_space_group_symop_operation_xyz
x,y,z
-x,y,1/2-z
-x,-y,-z
x,-y,1/2+z
loop_
_atom_site_type_symbol
_atom_site_label
_atom_site_fract_x
_atom_site_fract_y
_atom_site_fract_z
Si Si1 0.000000 0.084461 0.250000
Si Si2 0.751445 0.638941 0.663406
Si Si3 0.029667 0.747741 0.584192
Si Si4 0.406342 0.050600 0.228092
Si Si5 0.771612 0.118047 0.566435
Si Si6 0.587171 0.538978 0.149856
O O1 0.017396 0.256813 0.356564
O O2 0.894038 0.920382 0.164452
O O3 0.851670 0.738830 0.800756
O O4 0.761181 0.410122 0.597641
O O5 0.688741 0.546086 0.691753
O O6 0.714419 0.903004 0.578654
O O7 0.000000 0.500000 0.500000
O O8 0.000000 0.000000 0.500000
O O9 0.500000 0.957102 0.250000
O O10 0.399895 0.838064 0.303156
O O11 0.436958 0.340538 0.290645
O O12 0.294122 0.086753 0.083615
O O13 0.500000 0.500000 0.000000
#
# Coordination Sequence:
#
# PCOD8122305 Si02
#       6
#     2   4   4   4   4   4
#     4  10  26  44  70 100 144 188 232 294 356 408
#     4  11  24  44  66  99 136 179 228 290 353 408
#     4  11  25  42  69  98 139 182 238 287 345 426
#     4  12  25  43  70 101 135 180 234 285 351 433
#     4  11  24  44  68  98 138 181 231 288 351 423
#     4  12  25  43  70  99 138 179 227 293 356 420
#
# _framework density 22.369448999999999
#
# number of rings (size 3 to 8) (size 9 to 14) (size 15 to 20)
#    0.000    0.727    0.000    7.636    5.091    6.545 
#    0.000    0.000    0.000    0.000    0.000    0.000 
#    0.000    0.000    0.000    0.000    0.000    0.000 
#
# Total GULP energy -272647.026866 kJ/mol
# GULP energy per Si atom -12393.046676 kJ/mol
# Density = 2.231854 g / cm^3
# Si number density = 22.369449 Si / 1000 Ang^3
#
#
#
# Elastic Constant Matrix: (Units=GPa)
#
#
# Indices 1 2 3 4 5 6 
#
# 1 105.5004 6.7982 25.0257 0.0000 -4.0486 0.0000
# 2 6.7982 120.0034 58.0513 0.0000 -9.8962 0.0000
# 3 25.0257 58.0513 154.1379 0.0000 -15.9291 0.0000
# 4 0.0000 0.0000 0.0000 41.5844 0.0000 -7.4948
# 5 -4.0486 -9.8962 -15.9291 0.0000 37.3074 0.0000
# 6 0.0000 0.0000 0.0000 -7.4948 0.0000 30.6890
#
#
#
# Elastic Compliance Matrix: (Units=1/GPa)
#
#
# Indices 1 2 3 4 5 6 
#
# 1 0.009872 0.000282 -0.001664 0.000000 0.000436 0.000000
# 2 0.000282 0.010242 -0.003786 0.000000 0.001131 0.000000
# 3 -0.001664 -0.003786 0.008433 0.000000 0.002416 0.000000
# 4 0.000000 0.000000 0.000000 0.025155 0.000000 0.006143
# 5 0.000436 0.001131 0.002416 0.000000 0.028183 0.000000
# 6 0.000000 0.000000 0.000000 0.006143 0.000000 0.034085
#
#
# Mechanical properties :
#
#
# Convention : Reuss Voigt Hill
#
# Bulk Modulus (GPa) = 54.91369 62.15469 58.53419
# Shear Modulus (GPa) = 37.77083 41.23392 39.50237
#
# Velocity S-wave (km/s) = 4.11359 4.29804 4.20683
# Velocity P-wave (km/s) = 6.86761 7.24408 7.05835
#
# Compressibility (1/GPa) = 0.01821040
#
# Stress axis : x y z
#
# Youngs Moduli (GPa) = 101.29784 97.63765 118.57541
#
# Poissons Ratio (x) = -0.02749 0.19729
# Poissons Ratio (y) = -0.02852 0.44895
# Poissons Ratio (z) = 0.16854 0.36967
#
# Static dielectric constant tensor:
#      x y z
#    x 4.176250 0.000000 -0.103000 
#    y 0.000000 3.978010 0.000000 
#    z -0.103000 0.000000 4.272550 
# 
# 
# High freq. dielectric constant tensor:
#      x y z
#    x 1.884440 0.000000 -0.002580 
#    y 0.000000 1.892300 0.000000 
#    z -0.002580 0.000000 1.905010 
# 
# From -- ./inp_files/56285.got.cif
#   From: 2010.06.25/outbox.cif.g09.slc.cpg/sg13_29_cif.got.tgz:56285.got - 2010.06.28 04:50:58.
