data_PCOD8122289
_publ_section_title
;
Structure prediction by ZEFSAII (Michael W. Deem and Ramdas Pophale) SiO2 
 PCOD8122289
Probable space group: P 2/C
;
_chemical_formula_sum "Si O2"
_cell_formula_units_Z 32
_cell_length_a 12.119289
_cell_length_b 13.894338
_cell_length_c 17.645220
_cell_angle_alpha 90.000000
_cell_angle_beta 30.933765
_cell_angle_gamma 90.000000
_cell_volume 1527.371785
_symmetry_space_group_name_H-M "P 2/C"
_symmetry_group_IT_number 13
_symmetry_cell_setting 'monoclinic'
loop_
_space_group_symop_operation_xyz
x,y,z
-x,y,1/2-z
-x,-y,-z
x,-y,1/2+z
loop_
_atom_site_type_symbol
_atom_site_label
_atom_site_fract_x
_atom_site_fract_y
_atom_site_fract_z
Si Si1 0.563961 0.910719 0.905218
Si Si2 0.022176 0.541197 0.569367
Si Si3 0.926338 0.098915 0.073442
Si Si4 0.733277 0.743311 0.078331
Si Si5 0.828955 0.366614 0.918028
Si Si6 0.246428 0.761885 0.600825
Si Si7 0.396094 0.410617 0.101097
Si Si8 0.323797 0.192670 0.410132
O O1 0.794149 0.922647 0.728426
O O2 0.590525 0.821175 0.944516
O O3 0.397314 0.877015 0.937486
O O4 0.500000 0.000000 0.000000
O O5 0.146826 0.641483 0.494765
O O6 0.140685 0.466120 0.554943
O O7 0.000000 0.500000 0.500000
O O8 0.777224 0.555580 0.736741
O O9 0.786092 0.125193 0.084780
O O10 0.116198 0.176674 0.971956
O O11 0.000000 0.000000 0.000000
O O12 0.500000 0.731227 0.250000
O O13 0.675160 0.778561 0.029468
O O14 0.000000 0.360253 0.750000
O O15 0.585938 0.354413 0.031329
O O16 0.846607 0.273611 0.961757
O O17 0.271377 0.651583 0.611838
O O18 0.000000 0.794643 0.750000
O O19 0.500000 0.500000 0.000000
O O20 0.500000 0.242798 0.250000
#
# Coordination Sequence:
#
# PCOD8122289 Si02
#       8
#     4   4   4   4   4   4   4   4
#     4  11  25  45  76 109 136 188 234 295 364 425
#     4  12  28  45  69 105 142 189 244 292 355 431
#     4  11  26  48  72 105 145 184 233 297 363 430
#     4  12  29  46  74 106 144 192 243 300 358 430
#     4  12  26  44  70 106 143 188 239 295 356 426
#     4  12  24  47  74 101 144 187 243 295 357 432
#     4  12  25  44  71  98 143 190 234 293 359 418
#     4  10  25  47  72 102 145 187 235 288 361 427
#
# _framework density 20.951021999999998
#
# number of rings (size 3 to 8) (size 9 to 14) (size 15 to 20)
#    0.000    0.500    5.000    1.500   10.500    2.500 
#    0.000    0.000    0.000    0.000    0.000    0.000 
#    0.000    0.000    0.000    0.000    0.000    0.000 
#
# Total GULP energy -396486.641502 kJ/mol
# GULP energy per Si atom -12390.207547 kJ/mol
# Density = 2.090334 g / cm^3
# Si number density = 20.951022 Si / 1000 Ang^3
#
#
#
# Elastic Constant Matrix: (Units=GPa)
#
#
# Indices 1 2 3 4 5 6 
#
# 1 123.2016 38.9372 53.1738 0.0000 15.9492 0.0000
# 2 38.9372 132.5053 64.1294 0.0000 13.4263 0.0000
# 3 53.1738 64.1294 162.5003 0.0000 9.4322 0.0000
# 4 0.0000 0.0000 0.0000 30.8082 0.0000 16.1074
# 5 15.9492 13.4263 9.4322 0.0000 35.2582 0.0000
# 6 0.0000 0.0000 0.0000 16.1074 0.0000 25.3308
#
#
#
# Elastic Compliance Matrix: (Units=1/GPa)
#
#
# Indices 1 2 3 4 5 6 
#
# 1 0.010095 -0.001387 -0.002561 0.000000 -0.003353 0.000000
# 2 -0.001387 0.009761 -0.003270 0.000000 -0.002215 0.000000
# 3 -0.002561 -0.003270 0.008271 0.000000 0.000191 0.000000
# 4 0.000000 0.000000 0.000000 0.048625 0.000000 -0.030920
# 5 -0.003353 -0.002215 0.000191 0.000000 0.030671 0.000000
# 6 0.000000 0.000000 0.000000 -0.030920 0.000000 0.059139
#
#
# Mechanical properties :
#
#
# Convention : Reuss Voigt Hill
#
# Bulk Modulus (GPa) = 73.03980 81.18755 77.11368
# Shear Modulus (GPa) = 26.94521 35.74389 31.34455
#
# Velocity S-wave (km/s) = 3.59012 4.13494 3.87212
# Velocity P-wave (km/s) = 7.21964 7.85062 7.54173
#
# Compressibility (1/GPa) = 0.01369117
#
# Stress axis : x y z
#
# Youngs Moduli (GPa) = 99.06263 102.44421 120.90098
#
# Poissons Ratio (x) = 0.14210 0.30965
# Poissons Ratio (y) = 0.13740 0.39532
# Poissons Ratio (z) = 0.25372 0.33497
#
# Static dielectric constant tensor:
#      x y z
#    x 4.027150 0.000000 0.202360 
#    y 0.000000 3.943260 0.000000 
#    z 0.202360 0.000000 3.865350 
# 
# 
# High freq. dielectric constant tensor:
#      x y z
#    x 1.842130 0.000000 0.008480 
#    y 0.000000 1.827480 0.000000 
#    z 0.008480 0.000000 1.827910 
# 
# From -- ./inp_files/66915.got.cif
#   From: 2010.06.25/outbox.cif.g09.slc.cpg/sg13_34_cif.got.tgz:66915.got - 2010.06.28 04:50:58.
