data_PCOD8122963
_publ_section_title
;
Structure prediction by ZEFSAII (Michael W. Deem and Ramdas Pophale) SiO2 
 PCOD8122963
Probable space group: P 2/C
;
_chemical_formula_sum "Si O2"
_cell_formula_units_Z 12
_cell_length_a 8.354514
_cell_length_b 6.933839
_cell_length_c 9.708037
_cell_angle_alpha 90.000000
_cell_angle_beta 128.144220
_cell_angle_gamma 90.000000
_cell_volume 442.285005
_symmetry_space_group_name_H-M "P 2/C"
_symmetry_group_IT_number 13
_symmetry_cell_setting 'monoclinic'
loop_
_space_group_symop_operation_xyz
x,y,z
-x,y,1/2-z
-x,-y,-z
x,-y,1/2+z
loop_
_atom_site_type_symbol
_atom_site_label
_atom_site_fract_x
_atom_site_fract_y
_atom_site_fract_z
Si Si1 0.380437 0.216704 0.997163
Si Si2 0.230039 0.935151 0.134979
Si Si3 0.222695 0.628372 0.916481
O O1 0.308925 0.078322 0.833574
O O2 0.229424 0.397845 0.933041
O O3 0.610915 0.295377 0.104733
O O4 0.368025 0.087264 0.126046
O O5 0.262942 0.722324 0.087405
O O6 0.000000 0.000000 0.000000
O O7 0.000000 0.694741 0.750000
#
# Coordination Sequence:
#
# PCOD8122963 Si02
#       3
#     4   4   4
#     4  11  27  48  75 110 148 193 246 305 368 436
#     4  12  25  47  76 109 148 193 245 303 368 438
#     4  11  25  47  74 108 148 193 244 302 369 438
#
# _framework density 27.131827000000001
#
# number of rings (size 3 to 8) (size 9 to 14) (size 15 to 20)
#    0.000    0.667    0.000    7.000    0.000   10.667 
#    0.000   10.000    0.000    0.000    0.000    0.000 
#    0.000    0.000    0.000    0.000    0.000    0.000 
#
# Total GULP energy -148886.680355 kJ/mol
# GULP energy per Si atom -12407.223363 kJ/mol
# Density = 2.707007 g / cm^3
# Si number density = 27.131827 Si / 1000 Ang^3
#
#
#
# Elastic Constant Matrix: (Units=GPa)
#
#
# Indices 1 2 3 4 5 6 
#
# 1 138.1661 43.4470 64.9908 0.0000 19.9119 0.0000
# 2 43.4470 181.2732 53.3262 0.0000 -22.2314 0.0000
# 3 64.9908 53.3262 152.1830 0.0000 8.9942 0.0000
# 4 0.0000 0.0000 0.0000 20.5685 0.0000 4.6531
# 5 19.9119 -22.2314 8.9942 0.0000 55.5358 0.0000
# 6 0.0000 0.0000 0.0000 4.6531 0.0000 45.2320
#
#
#
# Elastic Compliance Matrix: (Units=1/GPa)
#
#
# Indices 1 2 3 4 5 6 
#
# 1 0.009952 -0.001853 -0.003378 0.000000 -0.003763 0.000000
# 2 -0.001853 0.006973 -0.001874 0.000000 0.003759 0.000000
# 3 -0.003378 -0.001874 0.008727 0.000000 -0.000952 0.000000
# 4 0.000000 0.000000 0.000000 0.049777 0.000000 -0.005121
# 5 -0.003763 0.003759 -0.000952 0.000000 0.021015 0.000000
# 6 0.000000 0.000000 0.000000 -0.005121 0.000000 0.022635
#
#
# Mechanical properties :
#
#
# Convention : Reuss Voigt Hill
#
# Bulk Modulus (GPa) = 87.40786 88.35003 87.87895
# Shear Modulus (GPa) = 36.46923 44.92450 40.69686
#
# Velocity S-wave (km/s) = 3.67024 4.07355 3.87714
# Velocity P-wave (km/s) = 7.08850 7.39993 7.24589
#
# Compressibility (1/GPa) = 0.01144062
#
# Stress axis : x y z
#
# Youngs Moduli (GPa) = 100.48610 143.40979 114.58925
#
# Poissons Ratio (x) = 0.26571 0.38712
# Poissons Ratio (y) = 0.18618 0.21478
# Poissons Ratio (z) = 0.33947 0.26880
#
# Static dielectric constant tensor:
#      x y z
#    x 5.371690 0.000000 0.057940 
#    y 0.000000 5.275350 0.000000 
#    z 0.057940 0.000000 4.671680 
# 
# 
# High freq. dielectric constant tensor:
#      x y z
#    x 2.110760 0.000000 0.017590 
#    y 0.000000 2.113330 0.000000 
#    z 0.017590 0.000000 2.100280 
# 
# From -- ./inp_files/10902.got.cif
#   From: 2010.06.25/outbox.cif.g09.slc.cpg/sg13_6_cif.got.tgz:10902.got - 2010.06.28 04:50:58.
