data_PCOD8122350
_publ_section_title
;
Structure prediction by ZEFSAII (Michael W. Deem and Ramdas Pophale) SiO2 
 PCOD8122350
Probable space group: P 2/C
;
_chemical_formula_sum "Si O2"
_cell_formula_units_Z 28
_cell_length_a 16.480823
_cell_length_b 17.623009
_cell_length_c 9.065101
_cell_angle_alpha 90.000000
_cell_angle_beta 29.023432
_cell_angle_gamma 90.000000
_cell_volume 1277.388787
_symmetry_space_group_name_H-M "P 2/C"
_symmetry_group_IT_number 13
_symmetry_cell_setting 'monoclinic'
loop_
_space_group_symop_operation_xyz
x,y,z
-x,y,1/2-z
-x,-y,-z
x,-y,1/2+z
loop_
_atom_site_type_symbol
_atom_site_label
_atom_site_fract_x
_atom_site_fract_y
_atom_site_fract_z
Si Si1 0.710569 0.340568 0.244678
Si Si2 0.872203 0.514823 0.575270
Si Si3 0.000000 0.994236 0.250000
Si Si4 0.093214 0.248694 0.345368
Si Si5 0.802856 0.354791 0.758993
Si Si6 0.604709 0.263071 0.847808
Si Si7 0.500000 0.156433 0.250000
Si Si8 0.859991 0.099703 0.725336
O O1 0.737248 0.416691 0.302733
O O2 0.826250 0.272349 0.124793
O O3 0.515434 0.316193 0.561081
O O4 0.758389 0.360157 0.001448
O O5 0.780018 0.434198 0.706342
O O6 0.000000 0.500000 0.500000
O O7 0.000000 0.541654 0.250000
O O8 0.129020 0.939901 0.132348
O O9 0.914816 0.045780 0.506632
O O10 0.989981 0.320787 0.446247
O O11 0.970761 0.176771 0.552342
O O12 0.243826 0.231399 0.992334
O O13 0.670931 0.301938 0.890468
O O14 0.495419 0.197805 0.097239
O O15 0.332067 0.109043 0.508676
#
# Coordination Sequence:
#
# PCOD8122350 Si02
#       8
#     4   4   2   4   4   4   2   4
#     4  12  25  44  65 104 139 181 242 298 351 411
#     4  12  23  42  66  97 134 189 241 295 359 422
#     4  10  26  50  72 110 144 182 234 262 344 432
#     4  12  24  43  74 100 139 189 235 282 350 421
#     4  12  24  43  71  96 134 190 238 291 355 419
#     4  12  25  43  64 107 142 176 243 295 343 407
#     4  12  24  42  78 108 144 180 230 288 346 394
#     4  11  25  46  77 106 143 188 225 282 339 419
#
# _framework density 21.919718
#
# number of rings (size 3 to 8) (size 9 to 14) (size 15 to 20)
#    0.000    0.286    5.714    3.000    4.000    1.143 
#    0.000    1.429    0.000    0.000    0.000    0.000 
#    0.000    0.000    0.000    0.000    0.000    0.000 
#
# Total GULP energy -346969.514098 kJ/mol
# GULP energy per Si atom -12391.768361 kJ/mol
# Density = 2.186983 g / cm^3
# Si number density = 21.919718 Si / 1000 Ang^3
#
#
#
# Elastic Constant Matrix: (Units=GPa)
#
#
# Indices 1 2 3 4 5 6 
#
# 1 132.2197 43.8087 33.0832 0.0000 -21.0596 0.0000
# 2 43.8087 95.2504 33.1312 0.0000 -11.3752 0.0000
# 3 33.0832 33.1312 92.0819 0.0000 -22.7302 0.0000
# 4 0.0000 0.0000 0.0000 26.1093 0.0000 -8.7500
# 5 -21.0596 -11.3752 -22.7302 0.0000 34.3072 0.0000
# 6 0.0000 0.0000 0.0000 -8.7500 0.0000 41.4806
#
#
#
# Elastic Compliance Matrix: (Units=1/GPa)
#
#
# Indices 1 2 3 4 5 6 
#
# 1 0.009676 -0.003553 -0.001222 0.000000 0.003951 0.000000
# 2 -0.003553 0.013357 -0.003556 0.000000 -0.000108 0.000000
# 3 -0.001222 -0.003556 0.014469 0.000000 0.007657 0.000000
# 4 0.000000 0.000000 0.000000 0.041214 0.000000 0.008694
# 5 0.003951 -0.000108 0.007657 0.000000 0.036611 0.000000
# 6 0.000000 0.000000 0.000000 0.008694 0.000000 0.025942
#
#
# Mechanical properties :
#
#
# Convention : Reuss Voigt Hill
#
# Bulk Modulus (GPa) = 47.98931 59.95535 53.97233
# Shear Modulus (GPa) = 30.32570 34.34801 32.33686
#
# Velocity S-wave (km/s) = 3.72356 3.96282 3.84505
# Velocity P-wave (km/s) = 6.35825 6.95343 6.66249
#
# Compressibility (1/GPa) = 0.02083797
#
# Stress axis : x y z
#
# Youngs Moduli (GPa) = 103.35209 74.86853 69.11516
#
# Poissons Ratio (x) = 0.26601 0.08449
# Poissons Ratio (y) = 0.36721 0.24577
# Poissons Ratio (z) = 0.12635 0.26623
#
# Static dielectric constant tensor:
#      x y z
#    x 4.231230 0.000000 0.156400 
#    y 0.000000 -2.497730 0.000000 
#    z 0.156400 0.000000 5.676580 
# 
# 
# High freq. dielectric constant tensor:
#      x y z
#    x 1.882510 0.000000 -0.002060 
#    y 0.000000 1.855970 0.000000 
#    z -0.002060 0.000000 1.859060 
# 
# From -- ./inp_files/20204.got.cif
#   From: 2010.06.25/outbox.cif.g09.slc.cpg/sg13_11_cif.got.tgz:20204.got - 2010.06.28 04:50:58.
