data_PCOD8122515
_publ_section_title
;
Structure prediction by ZEFSAII (Michael W. Deem and Ramdas Pophale) SiO2 
 PCOD8122515
Probable space group: P 2/C
;
_chemical_formula_sum "Si O2"
_cell_formula_units_Z 24
_cell_length_a 14.238112
_cell_length_b 13.974268
_cell_length_c 8.413116
_cell_angle_alpha 90.000000
_cell_angle_beta 40.211276
_cell_angle_gamma 90.000000
_cell_volume 1080.705218
_symmetry_space_group_name_H-M "P 2/C"
_symmetry_group_IT_number 13
_symmetry_cell_setting 'monoclinic'
loop_
_space_group_symop_operation_xyz
x,y,z
-x,y,1/2-z
-x,-y,-z
x,-y,1/2+z
loop_
_atom_site_type_symbol
_atom_site_label
_atom_site_fract_x
_atom_site_fract_y
_atom_site_fract_z
Si Si1 0.293190 0.585366 0.319283
Si Si2 0.222485 0.383146 0.274474
Si Si3 0.424332 0.911366 0.018285
Si Si4 0.526095 0.710396 0.902205
Si Si5 0.050213 0.703419 0.503155
Si Si6 0.919204 0.914178 0.020852
O O1 0.244969 0.477824 0.348621
O O2 0.275762 0.605946 0.526449
O O3 0.207358 0.654188 0.306071
O O4 0.458885 0.613433 0.066360
O O5 0.305731 0.296955 0.259552
O O6 0.052549 0.355383 0.484604
O O7 0.500000 0.902398 0.750000
O O8 0.457805 0.809430 0.061062
O O9 0.253128 0.934302 0.252449
O O10 0.500000 0.000000 0.000000
O O11 0.500000 0.705916 0.750000
O O12 0.059508 0.811270 0.422652
O O13 0.000000 0.699749 0.750000
O O14 0.000000 0.906215 0.750000
O O15 0.000000 0.000000 0.000000
#
# Coordination Sequence:
#
# PCOD8122515 Si02
#       6
#     4   4   4   4   4   4
#     4  11  21  42  61  93 128 165 221 273 331 392
#     4  11  23  38  67  92 124 175 216 273 333 395
#     4  11  25  44  69 100 137 173 221 277 334 397
#     4  11  24  42  62  91 132 168 220 271 327 393
#     4   9  21  40  63  91 129 168 216 269 329 393
#     4  11  23  44  69  99 135 173 221 274 332 400
#
# _framework density 22.207722
#
# number of rings (size 3 to 8) (size 9 to 14) (size 15 to 20)
#    0.000    1.333    1.667    3.500    2.333    1.333 
#    0.000    2.500    0.000    0.000    0.000    0.000 
#    0.000    0.000    0.000    0.000    0.000    0.000 
#
# Total GULP energy -297412.136077 kJ/mol
# GULP energy per Si atom -12392.172337 kJ/mol
# Density = 2.215718 g / cm^3
# Si number density = 22.207722 Si / 1000 Ang^3
#
#
#
# Elastic Constant Matrix: (Units=GPa)
#
#
# Indices 1 2 3 4 5 6 
#
# 1 125.4400 54.9100 22.5535 0.0000 -10.4248 0.0000
# 2 54.9100 149.0507 9.7142 0.0000 -8.1134 0.0000
# 3 22.5535 9.7142 81.9544 0.0000 -10.3180 0.0000
# 4 0.0000 0.0000 0.0000 32.4637 0.0000 -4.4842
# 5 -10.4248 -8.1134 -10.3180 0.0000 29.7330 0.0000
# 6 0.0000 0.0000 0.0000 -4.4842 0.0000 55.6279
#
#
#
# Elastic Compliance Matrix: (Units=1/GPa)
#
#
# Indices 1 2 3 4 5 6 
#
# 1 0.010016 -0.003452 -0.002116 0.000000 0.001835 0.000000
# 2 -0.003452 0.008028 0.000127 0.000000 0.001025 0.000000
# 3 -0.002116 0.000127 0.013259 0.000000 0.003894 0.000000
# 4 0.000000 0.000000 0.000000 0.031151 0.000000 0.002511
# 5 0.001835 0.001025 0.003894 0.000000 0.035907 0.000000
# 6 0.000000 0.000000 0.000000 0.002511 0.000000 0.018179
#
#
# Mechanical properties :
#
#
# Convention : Reuss Voigt Hill
#
# Bulk Modulus (GPa) = 48.96634 58.97783 53.97208
# Shear Modulus (GPa) = 37.24964 41.51607 39.38286
#
# Velocity S-wave (km/s) = 4.09996 4.32840 4.21573
# Velocity P-wave (km/s) = 6.67158 7.18297 6.93199
#
# Compressibility (1/GPa) = 0.02042219
#
# Stress axis : x y z
#
# Youngs Moduli (GPa) = 99.83977 124.55890 75.41808
#
# Poissons Ratio (x) = 0.42999 0.15959
# Poissons Ratio (y) = 0.34465 -0.00961
# Poissons Ratio (z) = 0.21127 -0.01587
#
# Static dielectric constant tensor:
#      x y z
#    x 4.050390 0.000000 -0.255340 
#    y 0.000000 4.889910 0.000000 
#    z -0.255340 0.000000 3.861810 
# 
# 
# High freq. dielectric constant tensor:
#      x y z
#    x 1.873870 0.000000 -0.016110 
#    y 0.000000 1.889780 0.000000 
#    z -0.016110 0.000000 1.873090 
# 
# From -- ./inp_files/19515.got.cif
#   From: 2010.06.25/outbox.cif.g09.slc.cpg/sg13_10_cif.got.tgz:19515.got - 2010.06.28 04:50:58.
