data_PCOD8122066
_publ_section_title
;
Structure prediction by ZEFSAII (Michael W. Deem and Ramdas Pophale) SiO2 
 PCOD8122066
Probable space group: P 2/C
;
_chemical_formula_sum "Si O2"
_cell_formula_units_Z 12
_cell_length_a 12.126377
_cell_length_b 4.953977
_cell_length_c 10.448754
_cell_angle_alpha 90.000000
_cell_angle_beta 128.103001
_cell_angle_gamma 90.000000
_cell_volume 493.935901
_symmetry_space_group_name_H-M "P 2/C"
_symmetry_group_IT_number 13
_symmetry_cell_setting 'monoclinic'
loop_
_space_group_symop_operation_xyz
x,y,z
-x,y,1/2-z
-x,-y,-z
x,-y,1/2+z
loop_
_atom_site_type_symbol
_atom_site_label
_atom_site_fract_x
_atom_site_fract_y
_atom_site_fract_z
Si Si1 0.163263 0.418678 0.881553
Si Si2 0.686002 0.065685 0.934121
Si Si3 0.597915 0.754062 0.104383
O O1 0.193928 0.721706 0.945335
O O2 0.241698 0.347045 0.804389
O O3 0.000000 0.369282 0.750000
O O4 0.232088 0.214043 0.036725
O O5 0.583530 0.011503 0.988535
O O6 0.591671 0.159938 0.748580
O O7 0.500000 0.500000 0.000000
#
# Coordination Sequence:
#
# PCOD8122066 Si02
#       3
#     4   4   4
#     4  10  24  42  66  99 131 170 216 268 324 383
#     4  10  24  42  68  95 129 173 217 266 321 382
#     4  10  24  45  66  97 131 172 218 266 323 385
#
# _framework density 24.294651000000002
#
# number of rings (size 3 to 8) (size 9 to 14) (size 15 to 20)
#    2.000    0.000    0.000    2.000    4.667    4.000 
#    6.000    0.000    0.000    0.000    0.000    0.000 
#    0.000    0.000    0.000    0.000    0.000    0.000 
#
# Total GULP energy -148710.131635 kJ/mol
# GULP energy per Si atom -12392.510970 kJ/mol
# Density = 2.423936 g / cm^3
# Si number density = 24.294651 Si / 1000 Ang^3
#
#
#
# Elastic Constant Matrix: (Units=GPa)
#
#
# Indices 1 2 3 4 5 6 
#
# 1 173.1381 54.3855 100.8513 0.0000 16.7163 0.0000
# 2 54.3855 171.1103 65.9706 0.0000 3.3838 0.0000
# 3 100.8513 65.9706 152.8866 0.0000 8.0322 0.0000
# 4 0.0000 0.0000 0.0000 50.2669 0.0000 11.0599
# 5 16.7163 3.3838 8.0322 0.0000 37.9974 0.0000
# 6 0.0000 0.0000 0.0000 11.0599 0.0000 26.5720
#
#
#
# Elastic Compliance Matrix: (Units=1/GPa)
#
#
# Indices 1 2 3 4 5 6 
#
# 1 0.009774 -0.000746 -0.005969 0.000000 -0.002972 0.000000
# 2 -0.000746 0.007067 -0.002570 0.000000 0.000242 0.000000
# 3 -0.005969 -0.002570 0.011566 0.000000 0.000410 0.000000
# 4 0.000000 0.000000 0.000000 0.021899 0.000000 -0.009115
# 5 -0.002972 0.000242 0.000410 0.000000 0.027517 0.000000
# 6 0.000000 0.000000 0.000000 -0.009115 0.000000 0.041427
#
#
# Mechanical properties :
#
#
# Convention : Reuss Voigt Hill
#
# Bulk Modulus (GPa) = 101.66643 104.39442 103.03043
# Shear Modulus (GPa) = 35.43564 41.36245 38.39904
#
# Velocity S-wave (km/s) = 3.82328 4.13065 3.97993
# Velocity P-wave (km/s) = 7.83760 8.11253 7.97625
#
# Compressibility (1/GPa) = 0.00983609
#
# Stress axis : x y z
#
# Youngs Moduli (GPa) = 102.31045 141.49337 86.46161
#
# Poissons Ratio (x) = 0.10561 0.51612
# Poissons Ratio (y) = 0.07637 0.22220
# Poissons Ratio (z) = 0.61072 0.36363
#
# Static dielectric constant tensor:
#      x y z
#    x 4.668070 0.000000 0.033230 
#    y 0.000000 4.691240 0.000000 
#    z 0.033230 0.000000 3.951180 
# 
# 
# High freq. dielectric constant tensor:
#      x y z
#    x 1.990280 0.000000 0.018800 
#    y 0.000000 1.991720 0.000000 
#    z 0.018800 0.000000 1.956570 
# 
# From -- ./inp_files/14134.got.cif
#   From: 2010.06.25/outbox.cif.g09.slc.cpg/sg13_8_cif.got.tgz:14134.got - 2010.06.28 04:50:58.
