data_PCOD8122558
_publ_section_title
;
Structure prediction by ZEFSAII (Michael W. Deem and Ramdas Pophale) SiO2 
 PCOD8122558
Probable space group: P 2/C
;
_chemical_formula_sum "Si O2"
_cell_formula_units_Z 18
_cell_length_a 13.397774
_cell_length_b 7.888227
_cell_length_c 13.854687
_cell_angle_alpha 90.000000
_cell_angle_beta 144.119245
_cell_angle_gamma 90.000000
_cell_volume 858.184498
_symmetry_space_group_name_H-M "P 2/C"
_symmetry_group_IT_number 13
_symmetry_cell_setting 'monoclinic'
loop_
_space_group_symop_operation_xyz
x,y,z
-x,y,1/2-z
-x,-y,-z
x,-y,1/2+z
loop_
_atom_site_type_symbol
_atom_site_label
_atom_site_fract_x
_atom_site_fract_y
_atom_site_fract_z
Si Si1 0.502072 0.253654 0.433017
Si Si2 0.176880 0.741293 0.781114
Si Si3 0.500000 0.968347 0.750000
Si Si4 0.805013 0.217232 0.984727
Si Si5 0.288013 0.563690 0.260999
O O1 0.559502 0.145421 0.386510
O O2 0.452116 0.446402 0.362853
O O3 0.656346 0.273631 0.630305
O O4 0.662691 0.835962 0.644161
O O5 0.154134 0.553338 0.715770
O O6 0.001744 0.847918 0.629453
O O7 0.223592 0.715608 0.929725
O O8 0.665868 0.075328 0.850219
O O9 0.788733 0.373514 0.899163
#
# Coordination Sequence:
#
# PCOD8122558 Si02
#       5
#     4   4   2   4   4
#     4   9  22  39  60  91 117 160 209 249 304 358
#     4   9  21  40  62  88 119 161 209 253 296 364
#     4  12  26  36  60  94 130 166 192 254 306 392
#     4  11  22  37  64  89 126 161 201 252 319 350
#     4   9  20  40  67  86 115 161 208 266 281 367
#
# _framework density 20.974511
#
# number of rings (size 3 to 8) (size 9 to 14) (size 15 to 20)
#    1.333    0.889    0.000    2.000    3.111    4.444 
#    0.000    2.222    0.000    0.000    0.000    0.000 
#    0.000    0.000    0.000    0.000    0.000    0.000 
#
# Total GULP energy -222989.415571 kJ/mol
# GULP energy per Si atom -12388.300865 kJ/mol
# Density = 2.092677 g / cm^3
# Si number density = 20.974511 Si / 1000 Ang^3
#
#
#
# Elastic Constant Matrix: (Units=GPa)
#
#
# Indices 1 2 3 4 5 6 
#
# 1 81.0305 21.2729 25.9204 0.0000 -4.9695 0.0000
# 2 21.2729 51.0100 19.0520 0.0000 -8.7061 0.0000
# 3 25.9204 19.0520 88.4464 0.0000 -2.7753 0.0000
# 4 0.0000 0.0000 0.0000 15.5921 0.0000 -9.5654
# 5 -4.9695 -8.7061 -2.7753 0.0000 44.1469 0.0000
# 6 0.0000 0.0000 0.0000 -9.5654 0.0000 31.0967
#
#
#
# Elastic Compliance Matrix: (Units=1/GPa)
#
#
# Indices 1 2 3 4 5 6 
#
# 1 0.014676 -0.004823 -0.003247 0.000000 0.000497 0.000000
# 2 -0.004823 0.023605 -0.003549 0.000000 0.003889 0.000000
# 3 -0.003247 -0.003549 0.013014 0.000000 -0.000247 0.000000
# 4 0.000000 0.000000 0.000000 0.079053 0.000000 0.024317
# 5 0.000497 0.003889 -0.000247 0.000000 0.023459 0.000000
# 6 0.000000 0.000000 0.000000 0.024317 0.000000 0.039638
#
#
# Mechanical properties :
#
#
# Convention : Reuss Voigt Hill
#
# Bulk Modulus (GPa) = 35.64064 39.21973 37.43018
# Shear Modulus (GPa) = 22.12049 28.44993 25.28521
#
# Velocity S-wave (km/s) = 3.25104 3.68694 3.47583
# Velocity P-wave (km/s) = 5.57867 6.07157 5.83033
#
# Compressibility (1/GPa) = 0.02805786
#
# Stress axis : x y z
#
# Youngs Moduli (GPa) = 68.13740 42.36436 76.83753
#
# Poissons Ratio (x) = 0.20433 0.24946
# Poissons Ratio (y) = 0.32864 0.27271
# Poissons Ratio (z) = 0.22121 0.15036
#
# Static dielectric constant tensor:
#      x y z
#    x 3.706110 0.000000 -0.002950 
#    y 0.000000 3.320230 0.000000 
#    z -0.002950 0.000000 3.784320 
# 
# 
# High freq. dielectric constant tensor:
#      x y z
#    x 1.817710 0.000000 -0.012010 
#    y 0.000000 1.781700 0.000000 
#    z -0.012010 0.000000 1.829800 
# 
# From -- ./inp_files/69099.got.cif
#   From: 2010.06.25/outbox.cif.g09.slc.cpg/sg13_35_cif.got.tgz:69099.got - 2010.06.28 04:50:58.
