data_PCOD8122805
_publ_section_title
;
Structure prediction by ZEFSAII (Michael W. Deem and Ramdas Pophale) SiO2 
 PCOD8122805
Probable space group: P 2/C
;
_chemical_formula_sum "Si O2"
_cell_formula_units_Z 20
_cell_length_a 11.327400
_cell_length_b 8.317103
_cell_length_c 11.242557
_cell_angle_alpha 90.000000
_cell_angle_beta 54.684134
_cell_angle_gamma 90.000000
_cell_volume 864.262403
_symmetry_space_group_name_H-M "P 2/C"
_symmetry_group_IT_number 13
_symmetry_cell_setting 'monoclinic'
loop_
_space_group_symop_operation_xyz
x,y,z
-x,y,1/2-z
-x,-y,-z
x,-y,1/2+z
loop_
_atom_site_type_symbol
_atom_site_label
_atom_site_fract_x
_atom_site_fract_y
_atom_site_fract_z
Si Si1 0.400873 0.076333 0.703088
Si Si2 0.907979 0.160656 0.571869
Si Si3 0.208788 0.589981 0.523001
Si Si4 0.500000 0.454985 0.250000
Si Si5 0.000000 0.332633 0.750000
Si Si6 0.411146 0.751335 0.576376
O O1 0.500000 0.009023 0.750000
O O2 0.257190 0.119856 0.854744
O O3 0.466325 0.233812 0.598160
O O4 0.367814 0.932970 0.631792
O O5 0.918997 0.305053 0.467998
O O6 0.930070 0.219022 0.692374
O O7 0.000000 0.000000 0.500000
O O8 0.351036 0.555185 0.357481
O O9 0.265170 0.672515 0.611117
O O10 0.127481 0.429515 0.610993
O O11 0.522807 0.347477 0.353573
#
# Coordination Sequence:
#
# PCOD8122805 Si02
#       6
#     4   4   4   2   2   4
#     4  11  23  46  73 111 144 188 252 304 364 434
#     4  12  29  46  76 104 150 195 250 300 371 441
#     4  12  26  48  73 108 149 196 244 307 369 446
#     4  12  24  44  78 106 148 188 252 298 378 432
#     4  12  30  48  72 108 154 194 248 300 386 438
#     4  11  24  41  76 106 145 189 244 307 363 433
#
# _framework density 23.141117999999999
#
# number of rings (size 3 to 8) (size 9 to 14) (size 15 to 20)
#    0.000    0.400    3.000    4.800    8.400    0.000 
#    0.000    0.000    0.000    0.000    0.000    0.000 
#    0.000    0.000    0.000    0.000    0.000    0.000 
#
# Total GULP energy -247938.796739 kJ/mol
# GULP energy per Si atom -12396.939837 kJ/mol
# Density = 2.308845 g / cm^3
# Si number density = 23.141118 Si / 1000 Ang^3
#
#
#
# Elastic Constant Matrix: (Units=GPa)
#
#
# Indices 1 2 3 4 5 6 
#
# 1 121.4402 44.3745 35.1130 0.0000 17.1289 0.0000
# 2 44.3745 104.0430 38.1881 0.0000 -0.2342 0.0000
# 3 35.1130 38.1881 99.4305 0.0000 -3.3880 0.0000
# 4 0.0000 0.0000 0.0000 41.0648 0.0000 7.0853
# 5 17.1289 -0.2342 -3.3880 0.0000 43.9002 0.0000
# 6 0.0000 0.0000 0.0000 7.0853 0.0000 35.1574
#
#
#
# Elastic Compliance Matrix: (Units=1/GPa)
#
#
# Indices 1 2 3 4 5 6 
#
# 1 0.010989 -0.003744 -0.002596 0.000000 -0.004508 0.000000
# 2 -0.003744 0.012468 -0.003423 0.000000 0.001263 0.000000
# 3 -0.002596 -0.003423 0.012355 0.000000 0.001948 0.000000
# 4 0.000000 0.000000 0.000000 0.025229 0.000000 -0.005084
# 5 -0.004508 0.001263 0.001948 0.000000 0.024695 0.000000
# 6 0.000000 0.000000 0.000000 -0.005084 0.000000 0.029468
#
#
# Mechanical properties :
#
#
# Convention : Reuss Voigt Hill
#
# Bulk Modulus (GPa) = 61.40695 62.25165 61.82930
# Shear Modulus (GPa) = 35.67363 37.84036 36.75700
#
# Velocity S-wave (km/s) = 3.93054 4.04815 3.98978
# Velocity P-wave (km/s) = 6.86967 6.98636 6.92826
#
# Compressibility (1/GPa) = 0.01628480
#
# Stress axis : x y z
#
# Youngs Moduli (GPa) = 90.99882 80.20823 80.93717
#
# Poissons Ratio (x) = 0.30031 0.21014
# Poissons Ratio (y) = 0.34071 0.27706
# Poissons Ratio (z) = 0.23626 0.27457
#
# Static dielectric constant tensor:
#      x y z
#    x 4.305350 0.000000 0.123320 
#    y 0.000000 4.326320 0.000000 
#    z 0.123320 0.000000 4.203340 
# 
# 
# High freq. dielectric constant tensor:
#      x y z
#    x 1.928110 0.000000 0.012020 
#    y 0.000000 1.927670 0.000000 
#    z 0.012020 0.000000 1.913560 
# 
# From -- ./inp_files/32458.got.cif
#   From: 2010.06.25/outbox.cif.g09.slc.cpg/sg13_17_cif.got.tgz:32458.got - 2010.06.28 04:50:58.
