data_PCOD8122962
_publ_section_title
;
Structure prediction by ZEFSAII (Michael W. Deem and Ramdas Pophale) SiO2 
 PCOD8122962
Probable space group: P 2/C
;
_chemical_formula_sum "Si O2"
_cell_formula_units_Z 28
_cell_length_a 6.717641
_cell_length_b 11.552897
_cell_length_c 20.067327
_cell_angle_alpha 90.000000
_cell_angle_beta 124.760374
_cell_angle_gamma 90.000000
_cell_volume 1279.463498
_symmetry_space_group_name_H-M "P 2/C"
_symmetry_group_IT_number 13
_symmetry_cell_setting 'monoclinic'
loop_
_space_group_symop_operation_xyz
x,y,z
-x,y,1/2-z
-x,-y,-z
x,-y,1/2+z
loop_
_atom_site_type_symbol
_atom_site_label
_atom_site_fract_x
_atom_site_fract_y
_atom_site_fract_z
Si Si1 0.640347 0.865596 0.652023
Si Si2 0.754234 0.193228 0.822960
Si Si3 0.730034 0.961523 0.440014
Si Si4 0.136043 0.367625 0.950931
Si Si5 0.630772 0.243745 0.017366
Si Si6 0.500000 0.275392 0.250000
Si Si7 0.078201 0.394811 0.089277
Si Si8 0.000000 0.935194 0.250000
O O1 0.715986 0.774505 0.610128
O O2 0.635005 0.805294 0.722407
O O3 0.381463 0.910178 0.577720
O O4 0.797865 0.981471 0.681496
O O5 0.500000 0.251025 0.750000
O O6 0.680561 0.087666 0.856874
O O7 0.915725 0.278880 0.898071
O O8 0.904996 0.148837 0.789084
O O9 0.615992 0.877126 0.474313
O O10 0.000000 0.000000 0.500000
O O11 0.034610 0.487777 0.900634
O O12 0.380538 0.317406 0.963254
O O13 0.200389 0.401060 0.039574
O O14 0.855221 0.311386 0.030156
O O15 0.287114 0.352613 0.178732
#
# Coordination Sequence:
#
# PCOD8122962 Si02
#       8
#     4   4   4   4   4   2   4   2
#     4  12  23  40  66  99 141 179 219 275 341 411
#     4  12  25  45  66 101 138 180 231 287 343 406
#     4  12  23  42  68 101 139 187 226 275 342 418
#     4  11  25  47  73  98 133 184 235 292 353 410
#     4  12  23  45  71 105 135 183 238 283 345 425
#     4  12  24  46  68 106 140 184 228 290 352 418
#     4  11  25  47  73  99 138 177 236 296 354 409
#     4  12  24  42  64 100 142 182 220 280 338 418
#
# _framework density 21.884170000000001
#
# number of rings (size 3 to 8) (size 9 to 14) (size 15 to 20)
#    0.000    0.286    4.286    6.000    1.000    0.000 
#    0.000    1.429    0.000    0.000    0.000    0.000 
#    0.000    0.000    0.000    0.000    0.000    0.000 
#
# Total GULP energy -347099.719368 kJ/mol
# GULP energy per Si atom -12396.418549 kJ/mol
# Density = 2.183436 g / cm^3
# Si number density = 21.884170 Si / 1000 Ang^3
#
#
#
# Elastic Constant Matrix: (Units=GPa)
#
#
# Indices 1 2 3 4 5 6 
#
# 1 98.0905 32.7755 49.3239 0.0000 1.4756 0.0000
# 2 32.7755 94.9458 39.3658 0.0000 6.4253 0.0000
# 3 49.3239 39.3658 116.3842 0.0000 14.4660 0.0000
# 4 0.0000 0.0000 0.0000 39.2007 0.0000 -2.1420
# 5 1.4756 6.4253 14.4660 0.0000 50.3363 0.0000
# 6 0.0000 0.0000 0.0000 -2.1420 0.0000 28.4895
#
#
#
# Elastic Compliance Matrix: (Units=1/GPa)
#
#
# Indices 1 2 3 4 5 6 
#
# 1 0.013604 -0.002708 -0.005022 0.000000 0.001390 0.000000
# 2 -0.002708 0.012797 -0.003098 0.000000 -0.000664 0.000000
# 3 -0.005022 -0.003098 0.012135 0.000000 -0.002945 0.000000
# 4 0.000000 0.000000 0.000000 0.025615 0.000000 0.001926
# 5 0.001390 -0.000664 -0.002945 0.000000 0.020757 0.000000
# 6 0.000000 0.000000 0.000000 0.001926 0.000000 0.035245
#
#
# Mechanical properties :
#
#
# Convention : Reuss Voigt Hill
#
# Bulk Modulus (GPa) = 59.24727 61.37232 60.30979
# Shear Modulus (GPa) = 33.91325 36.13567 35.02446
#
# Velocity S-wave (km/s) = 3.94086 4.06793 4.00490
# Velocity P-wave (km/s) = 6.91658 7.08302 7.00029
#
# Compressibility (1/GPa) = 0.01687841
#
# Stress axis : x y z
#
# Youngs Moduli (GPa) = 73.50810 78.14591 82.40887
#
# Poissons Ratio (x) = 0.21161 0.41388
# Poissons Ratio (y) = 0.19905 0.25532
# Poissons Ratio (z) = 0.36918 0.24211
#
# Static dielectric constant tensor:
#      x y z
#    x 4.006770 0.000000 0.243130 
#    y 0.000000 4.062490 0.000000 
#    z 0.243130 0.000000 3.967700 
# 
# 
# High freq. dielectric constant tensor:
#      x y z
#    x 1.872220 0.000000 0.007190 
#    y 0.000000 1.857820 0.000000 
#    z 0.007190 0.000000 1.869400 
# 
# From -- ./inp_files/73747.got.cif
#   From: 2010.06.25/outbox.cif.g09.slc.cpg/sg13_37_cif.got.tgz:73747.got - 2010.06.28 04:50:58.
