data_PCOD8122799
_publ_section_title
;
Structure prediction by ZEFSAII (Michael W. Deem and Ramdas Pophale) SiO2 
 PCOD8122799
Probable space group: P 2/C
;
_chemical_formula_sum "Si O2"
_cell_formula_units_Z 18
_cell_length_a 12.686875
_cell_length_b 6.470444
_cell_length_c 13.694148
_cell_angle_alpha 90.000000
_cell_angle_beta 139.512889
_cell_angle_gamma 90.000000
_cell_volume 729.883864
_symmetry_space_group_name_H-M "P 2/C"
_symmetry_group_IT_number 13
_symmetry_cell_setting 'monoclinic'
loop_
_space_group_symop_operation_xyz
x,y,z
-x,y,1/2-z
-x,-y,-z
x,-y,1/2+z
loop_
_atom_site_type_symbol
_atom_site_label
_atom_site_fract_x
_atom_site_fract_y
_atom_site_fract_z
Si Si1 0.424354 0.410684 0.050269
Si Si2 0.214169 0.658457 0.229477
Si Si3 0.143030 0.394475 0.001517
Si Si4 0.306047 0.064538 0.222061
Si Si5 0.500000 0.760297 0.250000
O O1 0.258761 0.354071 0.991389
O O2 0.545912 0.216260 0.143378
O O3 0.490072 0.622025 0.144860
O O4 0.362154 0.455898 0.894138
O O5 0.208923 0.590017 0.111301
O O6 0.246518 0.905470 0.264930
O O7 0.045190 0.588100 0.161463
O O8 0.152448 0.200223 0.082281
O O9 0.351650 0.916812 0.163269
#
# Coordination Sequence:
#
# PCOD8122799 Si02
#       5
#     4   4   4   4   2
#     4  12  23  44  69  97 130 178 220 265 328 386
#     4  11  26  41  71  98 135 170 218 270 328 395
#     4  11  23  46  64 100 137 171 211 273 329 388
#     4  12  22  44  68  96 130 173 221 272 320 387
#     4  12  22  42  70  90 132 170 224 272 316 378
#
# _framework density 24.661460000000002
#
# number of rings (size 3 to 8) (size 9 to 14) (size 15 to 20)
#    0.000    0.444    6.667    2.000    0.000    5.333 
#    0.000    0.000    0.000    0.000    0.000    0.000 
#    0.000    0.000    0.000    0.000    0.000    0.000 
#
# Total GULP energy -223051.973211 kJ/mol
# GULP energy per Si atom -12391.776289 kJ/mol
# Density = 2.460533 g / cm^3
# Si number density = 24.661460 Si / 1000 Ang^3
#
#
#
# Elastic Constant Matrix: (Units=GPa)
#
#
# Indices 1 2 3 4 5 6 
#
# 1 81.7269 19.8981 28.5008 0.0000 -1.3412 0.0000
# 2 19.8981 139.5278 46.0837 0.0000 8.1388 0.0000
# 3 28.5008 46.0837 144.7692 0.0000 15.3698 0.0000
# 4 0.0000 0.0000 0.0000 20.5981 0.0000 0.3976
# 5 -1.3412 8.1388 15.3698 0.0000 43.5783 0.0000
# 6 0.0000 0.0000 0.0000 0.3976 0.0000 43.1310
#
#
#
# Elastic Compliance Matrix: (Units=1/GPa)
#
#
# Indices 1 2 3 4 5 6 
#
# 1 0.013394 -0.001200 -0.002413 0.000000 0.001487 0.000000
# 2 -0.001200 0.008133 -0.002273 0.000000 -0.000754 0.000000
# 3 -0.002413 -0.002273 0.008383 0.000000 -0.002606 0.000000
# 4 0.000000 0.000000 0.000000 0.048557 0.000000 -0.000448
# 5 0.001487 -0.000754 -0.002606 0.000000 0.024053 0.000000
# 6 0.000000 0.000000 0.000000 -0.000448 0.000000 0.023189
#
#
# Mechanical properties :
#
#
# Convention : Reuss Voigt Hill
#
# Bulk Modulus (GPa) = 55.13073 61.66546 58.39810
# Shear Modulus (GPa) = 34.83707 39.56423 37.20065
#
# Velocity S-wave (km/s) = 3.76255 4.00971 3.88809
# Velocity P-wave (km/s) = 6.42489 6.81880 6.62478
#
# Compressibility (1/GPa) = 0.01813870
#
# Stress axis : x y z
#
# Youngs Moduli (GPa) = 74.66111 122.95981 119.29370
#
# Poissons Ratio (x) = 0.14755 0.28783
# Poissons Ratio (y) = 0.08959 0.27110
# Poissons Ratio (z) = 0.18014 0.27943
#
# Static dielectric constant tensor:
#      x y z
#    x 4.723150 0.000000 0.215960 
#    y 0.000000 4.621540 0.000000 
#    z 0.215960 0.000000 4.360810 
# 
# 
# High freq. dielectric constant tensor:
#      x y z
#    x 2.008890 0.000000 0.025970 
#    y 0.000000 1.992390 0.000000 
#    z 0.025970 0.000000 1.963440 
# 
# From -- ./inp_files/52000.got.cif
#   From: 2010.06.25/outbox.cif.g09.slc.cpg/sg13_26_cif.got.tgz:52000.got - 2010.06.28 04:50:58.
