data_PCOD8122361
_publ_section_title
;
Structure prediction by ZEFSAII (Michael W. Deem and Ramdas Pophale) SiO2 
 PCOD8122361
Probable space group: P 2/C
;
_chemical_formula_sum "Si O2"
_cell_formula_units_Z 16
_cell_length_a 8.506841
_cell_length_b 11.045519
_cell_length_c 8.945960
_cell_angle_alpha 90.000000
_cell_angle_beta 131.482501
_cell_angle_gamma 90.000000
_cell_volume 629.730678
_symmetry_space_group_name_H-M "P 2/C"
_symmetry_group_IT_number 13
_symmetry_cell_setting 'monoclinic'
loop_
_space_group_symop_operation_xyz
x,y,z
-x,y,1/2-z
-x,-y,-z
x,-y,1/2+z
loop_
_atom_site_type_symbol
_atom_site_label
_atom_site_fract_x
_atom_site_fract_y
_atom_site_fract_z
Si Si1 0.500000 0.665301 0.750000
Si Si2 0.733584 0.668333 0.409771
Si Si3 0.777125 0.471189 0.650864
Si Si4 0.000000 0.992986 0.250000
Si Si5 0.874432 0.167072 0.408983
O O1 0.417774 0.588444 0.557644
O O2 0.316200 0.741742 0.708856
O O3 0.500000 0.724867 0.250000
O O4 0.785301 0.613811 0.607247
O O5 0.746378 0.548442 0.308916
O O6 0.897882 0.769240 0.463142
O O7 0.000000 0.408416 0.750000
O O8 0.156320 0.077796 0.251585
O O9 0.136557 0.909450 0.445359
#
# Coordination Sequence:
#
# PCOD8122361 Si02
#       5
#     2   4   4   2   4
#     4  12  26  46  80 108 154 194 238 300 374 444
#     4  12  27  45  74 110 156 200 239 295 368 443
#     4  12  26  46  70 112 161 193 240 290 358 461
#     4  10  26  54  72 104 142 186 268 312 362 424
#     4  11  26  50  76 107 142 196 248 312 369 425
#
# _framework density 25.407689000000001
#
# number of rings (size 3 to 8) (size 9 to 14) (size 15 to 20)
#    0.000    0.500    3.750    3.000    5.250    1.000 
#    9.000    0.000    0.000    0.000    0.000    0.000 
#    0.000    0.000    0.000    0.000    0.000    0.000 
#
# Total GULP energy -198425.396655 kJ/mol
# GULP energy per Si atom -12401.587291 kJ/mol
# Density = 2.534986 g / cm^3
# Si number density = 25.407689 Si / 1000 Ang^3
#
#
#
# Elastic Constant Matrix: (Units=GPa)
#
#
# Indices 1 2 3 4 5 6 
#
# 1 127.2913 32.8515 45.6033 0.0000 16.9542 0.0000
# 2 32.8515 91.3131 29.1647 0.0000 -1.5164 0.0000
# 3 45.6033 29.1647 86.6336 0.0000 0.3371 0.0000
# 4 0.0000 0.0000 0.0000 9.9134 0.0000 -8.0822
# 5 16.9542 -1.5164 0.3371 0.0000 64.4311 0.0000
# 6 0.0000 0.0000 0.0000 -8.0822 0.0000 -5.0616
#
#
#
# Elastic Compliance Matrix: (Units=1/GPa)
#
#
# Indices 1 2 3 4 5 6 
#
# 1 0.010529 -0.002317 -0.004752 0.000000 -0.002800 0.000000
# 2 -0.002317 0.012787 -0.003089 0.000000 0.000927 0.000000
# 3 -0.004752 -0.003089 0.015080 0.000000 0.001099 0.000000
# 4 0.000000 0.000000 0.000000 0.043824 0.000000 -0.069976
# 5 -0.002800 0.000927 0.001099 0.000000 0.016273 0.000000
# 6 0.000000 0.000000 0.000000 -0.069976 0.000000 -0.085830
#
#
# Mechanical properties :
#
#
# Convention : Reuss Voigt Hill
#
# Bulk Modulus (GPa) = 55.30589 57.83079 56.56834
# Shear Modulus (GPa) = 128.19240 27.03114 77.61177
#
# Velocity S-wave (km/s) = 7.11082 3.26528 5.53289
# Velocity P-wave (km/s) = 9.44632 6.08495 7.94542
#
# Compressibility (1/GPa) = 0.01808126
#
# Stress axis : x y z
#
# Youngs Moduli (GPa) = 94.97337 78.20598 66.31490
#
# Poissons Ratio (x) = 0.18120 0.31511
# Poissons Ratio (y) = 0.22005 0.20482
# Poissons Ratio (z) = 0.45128 0.24154
#
# Static dielectric constant tensor:
#      x y z
#    x 4.819930 0.000000 -0.133590 
#    y 0.000000 4.542110 0.000000 
#    z -0.133590 0.000000 4.721610 
# 
# 
# High freq. dielectric constant tensor:
#      x y z
#    x 2.039520 0.000000 -0.010630 
#    y 0.000000 1.997960 0.000000 
#    z -0.010630 0.000000 2.023460 
# 
# From -- ./inp_files/11945.got.cif
#   From: 2010.06.25/outbox.cif.g09.slc.cpg/sg13_6_cif.got.tgz:11945.got - 2010.06.28 04:50:58.
