data_PCOD8122806
_publ_section_title
;
Structure prediction by ZEFSAII (Michael W. Deem and Ramdas Pophale) SiO2 
 PCOD8122806
Probable space group: P 2/C
;
_chemical_formula_sum "Si O2"
_cell_formula_units_Z 18
_cell_length_a 6.594245
_cell_length_b 7.879969
_cell_length_c 17.004681
_cell_angle_alpha 90.000000
_cell_angle_beta 60.968820
_cell_angle_gamma 90.000000
_cell_volume 772.584954
_symmetry_space_group_name_H-M "P 2/C"
_symmetry_group_IT_number 13
_symmetry_cell_setting 'monoclinic'
loop_
_space_group_symop_operation_xyz
x,y,z
-x,y,1/2-z
-x,-y,-z
x,-y,1/2+z
loop_
_atom_site_type_symbol
_atom_site_label
_atom_site_fract_x
_atom_site_fract_y
_atom_site_fract_z
Si Si1 0.471731 0.667945 0.168757
Si Si2 0.144202 0.883835 0.824978
Si Si3 0.000000 0.186507 0.750000
Si Si4 0.530072 0.284832 0.348419
Si Si5 0.645305 0.829674 0.985132
O O1 0.500000 0.751447 0.250000
O O2 0.210714 0.691702 0.184172
O O3 0.542349 0.471691 0.165336
O O4 0.637153 0.761584 0.075442
O O5 0.217281 0.771349 0.734183
O O6 0.349958 0.858131 0.850231
O O7 0.914328 0.833229 0.913918
O O8 0.099941 0.075254 0.803328
O O9 0.531912 0.295751 0.442244
O O10 0.500000 0.000000 0.000000
#
# Coordination Sequence:
#
# PCOD8122806 Si02
#       5
#     4   4   2   4   4
#     4  12  28  47  71 113 148 194 249 313 369 439
#     4  11  23  46  75 103 145 200 240 305 368 439
#     4  12  26  42  78 102 152 196 242 306 372 438
#     4  11  25  47  74 105 150 193 249 306 373 433
#     4  12  25  46  74 112 148 193 251 305 369 443
#
# _framework density 23.298410000000001
#
# number of rings (size 3 to 8) (size 9 to 14) (size 15 to 20)
#    0.000    0.444    6.667    0.667    9.333    3.556 
#    0.000    0.000    0.000    0.000    0.000    0.000 
#    0.000    0.000    0.000    0.000    0.000    0.000 
#
# Total GULP energy -223036.254114 kJ/mol
# GULP energy per Si atom -12390.903006 kJ/mol
# Density = 2.324538 g / cm^3
# Si number density = 23.298410 Si / 1000 Ang^3
#
#
#
# Elastic Constant Matrix: (Units=GPa)
#
#
# Indices 1 2 3 4 5 6 
#
# 1 114.7821 37.7772 64.9560 0.0000 -8.2846 0.0000
# 2 37.7772 66.0220 29.8428 0.0000 -6.1651 0.0000
# 3 64.9560 29.8428 185.0009 0.0000 9.8127 0.0000
# 4 0.0000 0.0000 0.0000 15.3858 0.0000 -3.7500
# 5 -8.2846 -6.1651 9.8127 0.0000 50.6511 0.0000
# 6 0.0000 0.0000 0.0000 -3.7500 0.0000 30.7571
#
#
#
# Elastic Compliance Matrix: (Units=1/GPa)
#
#
# Indices 1 2 3 4 5 6 
#
# 1 0.012754 -0.005417 -0.003718 0.000000 0.002147 0.000000
# 2 -0.005417 0.018964 -0.001246 0.000000 0.001664 0.000000
# 3 -0.003718 -0.001246 0.007024 0.000000 -0.002121 0.000000
# 4 0.000000 0.000000 0.000000 0.066986 0.000000 0.008167
# 5 0.002147 0.001664 -0.002121 0.000000 0.020707 0.000000
# 6 0.000000 0.000000 0.000000 0.008167 0.000000 0.033509
#
#
# Mechanical properties :
#
#
# Convention : Reuss Voigt Hill
#
# Bulk Modulus (GPa) = 55.61191 70.10635 62.85913
# Shear Modulus (GPa) = 26.78113 34.90741 30.84427
#
# Velocity S-wave (km/s) = 3.39408 3.87495 3.64246
# Velocity P-wave (km/s) = 6.26745 7.08352 6.68795
#
# Compressibility (1/GPa) = 0.01798176
#
# Stress axis : x y z
#
# Youngs Moduli (GPa) = 78.40683 52.73118 142.36322
#
# Poissons Ratio (x) = 0.28562 0.52934
# Poissons Ratio (y) = 0.42469 0.17732
# Poissons Ratio (z) = 0.29153 0.06568
#
# Static dielectric constant tensor:
#      x y z
#    x 4.305600 0.000000 0.034560 
#    y 0.000000 3.912380 0.000000 
#    z 0.034560 0.000000 4.611760 
# 
# 
# High freq. dielectric constant tensor:
#      x y z
#    x 1.926730 0.000000 0.004000 
#    y 0.000000 1.905850 0.000000 
#    z 0.004000 0.000000 1.933350 
# 
# From -- ./inp_files/60553.got.cif
#   From: 2010.06.25/outbox.cif.g09.slc.cpg/sg13_31_cif.got.tgz:60553.got - 2010.06.28 04:50:58.
