data_PCOD8122998
_publ_section_title
;
Structure prediction by ZEFSAII (Michael W. Deem and Ramdas Pophale) SiO2 
 PCOD8122998
Probable space group: P 2/C
;
_chemical_formula_sum "Si O2"
_cell_formula_units_Z 26
_cell_length_a 12.698169
_cell_length_b 9.406578
_cell_length_c 18.316305
_cell_angle_alpha 90.000000
_cell_angle_beta 146.844229
_cell_angle_gamma 90.000000
_cell_volume 1196.553591
_symmetry_space_group_name_H-M "P 2/C"
_symmetry_group_IT_number 13
_symmetry_cell_setting 'monoclinic'
loop_
_space_group_symop_operation_xyz
x,y,z
-x,y,1/2-z
-x,-y,-z
x,-y,1/2+z
loop_
_atom_site_type_symbol
_atom_site_label
_atom_site_fract_x
_atom_site_fract_y
_atom_site_fract_z
Si Si1 0.292603 0.073003 0.114260
Si Si2 0.500000 0.528243 0.250000
Si Si3 0.563848 0.614871 0.636076
Si Si4 0.193523 0.578908 0.327519
Si Si5 0.924206 0.832305 0.339148
Si Si6 0.173082 0.864333 0.699189
Si Si7 0.797644 0.232677 0.928301
O O1 0.500000 0.145634 0.250000
O O2 0.169096 0.072952 0.115629
O O3 0.317280 0.906500 0.108148
O O4 0.160367 0.160431 0.980157
O O5 0.434373 0.428556 0.278285
O O6 0.323460 0.627563 0.122277
O O7 0.350468 0.602061 0.481493
O O8 0.719132 0.521180 0.683513
O O9 0.634120 0.778854 0.668228
O O10 0.135675 0.729586 0.260254
O O11 0.000000 0.509781 0.250000
O O12 0.833239 0.773319 0.361749
O O13 0.850029 0.989168 0.269103
O O14 0.989366 0.758076 0.590432
#
# Coordination Sequence:
#
# PCOD8122998 Si02
#       7
#     4   2   4   4   4   4   4
#     4   9  17  31  61  97 127 154 208 272 321 385
#     4  12  22  38  68  98 130 176 224 268 332 392
#     4  11  27  43  64  99 128 178 225 267 329 395
#     4  11  26  47  64  87 137 178 220 269 328 395
#     4   9  19  41  63  88 127 173 206 267 333 382
#     4   9  21  37  60  95 129 157 216 271 322 383
#     4   9  18  36  62  94 128 164 205 263 330 385
#
# _framework density 21.729073
#
# number of rings (size 3 to 8) (size 9 to 14) (size 15 to 20)
#    0.000    2.154    2.308    1.846    5.385    2.462 
#    0.000    0.769    3.385    0.000    0.000    0.000 
#    0.000    0.000    0.000    0.000    0.000    0.000 
#
# Total GULP energy -322176.897331 kJ/mol
# GULP energy per Si atom -12391.419128 kJ/mol
# Density = 2.167962 g / cm^3
# Si number density = 21.729073 Si / 1000 Ang^3
#
#
#
# Elastic Constant Matrix: (Units=GPa)
#
#
# Indices 1 2 3 4 5 6 
#
# 1 79.9906 26.1660 40.0838 0.0000 9.9517 0.0000
# 2 26.1660 87.3558 42.1411 0.0000 2.9832 0.0000
# 3 40.0838 42.1411 106.0600 0.0000 22.5955 0.0000
# 4 0.0000 0.0000 0.0000 37.4709 0.0000 5.2241
# 5 9.9517 2.9832 22.5955 0.0000 33.4244 0.0000
# 6 0.0000 0.0000 0.0000 5.2241 0.0000 11.6048
#
#
#
# Elastic Compliance Matrix: (Units=1/GPa)
#
#
# Indices 1 2 3 4 5 6 
#
# 1 0.015830 -0.002405 -0.004753 0.000000 -0.001285 0.000000
# 2 -0.002405 0.014784 -0.005650 0.000000 0.003216 0.000000
# 3 -0.004753 -0.005650 0.015259 0.000000 -0.008396 0.000000
# 4 0.000000 0.000000 0.000000 0.028475 0.000000 -0.012818
# 5 -0.001285 0.003216 -0.008396 0.000000 0.035689 0.000000
# 6 0.000000 0.000000 0.000000 -0.012818 0.000000 0.091942
#
#
# Mechanical properties :
#
#
# Convention : Reuss Voigt Hill
#
# Bulk Modulus (GPa) = 49.36947 54.46536 51.91742
# Shear Modulus (GPa) = 21.33588 27.50105 24.41846
#
# Velocity S-wave (km/s) = 3.13694 3.56143 3.35590
# Velocity P-wave (km/s) = 5.99085 6.48320 6.24188
#
# Compressibility (1/GPa) = 0.02025543
#
# Stress axis : x y z
#
# Youngs Moduli (GPa) = 63.17150 67.64212 65.53546
#
# Poissons Ratio (x) = 0.16265 0.31152
# Poissons Ratio (y) = 0.15190 0.37031
# Poissons Ratio (z) = 0.30028 0.38221
#
# Static dielectric constant tensor:
#      x y z
#    x 3.749110 0.000000 0.289720 
#    y 0.000000 3.826470 0.000000 
#    z 0.289720 0.000000 3.816410 
# 
# 
# High freq. dielectric constant tensor:
#      x y z
#    x 1.829680 0.000000 0.024480 
#    y 0.000000 1.855020 0.000000 
#    z 0.024480 0.000000 1.852160 
# 
# From -- ./inp_files/49898.got.cif
#   From: 2010.06.25/outbox.cif.g09.slc.cpg/sg13_25_cif.got.tgz:49898.got - 2010.06.28 04:50:58.
