data_PCOD8122463
_publ_section_title
;
Structure prediction by ZEFSAII (Michael W. Deem and Ramdas Pophale) SiO2 
 PCOD8122463
Probable space group: P 2/C
;
_chemical_formula_sum "Si O2"
_cell_formula_units_Z 30
_cell_length_a 8.792402
_cell_length_b 16.036924
_cell_length_c 10.880274
_cell_angle_alpha 90.000000
_cell_angle_beta 72.680112
_cell_angle_gamma 90.000000
_cell_volume 1464.589910
_symmetry_space_group_name_H-M "P 2/C"
_symmetry_group_IT_number 13
_symmetry_cell_setting 'monoclinic'
loop_
_space_group_symop_operation_xyz
x,y,z
-x,y,1/2-z
-x,-y,-z
x,-y,1/2+z
loop_
_atom_site_type_symbol
_atom_site_label
_atom_site_fract_x
_atom_site_fract_y
_atom_site_fract_z
Si Si1 0.560950 0.340249 0.960947
Si Si2 0.249116 0.462001 0.432523
Si Si3 0.688451 0.059531 0.830400
Si Si4 0.257865 0.752033 0.481491
Si Si5 0.183301 0.761672 0.221848
Si Si6 0.060776 0.397567 0.101348
Si Si7 0.316980 0.937707 0.447227
Si Si8 0.500000 0.549705 0.250000
O O1 0.420328 0.272450 0.015657
O O2 0.725447 0.293296 0.898452
O O3 0.490345 0.394488 0.870422
O O4 0.604278 0.404144 0.057917
O O5 0.203615 0.538794 0.534155
O O6 0.332356 0.498373 0.289357
O O7 0.090131 0.409113 0.451227
O O8 0.793307 0.141909 0.817468
O O9 0.720880 0.025860 0.681847
O O10 0.504806 0.081165 0.899894
O O11 0.740811 0.997500 0.927894
O O12 0.258660 0.735223 0.334732
O O13 0.116254 0.698509 0.576482
O O14 0.227517 0.851144 0.500399
O O15 0.000000 0.738061 0.250000
O O16 0.000000 0.418387 0.250000
#
# Coordination Sequence:
#
# PCOD8122463 Si02
#       8
#     4   4   4   4   4   4   4   2
#     4  12  21  37  62  89 118 154 211 255 304 358
#     4  11  25  38  61  90 118 164 208 256 303 371
#     4   9  18  35  61  92 118 160 200 258 308 377
#     4  11  21  39  61  90 117 164 203 255 310 367
#     4  11  21  37  61  91 123 155 205 258 309 371
#     4  11  24  43  59  85 130 164 199 253 324 368
#     4   9  18  36  64  88 122 156 210 252 310 375
#     4  12  22  38  64  88 116 158 216 252 304 356
#
# _framework density 20.483550000000001
#
# number of rings (size 3 to 8) (size 9 to 14) (size 15 to 20)
#    0.000    1.333    4.000    2.000    1.867    2.667 
#    0.000    6.000    2.933    0.000    0.000    0.000 
#    0.000    0.000    0.000    0.000    0.000    0.000 
#
# Total GULP energy -371705.992070 kJ/mol
# GULP energy per Si atom -12390.199736 kJ/mol
# Density = 2.043693 g / cm^3
# Si number density = 20.483550 Si / 1000 Ang^3
#
#
#
# Elastic Constant Matrix: (Units=GPa)
#
#
# Indices 1 2 3 4 5 6 
#
# 1 77.2976 37.2316 25.0704 0.0000 -8.5733 0.0000
# 2 37.2316 86.4096 46.9775 0.0000 -1.1853 0.0000
# 3 25.0704 46.9775 91.7901 0.0000 -2.6197 0.0000
# 4 0.0000 0.0000 0.0000 29.9459 0.0000 -4.4620
# 5 -8.5733 -1.1853 -2.6197 0.0000 32.9812 0.0000
# 6 0.0000 0.0000 0.0000 -4.4620 0.0000 34.6676
#
#
#
# Elastic Compliance Matrix: (Units=1/GPa)
#
#
# Indices 1 2 3 4 5 6 
#
# 1 0.016950 -0.006642 -0.001114 0.000000 0.004079 0.000000
# 2 -0.006642 0.018637 -0.007772 0.000000 -0.001674 0.000000
# 3 -0.001114 -0.007772 0.015194 0.000000 0.000638 0.000000
# 4 0.000000 0.000000 0.000000 0.034047 0.000000 0.004382
# 5 0.004079 -0.001674 0.000638 0.000000 0.031371 0.000000
# 6 0.000000 0.000000 0.000000 0.004382 0.000000 0.029409
#
#
# Mechanical properties :
#
#
# Convention : Reuss Voigt Hill
#
# Bulk Modulus (GPa) = 50.69433 52.67293 51.68363
# Shear Modulus (GPa) = 27.28685 29.26679 28.27682
#
# Velocity S-wave (km/s) = 3.65380 3.78404 3.71949
# Velocity P-wave (km/s) = 6.52709 6.69795 6.61307
#
# Compressibility (1/GPa) = 0.01972607
#
# Stress axis : x y z
#
# Youngs Moduli (GPa) = 58.99796 53.65714 65.81335
#
# Poissons Ratio (x) = 0.35637 0.07331
# Poissons Ratio (y) = 0.39185 0.51150
# Poissons Ratio (z) = 0.06572 0.41702
#
# Static dielectric constant tensor:
#      x y z
#    x 4.051350 0.000000 0.543440 
#    y 0.000000 3.719600 0.000000 
#    z 0.543440 0.000000 4.639810 
# 
# 
# High freq. dielectric constant tensor:
#      x y z
#    x 1.798690 0.000000 -0.004870 
#    y 0.000000 1.798250 0.000000 
#    z -0.004870 0.000000 1.782490 
# 
# From -- ./inp_files/30386.got.cif
#   From: 2010.06.25/outbox.cif.g09.slc.cpg/sg13_16_cif.got.tgz:30386.got - 2010.06.28 04:50:58.
