data_PCOD8122511
_publ_section_title
;
Structure prediction by ZEFSAII (Michael W. Deem and Ramdas Pophale) SiO2 
 PCOD8122511
Probable space group: P 2/C
;
_chemical_formula_sum "Si O2"
_cell_formula_units_Z 30
_cell_length_a 18.784454
_cell_length_b 8.485912
_cell_length_c 13.461662
_cell_angle_alpha 90.000000
_cell_angle_beta 143.313429
_cell_angle_gamma 90.000000
_cell_volume 1282.000074
_symmetry_space_group_name_H-M "P 2/C"
_symmetry_group_IT_number 13
_symmetry_cell_setting 'monoclinic'
loop_
_space_group_symop_operation_xyz
x,y,z
-x,y,1/2-z
-x,-y,-z
x,-y,1/2+z
loop_
_atom_site_type_symbol
_atom_site_label
_atom_site_fract_x
_atom_site_fract_y
_atom_site_fract_z
Si Si1 0.005091 0.365893 0.372122
Si Si2 0.247857 0.792093 0.154006
Si Si3 0.855387 0.648890 0.970465
Si Si4 0.500000 0.267830 0.250000
Si Si5 0.253122 0.707825 0.849129
Si Si6 0.674088 0.478666 0.885034
Si Si7 0.869526 0.956991 0.101472
Si Si8 0.302286 0.064952 0.922141
O O1 0.121095 0.277898 0.544608
O O2 0.025337 0.550989 0.427435
O O3 0.000000 0.349231 0.250000
O O4 0.887601 0.282416 0.282767
O O5 0.340322 0.664747 0.210052
O O6 0.302275 0.869431 0.311523
O O7 0.229838 0.921737 0.047828
O O8 0.750299 0.651658 0.769260
O O9 0.802025 0.556862 0.006103
O O10 0.891500 0.821903 0.044390
O O11 0.426251 0.386872 0.239184
O O12 0.585001 0.150675 0.404093
O O13 0.316911 0.876254 0.931913
O O14 0.322073 0.583955 0.996668
O O15 0.817794 0.895029 0.148950
O O16 0.000000 0.039618 0.250000
#
# Coordination Sequence:
#
# PCOD8122511 Si02
#       8
#     4   4   4   2   4   4   4   4
#     4  11  21  41  69 109 156 198 233 295 356 447
#     4  11  24  45  72 107 150 193 242 293 378 442
#     4  11  24  40  68 111 150 194 243 285 364 437
#     4  12  30  52  78 104 138 188 264 316 372 426
#     4  12  24  45  73 107 152 195 244 296 376 443
#     4  11  26  49  71 102 144 188 245 318 357 430
#     4  12  24  42  72 112 157 192 235 296 361 451
#     4  12  27  49  75 106 146 197 250 312 365 441
#
# _framework density 23.400933999999999
#
# number of rings (size 3 to 8) (size 9 to 14) (size 15 to 20)
#    0.000    0.533    6.667    2.000    5.600    2.133 
#    0.000    1.333    0.000    0.000    0.000    0.000 
#    0.000    0.000    0.000    0.000    0.000    0.000 
#
# Total GULP energy -371853.980654 kJ/mol
# GULP energy per Si atom -12395.132688 kJ/mol
# Density = 2.334767 g / cm^3
# Si number density = 23.400934 Si / 1000 Ang^3
#
#
#
# Elastic Constant Matrix: (Units=GPa)
#
#
# Indices 1 2 3 4 5 6 
#
# 1 59.8605 31.2666 39.0014 0.0000 -9.9976 0.0000
# 2 31.2666 148.1658 52.3929 0.0000 -2.1176 0.0000
# 3 39.0014 52.3929 100.0454 0.0000 -7.7121 0.0000
# 4 0.0000 0.0000 0.0000 44.1148 0.0000 4.0068
# 5 -9.9976 -2.1176 -7.7121 0.0000 34.1834 0.0000
# 6 0.0000 0.0000 0.0000 4.0068 0.0000 37.8264
#
#
#
# Elastic Compliance Matrix: (Units=1/GPa)
#
#
# Indices 1 2 3 4 5 6 
#
# 1 0.023723 -0.002211 -0.007700 0.000000 0.005064 0.000000
# 2 -0.002211 0.008497 -0.003661 0.000000 -0.000946 0.000000
# 3 -0.007700 -0.003661 0.014984 0.000000 0.000902 0.000000
# 4 0.000000 0.000000 0.000000 0.022888 0.000000 -0.002424
# 5 0.005064 -0.000946 0.000902 0.000000 0.030880 0.000000
# 6 0.000000 0.000000 0.000000 -0.002424 0.000000 0.026693
#
#
# Mechanical properties :
#
#
# Convention : Reuss Voigt Hill
#
# Bulk Modulus (GPa) = 49.84960 61.48818 55.66889
# Shear Modulus (GPa) = 30.96081 35.58565 33.27323
#
# Velocity S-wave (km/s) = 3.64133 3.90384 3.77487
# Velocity P-wave (km/s) = 6.24722 6.83029 6.54525
#
# Compressibility (1/GPa) = 0.02006034
#
# Stress axis : x y z
#
# Youngs Moduli (GPa) = 42.15343 117.69290 66.73923
#
# Poissons Ratio (x) = 0.26022 0.51388
# Poissons Ratio (y) = 0.09320 0.24431
# Poissons Ratio (z) = 0.32457 0.43083
#
# Static dielectric constant tensor:
#      x y z
#    x 4.726630 0.000000 -0.086050 
#    y 0.000000 4.513310 0.000000 
#    z -0.086050 0.000000 4.063560 
# 
# 
# High freq. dielectric constant tensor:
#      x y z
#    x 1.916200 0.000000 -0.017830 
#    y 0.000000 1.946790 0.000000 
#    z -0.017830 0.000000 1.903330 
# 
# From -- ./inp_files/57556.got.cif
#   From: 2010.06.25/outbox.cif.g09.slc.cpg/sg13_29_cif.got.tgz:57556.got - 2010.06.28 04:50:58.
