data_PCOD8122472
_publ_section_title
;
Structure prediction by ZEFSAII (Michael W. Deem and Ramdas Pophale) SiO2 
 PCOD8122472
Probable space group: P 2/C
;
_chemical_formula_sum "Si O2"
_cell_formula_units_Z 32
_cell_length_a 8.942181
_cell_length_b 11.563139
_cell_length_c 30.717146
_cell_angle_alpha 90.000000
_cell_angle_beta 30.057146
_cell_angle_gamma 90.000000
_cell_volume 1590.814202
_symmetry_space_group_name_H-M "P 2/C"
_symmetry_group_IT_number 13
_symmetry_cell_setting 'monoclinic'
loop_
_space_group_symop_operation_xyz
x,y,z
-x,y,1/2-z
-x,-y,-z
x,-y,1/2+z
loop_
_atom_site_type_symbol
_atom_site_label
_atom_site_fract_x
_atom_site_fract_y
_atom_site_fract_z
Si Si1 0.308093 0.072648 0.421095
Si Si2 0.350126 0.483190 0.363273
Si Si3 0.650674 0.148493 0.838248
Si Si4 0.389881 0.264870 0.988681
Si Si5 0.312523 0.248975 0.498315
Si Si6 0.304769 0.238967 0.339943
Si Si7 0.616214 0.722425 0.176142
Si Si8 0.358291 0.496733 0.458300
O O1 0.366213 0.152970 0.448243
O O2 0.320352 0.147589 0.374636
O O3 0.589690 0.987369 0.348984
O O4 0.000000 0.000000 0.500000
O O5 0.451127 0.360202 0.318539
O O6 0.480734 0.587511 0.301349
O O7 0.484704 0.503277 0.377469
O O8 0.994888 0.488312 0.454640
O O9 0.484179 0.190735 0.923375
O O10 0.508637 0.210880 0.833169
O O11 0.000000 0.174191 0.750000
O O12 0.558369 0.210179 0.987679
O O13 0.488343 0.398434 0.954909
O O14 0.038860 0.254900 0.086778
O O15 0.464863 0.372745 0.449488
O O16 0.965851 0.268008 0.588623
O O17 0.500000 0.193508 0.250000
O O18 0.500000 0.778560 0.250000
#
# Coordination Sequence:
#
# PCOD8122472 Si02
#       8
#     4   4   4   4   4   4   4   4
#     4  12  24  46  66  88 128 180 226 270 324 389
#     4   9  17  34  65  95 126 170 211 258 331 397
#     4  12  26  44  66  94 130 169 219 275 324 384
#     4  11  22  41  66 100 134 164 215 275 331 393
#     4  11  22  39  68  93 127 175 215 263 330 391
#     4  11  23  42  69  96 130 174 222 271 330 395
#     4  11  21  38  64  97 131 166 211 262 327 399
#     4   9  17  34  65  96 127 169 208 260 332 396
#
# _framework density 20.115485
#
# number of rings (size 3 to 8) (size 9 to 14) (size 15 to 20)
#    0.000    1.250    5.000    1.500    0.000    2.000 
#    2.250    1.250    0.000    0.000    0.000    0.000 
#    0.000    0.000    0.000    0.000    0.000    0.000 
#
# Total GULP energy -396758.148123 kJ/mol
# GULP energy per Si atom -12398.692129 kJ/mol
# Density = 2.006970 g / cm^3
# Si number density = 20.115485 Si / 1000 Ang^3
#
#
#
# Elastic Constant Matrix: (Units=GPa)
#
#
# Indices 1 2 3 4 5 6 
#
# 1 152.2048 62.9198 54.1716 0.0000 30.8581 0.0000
# 2 62.9198 135.8459 38.2632 0.0000 14.4134 0.0000
# 3 54.1716 38.2632 86.0578 0.0000 15.9311 0.0000
# 4 0.0000 0.0000 0.0000 -14.7290 0.0000 -47.8518
# 5 30.8581 14.4134 15.9311 0.0000 29.8888 0.0000
# 6 0.0000 0.0000 0.0000 -47.8518 0.0000 -33.2555
#
#
#
# Elastic Compliance Matrix: (Units=1/GPa)
#
#
# Indices 1 2 3 4 5 6 
#
# 1 0.010801 -0.003066 -0.004044 0.000000 -0.007517 0.000000
# 2 -0.003066 0.009429 -0.002226 0.000000 -0.000195 0.000000
# 3 -0.004044 -0.002226 0.015737 0.000000 -0.003139 0.000000
# 4 0.000000 0.000000 0.000000 0.018476 0.000000 -0.026585
# 5 -0.007517 -0.000195 -0.003139 0.000000 0.042985 0.000000
# 6 0.000000 0.000000 0.000000 -0.026585 0.000000 0.008183
#
#
# Mechanical properties :
#
#
# Convention : Reuss Voigt Hill
#
# Bulk Modulus (GPa) = 57.82412 76.09087 66.95750
# Shear Modulus (GPa) = 38.44729 10.96447 24.70588
#
# Velocity S-wave (km/s) = 4.37662 2.33722 3.50837
# Velocity P-wave (km/s) = 7.37212 6.72254 7.05481
#
# Compressibility (1/GPa) = 0.01729382
#
# Stress axis : x y z
#
# Youngs Moduli (GPa) = 92.58460 106.05440 63.54530
#
# Poissons Ratio (x) = 0.32516 0.25699
# Poissons Ratio (y) = 0.28386 0.14147
# Poissons Ratio (z) = 0.37443 0.23611
#
# Static dielectric constant tensor:
#      x y z
#    x 3.725700 0.000000 0.233110 
#    y 0.000000 4.005190 0.000000 
#    z 0.233110 0.000000 3.503070 
# 
# 
# High freq. dielectric constant tensor:
#      x y z
#    x 1.789850 0.000000 0.018450 
#    y 0.000000 1.793610 0.000000 
#    z 0.018450 0.000000 1.767540 
# 
# From -- ./inp_files/96131.got.cif
#   From: 2010.06.25/outbox.cif.g09.slc.cpg/sg13_49_cif.got.tgz:96131.got - 2010.06.28 04:50:58.
