data_PCOD8122077
_publ_section_title
;
Structure prediction by ZEFSAII (Michael W. Deem and Ramdas Pophale) SiO2 
 PCOD8122077
Probable space group: P 2/C
;
_chemical_formula_sum "Si O2"
_cell_formula_units_Z 14
_cell_length_a 5.234890
_cell_length_b 13.832651
_cell_length_c 8.575600
_cell_angle_alpha 90.000000
_cell_angle_beta 93.077585
_cell_angle_gamma 90.000000
_cell_volume 620.084224
_symmetry_space_group_name_H-M "P 2/C"
_symmetry_group_IT_number 13
_symmetry_cell_setting 'monoclinic'
loop_
_space_group_symop_operation_xyz
x,y,z
-x,y,1/2-z
-x,-y,-z
x,-y,1/2+z
loop_
_atom_site_type_symbol
_atom_site_label
_atom_site_fract_x
_atom_site_fract_y
_atom_site_fract_z
Si Si1 0.678219 0.912593 0.971822
Si Si2 0.000000 0.014216 0.750000
Si Si3 0.032139 0.393575 0.566649
Si Si4 0.526677 0.299076 0.431741
O O1 0.893350 0.912618 0.114875
O O2 0.512196 0.815270 0.961889
O O3 0.500000 0.000000 0.000000
O O4 0.796343 0.936819 0.808055
O O5 0.309395 0.351944 0.526390
O O6 0.000000 0.395393 0.750000
O O7 0.000000 0.500000 0.500000
O O8 0.811071 0.328242 0.488685
O O9 0.500000 0.326237 0.250000
#
# Coordination Sequence:
#
# PCOD8122077 Si02
#       4
#     4   2   4   4
#     4  11  25  43  69 103 149 192 249 294 368 425
#     4  10  24  42  68  98 152 196 244 306 352 434
#     4  12  28  51  77 109 146 188 245 308 375 444
#     4  12  27  46  78 108 148 196 246 302 372 440
#
# _framework density 22.577576000000001
#
# number of rings (size 3 to 8) (size 9 to 14) (size 15 to 20)
#    0.000    0.571    0.000    6.857   14.000    2.286 
#    0.000    0.000    0.000    0.000    0.000    0.000 
#    0.000    0.000    0.000    0.000    0.000    0.000 
#
# Total GULP energy -173614.528543 kJ/mol
# GULP energy per Si atom -12401.037753 kJ/mol
# Density = 2.252619 g / cm^3
# Si number density = 22.577576 Si / 1000 Ang^3
#
#
#
# Elastic Constant Matrix: (Units=GPa)
#
#
# Indices 1 2 3 4 5 6 
#
# 1 107.3022 34.2023 16.3592 0.0000 -25.3966 0.0000
# 2 34.2023 128.7185 27.0811 0.0000 -21.7198 0.0000
# 3 16.3592 27.0811 143.2811 0.0000 -20.4529 0.0000
# 4 0.0000 0.0000 0.0000 29.6996 0.0000 4.3895
# 5 -25.3966 -21.7198 -20.4529 0.0000 46.2330 0.0000
# 6 0.0000 0.0000 0.0000 4.3895 0.0000 45.0419
#
#
#
# Elastic Compliance Matrix: (Units=1/GPa)
#
#
# Indices 1 2 3 4 5 6 
#
# 1 0.011218 -0.002085 -0.000157 0.000000 0.005113 0.000000
# 2 -0.002085 0.008990 -0.001091 0.000000 0.002596 0.000000
# 3 -0.000157 -0.001091 0.007598 0.000000 0.002763 0.000000
# 4 0.000000 0.000000 0.000000 0.034163 0.000000 -0.003329
# 5 0.005113 0.002596 0.002763 0.000000 0.026880 0.000000
# 6 0.000000 0.000000 0.000000 -0.003329 0.000000 0.022526
#
#
# Mechanical properties :
#
#
# Convention : Reuss Voigt Hill
#
# Bulk Modulus (GPa) = 47.30071 59.39856 53.34963
# Shear Modulus (GPa) = 39.97215 44.30551 42.13883
#
# Velocity S-wave (km/s) = 4.21222 4.43467 4.32487
# Velocity P-wave (km/s) = 6.68228 7.25172 6.97282
#
# Compressibility (1/GPa) = 0.02114133
#
# Stress axis : x y z
#
# Youngs Moduli (GPa) = 89.14045 111.23007 131.61899
#
# Poissons Ratio (x) = 0.23192 0.02064
# Poissons Ratio (y) = 0.18586 0.14355
# Poissons Ratio (z) = 0.01398 0.12131
#
# Static dielectric constant tensor:
#      x y z
#    x 3.656660 0.000000 -0.392630 
#    y 0.000000 4.024510 0.000000 
#    z -0.392630 0.000000 3.889980 
# 
# 
# High freq. dielectric constant tensor:
#      x y z
#    x 1.907730 0.000000 0.002070 
#    y 0.000000 1.892790 0.000000 
#    z 0.002070 0.000000 1.915220 
# 
# From -- ./inp_files/8598.got.cif
#   From: 2010.06.25/outbox.cif.g09.slc.cpg/sg13_5_cif.got.tgz:8598.got - 2010.06.28 04:50:58.
