data_PCOD8122894
_publ_section_title
;
Structure prediction by ZEFSAII (Michael W. Deem and Ramdas Pophale) SiO2 
 PCOD8122894
Probable space group: P 2/C
;
_chemical_formula_sum "Si O2"
_cell_formula_units_Z 16
_cell_length_a 6.859897
_cell_length_b 7.284174
_cell_length_c 22.493045
_cell_angle_alpha 90.000000
_cell_angle_beta 40.426307
_cell_angle_gamma 90.000000
_cell_volume 728.845883
_symmetry_space_group_name_H-M "P 2/C"
_symmetry_group_IT_number 13
_symmetry_cell_setting 'monoclinic'
loop_
_space_group_symop_operation_xyz
x,y,z
-x,y,1/2-z
-x,-y,-z
x,-y,1/2+z
loop_
_atom_site_type_symbol
_atom_site_label
_atom_site_fract_x
_atom_site_fract_y
_atom_site_fract_z
Si Si1 0.815772 0.326620 0.526288
Si Si2 0.809539 0.808012 0.155010
Si Si3 0.154481 0.450794 0.653590
Si Si4 0.849237 0.218963 0.166302
O O1 0.792830 0.185376 0.587090
O O2 0.505044 0.414036 0.576431
O O3 0.000000 0.500000 0.500000
O O4 0.000237 0.223827 0.433016
O O5 0.500000 0.721636 0.250000
O O6 0.062375 0.667009 0.117475
O O7 0.860043 0.001928 0.177175
O O8 0.000000 0.381640 0.750000
O O9 0.052669 0.662948 0.665140
O O10 0.500000 0.287570 0.250000
#
# Coordination Sequence:
#
# PCOD8122894 Si02
#       4
#     4   4   4   4
#     4  12  24  44  72  97 134 180 223 276 341 397
#     4  11  24  46  69  98 137 177 222 279 339 398
#     4  12  24  44  70  98 137 179 223 276 339 400
#     4  11  25  45  68 100 137 177 226 280 333 401
#
# _framework density 21.952513
#
# number of rings (size 3 to 8) (size 9 to 14) (size 15 to 20)
#    0.000    0.500    5.000    3.750    0.000    2.000 
#    4.500    0.000    0.000    0.000    0.000    0.000 
#    0.000    0.000    0.000    0.000    0.000    0.000 
#
# Total GULP energy -198318.466127 kJ/mol
# GULP energy per Si atom -12394.904133 kJ/mol
# Density = 2.190255 g / cm^3
# Si number density = 21.952513 Si / 1000 Ang^3
#
#
#
# Elastic Constant Matrix: (Units=GPa)
#
#
# Indices 1 2 3 4 5 6 
#
# 1 132.4145 45.7851 58.3696 0.0000 -17.3905 0.0000
# 2 45.7851 100.5908 10.9717 0.0000 -22.0361 0.0000
# 3 58.3696 10.9717 154.6634 0.0000 -6.3837 0.0000
# 4 0.0000 0.0000 0.0000 23.9940 0.0000 2.8305
# 5 -17.3905 -22.0361 -6.3837 0.0000 48.4278 0.0000
# 6 0.0000 0.0000 0.0000 2.8305 0.0000 3.9438
#
#
#
# Elastic Compliance Matrix: (Units=1/GPa)
#
#
# Indices 1 2 3 4 5 6 
#
# 1 0.010847 -0.004203 -0.003734 0.000000 0.001490 0.000000
# 2 -0.004203 0.012723 0.000865 0.000000 0.004394 0.000000
# 3 -0.003734 0.000865 0.007817 0.000000 0.000083 0.000000
# 4 0.000000 0.000000 0.000000 0.045532 0.000000 -0.032678
# 5 0.001490 0.004394 0.000083 0.000000 0.023195 0.000000
# 6 0.000000 0.000000 0.000000 -0.032678 0.000000 0.277015
#
#
# Mechanical properties :
#
#
# Convention : Reuss Voigt Hill
#
# Bulk Modulus (GPa) = 57.99709 68.65794 63.32751
# Shear Modulus (GPa) = 12.59380 33.44262 23.01821
#
# Velocity S-wave (km/s) = 2.39777 3.90732 3.24164
# Velocity P-wave (km/s) = 5.84315 7.19025 6.55142
#
# Compressibility (1/GPa) = 0.01724225
#
# Stress axis : x y z
#
# Youngs Moduli (GPa) = 92.18970 78.59968 127.92771
#
# Poissons Ratio (x) = 0.33039 0.47768
# Poissons Ratio (y) = 0.38752 -0.11068
# Poissons Ratio (z) = 0.34424 -0.06800
#
# Static dielectric constant tensor:
#      x y z
#    x 5.174350 0.000000 0.710700 
#    y 0.000000 3.772850 0.000000 
#    z 0.710700 0.000000 4.536900 
# 
# 
# High freq. dielectric constant tensor:
#      x y z
#    x 1.859520 0.000000 0.000740 
#    y 0.000000 1.861390 0.000000 
#    z 0.000740 0.000000 1.885140 
# 
# From -- ./inp_files/43211.got.cif
#   From: 2010.06.25/outbox.cif.g09.slc.cpg/sg13_22_cif.got.tgz:43211.got - 2010.06.28 04:50:58.
