data_PCOD8122520
_publ_section_title
;
Structure prediction by ZEFSAII (Michael W. Deem and Ramdas Pophale) SiO2 
 PCOD8122520
Probable space group: P 2/C
;
_chemical_formula_sum "Si O2"
_cell_formula_units_Z 30
_cell_length_a 13.657503
_cell_length_b 10.878672
_cell_length_c 9.037115
_cell_angle_alpha 90.000000
_cell_angle_beta 105.583280
_cell_angle_gamma 90.000000
_cell_volume 1293.337758
_symmetry_space_group_name_H-M "P 2/C"
_symmetry_group_IT_number 13
_symmetry_cell_setting 'monoclinic'
loop_
_space_group_symop_operation_xyz
x,y,z
-x,y,1/2-z
-x,-y,-z
x,-y,1/2+z
loop_
_atom_site_type_symbol
_atom_site_label
_atom_site_fract_x
_atom_site_fract_y
_atom_site_fract_z
Si Si1 0.253132 0.737878 0.483324
Si Si2 0.342487 0.336804 0.478067
Si Si3 0.000000 0.707808 0.750000
Si Si4 0.889282 0.445450 0.415127
Si Si5 0.159970 0.164594 0.461402
Si Si6 0.606178 0.852572 0.717940
Si Si7 0.227748 0.967459 0.278591
Si Si8 0.307922 0.563640 0.258763
O O1 0.157418 0.649377 0.482568
O O2 0.322259 0.764456 0.653631
O O3 0.219306 0.868004 0.404846
O O4 0.318960 0.671179 0.383118
O O5 0.236387 0.278487 0.487753
O O6 0.410962 0.223621 0.442970
O O7 0.339126 0.435334 0.344472
O O8 0.380601 0.403106 0.646154
O O9 0.905041 0.628166 0.769079
O O10 0.955516 0.785556 0.593441
O O11 0.808064 0.552518 0.350183
O O12 0.000000 0.500000 0.500000
O O13 0.173655 0.082096 0.610902
O O14 0.170294 0.087338 0.313945
O O15 0.500000 0.881724 0.750000
O O16 0.657001 0.986395 0.709257
#
# Coordination Sequence:
#
# PCOD8122520 Si02
#       8
#     4   4   2   4   4   4   4   4
#     4  12  24  44  71 102 143 183 230 294 362 412
#     4  11  21  42  68  99 139 180 223 286 356 409
#     4  12  24  40  62 100 140 180 244 292 324 416
#     4  12  24  41  67 104 140 188 241 280 334 419
#     4  11  23  43  66  94 141 188 230 285 357 402
#     4  11  25  49  77 103 133 179 240 298 358 433
#     4  11  24  45  70  97 138 189 225 293 361 416
#     4  12  21  41  70 101 141 190 224 279 355 417
#
# _framework density 23.195799000000001
#
# number of rings (size 3 to 8) (size 9 to 14) (size 15 to 20)
#    0.000    0.533    6.667    2.400    0.000    1.067 
#    0.000    3.333    0.000    0.000    0.000    0.000 
#    0.000    0.000    0.000    0.000    0.000    0.000 
#
# Total GULP energy -371782.117389 kJ/mol
# GULP energy per Si atom -12392.737246 kJ/mol
# Density = 2.314300 g / cm^3
# Si number density = 23.195799 Si / 1000 Ang^3
#
#
#
# Elastic Constant Matrix: (Units=GPa)
#
#
# Indices 1 2 3 4 5 6 
#
# 1 67.2889 18.1353 22.6253 0.0000 -11.6787 0.0000
# 2 18.1353 101.9828 39.3772 0.0000 -7.8818 0.0000
# 3 22.6253 39.3772 98.4897 0.0000 -28.0626 0.0000
# 4 0.0000 0.0000 0.0000 51.6035 0.0000 -15.5852
# 5 -11.6787 -7.8818 -28.0626 0.0000 27.2488 0.0000
# 6 0.0000 0.0000 0.0000 -15.5852 0.0000 29.2782
#
#
#
# Elastic Compliance Matrix: (Units=1/GPa)
#
#
# Indices 1 2 3 4 5 6 
#
# 1 0.016806 -0.001961 -0.001678 0.000000 0.004907 0.000000
# 2 -0.001961 0.011903 -0.005048 0.000000 -0.002597 0.000000
# 3 -0.001678 -0.005048 0.016893 0.000000 0.015218 0.000000
# 4 0.000000 0.000000 0.000000 0.023091 0.000000 0.012292
# 5 0.004907 -0.002597 0.015218 0.000000 0.053724 0.000000
# 6 0.000000 0.000000 0.000000 0.012292 0.000000 0.040698
#
#
# Mechanical properties :
#
#
# Convention : Reuss Voigt Hill
#
# Bulk Modulus (GPa) = 35.42772 47.55966 41.49369
# Shear Modulus (GPa) = 26.32976 34.13434 30.23205
#
# Velocity S-wave (km/s) = 3.37279 3.84027 3.61410
# Velocity P-wave (km/s) = 5.52034 6.34127 5.94499
#
# Compressibility (1/GPa) = 0.02822649
#
# Stress axis : x y z
#
# Youngs Moduli (GPa) = 59.50291 84.01353 59.19488
#
# Poissons Ratio (x) = 0.16477 0.09935
# Poissons Ratio (y) = 0.11670 0.29883
# Poissons Ratio (z) = 0.09987 0.42412
#
# Static dielectric constant tensor:
#      x y z
#    x 3.822810 0.000000 -0.359510 
#    y 0.000000 4.414370 0.000000 
#    z -0.359510 0.000000 4.320300 
# 
# 
# High freq. dielectric constant tensor:
#      x y z
#    x 1.880180 0.000000 -0.027440 
#    y 0.000000 1.938030 0.000000 
#    z -0.027440 0.000000 1.923170 
# 
# From -- ./inp_files/19082.got.cif
#   From: 2010.06.25/outbox.cif.g09.slc.cpg/sg13_10_cif.got.tgz:19082.got - 2010.06.28 04:50:58.
