data_PCOD8122313
_publ_section_title
;
Structure prediction by ZEFSAII (Michael W. Deem and Ramdas Pophale) SiO2 
 PCOD8122313
Probable space group: P 2/C
;
_chemical_formula_sum "Si O2"
_cell_formula_units_Z 20
_cell_length_a 24.132495
_cell_length_b 5.076853
_cell_length_c 15.946342
_cell_angle_alpha 90.000000
_cell_angle_beta 25.249155
_cell_angle_gamma 90.000000
_cell_volume 833.361308
_symmetry_space_group_name_H-M "P 2/C"
_symmetry_group_IT_number 13
_symmetry_cell_setting 'monoclinic'
loop_
_space_group_symop_operation_xyz
x,y,z
-x,y,1/2-z
-x,-y,-z
x,-y,1/2+z
loop_
_atom_site_type_symbol
_atom_site_label
_atom_site_fract_x
_atom_site_fract_y
_atom_site_fract_z
Si Si1 0.657923 0.612688 0.435378
Si Si2 0.750087 0.101679 0.216474
Si Si3 0.033090 0.022223 0.856802
Si Si4 0.205606 0.522400 0.587940
Si Si5 0.407811 0.353053 0.190728
O O1 0.718538 0.401171 0.287734
O O2 0.686565 0.491059 0.486610
O O3 0.504748 0.688690 0.636695
O O4 0.725806 0.892187 0.323436
O O5 0.652815 0.082098 0.267982
O O6 0.900381 0.063770 0.985474
O O7 0.111880 0.770322 0.718432
O O8 0.118530 0.269887 0.719030
O O9 0.000000 0.000000 0.000000
O O10 0.283698 0.521430 0.393175
O O11 0.500000 0.500000 0.000000
#
# Coordination Sequence:
#
# PCOD8122313 Si02
#       5
#     4   4   4   4   4
#     4  11  21  42  70  98 134 178 229 281 341 412
#     4  11  23  42  68  97 138 181 217 285 348 402
#     4  12  23  43  71 102 139 172 236 289 342 413
#     4  12  24  42  73 104 131 185 232 283 348 416
#     4  10  26  46  66 100 144 182 227 284 348 415
#
# _framework density 23.999196000000001
#
# number of rings (size 3 to 8) (size 9 to 14) (size 15 to 20)
#    0.000    0.800    4.000    3.000    0.000    7.200 
#    0.000    8.000    0.000    0.000    0.000    0.000 
#    0.000    0.000    0.000    0.000    0.000    0.000 
#
# Total GULP energy -247772.815125 kJ/mol
# GULP energy per Si atom -12388.640756 kJ/mol
# Density = 2.394457 g / cm^3
# Si number density = 23.999196 Si / 1000 Ang^3
#
#
#
# Elastic Constant Matrix: (Units=GPa)
#
#
# Indices 1 2 3 4 5 6 
#
# 1 86.7382 29.9172 55.8279 0.0000 -29.2234 0.0000
# 2 29.9172 137.6578 62.2722 0.0000 2.2592 0.0000
# 3 55.8279 62.2722 181.0827 0.0000 2.3701 0.0000
# 4 0.0000 0.0000 0.0000 37.2401 0.0000 -14.1045
# 5 -29.2234 2.2592 2.3701 0.0000 51.3146 0.0000
# 6 0.0000 0.0000 0.0000 -14.1045 0.0000 28.5643
#
#
#
# Elastic Compliance Matrix: (Units=1/GPa)
#
#
# Indices 1 2 3 4 5 6 
#
# 1 0.019654 -0.001956 -0.005538 0.000000 0.011535 0.000000
# 2 -0.001956 0.008800 -0.002405 0.000000 -0.001390 0.000000
# 3 -0.005538 -0.002405 0.008102 0.000000 -0.003422 0.000000
# 4 0.000000 0.000000 0.000000 0.033030 0.000000 0.016310
# 5 0.011535 -0.001390 -0.003422 0.000000 0.026276 0.000000
# 6 0.000000 0.000000 0.000000 0.016310 0.000000 0.043062
#
#
# Mechanical properties :
#
#
# Convention : Reuss Voigt Hill
#
# Bulk Modulus (GPa) = 59.67067 77.94592 68.80830
# Shear Modulus (GPa) = 30.43078 40.58789 35.50933
#
# Velocity S-wave (km/s) = 3.56475 4.11690 3.85074
# Velocity P-wave (km/s) = 6.47000 7.42614 6.96450
#
# Compressibility (1/GPa) = 0.01675865
#
# Stress axis : x y z
#
# Youngs Moduli (GPa) = 50.88009 113.63312 123.43294
#
# Poissons Ratio (x) = 0.22222 0.68355
# Poissons Ratio (y) = 0.09950 0.29688
# Poissons Ratio (z) = 0.28177 0.27331
#
# Static dielectric constant tensor:
#      x y z
#    x 4.852840 0.000000 -0.607340 
#    y 0.000000 4.075040 0.000000 
#    z -0.607340 0.000000 4.750550 
# 
# 
# High freq. dielectric constant tensor:
#      x y z
#    x 1.955930 0.000000 -0.021390 
#    y 0.000000 1.941170 0.000000 
#    z -0.021390 0.000000 1.969080 
# 
# From -- ./inp_files/65230.got.cif
#   From: 2010.06.25/outbox.cif.g09.slc.cpg/sg13_33_cif.got.tgz:65230.got - 2010.06.28 04:50:58.
