data_PCOD8122884
_publ_section_title
;
Structure prediction by ZEFSAII (Michael W. Deem and Ramdas Pophale) SiO2 
 PCOD8122884
Probable space group: P 2/C
;
_chemical_formula_sum "Si O2"
_cell_formula_units_Z 20
_cell_length_a 5.093593
_cell_length_b 11.194929
_cell_length_c 17.383896
_cell_angle_alpha 90.000000
_cell_angle_beta 51.101805
_cell_angle_gamma 90.000000
_cell_volume 771.470003
_symmetry_space_group_name_H-M "P 2/C"
_symmetry_group_IT_number 13
_symmetry_cell_setting 'monoclinic'
loop_
_space_group_symop_operation_xyz
x,y,z
-x,y,1/2-z
-x,-y,-z
x,-y,1/2+z
loop_
_atom_site_type_symbol
_atom_site_label
_atom_site_fract_x
_atom_site_fract_y
_atom_site_fract_z
Si Si1 0.363635 0.692271 0.654346
Si Si2 0.669928 0.663426 0.441009
Si Si3 0.506227 0.045723 0.374701
Si Si4 0.034384 0.085822 0.606524
Si Si5 0.322207 0.456012 0.860083
O O1 0.387300 0.694978 0.556854
O O2 0.444737 0.823831 0.672695
O O3 0.630826 0.597699 0.637956
O O4 0.000000 0.648169 0.750000
O O5 0.916588 0.775895 0.379845
O O6 0.481871 0.622207 0.399130
O O7 0.916780 0.559763 0.428474
O O8 0.257794 0.055228 0.492115
O O9 0.862694 0.995325 0.339397
O O10 0.350905 0.950861 0.342336
O O11 0.500000 0.410609 0.750000
#
# Coordination Sequence:
#
# PCOD8122884 Si02
#       5
#     4   4   4   4   4
#     4  11  25  44  70 105 144 183 230 286 350 423
#     4  11  24  45  74 102 138 184 232 288 352 413
#     4   9  19  36  62  95 134 172 212 267 336 401
#     4   9  18  37  64  95 129 172 218 268 329 404
#     4  12  26  46  69  99 137 183 239 295 349 410
#
# _framework density 25.924531999999999
#
# number of rings (size 3 to 8) (size 9 to 14) (size 15 to 20)
#    0.000    1.600    0.000    4.200    0.000    9.600 
#    0.000    4.000    0.000    1.200    0.000    0.000 
#    0.000    0.000    0.000    0.000    0.000    0.000 
#
# Total GULP energy -248043.064887 kJ/mol
# GULP energy per Si atom -12402.153244 kJ/mol
# Density = 2.586553 g / cm^3
# Si number density = 25.924532 Si / 1000 Ang^3
#
#
#
# Elastic Constant Matrix: (Units=GPa)
#
#
# Indices 1 2 3 4 5 6 
#
# 1 120.8866 3.8435 28.1146 0.0000 23.4729 0.0000
# 2 3.8435 119.7420 28.8710 0.0000 20.5084 0.0000
# 3 28.1146 28.8710 98.9706 0.0000 12.8910 0.0000
# 4 0.0000 0.0000 0.0000 30.3308 0.0000 -6.9370
# 5 23.4729 20.5084 12.8910 0.0000 20.1968 0.0000
# 6 0.0000 0.0000 0.0000 -6.9370 0.0000 33.5894
#
#
#
# Elastic Compliance Matrix: (Units=1/GPa)
#
#
# Indices 1 2 3 4 5 6 
#
# 1 0.011555 0.002676 -0.002138 0.000000 -0.014782 0.000000
# 2 0.002676 0.011018 -0.002303 0.000000 -0.012828 0.000000
# 3 -0.002138 -0.002303 0.011730 0.000000 -0.002664 0.000000
# 4 0.000000 0.000000 0.000000 0.034604 0.000000 0.007147
# 5 -0.014782 -0.012828 -0.002664 0.000000 0.081419 0.000000
# 6 0.000000 0.000000 0.000000 0.007147 0.000000 0.031247
#
#
# Mechanical properties :
#
#
# Convention : Reuss Voigt Hill
#
# Bulk Modulus (GPa) = 32.49615 51.25082 41.87348
# Shear Modulus (GPa) = 25.59378 35.40808 30.50093
#
# Velocity S-wave (km/s) = 3.14545 3.69970 3.43378
# Velocity P-wave (km/s) = 5.07483 6.16948 5.64874
#
# Compressibility (1/GPa) = 0.03077287
#
# Stress axis : x y z
#
# Youngs Moduli (GPa) = 86.54616 90.76185 85.25058
#
# Poissons Ratio (x) = -0.24290 0.18224
# Poissons Ratio (y) = -0.23162 0.19637
# Poissons Ratio (z) = 0.18500 0.20906
#
# Static dielectric constant tensor:
#      x y z
#    x 4.697580 0.000000 0.060240 
#    y 0.000000 4.746550 0.000000 
#    z 0.060240 0.000000 4.723930 
# 
# 
# High freq. dielectric constant tensor:
#      x y z
#    x 2.030310 0.000000 0.005300 
#    y 0.000000 2.041730 0.000000 
#    z 0.005300 0.000000 2.046950 
# 
# From -- ./inp_files/61003.got.cif
#   From: 2010.06.25/outbox.cif.g09.slc.cpg/sg13_31_cif.got.tgz:61003.got - 2010.06.28 04:50:58.
