data_PCOD8122228
_publ_section_title
;
Structure prediction by ZEFSAII (Michael W. Deem and Ramdas Pophale) SiO2 
 PCOD8122228
Probable space group: P 2/C
;
_chemical_formula_sum "Si O2"
_cell_formula_units_Z 20
_cell_length_a 14.793835
_cell_length_b 6.304434
_cell_length_c 9.506508
_cell_angle_alpha 90.000000
_cell_angle_beta 83.637205
_cell_angle_gamma 90.000000
_cell_volume 881.179537
_symmetry_space_group_name_H-M "P 2/C"
_symmetry_group_IT_number 13
_symmetry_cell_setting 'monoclinic'
loop_
_space_group_symop_operation_xyz
x,y,z
-x,y,1/2-z
-x,-y,-z
x,-y,1/2+z
loop_
_atom_site_type_symbol
_atom_site_label
_atom_site_fract_x
_atom_site_fract_y
_atom_site_fract_z
Si Si1 0.904748 0.916996 0.460264
Si Si2 0.765499 0.262942 0.441016
Si Si3 0.000000 0.394242 0.750000
Si Si4 0.168677 0.581552 0.844560
Si Si5 0.500000 0.500959 0.250000
Si Si6 0.435223 0.208083 0.011309
O O1 0.923262 0.742753 0.339401
O O2 0.835962 0.814723 0.585439
O O3 0.850242 0.108482 0.401263
O O4 0.000000 0.000000 0.500000
O O5 0.780447 0.405501 0.574256
O O6 0.769429 0.414245 0.304682
O O7 0.670222 0.136475 0.468810
O O8 0.060586 0.533268 0.844916
O O9 0.554458 0.347253 0.347776
O O10 0.555133 0.654059 0.133665
O O11 0.500000 0.000000 0.000000
#
# Coordination Sequence:
#
# PCOD8122228 Si02
#       6
#     4   4   2   4   2   4
#     4  12  24  42  67 100 142 185 233 281 346 408
#     4  12  27  44  72 104 136 185 233 287 347 417
#     4  12  22  46  62  98 142 188 226 286 338 400
#     4  12  25  45  68 100 142 183 234 287 342 414
#     4  10  24  48  76 104 138 186 226 292 370 430
#     4  11  25  48  75 105 143 182 234 298 360 431
#
# _framework density 22.696849
#
# number of rings (size 3 to 8) (size 9 to 14) (size 15 to 20)
#    0.000    0.400    4.000    4.800    0.000    6.400 
#    0.000    0.000    0.000    0.000    0.000    0.000 
#    0.000    0.000    0.000    0.000    0.000    0.000 
#
# Total GULP energy -247897.179415 kJ/mol
# GULP energy per Si atom -12394.858971 kJ/mol
# Density = 2.264519 g / cm^3
# Si number density = 22.696849 Si / 1000 Ang^3
#
#
#
# Elastic Constant Matrix: (Units=GPa)
#
#
# Indices 1 2 3 4 5 6 
#
# 1 149.4827 45.9281 41.9999 0.0000 -13.0380 0.0000
# 2 45.9281 96.0522 36.5350 0.0000 -1.3581 0.0000
# 3 41.9999 36.5350 133.0712 0.0000 2.5924 0.0000
# 4 0.0000 0.0000 0.0000 29.1310 0.0000 -5.0881
# 5 -13.0380 -1.3581 2.5924 0.0000 21.5698 0.0000
# 6 0.0000 0.0000 0.0000 -5.0881 0.0000 13.7208
#
#
#
# Elastic Compliance Matrix: (Units=1/GPa)
#
#
# Indices 1 2 3 4 5 6 
#
# 1 0.008729 -0.003363 -0.001935 0.000000 0.005297 0.000000
# 2 -0.003363 0.012948 -0.002475 0.000000 -0.000920 0.000000
# 3 -0.001935 -0.002475 0.008852 0.000000 -0.002389 0.000000
# 4 0.000000 0.000000 0.000000 0.036705 0.000000 0.013611
# 5 0.005297 -0.000920 -0.002389 0.000000 0.049792 0.000000
# 6 0.000000 0.000000 0.000000 0.013611 0.000000 0.077930
#
#
# Mechanical properties :
#
#
# Convention : Reuss Voigt Hill
#
# Bulk Modulus (GPa) = 66.74894 69.72578 68.23736
# Shear Modulus (GPa) = 23.20242 29.82718 26.51480
#
# Velocity S-wave (km/s) = 3.20077 3.62906 3.42162
# Velocity P-wave (km/s) = 6.56755 6.95322 6.76313
#
# Compressibility (1/GPa) = 0.01498151
#
# Stress axis : x y z
#
# Youngs Moduli (GPa) = 114.56631 77.23477 112.97336
#
# Poissons Ratio (x) = 0.25972 0.21858
# Poissons Ratio (y) = 0.38526 0.27966
# Poissons Ratio (z) = 0.22167 0.19119
#
# Static dielectric constant tensor:
#      x y z
#    x 3.872770 0.000000 0.036870 
#    y 0.000000 4.181610 0.000000 
#    z 0.036870 0.000000 5.543880 
# 
# 
# High freq. dielectric constant tensor:
#      x y z
#    x 1.885670 0.000000 0.002260 
#    y 0.000000 1.899630 0.000000 
#    z 0.002260 0.000000 1.915380 
# 
# From -- ./inp_files/20492.got.cif
#   From: 2010.06.25/outbox.cif.g09.slc.cpg/sg13_11_cif.got.tgz:20492.got - 2010.06.28 04:50:58.
