data_PCOD8122135
_publ_section_title
;
Structure prediction by ZEFSAII (Michael W. Deem and Ramdas Pophale) SiO2 
 PCOD8122135
Probable space group: P 2/C
;
_chemical_formula_sum "Si O2"
_cell_formula_units_Z 18
_cell_length_a 9.691446
_cell_length_b 10.743190
_cell_length_c 9.061178
_cell_angle_alpha 90.000000
_cell_angle_beta 120.454168
_cell_angle_gamma 90.000000
_cell_volume 813.263600
_symmetry_space_group_name_H-M "P 2/C"
_symmetry_group_IT_number 13
_symmetry_cell_setting 'monoclinic'
loop_
_space_group_symop_operation_xyz
x,y,z
-x,y,1/2-z
-x,-y,-z
x,-y,1/2+z
loop_
_atom_site_type_symbol
_atom_site_label
_atom_site_fract_x
_atom_site_fract_y
_atom_site_fract_z
Si Si1 0.872160 0.650562 0.484058
Si Si2 0.787552 0.568771 0.755053
Si Si3 0.360206 0.924370 0.500790
Si Si4 0.500000 0.705836 0.750000
Si Si5 0.834585 0.070659 0.884193
O O1 0.788806 0.585375 0.579784
O O2 0.806593 0.577889 0.304461
O O3 0.830492 0.794994 0.457988
O O4 0.064145 0.643278 0.593589
O O5 0.624918 0.618815 0.734723
O O6 0.417324 0.787476 0.577444
O O7 0.204657 0.915913 0.310349
O O8 0.500000 0.000000 0.500000
O O9 0.309313 0.993092 0.622597
O O10 0.000000 0.000000 0.000000
#
# Coordination Sequence:
#
# PCOD8122135 Si02
#       5
#     4   4   4   2   4
#     4  10  24  46  69  98 135 181 237 283 341 417
#     4  10  24  44  70  95 138 181 229 285 348 409
#     4  12  25  44  66 102 141 181 225 290 353 410
#     4  12  24  44  70 100 142 182 232 290 356 412
#     4  12  26  44  72 103 136 185 236 284 346 416
#
# _framework density 22.133044000000002
#
# number of rings (size 3 to 8) (size 9 to 14) (size 15 to 20)
#    0.000    0.889    2.222    3.333    9.333    0.889 
#    8.000    0.000    0.000    0.000    0.000    0.000 
#    0.000    0.000    0.000    0.000    0.000    0.000 
#
# Total GULP energy -223287.329560 kJ/mol
# GULP energy per Si atom -12404.851642 kJ/mol
# Density = 2.208267 g / cm^3
# Si number density = 22.133044 Si / 1000 Ang^3
#
#
#
# Elastic Constant Matrix: (Units=GPa)
#
#
# Indices 1 2 3 4 5 6 
#
# 1 130.7837 32.6471 17.3530 0.0000 0.8325 0.0000
# 2 32.6471 102.2140 29.8767 0.0000 -1.4645 0.0000
# 3 17.3530 29.8767 122.6511 0.0000 -2.9177 0.0000
# 4 0.0000 0.0000 0.0000 37.0472 0.0000 -3.0529
# 5 0.8325 -1.4645 -2.9177 0.0000 32.3292 0.0000
# 6 0.0000 0.0000 0.0000 -3.0529 0.0000 31.4677
#
#
#
# Elastic Compliance Matrix: (Units=1/GPa)
#
#
# Indices 1 2 3 4 5 6 
#
# 1 0.008350 -0.002503 -0.000581 0.000000 -0.000381 0.000000
# 2 -0.002503 0.011285 -0.002386 0.000000 0.000360 0.000000
# 3 -0.000581 -0.002386 0.008833 0.000000 0.000704 0.000000
# 4 0.000000 0.000000 0.000000 0.027210 0.000000 0.002640
# 5 -0.000381 0.000360 0.000704 0.000000 0.031022 0.000000
# 6 0.000000 0.000000 0.000000 0.002640 0.000000 0.032035
#
#
# Mechanical properties :
#
#
# Convention : Reuss Voigt Hill
#
# Bulk Modulus (GPa) = 57.04722 57.26694 57.15708
# Shear Modulus (GPa) = 36.89522 38.55360 37.72441
#
# Velocity S-wave (km/s) = 4.08729 4.17814 4.13296
# Velocity P-wave (km/s) = 6.93579 7.01469 6.97535
#
# Compressibility (1/GPa) = 0.01752934
#
# Stress axis : x y z
#
# Youngs Moduli (GPa) = 119.75362 88.60939 113.20628
#
# Poissons Ratio (x) = 0.22177 0.06576
# Poissons Ratio (y) = 0.29972 0.27015
# Poissons Ratio (z) = 0.06956 0.21145
#
# Static dielectric constant tensor:
#      x y z
#    x 3.944600 0.000000 -0.085520 
#    y 0.000000 3.808080 0.000000 
#    z -0.085520 0.000000 4.212220 
# 
# 
# High freq. dielectric constant tensor:
#      x y z
#    x 1.880770 0.000000 -0.001440 
#    y 0.000000 1.871960 0.000000 
#    z -0.001440 0.000000 1.877830 
# 
# From -- ./inp_files/11585.got.cif
#   From: 2010.06.25/outbox.cif.g09.slc.cpg/sg13_6_cif.got.tgz:11585.got - 2010.06.28 04:50:58.
