data_PCOD8122175
_publ_section_title
;
Structure prediction by ZEFSAII (Michael W. Deem and Ramdas Pophale) SiO2 
 PCOD8122175
Probable space group: P 2/C
;
_chemical_formula_sum "Si O2"
_cell_formula_units_Z 10
_cell_length_a 12.049381
_cell_length_b 7.514331
_cell_length_c 11.349210
_cell_angle_alpha 90.000000
_cell_angle_beta 25.154648
_cell_angle_gamma 90.000000
_cell_volume 436.791263
_symmetry_space_group_name_H-M "P 2/C"
_symmetry_group_IT_number 13
_symmetry_cell_setting 'monoclinic'
loop_
_space_group_symop_operation_xyz
x,y,z
-x,y,1/2-z
-x,-y,-z
x,-y,1/2+z
loop_
_atom_site_type_symbol
_atom_site_label
_atom_site_fract_x
_atom_site_fract_y
_atom_site_fract_z
Si Si1 0.500000 0.209752 0.750000
Si Si2 0.270850 0.869996 0.050288
Si Si3 0.741517 0.385339 0.729437
O O1 0.699881 0.329794 0.633458
O O2 0.674822 0.083464 0.495584
O O3 0.256407 0.794435 0.195588
O O4 0.000000 0.824770 0.250000
O O5 0.500000 0.779496 0.750000
O O6 0.000000 0.500000 0.500000
O O7 0.500000 0.500000 0.000000
#
# Coordination Sequence:
#
# PCOD8122175 Si02
#       3
#     2   4   4
#     4  10  28  46  76  98 148 192 240 278 360 424
#     4  10  24  45  74 100 143 186 242 277 354 430
#     4  12  28  44  73 108 147 180 237 300 358 407
#
# _framework density 22.894231999999999
#
# number of rings (size 3 to 8) (size 9 to 14) (size 15 to 20)
#    1.200    0.000    0.000    3.600   14.000    1.600 
#    0.000    0.000    0.000    0.000    0.000    0.000 
#    0.000    0.000    0.000    0.000    0.000    0.000 
#
# Total GULP energy -123965.157532 kJ/mol
# GULP energy per Si atom -12396.515753 kJ/mol
# Density = 2.284212 g / cm^3
# Si number density = 22.894232 Si / 1000 Ang^3
#
#
#
# Elastic Constant Matrix: (Units=GPa)
#
#
# Indices 1 2 3 4 5 6 
#
# 1 185.0506 83.6822 58.8036 0.0000 -28.8318 0.0000
# 2 83.6822 129.5469 50.9551 0.0000 -10.1296 0.0000
# 3 58.8036 50.9551 158.8156 0.0000 -33.9098 0.0000
# 4 0.0000 0.0000 0.0000 18.3139 0.0000 21.2775
# 5 -28.8318 -10.1296 -33.9098 0.0000 38.0905 0.0000
# 6 0.0000 0.0000 0.0000 21.2775 0.0000 36.5847
#
#
#
# Elastic Compliance Matrix: (Units=1/GPa)
#
#
# Indices 1 2 3 4 5 6 
#
# 1 0.008538 -0.004920 -0.000596 0.000000 0.004624 0.000000
# 2 -0.004920 0.011670 -0.002537 0.000000 -0.002879 0.000000
# 3 -0.000596 -0.002537 0.008755 0.000000 0.006669 0.000000
# 4 0.000000 0.000000 0.000000 0.168378 0.000000 -0.097928
# 5 0.004624 -0.002879 0.006669 0.000000 0.034924 0.000000
# 6 0.000000 0.000000 0.000000 -0.097928 0.000000 0.084288
#
#
# Mechanical properties :
#
#
# Convention : Reuss Voigt Hill
#
# Bulk Modulus (GPa) = 77.77204 95.58831 86.68017
# Shear Modulus (GPa) = 14.83918 37.26265 26.05092
#
# Velocity S-wave (km/s) = 2.54867 4.03873 3.37691
# Velocity P-wave (km/s) = 6.53489 7.97441 7.29027
#
# Compressibility (1/GPa) = 0.01285809
#
# Stress axis : x y z
#
# Youngs Moduli (GPa) = 117.11779 85.68968 114.21870
#
# Poissons Ratio (x) = 0.42156 0.06803
# Poissons Ratio (y) = 0.57617 0.28983
# Poissons Ratio (z) = 0.06976 0.21744
#
# Static dielectric constant tensor:
#      x y z
#    x 2.800090 0.000000 -0.178210 
#    y 0.000000 4.050990 0.000000 
#    z -0.178210 0.000000 4.016190 
# 
# 
# High freq. dielectric constant tensor:
#      x y z
#    x 1.908020 0.000000 -0.019730 
#    y 0.000000 1.901320 0.000000 
#    z -0.019730 0.000000 1.904220 
# 
# From -- ./inp_files/8307.got.cif
#   From: 2010.06.25/outbox.cif.g09.slc.cpg/sg13_5_cif.got.tgz:8307.got - 2010.06.28 04:50:58.
