data_PCOD8122685
_publ_section_title
;
Structure prediction by ZEFSAII (Michael W. Deem and Ramdas Pophale) SiO2 
 PCOD8122685
Probable space group: P 2/C
;
_chemical_formula_sum "Si O2"
_cell_formula_units_Z 24
_cell_length_a 5.076335
_cell_length_b 14.236493
_cell_length_c 13.924874
_cell_angle_alpha 90.000000
_cell_angle_beta 74.309605
_cell_angle_gamma 90.000000
_cell_volume 968.840475
_symmetry_space_group_name_H-M "P 2/C"
_symmetry_group_IT_number 13
_symmetry_cell_setting 'monoclinic'
loop_
_space_group_symop_operation_xyz
x,y,z
-x,y,1/2-z
-x,-y,-z
x,-y,1/2+z
loop_
_atom_site_type_symbol
_atom_site_label
_atom_site_fract_x
_atom_site_fract_y
_atom_site_fract_z
Si Si1 0.763820 0.203117 0.113312
Si Si2 0.644382 0.653967 0.380819
Si Si3 0.000000 0.323252 0.250000
Si Si4 0.121530 0.775361 0.403930
Si Si5 0.500000 0.042525 0.250000
Si Si6 0.000000 0.920981 0.250000
Si Si7 0.483946 0.383989 0.092384
Si Si8 0.500000 0.486927 0.750000
O O1 0.809341 0.253317 0.209986
O O2 0.637550 0.102249 0.150366
O O3 0.560264 0.273059 0.077280
O O4 0.034246 0.192124 0.019981
O O5 0.939511 0.689320 0.384037
O O6 0.514808 0.586503 0.477904
O O7 0.701409 0.583249 0.287298
O O8 0.436852 0.739862 0.373123
O O9 0.826566 0.390544 0.337965
O O10 0.063084 0.860780 0.338365
O O11 0.272670 0.983753 0.213548
O O12 0.655324 0.445892 0.154876
#
# Coordination Sequence:
#
# PCOD8122685 Si02
#       8
#     4   4   2   4   2   2   4   2
#     4  11  23  41  69  93 133 173 224 266 329 397
#     4  11  25  43  69  96 130 183 228 263 324 399
#     4  12  17  40  67  92 124 176 212 277 318 383
#     4  11  25  48  68  93 132 183 222 262 329 399
#     4  12  25  41  70 106 130 168 216 273 339 386
#     4  12  27  44  67 100 140 166 214 277 332 401
#     4  11  23  40  64  99 128 178 221 275 327 383
#     4  12  23  43  62 100 142 168 220 287 327 372
#
# _framework density 24.771878999999998
#
# number of rings (size 3 to 8) (size 9 to 14) (size 15 to 20)
#    0.000    0.667    5.000    3.000    0.000    2.667 
#    0.000    3.333    0.000    0.000    0.000    0.000 
#    0.000    0.000    0.000    0.000    0.000    0.000 
#
# Total GULP energy -297373.368812 kJ/mol
# GULP energy per Si atom -12390.557034 kJ/mol
# Density = 2.471550 g / cm^3
# Si number density = 24.771879 Si / 1000 Ang^3
#
#
#
# Elastic Constant Matrix: (Units=GPa)
#
#
# Indices 1 2 3 4 5 6 
#
# 1 79.0543 7.6711 -0.4440 0.0000 7.4593 0.0000
# 2 7.6711 91.7458 30.0226 0.0000 5.6934 0.0000
# 3 -0.4440 30.0226 94.1695 0.0000 15.7413 0.0000
# 4 0.0000 0.0000 0.0000 13.1548 0.0000 7.5251
# 5 7.4593 5.6934 15.7413 0.0000 31.9198 0.0000
# 6 0.0000 0.0000 0.0000 7.5251 0.0000 8.8785
#
#
#
# Elastic Compliance Matrix: (Units=1/GPa)
#
#
# Indices 1 2 3 4 5 6 
#
# 1 0.013088 -0.001217 0.001008 0.000000 -0.003338 0.000000
# 2 -0.001217 0.012285 -0.003927 0.000000 0.000030 0.000000
# 3 0.001008 -0.003927 0.012858 0.000000 -0.005876 0.000000
# 4 0.000000 0.000000 0.000000 0.147561 0.000000 -0.125066
# 5 -0.003338 0.000030 -0.005876 0.000000 0.035001 0.000000
# 6 0.000000 0.000000 0.000000 -0.125066 0.000000 0.218632
#
#
# Mechanical properties :
#
#
# Convention : Reuss Voigt Hill
#
# Bulk Modulus (GPa) = 33.37981 37.71879 35.54930
# Shear Modulus (GPa) = 10.92457 25.97197 18.44827
#
# Velocity S-wave (km/s) = 2.10229 3.24148 2.73193
# Velocity P-wave (km/s) = 4.40420 5.41010 4.93286
#
# Compressibility (1/GPa) = 0.02995823
#
# Stress axis : x y z
#
# Youngs Moduli (GPa) = 76.40419 81.40189 77.77135
#
# Poissons Ratio (x) = 0.09906 -0.07837
# Poissons Ratio (y) = 0.09298 0.30543
# Poissons Ratio (z) = -0.07700 0.31969
#
# Static dielectric constant tensor:
#      x y z
#    x 4.314660 0.000000 0.096490 
#    y 0.000000 4.571360 0.000000 
#    z 0.096490 0.000000 5.039570 
# 
# 
# High freq. dielectric constant tensor:
#      x y z
#    x 1.970300 0.000000 0.009330 
#    y 0.000000 1.980720 0.000000 
#    z 0.009330 0.000000 2.002800 
# 
# From -- ./inp_files/44016.got.cif
#   From: 2010.06.25/outbox.cif.g09.slc.cpg/sg13_23_cif.got.tgz:44016.got - 2010.06.28 04:50:58.
