data_PCOD8122695
_publ_section_title
;
Structure prediction by ZEFSAII (Michael W. Deem and Ramdas Pophale) SiO2 
 PCOD8122695
Probable space group: P 2/C
;
_chemical_formula_sum "Si O2"
_cell_formula_units_Z 30
_cell_length_a 11.644093
_cell_length_b 15.062925
_cell_length_c 10.382716
_cell_angle_alpha 90.000000
_cell_angle_beta 49.722192
_cell_angle_gamma 90.000000
_cell_volume 1389.326325
_symmetry_space_group_name_H-M "P 2/C"
_symmetry_group_IT_number 13
_symmetry_cell_setting 'monoclinic'
loop_
_space_group_symop_operation_xyz
x,y,z
-x,y,1/2-z
-x,-y,-z
x,-y,1/2+z
loop_
_atom_site_type_symbol
_atom_site_label
_atom_site_fract_x
_atom_site_fract_y
_atom_site_fract_z
Si Si1 0.500000 0.878443 0.250000
Si Si2 0.758439 0.765793 0.733774
Si Si3 0.576565 0.802792 0.448664
Si Si4 0.165810 0.574576 0.755185
Si Si5 0.158417 0.483663 0.524743
Si Si6 0.836392 0.714960 0.399181
Si Si7 0.151163 0.956160 0.842883
Si Si8 0.683742 0.029168 0.009612
O O1 0.597806 0.820324 0.279238
O O2 0.407889 0.937783 0.418795
O O3 0.586730 0.760698 0.906798
O O4 0.841596 0.680892 0.735444
O O5 0.764566 0.760488 0.575745
O O6 0.851213 0.854433 0.707374
O O7 0.714003 0.735084 0.376946
O O8 0.582011 0.889015 0.537277
O O9 0.251903 0.541348 0.563002
O O10 0.996535 0.537140 0.881560
O O11 0.244638 0.532273 0.826567
O O12 0.133045 0.388617 0.608138
O O13 0.000000 0.759332 0.250000
O O14 0.192638 0.018064 0.691594
O O15 0.263030 0.956012 0.882933
O O16 0.000000 0.000000 0.000000
#
# Coordination Sequence:
#
# PCOD8122695 Si02
#       8
#     2   4   4   4   4   4   4   4
#     4  12  24  44  68  94 132 200 232 290 352 422
#     4  11  24  41  66 100 138 181 229 282 348 416
#     4  12  25  44  67 101 140 182 241 285 352 421
#     4   9  18  38  66  94 132 175 225 277 343 419
#     4   9  18  40  64  95 128 176 221 272 353 416
#     4  11  23  40  72 100 129 176 234 285 338 428
#     4  12  26  44  65 103 145 186 237 291 345 411
#     4  12  24  44  70  91 140 192 238 282 351 415
#
# _framework density 21.593198999999998
#
# number of rings (size 3 to 8) (size 9 to 14) (size 15 to 20)
#    0.000    1.067    5.333    2.000    1.867    0.000 
#    7.200    0.667    0.000    0.000    0.000    0.000 
#    0.000    0.000    0.000    0.000    0.000    0.000 
#
# Total GULP energy -371644.071378 kJ/mol
# GULP energy per Si atom -12388.135713 kJ/mol
# Density = 2.154405 g / cm^3
# Si number density = 21.593199 Si / 1000 Ang^3
#
#
#
# Elastic Constant Matrix: (Units=GPa)
#
#
# Indices 1 2 3 4 5 6 
#
# 1 86.1765 46.8244 37.5690 0.0000 10.3747 0.0000
# 2 46.8244 119.0800 35.8094 0.0000 -4.7059 0.0000
# 3 37.5690 35.8094 103.1000 0.0000 6.5286 0.0000
# 4 0.0000 0.0000 0.0000 20.2784 0.0000 0.5769
# 5 10.3747 -4.7059 6.5286 0.0000 45.8766 0.0000
# 6 0.0000 0.0000 0.0000 0.5769 0.0000 38.2664
#
#
#
# Elastic Compliance Matrix: (Units=1/GPa)
#
#
# Indices 1 2 3 4 5 6 
#
# 1 0.016814 -0.005574 -0.003949 0.000000 -0.003812 0.000000
# 2 -0.005574 0.011320 -0.002073 0.000000 0.002717 0.000000
# 3 -0.003949 -0.002073 0.011923 0.000000 -0.001016 0.000000
# 4 0.000000 0.000000 0.000000 0.049335 0.000000 -0.000744
# 5 -0.003812 0.002717 -0.001016 0.000000 0.023083 0.000000
# 6 0.000000 0.000000 0.000000 -0.000744 0.000000 0.026144
#
#
# Mechanical properties :
#
#
# Convention : Reuss Voigt Hill
#
# Bulk Modulus (GPa) = 59.29791 60.97356 60.13574
# Shear Modulus (GPa) = 29.86287 33.42786 31.64536
#
# Velocity S-wave (km/s) = 3.72287 3.93882 3.83237
# Velocity P-wave (km/s) = 6.78238 6.99889 6.89149
#
# Compressibility (1/GPa) = 0.01686400
#
# Stress axis : x y z
#
# Youngs Moduli (GPa) = 59.47560 88.33668 83.87430
#
# Poissons Ratio (x) = 0.49243 0.33124
# Poissons Ratio (y) = 0.33154 0.17384
# Poissons Ratio (z) = 0.23488 0.18309
#
# Static dielectric constant tensor:
#      x y z
#    x 4.472060 0.000000 0.675690 
#    y 0.000000 4.013270 0.000000 
#    z 0.675690 0.000000 4.118210 
# 
# 
# High freq. dielectric constant tensor:
#      x y z
#    x 1.835200 0.000000 0.033110 
#    y 0.000000 1.852110 0.000000 
#    z 0.033110 0.000000 1.842430 
# 
# From -- ./inp_files/34594.got.cif
#   From: 2010.06.25/outbox.cif.g09.slc.cpg/sg13_18_cif.got.tgz:34594.got - 2010.06.28 04:50:58.
