data_PCOD8122824
_publ_section_title
;
Structure prediction by ZEFSAII (Michael W. Deem and Ramdas Pophale) SiO2 
 PCOD8122824
Probable space group: P 2/C
;
_chemical_formula_sum "Si O2"
_cell_formula_units_Z 20
_cell_length_a 16.703920
_cell_length_b 6.358206
_cell_length_c 23.632073
_cell_angle_alpha 90.000000
_cell_angle_beta 159.050953
_cell_angle_gamma 90.000000
_cell_volume 897.380252
_symmetry_space_group_name_H-M "P 2/C"
_symmetry_group_IT_number 13
_symmetry_cell_setting 'monoclinic'
loop_
_space_group_symop_operation_xyz
x,y,z
-x,y,1/2-z
-x,-y,-z
x,-y,1/2+z
loop_
_atom_site_type_symbol
_atom_site_label
_atom_site_fract_x
_atom_site_fract_y
_atom_site_fract_z
Si Si1 0.181229 0.681567 0.278003
Si Si2 0.500000 0.062037 0.750000
Si Si3 0.641450 0.689035 0.536909
Si Si4 0.517263 0.442584 0.683131
Si Si5 0.000000 0.020023 0.750000
Si Si6 0.192327 0.317389 0.048786
O O1 0.434351 0.770870 0.438773
O O2 0.191151 0.453677 0.315035
O O3 0.025498 0.838116 0.211233
O O4 0.069183 0.668564 0.141249
O O5 0.498274 0.203783 0.692530
O O6 0.724934 0.923079 0.892395
O O7 0.523157 0.547259 0.410481
O O8 0.777787 0.878009 0.598458
O O9 0.754283 0.551551 0.858232
O O10 0.323002 0.578367 0.583044
#
# Coordination Sequence:
#
# PCOD8122824 Si02
#       6
#     4   2   4   4   2   4
#     4  11  24  40  61  90 120 155 200 246 296 353
#     4   8  16  32  58  84 114 154 194 234 288 346
#     4  11  24  40  61  90 120 155 200 246 296 353
#     4   9  18  34  57  84 114 155 196 235 287 346
#     4  12  22  40  64  86 118 160 196 246 298 352
#     4   9  18  34  57  84 114 155 196 235 287 346
#
# _framework density 22.287096999999999
#
# number of rings (size 3 to 8) (size 9 to 14) (size 15 to 20)
#    0.000    2.400    0.000    4.800    0.000    4.000 
#    0.000    1.000    0.000    0.000    0.000    0.000 
#    0.000    0.000    0.000    0.000    0.000    0.000 
#
# Total GULP energy -247908.732926 kJ/mol
# GULP energy per Si atom -12395.436646 kJ/mol
# Density = 2.223637 g / cm^3
# Si number density = 22.287097 Si / 1000 Ang^3
#
#
#
# Elastic Constant Matrix: (Units=GPa)
#
#
# Indices 1 2 3 4 5 6 
#
# 1 45.4810 13.1095 16.1450 0.0000 -5.9410 0.0000
# 2 13.1095 107.1456 38.6361 0.0000 1.7798 0.0000
# 3 16.1450 38.6361 110.5823 0.0000 -14.9422 0.0000
# 4 0.0000 0.0000 0.0000 20.1540 0.0000 1.6320
# 5 -5.9410 1.7798 -14.9422 0.0000 40.9736 0.0000
# 6 0.0000 0.0000 0.0000 1.6320 0.0000 19.6927
#
#
#
# Elastic Compliance Matrix: (Units=1/GPa)
#
#
# Indices 1 2 3 4 5 6 
#
# 1 0.023785 -0.002097 -0.002379 0.000000 0.002672 0.000000
# 2 -0.002097 0.011009 -0.003835 0.000000 -0.002181 0.000000
# 3 -0.002379 -0.003835 0.011261 0.000000 0.003928 0.000000
# 4 0.000000 0.000000 0.000000 0.049953 0.000000 -0.004140
# 5 0.002672 -0.002181 0.003928 0.000000 0.026321 0.000000
# 6 0.000000 0.000000 0.000000 -0.004140 0.000000 0.051123
#
#
# Mechanical properties :
#
#
# Convention : Reuss Voigt Hill
#
# Bulk Modulus (GPa) = 33.97461 44.33224 39.15343
# Shear Modulus (GPa) = 25.01447 29.18529 27.09988
#
# Velocity S-wave (km/s) = 3.35382 3.62265 3.49082
# Velocity P-wave (km/s) = 5.50224 6.11823 5.81839
#
# Compressibility (1/GPa) = 0.02943374
#
# Stress axis : x y z
#
# Youngs Moduli (GPa) = 42.04314 90.83749 88.80191
#
# Poissons Ratio (x) = 0.19046 0.21126
# Poissons Ratio (y) = 0.08815 0.34054
# Poissons Ratio (z) = 0.10002 0.34835
#
# Static dielectric constant tensor:
#      x y z
#    x 3.777540 0.000000 -0.170100 
#    y 0.000000 4.029410 0.000000 
#    z -0.170100 0.000000 4.151080 
# 
# 
# High freq. dielectric constant tensor:
#      x y z
#    x 1.861280 0.000000 -0.010530 
#    y 0.000000 1.871380 0.000000 
#    z -0.010530 0.000000 1.881200 
# 
# From -- ./inp_files/48671.got.cif
#   From: 2010.06.25/outbox.cif.g09.slc.cpg/sg13_25_cif.got.tgz:48671.got - 2010.06.28 04:50:58.
