data_PCOD8122082
_publ_section_title
;
Structure prediction by ZEFSAII (Michael W. Deem and Ramdas Pophale) SiO2 
 PCOD8122082
Probable space group: P 2/C
;
_chemical_formula_sum "Si O2"
_cell_formula_units_Z 26
_cell_length_a 8.224127
_cell_length_b 21.092445
_cell_length_c 8.989703
_cell_angle_alpha 90.000000
_cell_angle_beta 130.427917
_cell_angle_gamma 90.000000
_cell_volume 1187.062679
_symmetry_space_group_name_H-M "P 2/C"
_symmetry_group_IT_number 13
_symmetry_cell_setting 'monoclinic'
loop_
_space_group_symop_operation_xyz
x,y,z
-x,y,1/2-z
-x,-y,-z
x,-y,1/2+z
loop_
_atom_site_type_symbol
_atom_site_label
_atom_site_fract_x
_atom_site_fract_y
_atom_site_fract_z
Si Si1 0.000000 0.029626 0.250000
Si Si2 0.961311 0.133620 0.466199
Si Si3 0.399140 0.831081 0.351368
Si Si4 0.254481 0.573951 0.859033
Si Si5 0.000000 0.228888 0.250000
Si Si6 0.359395 0.065117 0.036561
Si Si7 0.500000 0.494395 0.250000
Si Si8 0.593555 0.296466 0.960011
O O1 0.021061 0.068995 0.414033
O O2 0.214417 0.986482 0.366067
O O3 0.773088 0.121276 0.467211
O O4 0.148863 0.158528 0.682672
O O5 0.880536 0.185425 0.300351
O O6 0.500000 0.831642 0.250000
O O7 0.496353 0.891962 0.500470
O O8 0.451389 0.760539 0.449834
O O9 0.319463 0.544603 0.737070
O O10 0.000000 0.576765 0.750000
O O11 0.362968 0.535852 0.056157
O O12 0.365597 0.643342 0.910634
O O13 0.173070 0.269180 0.440582
O O14 0.500000 0.032000 0.250000
O O15 0.500000 0.321777 0.750000
#
# Coordination Sequence:
#
# PCOD8122082 Si02
#       8
#     2   4   4   4   2   4   2   4
#     4  11  26  44  66  94 126 163 220 274 346 429
#     4  11  23  44  66  92 127 168 217 279 336 414
#     4  11  23  44  68  90 128 168 216 270 337 398
#     4  11  22  43  72 103 149 188 233 284 335 393
#     4  11  20  40  66  90 130 175 220 266 342 389
#     4  12  26  44  65  93 126 165 211 279 341 406
#     4  10  24  42  70 110 146 190 238 276 330 402
#     4  11  21  39  67  98 128 183 224 271 334 401
#
# _framework density 21.902801
#
# number of rings (size 3 to 8) (size 9 to 14) (size 15 to 20)
#    0.000    0.923    6.154    1.846    2.154    1.231 
#    4.154    0.000    0.000    0.000    0.000    0.000 
#    0.000    0.000    0.000    0.000    0.000    0.000 
#
# Total GULP energy -322124.911087 kJ/mol
# GULP energy per Si atom -12389.419657 kJ/mol
# Density = 2.185295 g / cm^3
# Si number density = 21.902801 Si / 1000 Ang^3
#
#
#
# Elastic Constant Matrix: (Units=GPa)
#
#
# Indices 1 2 3 4 5 6 
#
# 1 78.1725 38.5008 24.9409 0.0000 2.9216 0.0000
# 2 38.5008 139.1802 46.4671 0.0000 -1.5455 0.0000
# 3 24.9409 46.4671 100.2352 0.0000 10.4851 0.0000
# 4 0.0000 0.0000 0.0000 34.7076 0.0000 -27.6239
# 5 2.9216 -1.5455 10.4851 0.0000 34.3138 0.0000
# 6 0.0000 0.0000 0.0000 -27.6239 0.0000 4.6262
#
#
#
# Elastic Compliance Matrix: (Units=1/GPa)
#
#
# Indices 1 2 3 4 5 6 
#
# 1 0.015220 -0.003530 -0.002064 0.000000 -0.000824 0.000000
# 2 -0.003530 0.009410 -0.003677 0.000000 0.001848 0.000000
# 3 -0.002064 -0.003677 0.012596 0.000000 -0.003839 0.000000
# 4 0.000000 0.000000 0.000000 -0.007678 0.000000 -0.045848
# 5 -0.000824 0.001848 -0.003839 0.000000 0.030469 0.000000
# 6 0.000000 0.000000 0.000000 -0.045848 0.000000 -0.057604
#
#
# Mechanical properties :
#
#
# Convention : Reuss Voigt Hill
#
# Bulk Modulus (GPa) = 53.52469 59.71173 56.61821
# Shear Modulus (GPa) = 183.93165 28.57481 106.25323
#
# Velocity S-wave (km/s) = 9.17380 3.61587 6.97256
# Velocity P-wave (km/s) = 11.69196 6.68984 9.52512
#
# Compressibility (1/GPa) = 0.01868297
#
# Stress axis : x y z
#
# Youngs Moduli (GPa) = 65.70149 106.27412 79.38798
#
# Poissons Ratio (x) = 0.37518 0.16389
# Poissons Ratio (y) = 0.23194 0.29191
# Poissons Ratio (z) = 0.13564 0.39077
#
# Static dielectric constant tensor:
#      x y z
#    x 4.308180 0.000000 0.457320 
#    y 0.000000 4.201990 0.000000 
#    z 0.457320 0.000000 4.718130 
# 
# 
# High freq. dielectric constant tensor:
#      x y z
#    x 1.843440 0.000000 0.009260 
#    y 0.000000 1.859630 0.000000 
#    z 0.009260 0.000000 1.879980 
# 
# From -- ./inp_files/13696.got.cif
#   From: 2010.06.25/outbox.cif.g09.slc.cpg/sg13_7_cif.got.tgz:13696.got - 2010.06.28 04:50:58.
