data_PCOD8122593
_publ_section_title
;
Structure prediction by ZEFSAII (Michael W. Deem and Ramdas Pophale) SiO2 
 PCOD8122593
Probable space group: P 2/C
;
_chemical_formula_sum "Si O2"
_cell_formula_units_Z 32
_cell_length_a 15.040286
_cell_length_b 6.281937
_cell_length_c 15.744364
_cell_angle_alpha 90.000000
_cell_angle_beta 100.146227
_cell_angle_gamma 90.000000
_cell_volume 1464.297618
_symmetry_space_group_name_H-M "P 2/C"
_symmetry_group_IT_number 13
_symmetry_cell_setting 'monoclinic'
loop_
_space_group_symop_operation_xyz
x,y,z
-x,y,1/2-z
-x,-y,-z
x,-y,1/2+z
loop_
_atom_site_type_symbol
_atom_site_label
_atom_site_fract_x
_atom_site_fract_y
_atom_site_fract_z
Si Si1 0.342444 0.241639 0.881341
Si Si2 0.820417 0.079996 0.882364
Si Si3 0.103410 0.823957 0.753666
Si Si4 0.474806 0.070220 0.589682
Si Si5 0.661009 0.231141 0.358358
Si Si6 0.207401 0.074989 0.436706
Si Si7 0.762915 0.464226 0.774578
Si Si8 0.339013 0.576530 0.008075
O O1 0.429840 0.134452 0.850932
O O2 0.267304 0.291459 0.799004
O O3 0.292606 0.085528 0.940485
O O4 0.382135 0.453008 0.934502
O O5 0.801967 0.330545 0.861595
O O6 0.890593 0.981786 0.826573
O O7 0.724183 0.969693 0.855215
O O8 0.850001 0.035866 0.985625
O O9 0.141958 0.936324 0.844894
O O10 0.155016 0.604774 0.745967
O O11 0.000000 0.765146 0.750000
O O12 0.406274 0.268901 0.570989
O O13 0.500000 0.000000 0.500000
O O14 0.437318 0.870346 0.638610
O O15 0.675214 0.384090 0.278488
O O16 0.694826 0.386047 0.438171
O O17 0.251576 0.306457 0.455943
#
# Coordination Sequence:
#
# PCOD8122593 Si02
#       8
#     4   4   4   4   4   4   4   4
#     4  12  24  40  66  98 132 192 233 274 349 403
#     4  11  22  44  72 101 137 178 226 285 343 421
#     4  11  27  46  72 108 136 173 231 292 355 428
#     4  12  22  36  64  98 135 172 244 287 319 401
#     4  11  22  40  64  96 135 178 230 287 332 392
#     4  12  22  43  75 100 135 185 229 279 358 419
#     4  11  24  44  69  91 143 186 225 282 353 412
#     4  12  20  39  66  97 127 182 234 277 335 404
#
# _framework density 21.853480999999999
#
# number of rings (size 3 to 8) (size 9 to 14) (size 15 to 20)
#    0.000    0.500    8.750    0.375    0.000    1.000 
#    0.000    4.375    0.000    0.000    0.000    0.000 
#    0.000    0.000    0.000    0.000    0.000    0.000 
#
# Total GULP energy -396513.711572 kJ/mol
# GULP energy per Si atom -12391.053487 kJ/mol
# Density = 2.180374 g / cm^3
# Si number density = 21.853481 Si / 1000 Ang^3
#
#
#
# Elastic Constant Matrix: (Units=GPa)
#
#
# Indices 1 2 3 4 5 6 
#
# 1 115.6438 50.7386 43.8400 0.0000 -15.0225 0.0000
# 2 50.7386 103.7170 43.8063 0.0000 -11.3215 0.0000
# 3 43.8400 43.8063 104.8585 0.0000 -18.2911 0.0000
# 4 0.0000 0.0000 0.0000 37.2997 0.0000 1.1513
# 5 -15.0225 -11.3215 -18.2911 0.0000 27.4697 0.0000
# 6 0.0000 0.0000 0.0000 1.1513 0.0000 19.8850
#
#
#
# Elastic Compliance Matrix: (Units=1/GPa)
#
#
# Indices 1 2 3 4 5 6 
#
# 1 0.011972 -0.004417 -0.002643 0.000000 0.002967 0.000000
# 2 -0.004417 0.013414 -0.003637 0.000000 0.000692 0.000000
# 3 -0.002643 -0.003637 0.013178 0.000000 0.005831 0.000000
# 4 0.000000 0.000000 0.000000 0.026858 0.000000 -0.001555
# 5 0.002967 0.000692 0.005831 0.000000 0.042194 0.000000
# 6 0.000000 0.000000 0.000000 -0.001555 0.000000 0.050379
#
#
# Mechanical properties :
#
#
# Convention : Reuss Voigt Hill
#
# Bulk Modulus (GPa) = 58.23488 66.77655 62.50572
# Shear Modulus (GPa) = 27.01077 29.31983 28.16530
#
# Velocity S-wave (km/s) = 3.51948 3.66683 3.59391
# Velocity P-wave (km/s) = 6.57430 6.96781 6.77391
#
# Compressibility (1/GPa) = 0.01717184
#
# Stress axis : x y z
#
# Youngs Moduli (GPa) = 83.52520 74.55007 75.88500
#
# Poissons Ratio (x) = 0.32928 0.20054
# Poissons Ratio (y) = 0.36892 0.27596
# Poissons Ratio (z) = 0.22073 0.27111
#
# Static dielectric constant tensor:
#      x y z
#    x 3.681300 0.000000 -0.391670 
#    y 0.000000 4.240170 0.000000 
#    z -0.391670 0.000000 4.149940 
# 
# 
# High freq. dielectric constant tensor:
#      x y z
#    x 1.818580 0.000000 -0.025100 
#    y 0.000000 1.877490 0.000000 
#    z -0.025100 0.000000 1.861490 
# 
# From -- ./inp_files/67570.got.cif
#   From: 2010.06.25/outbox.cif.g09.slc.cpg/sg13_34_cif.got.tgz:67570.got - 2010.06.28 04:50:58.
