data_PCOD8122218
_publ_section_title
;
Structure prediction by ZEFSAII (Michael W. Deem and Ramdas Pophale) SiO2 
 PCOD8122218
Probable space group: P 2/C
;
_chemical_formula_sum "Si O2"
_cell_formula_units_Z 28
_cell_length_a 11.935384
_cell_length_b 8.497784
_cell_length_c 14.207361
_cell_angle_alpha 90.000000
_cell_angle_beta 67.757507
_cell_angle_gamma 90.000000
_cell_volume 1333.749299
_symmetry_space_group_name_H-M "P 2/C"
_symmetry_group_IT_number 13
_symmetry_cell_setting 'monoclinic'
loop_
_space_group_symop_operation_xyz
x,y,z
-x,y,1/2-z
-x,-y,-z
x,-y,1/2+z
loop_
_atom_site_type_symbol
_atom_site_label
_atom_site_fract_x
_atom_site_fract_y
_atom_site_fract_z
Si Si1 0.863559 0.919957 0.804617
Si Si2 0.500000 0.726416 0.750000
Si Si3 0.500000 0.777868 0.250000
Si Si4 0.825164 0.553690 0.797537
Si Si5 0.108974 0.919365 0.018690
Si Si6 0.021504 0.425186 0.594873
Si Si7 0.543876 0.486415 0.880371
Si Si8 0.301245 0.970186 0.804412
O O1 0.851202 0.738344 0.780059
O O2 0.000000 0.978600 0.750000
O O3 0.831896 0.966356 0.921264
O O4 0.778444 0.018279 0.760923
O O5 0.465897 0.616513 0.849175
O O6 0.389052 0.828800 0.748769
O O7 0.483626 0.680779 0.158872
O O8 0.619941 0.879666 0.190667
O O9 0.901760 0.454890 0.696070
O O10 0.685909 0.517574 0.825724
O O11 0.864338 0.506783 0.890663
O O12 0.056009 0.757534 0.076328
O O13 0.218985 0.897480 0.912437
O O14 0.000000 0.000000 0.000000
O O15 0.000000 0.500000 0.500000
O O16 0.500000 0.500000 0.000000
#
# Coordination Sequence:
#
# PCOD8122218 Si02
#       8
#     4   2   2   4   4   4   4   4
#     4  12  23  44  68 102 143 178 221 284 354 425
#     4  10  24  48  66  94 132 188 230 284 342 404
#     4  10  28  46  70 100 138 186 238 296 340 410
#     4  11  25  44  69  99 142 180 229 292 343 418
#     4  12  27  40  71 104 135 182 230 281 356 430
#     4  11  25  43  69 102 136 182 228 282 364 417
#     4  11  26  44  71 100 133 182 244 285 343 401
#     4  11  25  46  68  97 142 181 229 287 348 411
#
# _framework density 20.993449999999999
#
# number of rings (size 3 to 8) (size 9 to 14) (size 15 to 20)
#    0.000    0.857    4.286    1.714   10.000    1.143 
#    0.000    2.857    0.000    0.000    0.000    0.000 
#    0.000    0.000    0.000    0.000    0.000    0.000 
#
# Total GULP energy -347170.314133 kJ/mol
# GULP energy per Si atom -12398.939790 kJ/mol
# Density = 2.094567 g / cm^3
# Si number density = 20.993450 Si / 1000 Ang^3
#
#
#
# Elastic Constant Matrix: (Units=GPa)
#
#
# Indices 1 2 3 4 5 6 
#
# 1 142.8576 44.2974 45.2520 0.0000 11.8173 0.0000
# 2 44.2974 109.0415 46.7311 0.0000 -0.3697 0.0000
# 3 45.2520 46.7311 128.3475 0.0000 18.5250 0.0000
# 4 0.0000 0.0000 0.0000 30.3566 0.0000 7.7853
# 5 11.8173 -0.3697 18.5250 0.0000 39.6934 0.0000
# 6 0.0000 0.0000 0.0000 7.7853 0.0000 32.2418
#
#
#
# Elastic Compliance Matrix: (Units=1/GPa)
#
#
# Indices 1 2 3 4 5 6 
#
# 1 0.008549 -0.002719 -0.001772 0.000000 -0.001743 0.000000
# 2 -0.002719 0.011895 -0.003758 0.000000 0.002674 0.000000
# 3 -0.001772 -0.003758 0.010415 0.000000 -0.004368 0.000000
# 4 0.000000 0.000000 0.000000 0.035116 0.000000 -0.008479
# 5 -0.001743 0.002674 -0.004368 0.000000 0.027776 0.000000
# 6 0.000000 0.000000 0.000000 -0.008479 0.000000 0.033063
#
#
# Mechanical properties :
#
#
# Convention : Reuss Voigt Hill
#
# Bulk Modulus (GPa) = 69.64145 72.53417 71.08781
# Shear Modulus (GPa) = 33.76087 36.72278 35.24182
#
# Velocity S-wave (km/s) = 4.01454 4.18694 4.10165
# Velocity P-wave (km/s) = 7.39822 7.61576 7.50778
#
# Compressibility (1/GPa) = 0.01435926
#
# Stress axis : x y z
#
# Youngs Moduli (GPa) = 116.97568 84.06738 96.01436
#
# Poissons Ratio (x) = 0.22860 0.17018
# Poissons Ratio (y) = 0.31808 0.36085
# Poissons Ratio (z) = 0.20733 0.31595
#
# Static dielectric constant tensor:
#      x y z
#    x 4.213610 0.000000 1.271760 
#    y 0.000000 3.810690 0.000000 
#    z 1.271760 0.000000 -0.889060 
# 
# 
# High freq. dielectric constant tensor:
#      x y z
#    x 1.843930 0.000000 0.010910 
#    y 0.000000 1.830690 0.000000 
#    z 0.010910 0.000000 1.817720 
# 
# From -- ./inp_files/49934.got.cif
#   From: 2010.06.25/outbox.cif.g09.slc.cpg/sg13_25_cif.got.tgz:49934.got - 2010.06.28 04:50:58.
