data_PCOD8122711
_publ_section_title
;
Structure prediction by ZEFSAII (Michael W. Deem and Ramdas Pophale) SiO2 
 PCOD8122711
Probable space group: P 2/C
;
_chemical_formula_sum "Si O2"
_cell_formula_units_Z 16
_cell_length_a 19.343147
_cell_length_b 8.334347
_cell_length_c 10.173091
_cell_angle_alpha 90.000000
_cell_angle_beta 158.227395
_cell_angle_gamma 90.000000
_cell_volume 608.326034
_symmetry_space_group_name_H-M "P 2/C"
_symmetry_group_IT_number 13
_symmetry_cell_setting 'monoclinic'
loop_
_space_group_symop_operation_xyz
x,y,z
-x,y,1/2-z
-x,-y,-z
x,-y,1/2+z
loop_
_atom_site_type_symbol
_atom_site_label
_atom_site_fract_x
_atom_site_fract_y
_atom_site_fract_z
Si Si1 0.138248 0.669219 0.317221
Si Si2 0.260806 0.206681 0.295027
Si Si3 0.348216 0.369794 0.698354
Si Si4 0.204690 0.844450 0.167877
O O1 0.286280 0.724812 0.692866
O O2 0.151352 0.472917 0.336372
O O3 0.210072 0.737510 0.306961
O O4 0.941933 0.743428 0.008477
O O5 0.399520 0.280580 0.651417
O O6 0.290152 0.016849 0.351073
O O7 0.332682 0.240973 0.786160
O O8 0.500000 0.500000 0.000000
O O9 0.000000 0.870290 0.750000
#
# Coordination Sequence:
#
# PCOD8122711 Si02
#       4
#     4   4   4   4
#     4  11  23  41  73 111 142 192 251 313 362 436
#     4  11  23  44  75 110 147 190 256 310 368 441
#     4  12  28  47  70 110 157 198 246 308 384 453
#     4  12  23  44  79 109 146 200 257 310 369 444
#
# _framework density 26.301683000000001
#
# number of rings (size 3 to 8) (size 9 to 14) (size 15 to 20)
#    0.000    0.500    5.000    4.500    3.500    4.000 
#    0.000    7.500    0.000    0.000    0.000    0.000 
#    0.000    0.000    0.000    0.000    0.000    0.000 
#
# Total GULP energy -198494.746802 kJ/mol
# GULP energy per Si atom -12405.921675 kJ/mol
# Density = 2.624182 g / cm^3
# Si number density = 26.301683 Si / 1000 Ang^3
#
#
#
# Elastic Constant Matrix: (Units=GPa)
#
#
# Indices 1 2 3 4 5 6 
#
# 1 189.1795 80.9401 39.0199 0.0000 -49.6310 0.0000
# 2 80.9401 225.4173 31.7073 0.0000 -22.1681 0.0000
# 3 39.0199 31.7073 100.6128 0.0000 -31.8513 0.0000
# 4 0.0000 0.0000 0.0000 36.8386 0.0000 -17.9152
# 5 -49.6310 -22.1681 -31.8513 0.0000 48.6613 0.0000
# 6 0.0000 0.0000 0.0000 -17.9152 0.0000 55.3776
#
#
#
# Elastic Compliance Matrix: (Units=1/GPa)
#
#
# Indices 1 2 3 4 5 6 
#
# 1 0.008149 -0.002192 -0.000195 0.000000 0.007185 0.000000
# 2 -0.002192 0.005315 -0.000966 0.000000 -0.000447 0.000000
# 3 -0.000195 -0.000966 0.012761 0.000000 0.007714 0.000000
# 4 0.000000 0.000000 0.000000 0.032214 0.000000 0.010421
# 5 0.007185 -0.000447 0.007714 0.000000 0.032724 0.000000
# 6 0.000000 0.000000 0.000000 0.010421 0.000000 0.021429
#
#
# Mechanical properties :
#
#
# Convention : Reuss Voigt Hill
#
# Bulk Modulus (GPa) = 51.23252 90.94936 71.09094
# Shear Modulus (GPa) = 39.74384 52.41166 46.07775
#
# Velocity S-wave (km/s) = 3.89147 4.46882 4.19010
# Velocity P-wave (km/s) = 6.30179 7.82825 7.10613
#
# Compressibility (1/GPa) = 0.01951885
#
# Stress axis : x y z
#
# Youngs Moduli (GPa) = 122.71286 188.13620 78.36239
#
# Poissons Ratio (x) = 0.41240 0.01528
# Poissons Ratio (y) = 0.26899 0.07573
# Poissons Ratio (z) = 0.02392 0.18182
#
# Static dielectric constant tensor:
#      x y z
#    x 4.820980 0.000000 -0.080140 
#    y 0.000000 5.076730 0.000000 
#    z -0.080140 0.000000 5.196410 
# 
# 
# High freq. dielectric constant tensor:
#      x y z
#    x 2.072820 0.000000 -0.007980 
#    y 0.000000 2.063920 0.000000 
#    z -0.007980 0.000000 2.089550 
# 
# From -- ./inp_files/21283.got.cif
#   From: 2010.06.25/outbox.cif.g09.slc.cpg/sg13_11_cif.got.tgz:21283.got - 2010.06.28 04:50:58.
