data_PCOD8122056
_publ_section_title
;
Structure prediction by ZEFSAII (Michael W. Deem and Ramdas Pophale) SiO2 
 PCOD8122056
Probable space group: P 2/C
;
_chemical_formula_sum "Si O2"
_cell_formula_units_Z 20
_cell_length_a 17.195950
_cell_length_b 7.040305
_cell_length_c 9.599889
_cell_angle_alpha 90.000000
_cell_angle_beta 49.860168
_cell_angle_gamma 90.000000
_cell_volume 888.477124
_symmetry_space_group_name_H-M "P 2/C"
_symmetry_group_IT_number 13
_symmetry_cell_setting 'monoclinic'
loop_
_space_group_symop_operation_xyz
x,y,z
-x,y,1/2-z
-x,-y,-z
x,-y,1/2+z
loop_
_atom_site_type_symbol
_atom_site_label
_atom_site_fract_x
_atom_site_fract_y
_atom_site_fract_z
Si Si1 0.492671 0.194399 0.596379
Si Si2 0.208186 0.411319 0.606775
Si Si3 0.659204 0.479227 0.294046
Si Si4 0.119597 0.787035 0.622927
Si Si5 0.115528 0.938180 0.344628
O O1 0.500000 0.138783 0.750000
O O2 0.584064 0.333939 0.453701
O O3 0.390151 0.314571 0.684093
O O4 0.500000 0.000000 0.500000
O O5 0.301914 0.374302 0.392306
O O6 0.247963 0.481545 0.709364
O O7 0.131068 0.236664 0.719073
O O8 0.858827 0.566544 0.896140
O O9 0.169212 0.885980 0.428582
O O10 0.000000 0.821051 0.750000
O O11 0.168169 0.884310 0.705013
O O12 0.000000 0.000000 0.500000
#
# Coordination Sequence:
#
# PCOD8122056 Si02
#       5
#     4   4   4   4   4
#     4  11  26  46  73 104 148 185 227 288 359 426
#     4  12  24  45  70  99 141 184 239 292 345 429
#     4  11  26  46  69 106 141 186 238 286 352 427
#     4  10  24  42  65  96 132 181 232 288 355 407
#     4  10  24  43  64  96 134 179 232 290 347 410
#
# _framework density 22.510425000000001
#
# number of rings (size 3 to 8) (size 9 to 14) (size 15 to 20)
#    0.000    1.200    4.000    0.000    5.600    8.800 
#    0.000    0.000    0.000    0.000    0.000    0.000 
#    0.000    0.000    0.000    0.000    0.000    0.000 
#
# Total GULP energy -247829.224310 kJ/mol
# GULP energy per Si atom -12391.461216 kJ/mol
# Density = 2.245919 g / cm^3
# Si number density = 22.510425 Si / 1000 Ang^3
#
#
#
# Elastic Constant Matrix: (Units=GPa)
#
#
# Indices 1 2 3 4 5 6 
#
# 1 70.6494 33.5377 39.6055 0.0000 17.3109 0.0000
# 2 33.5377 117.3630 60.8722 0.0000 2.6159 0.0000
# 3 39.6055 60.8722 132.1254 0.0000 26.1029 0.0000
# 4 0.0000 0.0000 0.0000 51.0180 0.0000 7.3511
# 5 17.3109 2.6159 26.1029 0.0000 28.8388 0.0000
# 6 0.0000 0.0000 0.0000 7.3511 0.0000 35.4909
#
#
#
# Elastic Compliance Matrix: (Units=1/GPa)
#
#
# Indices 1 2 3 4 5 6 
#
# 1 0.019711 -0.004390 -0.001981 0.000000 -0.009640 0.000000
# 2 -0.004390 0.012663 -0.005860 0.000000 0.006790 0.000000
# 3 -0.001981 -0.005860 0.012813 0.000000 -0.009877 0.000000
# 4 0.000000 0.000000 0.000000 0.020204 0.000000 -0.004185
# 5 -0.009640 0.006790 -0.009877 0.000000 0.048786 0.000000
# 6 0.000000 0.000000 0.000000 -0.004185 0.000000 0.029043
#
#
# Mechanical properties :
#
#
# Convention : Reuss Voigt Hill
#
# Bulk Modulus (GPa) = 48.24993 65.35206 56.80100
# Shear Modulus (GPa) = 28.63831 35.47771 32.05801
#
# Velocity S-wave (km/s) = 3.57070 3.97426 3.77787
# Velocity P-wave (km/s) = 6.20329 7.08199 6.65716
#
# Compressibility (1/GPa) = 0.02072542
#
# Stress axis : x y z
#
# Youngs Moduli (GPa) = 50.73226 78.97099 78.04341
#
# Poissons Ratio (x) = 0.34669 0.15464
# Poissons Ratio (y) = 0.22272 0.45730
# Poissons Ratio (z) = 0.10052 0.46273
#
# Static dielectric constant tensor:
#      x y z
#    x 4.010900 0.000000 0.486050 
#    y 0.000000 4.208130 0.000000 
#    z 0.486050 0.000000 4.679400 
# 
# 
# High freq. dielectric constant tensor:
#      x y z
#    x 1.873730 0.000000 0.024260 
#    y 0.000000 1.890670 0.000000 
#    z 0.024260 0.000000 1.907330 
# 
# From -- ./inp_files/39729.got.cif
#   From: 2010.06.25/outbox.cif.g09.slc.cpg/sg13_20_cif.got.tgz:39729.got - 2010.06.28 04:50:58.
