data_PCOD8122091
_publ_section_title
;
Structure prediction by ZEFSAII (Michael W. Deem and Ramdas Pophale) SiO2 
 PCOD8122091
Probable space group: P 2/C
;
_chemical_formula_sum "Si O2"
_cell_formula_units_Z 30
_cell_length_a 8.395281
_cell_length_b 11.863144
_cell_length_c 28.227162
_cell_angle_alpha 90.000000
_cell_angle_beta 29.945814
_cell_angle_gamma 90.000000
_cell_volume 1403.330902
_symmetry_space_group_name_H-M "P 2/C"
_symmetry_group_IT_number 13
_symmetry_cell_setting 'monoclinic'
loop_
_space_group_symop_operation_xyz
x,y,z
-x,y,1/2-z
-x,-y,-z
x,-y,1/2+z
loop_
_atom_site_type_symbol
_atom_site_label
_atom_site_fract_x
_atom_site_fract_y
_atom_site_fract_z
Si Si1 0.134969 0.646954 0.596206
Si Si2 0.170722 0.052642 0.603345
Si Si3 0.234202 0.536972 0.358461
Si Si4 0.000000 0.977965 0.750000
Si Si5 0.828041 0.860572 0.642617
Si Si6 0.775319 0.733231 0.464794
Si Si7 0.718420 0.419617 0.290815
Si Si8 0.437871 0.184749 0.385927
O O1 0.497882 0.642974 0.521825
O O2 0.045929 0.556510 0.578247
O O3 0.105974 0.775904 0.586812
O O4 0.874535 0.624085 0.702920
O O5 0.138488 0.185983 0.601412
O O6 0.500000 0.000000 0.500000
O O7 0.124573 0.047751 0.672383
O O8 0.897772 0.985078 0.644599
O O9 0.500000 0.540149 0.250000
O O10 0.430343 0.508112 0.356000
O O11 0.076824 0.659442 0.403356
O O12 0.277405 0.899600 0.698155
O O13 0.500000 0.815838 0.750000
O O14 0.819648 0.848275 0.587669
O O15 0.700157 0.824827 0.525550
O O16 0.559014 0.312874 0.356492
O O17 0.000000 0.474940 0.250000
#
# Coordination Sequence:
#
# PCOD8122091 Si02
#       8
#     4   4   4   2   4   4   4   4
#     4  11  19  39  69  95 131 176 229 289 345 400
#     4  12  25  44  69 101 140 179 226 290 352 418
#     4  10  24  43  64  93 137 187 230 279 352 422
#     4  12  22  44  72 102 136 178 232 288 352 412
#     4  12  21  38  67 102 132 171 228 288 346 402
#     4  12  25  43  66  99 142 180 233 285 350 421
#     4  11  19  36  66 100 131 175 226 289 343 403
#     4  12  21  37  69 103 132 170 228 294 344 396
#
# _framework density 21.377708999999999
#
# number of rings (size 3 to 8) (size 9 to 14) (size 15 to 20)
#    0.000    0.533    8.667    0.800    0.000    1.600 
#    0.000    0.000    5.867    0.000    0.000    0.000 
#    0.000    0.000    0.000    0.000    0.000    0.000 
#
# Total GULP energy -371856.707752 kJ/mol
# GULP energy per Si atom -12395.223592 kJ/mol
# Density = 2.132905 g / cm^3
# Si number density = 21.377709 Si / 1000 Ang^3
#
#
#
# Elastic Constant Matrix: (Units=GPa)
#
#
# Indices 1 2 3 4 5 6 
#
# 1 140.3126 33.9929 39.8737 0.0000 -5.5673 0.0000
# 2 33.9929 89.1102 33.6217 0.0000 -5.0593 0.0000
# 3 39.8737 33.6217 71.1073 0.0000 2.9736 0.0000
# 4 0.0000 0.0000 0.0000 26.4275 0.0000 -3.8313
# 5 -5.5673 -5.0593 2.9736 0.0000 30.9691 0.0000
# 6 0.0000 0.0000 0.0000 -3.8313 0.0000 33.1637
#
#
#
# Elastic Compliance Matrix: (Units=1/GPa)
#
#
# Indices 1 2 3 4 5 6 
#
# 1 0.008797 -0.001668 -0.004216 0.000000 0.001714 0.000000
# 2 -0.001668 0.014233 -0.005903 0.000000 0.002592 0.000000
# 3 -0.004216 -0.005903 0.019368 0.000000 -0.003582 0.000000
# 4 0.000000 0.000000 0.000000 0.038484 0.000000 0.004446
# 5 0.001714 0.002592 -0.003582 0.000000 0.033366 0.000000
# 6 0.000000 0.000000 0.000000 0.004446 0.000000 0.030667
#
#
# Mechanical properties :
#
#
# Convention : Reuss Voigt Hill
#
# Bulk Modulus (GPa) = 53.12191 57.27851 55.20021
# Shear Modulus (GPa) = 28.61022 30.98153 29.79587
#
# Velocity S-wave (km/s) = 3.66227 3.81102 3.73739
# Velocity P-wave (km/s) = 6.54111 6.79830 6.67095
#
# Compressibility (1/GPa) = 0.01882462
#
# Stress axis : x y z
#
# Youngs Moduli (GPa) = 113.67371 70.26134 51.63090
#
# Poissons Ratio (x) = 0.11718 0.21768
# Poissons Ratio (y) = 0.18958 0.30477
# Poissons Ratio (z) = 0.47926 0.41474
#
# Static dielectric constant tensor:
#      x y z
#    x 4.177670 0.000000 -0.097150 
#    y 0.000000 3.664670 0.000000 
#    z -0.097150 0.000000 3.692720 
# 
# 
# High freq. dielectric constant tensor:
#      x y z
#    x 1.852330 0.000000 -0.006070 
#    y 0.000000 1.816950 0.000000 
#    z -0.006070 0.000000 1.822910 
# 
# From -- ./inp_files/96077.got.cif
#   From: 2010.06.25/outbox.cif.g09.slc.cpg/sg13_49_cif.got.tgz:96077.got - 2010.06.28 04:50:58.
