data_PCOD8122570
_publ_section_title
;
Structure prediction by ZEFSAII (Michael W. Deem and Ramdas Pophale) SiO2 
 PCOD8122570
Probable space group: P 2/C
;
_chemical_formula_sum "Si O2"
_cell_formula_units_Z 20
_cell_length_a 13.963224
_cell_length_b 10.512167
_cell_length_c 9.928252
_cell_angle_alpha 90.000000
_cell_angle_beta 40.813860
_cell_angle_gamma 90.000000
_cell_volume 952.500590
_symmetry_space_group_name_H-M "P 2/C"
_symmetry_group_IT_number 13
_symmetry_cell_setting 'monoclinic'
loop_
_space_group_symop_operation_xyz
x,y,z
-x,y,1/2-z
-x,-y,-z
x,-y,1/2+z
loop_
_atom_site_type_symbol
_atom_site_label
_atom_site_fract_x
_atom_site_fract_y
_atom_site_fract_z
Si Si1 0.724846 0.957506 0.235552
Si Si2 0.459049 0.824073 0.440355
Si Si3 0.840229 0.116337 0.878842
Si Si4 0.344143 0.448675 0.116423
Si Si5 0.822311 0.603719 0.439446
O O1 0.615641 0.835618 0.350240
O O2 0.847637 0.918887 0.212858
O O3 0.650574 0.082924 0.370244
O O4 0.783854 0.995331 0.025156
O O5 0.500000 0.876098 0.250000
O O6 0.382702 0.688519 0.514642
O O7 0.760540 0.251530 0.989221
O O8 0.000000 0.151460 0.750000
O O9 0.260875 0.525679 0.088656
O O10 0.231957 0.446605 0.359307
O O11 0.500000 0.500000 0.000000
O O12 0.000000 0.587232 0.250000
#
# Coordination Sequence:
#
# PCOD8122570 Si02
#       5
#     4   4   4   4   4
#     4  11  22  40  63  92 128 164 210 268 324 379
#     4  11  22  38  64  91 126 162 212 268 326 381
#     4  11  23  42  65  93 129 172 216 261 324 398
#     4  12  24  43  68  97 131 171 224 277 324 389
#     4  11  25  45  67  96 135 177 219 271 334 394
#
# _framework density 20.997361999999999
#
# number of rings (size 3 to 8) (size 9 to 14) (size 15 to 20)
#    0.000    0.800    4.000    4.200    0.000    0.000 
#    0.000    1.000    0.000    0.000    0.000    0.000 
#    0.000    0.000    0.000    0.000    0.000    0.000 
#
# Total GULP energy -247774.156326 kJ/mol
# GULP energy per Si atom -12388.707816 kJ/mol
# Density = 2.094957 g / cm^3
# Si number density = 20.997362 Si / 1000 Ang^3
#
#
#
# Elastic Constant Matrix: (Units=GPa)
#
#
# Indices 1 2 3 4 5 6 
#
# 1 132.7379 61.2096 16.4907 0.0000 2.0934 0.0000
# 2 61.2096 82.0685 30.4224 0.0000 3.1175 0.0000
# 3 16.4907 30.4224 82.6580 0.0000 3.0410 0.0000
# 4 0.0000 0.0000 0.0000 45.8047 0.0000 -13.9717
# 5 2.0934 3.1175 3.0410 0.0000 31.8926 0.0000
# 6 0.0000 0.0000 0.0000 -13.9717 0.0000 49.1737
#
#
#
# Elastic Compliance Matrix: (Units=1/GPa)
#
#
# Indices 1 2 3 4 5 6 
#
# 1 0.011554 -0.008990 0.001003 0.000000 0.000025 0.000000
# 2 -0.008990 0.021130 -0.005950 0.000000 -0.000908 0.000000
# 3 0.001003 -0.005950 0.014118 0.000000 -0.000830 0.000000
# 4 0.000000 0.000000 0.000000 0.023904 0.000000 0.006792
# 5 0.000025 -0.000908 -0.000830 0.000000 0.031522 0.000000
# 6 0.000000 0.000000 0.000000 0.006792 0.000000 0.022266
#
#
# Mechanical properties :
#
#
# Convention : Reuss Voigt Hill
#
# Bulk Modulus (GPa) = 52.83143 57.07885 54.95514
# Shear Modulus (GPa) = 31.51021 37.99697 34.75359
#
# Velocity S-wave (km/s) = 3.87806 4.25856 4.07276
# Velocity P-wave (km/s) = 6.72815 7.17100 6.95311
#
# Compressibility (1/GPa) = 0.01892813
#
# Stress axis : x y z
#
# Youngs Moduli (GPa) = 86.54705 47.32510 70.82933
#
# Poissons Ratio (x) = 0.42547 -0.07103
# Poissons Ratio (y) = 0.77809 0.42144
# Poissons Ratio (z) = -0.08679 0.28159
#
# Static dielectric constant tensor:
#      x y z
#    x 4.051260 0.000000 0.330950 
#    y 0.000000 3.907710 0.000000 
#    z 0.330950 0.000000 4.703830 
# 
# 
# High freq. dielectric constant tensor:
#      x y z
#    x 1.838260 0.000000 0.008310 
#    y 0.000000 1.824990 0.000000 
#    z 0.008310 0.000000 1.824460 
# 
# From -- ./inp_files/11790.got.cif
#   From: 2010.06.25/outbox.cif.g09.slc.cpg/sg13_6_cif.got.tgz:11790.got - 2010.06.28 04:50:58.
