data_PCOD8122784
_publ_section_title
;
Structure prediction by ZEFSAII (Michael W. Deem and Ramdas Pophale) SiO2 
 PCOD8122784
Probable space group: P 2/C
;
_chemical_formula_sum "Si O2"
_cell_formula_units_Z 18
_cell_length_a 12.584302
_cell_length_b 6.366826
_cell_length_c 14.078712
_cell_angle_alpha 90.000000
_cell_angle_beta 134.894950
_cell_angle_gamma 90.000000
_cell_volume 799.088439
_symmetry_space_group_name_H-M "P 2/C"
_symmetry_group_IT_number 13
_symmetry_cell_setting 'monoclinic'
loop_
_space_group_symop_operation_xyz
x,y,z
-x,y,1/2-z
-x,-y,-z
x,-y,1/2+z
loop_
_atom_site_type_symbol
_atom_site_label
_atom_site_fract_x
_atom_site_fract_y
_atom_site_fract_z
Si Si1 0.045589 0.699922 0.965574
Si Si2 0.300726 0.314180 0.870864
Si Si3 0.238874 0.016095 0.193811
Si Si4 0.456999 0.377654 0.323018
Si Si5 0.000000 0.507948 0.250000
O O1 0.908742 0.858537 0.872661
O O2 0.083528 0.630691 0.882385
O O3 0.000000 0.500000 0.000000
O O4 0.193750 0.821599 0.096392
O O5 0.355119 0.481989 0.827000
O O6 0.125346 0.350761 0.779227
O O7 0.312247 0.081002 0.835320
O O8 0.392171 0.319309 0.025872
O O9 0.364548 0.170963 0.231076
O O10 0.500000 0.490601 0.250000
#
# Coordination Sequence:
#
# PCOD8122784 Si02
#       5
#     4   4   4   4   2
#     4  11  24  44  69 104 141 179 230 295 351 413
#     4  11  26  45  71 104 144 182 237 294 353 423
#     4  11  23  45  69 100 142 179 244 278 344 433
#     4  11  26  47  69 100 145 192 233 288 353 421
#     4  12  24  44  76 100 144 184 230 298 368 404
#
# _framework density 22.525666000000001
#
# number of rings (size 3 to 8) (size 9 to 14) (size 15 to 20)
#    0.000    0.889    4.444    0.667    6.222    3.556 
#    4.000    0.000    0.000    0.000    0.000    0.000 
#    0.000    0.000    0.000    0.000    0.000    0.000 
#
# Total GULP energy -223189.707305 kJ/mol
# GULP energy per Si atom -12399.428184 kJ/mol
# Density = 2.247440 g / cm^3
# Si number density = 22.525666 Si / 1000 Ang^3
#
#
#
# Elastic Constant Matrix: (Units=GPa)
#
#
# Indices 1 2 3 4 5 6 
#
# 1 98.6688 14.0323 38.7584 0.0000 -7.9048 0.0000
# 2 14.0323 83.0577 32.0763 0.0000 -4.8906 0.0000
# 3 38.7584 32.0763 124.8227 0.0000 -10.1857 0.0000
# 4 0.0000 0.0000 0.0000 43.3539 0.0000 -7.0116
# 5 -7.9048 -4.8906 -10.1857 0.0000 46.8094 0.0000
# 6 0.0000 0.0000 0.0000 -7.0116 0.0000 8.7143
#
#
#
# Elastic Compliance Matrix: (Units=1/GPa)
#
#
# Indices 1 2 3 4 5 6 
#
# 1 0.011635 -0.000598 -0.003364 0.000000 0.001170 0.000000
# 2 -0.000598 0.013417 -0.003213 0.000000 0.000602 0.000000
# 3 -0.003364 -0.003213 0.009985 0.000000 0.001269 0.000000
# 4 0.000000 0.000000 0.000000 0.026517 0.000000 0.021335
# 5 0.001170 0.000602 0.001269 0.000000 0.021900 0.000000
# 6 0.000000 0.000000 0.000000 0.021335 0.000000 0.131920
#
#
# Mechanical properties :
#
#
# Convention : Reuss Voigt Hill
#
# Bulk Modulus (GPa) = 48.33705 52.92035 50.62870
# Shear Modulus (GPa) = 21.13102 34.55435 27.84268
#
# Velocity S-wave (km/s) = 3.06614 3.92088 3.51955
# Velocity P-wave (km/s) = 5.83440 6.63642 6.24829
#
# Compressibility (1/GPa) = 0.02068806
#
# Stress axis : x y z
#
# Youngs Moduli (GPa) = 85.94777 74.53151 100.14979
#
# Poissons Ratio (x) = 0.04455 0.33687
# Poissons Ratio (y) = 0.05138 0.32180
# Poissons Ratio (z) = 0.28910 0.23948
#
# Static dielectric constant tensor:
#      x y z
#    x 3.793690 0.000000 -0.046110 
#    y 0.000000 4.179740 0.000000 
#    z -0.046110 0.000000 4.463210 
# 
# 
# High freq. dielectric constant tensor:
#      x y z
#    x 1.875570 0.000000 0.000990 
#    y 0.000000 1.885360 0.000000 
#    z 0.000990 0.000000 1.912260 
# 
# From -- ./inp_files/52428.got.cif
#   From: 2010.06.25/outbox.cif.g09.slc.cpg/sg13_27_cif.got.tgz:52428.got - 2010.06.28 04:50:58.
