data_PCOD8122366
_publ_section_title
;
Structure prediction by ZEFSAII (Michael W. Deem and Ramdas Pophale) SiO2 
 PCOD8122366
Probable space group: P 2/C
;
_chemical_formula_sum "Si O2"
_cell_formula_units_Z 22
_cell_length_a 10.513561
_cell_length_b 8.780434
_cell_length_c 11.092806
_cell_angle_alpha 90.000000
_cell_angle_beta 111.795339
_cell_angle_gamma 90.000000
_cell_volume 950.816364
_symmetry_space_group_name_H-M "P 2/C"
_symmetry_group_IT_number 13
_symmetry_cell_setting 'monoclinic'
loop_
_space_group_symop_operation_xyz
x,y,z
-x,y,1/2-z
-x,-y,-z
x,-y,1/2+z
loop_
_atom_site_type_symbol
_atom_site_label
_atom_site_fract_x
_atom_site_fract_y
_atom_site_fract_z
Si Si1 0.559222 0.154965 0.581571
Si Si2 0.334713 0.781305 0.710173
Si Si3 0.713226 0.715122 0.536281
Si Si4 0.230283 0.629449 0.470321
Si Si5 0.000000 0.206721 0.750000
Si Si6 0.780822 0.088939 0.849726
O O1 0.435856 0.266925 0.575138
O O2 0.651295 0.251799 0.523462
O O3 0.639847 0.127323 0.732287
O O4 0.500000 0.000000 0.500000
O O5 0.500000 0.783529 0.750000
O O6 0.293701 0.794008 0.835569
O O7 0.256912 0.633256 0.624866
O O8 0.251287 0.919369 0.614960
O O9 0.752848 0.541062 0.569830
O O10 0.813271 0.803603 0.477491
O O11 0.085244 0.684459 0.369079
O O12 0.906990 0.099350 0.801214
#
# Coordination Sequence:
#
# PCOD8122366 Si02
#       6
#     4   4   4   4   2   4
#     4  11  20  43  72 105 146 181 232 301 363 426
#     4  12  25  44  75 112 149 174 235 308 368 435
#     4  12  25  42  73 111 138 188 232 297 382 415
#     4  11  26  45  70 103 149 191 239 295 358 431
#     4  10  28  52  70  92 150 198 256 290 338 426
#     4  11  25  45  72 102 141 195 239 294 358 423
#
# _framework density 23.138010999999999
#
# number of rings (size 3 to 8) (size 9 to 14) (size 15 to 20)
#    0.000    0.727    3.636    3.273    7.636    1.455 
#    0.000    0.000    0.000    0.000    0.000    0.000 
#    0.000    0.000    0.000    0.000    0.000    0.000 
#
# Total GULP energy -272574.593655 kJ/mol
# GULP energy per Si atom -12389.754257 kJ/mol
# Density = 2.308535 g / cm^3
# Si number density = 23.138011 Si / 1000 Ang^3
#
#
#
# Elastic Constant Matrix: (Units=GPa)
#
#
# Indices 1 2 3 4 5 6 
#
# 1 113.9758 32.2736 44.0485 0.0000 -1.4833 0.0000
# 2 32.2736 111.6581 34.0634 0.0000 4.0491 0.0000
# 3 44.0485 34.0634 109.0475 0.0000 -14.2586 0.0000
# 4 0.0000 0.0000 0.0000 26.8457 0.0000 -5.2355
# 5 -1.4833 4.0491 -14.2586 0.0000 41.1134 0.0000
# 6 0.0000 0.0000 0.0000 -5.2355 0.0000 26.5678
#
#
#
# Elastic Compliance Matrix: (Units=1/GPa)
#
#
# Indices 1 2 3 4 5 6 
#
# 1 0.010799 -0.001915 -0.003864 0.000000 -0.000762 0.000000
# 2 -0.001915 0.010423 -0.002750 0.000000 -0.002049 0.000000
# 3 -0.003864 -0.002750 0.012159 0.000000 0.004348 0.000000
# 4 0.000000 0.000000 0.000000 0.038739 0.000000 0.007634
# 5 -0.000762 -0.002049 0.004348 0.000000 0.026005 0.000000
# 6 0.000000 0.000000 0.000000 0.007634 0.000000 0.039144
#
#
# Mechanical properties :
#
#
# Convention : Reuss Voigt Hill
#
# Bulk Modulus (GPa) = 61.26373 61.71694 61.49034
# Shear Modulus (GPa) = 31.29549 33.85845 32.57697
#
# Velocity S-wave (km/s) = 3.68170 3.82949 3.75633
# Velocity P-wave (km/s) = 6.67894 6.80328 6.74140
#
# Compressibility (1/GPa) = 0.01632287
#
# Stress axis : x y z
#
# Youngs Moduli (GPa) = 92.59799 95.94380 82.24627
#
# Poissons Ratio (x) = 0.18375 0.31777
# Poissons Ratio (y) = 0.17734 0.22619
# Poissons Ratio (z) = 0.35777 0.26386
#
# Static dielectric constant tensor:
#      x y z
#    x 4.095280 0.000000 -0.035040 
#    y 0.000000 4.030630 0.000000 
#    z -0.035040 0.000000 4.546370 
# 
# 
# High freq. dielectric constant tensor:
#      x y z
#    x 1.902800 0.000000 -0.008260 
#    y 0.000000 1.906570 0.000000 
#    z -0.008260 0.000000 1.934780 
# 
# From -- ./inp_files/32704.got.cif
#   From: 2010.06.25/outbox.cif.g09.slc.cpg/sg13_17_cif.got.tgz:32704.got - 2010.06.28 04:50:58.
