data_PCOD8122700
_publ_section_title
;
Structure prediction by ZEFSAII (Michael W. Deem and Ramdas Pophale) SiO2 
 PCOD8122700
Probable space group: P 2/C
;
_chemical_formula_sum "Si O2"
_cell_formula_units_Z 20
_cell_length_a 8.693707
_cell_length_b 22.029741
_cell_length_c 9.559290
_cell_angle_alpha 90.000000
_cell_angle_beta 148.885495
_cell_angle_gamma 90.000000
_cell_volume 946.064147
_symmetry_space_group_name_H-M "P 2/C"
_symmetry_group_IT_number 13
_symmetry_cell_setting 'monoclinic'
loop_
_space_group_symop_operation_xyz
x,y,z
-x,y,1/2-z
-x,-y,-z
x,-y,1/2+z
loop_
_atom_site_type_symbol
_atom_site_label
_atom_site_fract_x
_atom_site_fract_y
_atom_site_fract_z
Si Si1 0.685476 0.161230 0.537946
Si Si2 0.828598 0.542469 0.973359
Si Si3 0.384488 0.734088 0.316682
Si Si4 0.184810 0.971943 0.265982
Si Si5 0.736699 0.678780 0.816576
O O1 0.524230 0.206066 0.521547
O O2 0.770121 0.100263 0.688707
O O3 0.000000 0.193229 0.750000
O O4 0.500000 0.148611 0.250000
O O5 0.500000 0.516660 0.750000
O O6 0.818306 0.609303 0.901704
O O7 0.000000 0.545514 0.250000
O O8 0.000000 0.500000 0.000000
O O9 0.500000 0.743150 0.250000
O O10 0.573600 0.680882 0.538710
O O11 0.033555 0.719545 0.048008
O O12 0.000000 0.997633 0.250000
O O13 0.500000 0.000000 0.500000
O O14 0.000000 0.000000 0.000000
O O15 0.500000 0.702950 0.750000
#
# Coordination Sequence:
#
# PCOD8122700 Si02
#       5
#     4   4   4   4   4
#     4  11  23  42  65  89 124 170 210 246 308 387
#     4  11  24  42  65  94 126 166 213 259 313 374
#     4  12  25  40  64  98 126 158 209 270 318 357
#     4  11  23  41  64  92 124 162 206 251 305 364
#     4  11  23  43  65  89 126 172 210 248 313 390
#
# _framework density 21.140215000000001
#
# number of rings (size 3 to 8) (size 9 to 14) (size 15 to 20)
#    0.000    0.800    0.000   10.200    0.000    4.000 
#    0.000    0.000    0.000    0.000    0.000    0.000 
#    0.000    0.000    0.000    0.000    0.000    0.000 
#
# Total GULP energy -247893.940993 kJ/mol
# GULP energy per Si atom -12394.697050 kJ/mol
# Density = 2.109210 g / cm^3
# Si number density = 21.140215 Si / 1000 Ang^3
#
#
#
# Elastic Constant Matrix: (Units=GPa)
#
#
# Indices 1 2 3 4 5 6 
#
# 1 174.4991 85.3732 83.8301 0.0000 -4.4900 0.0000
# 2 85.3732 96.6384 62.3455 0.0000 -11.3085 0.0000
# 3 83.8301 62.3455 186.6616 0.0000 -8.0329 0.0000
# 4 0.0000 0.0000 0.0000 40.9183 0.0000 -4.1082
# 5 -4.4900 -11.3085 -8.0329 0.0000 53.4374 0.0000
# 6 0.0000 0.0000 0.0000 -4.1082 0.0000 36.2190
#
#
#
# Elastic Compliance Matrix: (Units=1/GPa)
#
#
# Indices 1 2 3 4 5 6 
#
# 1 0.010773 -0.008286 -0.002121 0.000000 -0.001167 0.000000
# 2 -0.008286 0.019811 -0.002763 0.000000 0.003081 0.000000
# 3 -0.002121 -0.002763 0.007247 0.000000 0.000326 0.000000
# 4 0.000000 0.000000 0.000000 0.024720 0.000000 0.002804
# 5 -0.001167 0.003081 0.000326 0.000000 0.019316 0.000000
# 6 0.000000 0.000000 0.000000 0.002804 0.000000 0.027928
#
#
# Mechanical properties :
#
#
# Convention : Reuss Voigt Hill
#
# Bulk Modulus (GPa) = 87.02396 102.32187 94.67291
# Shear Modulus (GPa) = 35.72294 41.19832 38.46063
#
# Velocity S-wave (km/s) = 4.11519 4.41933 4.26997
# Velocity P-wave (km/s) = 7.98963 8.63407 8.31809
#
# Compressibility (1/GPa) = 0.01149109
#
# Stress axis : x y z
#
# Youngs Moduli (GPa) = 92.82122 50.47753 137.99097
#
# Poissons Ratio (x) = 0.41824 0.29270
# Poissons Ratio (y) = 0.76909 0.38129
# Poissons Ratio (z) = 0.19689 0.13948
#
# Static dielectric constant tensor:
#      x y z
#    x 4.006370 0.000000 0.155520 
#    y 0.000000 3.361620 0.000000 
#    z 0.155520 0.000000 4.111750 
# 
# 
# High freq. dielectric constant tensor:
#      x y z
#    x 1.832980 0.000000 0.004920 
#    y 0.000000 1.828650 0.000000 
#    z 0.004920 0.000000 1.856380 
# 
# From -- ./inp_files/13854.got.cif
#   From: 2010.06.25/outbox.cif.g09.slc.cpg/sg13_7_cif.got.tgz:13854.got - 2010.06.28 04:50:58.
