data_PCOD8122494
_publ_section_title
;
Structure prediction by ZEFSAII (Michael W. Deem and Ramdas Pophale) SiO2 
 PCOD8122494
Probable space group: P 2/C
;
_chemical_formula_sum "Si O2"
_cell_formula_units_Z 18
_cell_length_a 8.784541
_cell_length_b 6.765959
_cell_length_c 21.860814
_cell_angle_alpha 90.000000
_cell_angle_beta 140.257613
_cell_angle_gamma 90.000000
_cell_volume 830.700543
_symmetry_space_group_name_H-M "P 2/C"
_symmetry_group_IT_number 13
_symmetry_cell_setting 'monoclinic'
loop_
_space_group_symop_operation_xyz
x,y,z
-x,y,1/2-z
-x,-y,-z
x,-y,1/2+z
loop_
_atom_site_type_symbol
_atom_site_label
_atom_site_fract_x
_atom_site_fract_y
_atom_site_fract_z
Si Si1 0.500000 0.118833 0.250000
Si Si2 0.305565 0.399747 0.983804
Si Si3 0.029691 0.781565 0.910769
Si Si4 0.612476 0.962097 0.916267
Si Si5 0.822846 0.932378 0.142153
O O1 0.744241 0.243252 0.326813
O O2 0.488569 0.992904 0.183153
O O3 0.131633 0.566107 0.955715
O O4 0.151453 0.243327 0.898039
O O5 0.500000 0.500000 0.000000
O O6 0.397575 0.274794 0.071670
O O7 0.103449 0.859834 0.866234
O O8 0.130223 0.933833 0.993606
O O9 0.445438 0.063664 0.915656
O O10 0.000000 0.879340 0.250000
#
# Coordination Sequence:
#
# PCOD8122494 Si02
#       5
#     2   4   4   4   4
#     4  12  26  42  66  94 142 184 204 260 332 408
#     4  11  21  39  70  95 125 164 219 285 320 366
#     4  11  23  44  66  95 132 172 217 270 325 383
#     4  11  23  43  67  97 129 173 221 264 328 386
#     4  11  21  39  70  99 120 166 231 272 318 377
#
# _framework density 21.668458000000001
#
# number of rings (size 3 to 8) (size 9 to 14) (size 15 to 20)
#    0.000    0.889    6.667    2.000    0.000    3.556 
#    0.000    5.556    0.000    0.000    0.000    0.000 
#    0.000    0.000    0.000    0.000    0.000    0.000 
#
# Total GULP energy -223081.633783 kJ/mol
# GULP energy per Si atom -12393.424099 kJ/mol
# Density = 2.161914 g / cm^3
# Si number density = 21.668458 Si / 1000 Ang^3
#
#
#
# Elastic Constant Matrix: (Units=GPa)
#
#
# Indices 1 2 3 4 5 6 
#
# 1 96.6247 34.3844 48.1329 0.0000 5.2910 0.0000
# 2 34.3844 113.9240 34.3591 0.0000 4.7491 0.0000
# 3 48.1329 34.3591 123.5365 0.0000 -2.5195 0.0000
# 4 0.0000 0.0000 0.0000 -1.1138 0.0000 1.1823
# 5 5.2910 4.7491 -2.5195 0.0000 50.4384 0.0000
# 6 0.0000 0.0000 0.0000 1.1823 0.0000 13.9299
#
#
#
# Elastic Compliance Matrix: (Units=1/GPa)
#
#
# Indices 1 2 3 4 5 6 
#
# 1 0.013678 -0.002678 -0.004613 0.000000 -0.001413 0.000000
# 2 -0.002678 0.010160 -0.001798 0.000000 -0.000766 0.000000
# 3 -0.004613 -0.001798 0.010416 0.000000 0.001174 0.000000
# 4 0.000000 0.000000 0.000000 -0.823655 0.000000 0.069907
# 5 -0.001413 -0.000766 0.001174 0.000000 0.020105 0.000000
# 6 0.000000 0.000000 0.000000 0.069907 0.000000 0.065855
#
#
# Mechanical properties :
#
#
# Convention : Reuss Voigt Hill
#
# Bulk Modulus (GPa) = 62.20556 63.09313 62.64935
# Shear Modulus (GPa) = -7.35398 27.13150 9.88876
#
# Velocity S-wave (km/s) = -1.84424 3.54237 2.13859
# Velocity P-wave (km/s) = 4.92293 6.77583 5.92229
#
# Compressibility (1/GPa) = 0.01607573
#
# Stress axis : x y z
#
# Youngs Moduli (GPa) = 73.11183 98.42281 96.00415
#
# Poissons Ratio (x) = 0.26357 0.44288
# Poissons Ratio (y) = 0.19579 0.17262
# Poissons Ratio (z) = 0.33728 0.17697
#
# Static dielectric constant tensor:
#      x y z
#    x 4.127260 0.000000 -0.048870 
#    y 0.000000 3.800170 0.000000 
#    z -0.048870 0.000000 4.006680 
# 
# 
# High freq. dielectric constant tensor:
#      x y z
#    x 1.857670 0.000000 -0.000650 
#    y 0.000000 1.825220 0.000000 
#    z -0.000650 0.000000 1.858400 
# 
# From -- ./inp_files/74720.got.cif
#   From: 2010.06.25/outbox.cif.g09.slc.cpg/sg13_38_cif.got.tgz:74720.got - 2010.06.28 04:50:58.
