data_PCOD8122500
_publ_section_title
;
Structure prediction by ZEFSAII (Michael W. Deem and Ramdas Pophale) SiO2 
 PCOD8122500
Probable space group: P 2/C
;
_chemical_formula_sum "Si O2"
_cell_formula_units_Z 32
_cell_length_a 9.603504
_cell_length_b 11.685977
_cell_length_c 14.852221
_cell_angle_alpha 90.000000
_cell_angle_beta 70.318645
_cell_angle_gamma 90.000000
_cell_volume 1569.435475
_symmetry_space_group_name_H-M "P 2/C"
_symmetry_group_IT_number 13
_symmetry_cell_setting 'monoclinic'
loop_
_space_group_symop_operation_xyz
x,y,z
-x,y,1/2-z
-x,-y,-z
x,-y,1/2+z
loop_
_atom_site_type_symbol
_atom_site_label
_atom_site_fract_x
_atom_site_fract_y
_atom_site_fract_z
Si Si1 0.642862 0.350295 0.958057
Si Si2 0.820312 0.755448 0.063240
Si Si3 0.308885 0.001344 0.956949
Si Si4 0.694285 0.388701 0.435295
Si Si5 0.834248 0.231928 0.259113
Si Si6 0.156015 0.781760 0.946269
Si Si7 0.347422 0.775252 0.233123
Si Si8 0.354020 0.013056 0.152395
O O1 0.709634 0.475381 0.928681
O O2 0.653204 0.285232 0.862166
O O3 0.475733 0.350943 0.029764
O O4 0.733274 0.285594 0.014298
O O5 0.727689 0.867538 0.055443
O O6 0.781392 0.724563 0.174977
O O7 0.771905 0.652493 0.009593
O O8 0.993194 0.773401 0.020828
O O9 0.194493 0.916395 0.933651
O O10 0.470384 0.968311 0.885774
O O11 0.297248 0.980738 0.065907
O O12 0.778539 0.337915 0.330695
O O13 0.833670 0.271444 0.155624
O O14 0.725089 0.126012 0.295597
O O15 0.000000 0.194940 0.250000
O O16 0.500000 0.750871 0.250000
O O17 0.315686 0.910134 0.228316
#
# Coordination Sequence:
#
# PCOD8122500 Si02
#       8
#     4   4   4   4   4   4   4   4
#     4  11  26  47  71 101 129 174 238 284 322 396
#     4  12  24  43  68  97 138 184 211 278 347 396
#     4  11  21  40  67  98 140 176 215 274 339 401
#     4  11  24  48  72  96 134 180 228 279 336 393
#     4  12  25  45  68 100 141 179 218 272 345 407
#     4  12  26  43  66 103 137 173 223 280 334 402
#     4  12  23  43  70  98 135 174 223 272 339 397
#     4  11  22  38  70  99 134 177 222 273 330 408
#
# _framework density 20.389498
#
# number of rings (size 3 to 8) (size 9 to 14) (size 15 to 20)
#    0.000    0.500    6.250    1.875    0.000    4.500 
#    2.250    0.000    0.000    0.000    0.000    0.000 
#    0.000    0.000    0.000    0.000    0.000    0.000 
#
# Total GULP energy -396991.878786 kJ/mol
# GULP energy per Si atom -12405.996212 kJ/mol
# Density = 2.034309 g / cm^3
# Si number density = 20.389498 Si / 1000 Ang^3
#
#
#
# Elastic Constant Matrix: (Units=GPa)
#
#
# Indices 1 2 3 4 5 6 
#
# 1 74.1257 21.6350 13.8052 0.0000 7.8879 0.0000
# 2 21.6350 83.5911 17.2617 0.0000 2.1392 0.0000
# 3 13.8052 17.2617 109.0766 0.0000 6.7432 0.0000
# 4 0.0000 0.0000 0.0000 7.8022 0.0000 1.3526
# 5 7.8879 2.1392 6.7432 0.0000 35.6262 0.0000
# 6 0.0000 0.0000 0.0000 1.3526 0.0000 15.3156
#
#
#
# Elastic Compliance Matrix: (Units=1/GPa)
#
#
# Indices 1 2 3 4 5 6 
#
# 1 0.015061 -0.003584 -0.001160 0.000000 -0.002900 0.000000
# 2 -0.003584 0.013225 -0.001659 0.000000 0.000313 0.000000
# 3 -0.001160 -0.001659 0.009668 0.000000 -0.001474 0.000000
# 4 0.000000 0.000000 0.000000 0.130161 0.000000 -0.011495
# 5 -0.002900 0.000313 -0.001474 0.000000 0.028971 0.000000
# 6 0.000000 0.000000 0.000000 -0.011495 0.000000 0.066308
#
#
# Mechanical properties :
#
#
# Convention : Reuss Voigt Hill
#
# Bulk Modulus (GPa) = 39.76274 41.35526 40.55900
# Shear Modulus (GPa) = 17.56951 26.02159 21.79555
#
# Velocity S-wave (km/s) = 2.93865 3.57631 3.27304
# Velocity P-wave (km/s) = 5.57298 6.11391 5.84970
#
# Compressibility (1/GPa) = 0.02514917
#
# Stress axis : x y z
#
# Youngs Moduli (GPa) = 66.39497 75.61313 103.43159
#
# Poissons Ratio (x) = 0.27103 0.11995
# Poissons Ratio (y) = 0.23799 0.17156
# Poissons Ratio (z) = 0.07700 0.12542
#
# Static dielectric constant tensor:
#      x y z
#    x 3.789540 0.000000 -0.052000 
#    y 0.000000 3.677720 0.000000 
#    z -0.052000 0.000000 4.402280 
# 
# 
# High freq. dielectric constant tensor:
#      x y z
#    x 1.801910 0.000000 0.000910 
#    y 0.000000 1.789640 0.000000 
#    z 0.000910 0.000000 1.817570 
# 
# From -- ./inp_files/47193.got.cif
#   From: 2010.06.25/outbox.cif.g09.slc.cpg/sg13_24_cif.got.tgz:47193.got - 2010.06.28 04:50:58.
