data_PCOD8122757
_publ_section_title
;
Structure prediction by ZEFSAII (Michael W. Deem and Ramdas Pophale) SiO2 
 PCOD8122757
Probable space group: P 2/C
;
_chemical_formula_sum "Si O2"
_cell_formula_units_Z 18
_cell_length_a 11.789887
_cell_length_b 11.012911
_cell_length_c 13.583853
_cell_angle_alpha 90.000000
_cell_angle_beta 27.027784
_cell_angle_gamma 90.000000
_cell_volume 801.483501
_symmetry_space_group_name_H-M "P 2/C"
_symmetry_group_IT_number 13
_symmetry_cell_setting 'monoclinic'
loop_
_space_group_symop_operation_xyz
x,y,z
-x,y,1/2-z
-x,-y,-z
x,-y,1/2+z
loop_
_atom_site_type_symbol
_atom_site_label
_atom_site_fract_x
_atom_site_fract_y
_atom_site_fract_z
Si Si1 0.343072 0.074005 0.044830
Si Si2 0.500000 0.232041 0.750000
Si Si3 0.000000 0.484840 0.250000
Si Si4 0.000000 0.875222 0.250000
Si Si5 0.216212 0.686644 0.949915
Si Si6 0.054283 0.704184 0.853610
O O1 0.141035 0.160459 0.256151
O O2 0.231962 0.964143 0.069113
O O3 0.505596 0.152396 0.844717
O O4 0.500000 0.000000 0.000000
O O5 0.754353 0.309076 0.567610
O O6 0.821856 0.565050 0.457122
O O7 0.168038 0.397566 0.191472
O O8 0.974889 0.790580 0.365628
O O9 0.500000 0.728453 0.750000
O O10 0.150907 0.667355 0.886416
#
# Coordination Sequence:
#
# PCOD8122757 Si02
#       6
#     4   2   2   2   4   4
#     4  12  25  41  71 102 139 180 227 286 341 427
#     4  12  24  44  72 102 142 188 218 290 352 420
#     4  11  25  50  66 106 135 179 254 282 348 409
#     4  11  23  44  58 108 137 169 236 266 350 415
#     4  11  27  44  72  99 140 188 229 299 346 406
#     4  12  25  48  70 106 138 185 238 284 353 417
#
# _framework density 22.458352999999999
#
# number of rings (size 3 to 8) (size 9 to 14) (size 15 to 20)
#    0.000    0.444    4.444    3.333    6.222    4.444 
#    0.000    0.000    0.000    0.000    0.000    0.000 
#    0.000    0.000    0.000    0.000    0.000    0.000 
#
# Total GULP energy -223070.302569 kJ/mol
# GULP energy per Si atom -12392.794587 kJ/mol
# Density = 2.240724 g / cm^3
# Si number density = 22.458353 Si / 1000 Ang^3
#
#
#
# Elastic Constant Matrix: (Units=GPa)
#
#
# Indices 1 2 3 4 5 6 
#
# 1 149.2885 42.2769 47.4971 0.0000 25.2663 0.0000
# 2 42.2769 129.1153 36.2753 0.0000 14.5953 0.0000
# 3 47.4971 36.2753 80.2287 0.0000 14.9139 0.0000
# 4 0.0000 0.0000 0.0000 18.4631 0.0000 7.7028
# 5 25.2663 14.5953 14.9139 0.0000 45.6473 0.0000
# 6 0.0000 0.0000 0.0000 7.7028 0.0000 37.1947
#
#
#
# Elastic Compliance Matrix: (Units=1/GPa)
#
#
# Indices 1 2 3 4 5 6 
#
# 1 0.008927 -0.001427 -0.004052 0.000000 -0.003161 0.000000
# 2 -0.001427 0.009215 -0.003110 0.000000 -0.001140 0.000000
# 3 -0.004052 -0.003110 0.016681 0.000000 -0.002213 0.000000
# 4 0.000000 0.000000 0.000000 0.059284 0.000000 -0.012278
# 5 -0.003161 -0.001140 -0.002213 0.000000 0.024744 0.000000
# 6 0.000000 0.000000 0.000000 -0.012278 0.000000 0.029428
#
#
# Mechanical properties :
#
#
# Convention : Reuss Voigt Hill
#
# Bulk Modulus (GPa) = 56.67409 67.85901 62.26655
# Shear Modulus (GPa) = 29.18208 35.76655 32.47431
#
# Velocity S-wave (km/s) = 3.60861 3.99503 3.80673
# Velocity P-wave (km/s) = 6.53091 7.18063 6.86346
#
# Compressibility (1/GPa) = 0.01764475
#
# Stress axis : x y z
#
# Youngs Moduli (GPa) = 112.02334 108.51993 59.95016
#
# Poissons Ratio (x) = 0.15488 0.24291
# Poissons Ratio (y) = 0.15988 0.18642
# Poissons Ratio (z) = 0.45391 0.33745
#
# Static dielectric constant tensor:
#      x y z
#    x 3.921490 0.000000 0.083020 
#    y 0.000000 4.247610 0.000000 
#    z 0.083020 0.000000 4.467500 
# 
# 
# High freq. dielectric constant tensor:
#      x y z
#    x 1.886280 0.000000 0.019410 
#    y 0.000000 1.902970 0.000000 
#    z 0.019410 0.000000 1.881860 
# 
# From -- ./inp_files/33552.got.cif
#   From: 2010.06.25/outbox.cif.g09.slc.cpg/sg13_17_cif.got.tgz:33552.got - 2010.06.28 04:50:58.
