data_PCOD8122432
_publ_section_title
;
Structure prediction by ZEFSAII (Michael W. Deem and Ramdas Pophale) SiO2 
 PCOD8122432
Probable space group: P 2/C
;
_chemical_formula_sum "Si O2"
_cell_formula_units_Z 30
_cell_length_a 11.879108
_cell_length_b 13.957726
_cell_length_c 17.042229
_cell_angle_alpha 90.000000
_cell_angle_beta 151.497184
_cell_angle_gamma 90.000000
_cell_volume 1348.425968
_symmetry_space_group_name_H-M "P 2/C"
_symmetry_group_IT_number 13
_symmetry_cell_setting 'monoclinic'
loop_
_space_group_symop_operation_xyz
x,y,z
-x,y,1/2-z
-x,-y,-z
x,-y,1/2+z
loop_
_atom_site_type_symbol
_atom_site_label
_atom_site_fract_x
_atom_site_fract_y
_atom_site_fract_z
Si Si1 0.598555 0.311955 0.635320
Si Si2 0.595116 0.726290 0.956337
Si Si3 0.892656 0.198496 0.354818
Si Si4 0.732259 0.007566 0.193405
Si Si5 0.946566 0.582461 0.125184
Si Si6 0.683056 0.867264 0.290561
Si Si7 0.873092 0.628535 0.590183
Si Si8 0.000000 0.872315 0.250000
O O1 0.516075 0.310967 0.494104
O O2 0.614562 0.205086 0.678823
O O3 0.407594 0.369490 0.568869
O O4 0.847474 0.366110 0.797652
O O5 0.360123 0.763542 0.768367
O O6 0.703318 0.642329 0.967901
O O7 0.787901 0.808411 0.087677
O O8 0.049007 0.153466 0.519370
O O9 0.046490 0.284994 0.414973
O O10 0.833955 0.115595 0.255196
O O11 0.674385 0.973107 0.246890
O O12 0.930862 0.938317 0.280433
O O13 0.500000 0.000000 0.000000
O O14 0.926145 0.473759 0.081796
O O15 0.000000 0.583654 0.250000
O O16 0.500000 0.861230 0.250000
O O17 0.000000 0.639797 0.750000
#
# Coordination Sequence:
#
# PCOD8122432 Si02
#       8
#     4   4   4   4   4   4   4   2
#     4  11  20  42  66  92 136 181 232 285 346 409
#     4  11  20  41  69  99 134 180 233 290 343 415
#     4  12  26  41  64 102 139 179 230 282 349 420
#     4  12  27  46  72 103 132 187 234 291 342 422
#     4   9  21  37  68 102 134 176 233 298 349 398
#     4  12  26  46  68  99 146 186 225 288 355 417
#     4  11  23  36  66 106 133 179 234 297 344 411
#     4  12  22  42  72  98 136 174 238 284 352 394
#
# _framework density 22.248163000000002
#
# number of rings (size 3 to 8) (size 9 to 14) (size 15 to 20)
#    0.000    0.800    7.333    0.400    4.667    1.600 
#    0.000    3.333    2.933    0.000    0.000    0.000 
#    0.000    0.000    0.000    0.000    0.000    0.000 
#
# Total GULP energy -372026.933710 kJ/mol
# GULP energy per Si atom -12400.897790 kJ/mol
# Density = 2.219753 g / cm^3
# Si number density = 22.248163 Si / 1000 Ang^3
#
#
#
# Elastic Constant Matrix: (Units=GPa)
#
#
# Indices 1 2 3 4 5 6 
#
# 1 78.7625 50.1667 38.3205 0.0000 26.2025 0.0000
# 2 50.1667 142.5252 29.2276 0.0000 18.2915 0.0000
# 3 38.3205 29.2276 122.3629 0.0000 22.0654 0.0000
# 4 0.0000 0.0000 0.0000 22.1186 0.0000 -2.7818
# 5 26.2025 18.2915 22.0654 0.0000 36.9627 0.0000
# 6 0.0000 0.0000 0.0000 -2.7818 0.0000 10.3693
#
#
#
# Elastic Compliance Matrix: (Units=1/GPa)
#
#
# Indices 1 2 3 4 5 6 
#
# 1 0.021311 -0.005458 -0.003511 0.000000 -0.010310 0.000000
# 2 -0.005458 0.009066 -0.000387 0.000000 -0.000387 0.000000
# 3 -0.003511 -0.000387 0.009952 0.000000 -0.003261 0.000000
# 4 0.000000 0.000000 0.000000 0.046789 0.000000 0.012552
# 5 -0.010310 -0.000387 -0.003261 0.000000 0.036501 0.000000
# 6 0.000000 0.000000 0.000000 0.012552 0.000000 0.099806
#
#
# Mechanical properties :
#
#
# Convention : Reuss Voigt Hill
#
# Bulk Modulus (GPa) = 46.25670 64.34224 55.29947
# Shear Modulus (GPa) = 20.05267 28.95251 24.50259
#
# Velocity S-wave (km/s) = 3.00545 3.61133 3.32223
# Velocity P-wave (km/s) = 5.73411 6.80970 6.29492
#
# Compressibility (1/GPa) = 0.02161849
#
# Stress axis : x y z
#
# Youngs Moduli (GPa) = 46.92417 110.29832 100.47870
#
# Poissons Ratio (x) = 0.60200 0.35279
# Poissons Ratio (y) = 0.25611 0.03884
# Poissons Ratio (z) = 0.16475 0.04264
#
# Static dielectric constant tensor:
#      x y z
#    x 3.942640 0.000000 0.335230 
#    y 0.000000 4.347760 0.000000 
#    z 0.335230 0.000000 4.049000 
# 
# 
# High freq. dielectric constant tensor:
#      x y z
#    x 1.857000 0.000000 0.027070 
#    y 0.000000 1.888000 0.000000 
#    z 0.027070 0.000000 1.871540 
# 
# From -- ./inp_files/66855.got.cif
#   From: 2010.06.25/outbox.cif.g09.slc.cpg/sg13_34_cif.got.tgz:66855.got - 2010.06.28 04:50:58.
