data_PCOD8122038
_publ_section_title
;
Structure prediction by ZEFSAII (Michael W. Deem and Ramdas Pophale) SiO2 
 PCOD8122038
Probable space group: P 2/C
;
_chemical_formula_sum "Si O2"
_cell_formula_units_Z 32
_cell_length_a 15.478207
_cell_length_b 11.909126
_cell_length_c 17.548124
_cell_angle_alpha 90.000000
_cell_angle_beta 28.413865
_cell_angle_gamma 90.000000
_cell_volume 1539.180313
_symmetry_space_group_name_H-M "P 2/C"
_symmetry_group_IT_number 13
_symmetry_cell_setting 'monoclinic'
loop_
_space_group_symop_operation_xyz
x,y,z
-x,y,1/2-z
-x,-y,-z
x,-y,1/2+z
loop_
_atom_site_type_symbol
_atom_site_label
_atom_site_fract_x
_atom_site_fract_y
_atom_site_fract_z
Si Si1 0.470397 0.653622 0.635412
Si Si2 0.856099 0.965495 0.970264
Si Si3 0.158260 0.383105 0.569016
Si Si4 0.834042 0.775772 0.106850
Si Si5 0.181215 0.799914 0.935253
Si Si6 0.552377 0.827334 0.453554
Si Si7 0.733285 0.977953 0.898521
Si Si8 0.186970 0.478807 0.896632
O O1 0.654738 0.617277 0.531595
O O2 0.373817 0.748906 0.761288
O O3 0.513485 0.704228 0.518495
O O4 0.343164 0.543938 0.728254
O O5 0.737678 0.961431 0.985703
O O6 0.066836 0.984279 0.790657
O O7 0.819711 0.850577 0.042590
O O8 0.791207 0.068452 0.073142
O O9 0.114622 0.262146 0.564364
O O10 0.172388 0.478530 0.494187
O O11 0.000000 0.414523 0.750000
O O12 0.705988 0.825592 0.270829
O O13 0.766626 0.652210 0.136971
O O14 0.039946 0.775825 0.977069
O O15 0.365658 0.871905 0.562718
O O16 0.623487 0.908408 0.465740
O O17 0.000000 0.500000 0.000000
#
# Coordination Sequence:
#
# PCOD8122038 Si02
#       8
#     4   4   4   4   4   4   4   4
#     4  11  24  43  72 100 134 175 230 286 330 395
#     4  11  24  42  66  98 139 182 218 277 344 411
#     4  11  24  45  71 102 133 175 233 286 335 391
#     4  12  24  43  68  96 139 179 223 280 345 407
#     4  11  21  39  71  99 131 175 224 277 339 398
#     4  11  24  43  67 101 135 175 230 284 333 409
#     4  10  24  42  63  99 140 177 225 271 342 417
#     4  11  24  47  68  96 133 178 232 282 338 403
#
# _framework density 20.790288
#
# number of rings (size 3 to 8) (size 9 to 14) (size 15 to 20)
#    0.000    1.000    3.750    4.125    5.250    1.000 
#    6.750    0.000    0.000    0.000    0.000    0.000 
#    0.000    0.000    0.000    0.000    0.000    0.000 
#
# Total GULP energy -396993.847499 kJ/mol
# GULP energy per Si atom -12406.057734 kJ/mol
# Density = 2.074297 g / cm^3
# Si number density = 20.790288 Si / 1000 Ang^3
#
#
#
# Elastic Constant Matrix: (Units=GPa)
#
#
# Indices 1 2 3 4 5 6 
#
# 1 130.3930 57.9491 53.5884 0.0000 -16.6843 0.0000
# 2 57.9491 137.4956 24.9641 0.0000 -7.0449 0.0000
# 3 53.5884 24.9641 92.4475 0.0000 -10.0385 0.0000
# 4 0.0000 0.0000 0.0000 20.3255 0.0000 2.6840
# 5 -16.6843 -7.0449 -10.0385 0.0000 34.2609 0.0000
# 6 0.0000 0.0000 0.0000 2.6840 0.0000 37.7925
#
#
#
# Elastic Compliance Matrix: (Units=1/GPa)
#
#
# Indices 1 2 3 4 5 6 
#
# 1 0.012168 -0.003931 -0.005615 0.000000 0.003472 0.000000
# 2 -0.003931 0.008951 -0.000151 0.000000 -0.000118 0.000000
# 3 -0.005615 -0.000151 0.014266 0.000000 0.001415 0.000000
# 4 0.000000 0.000000 0.000000 0.049665 0.000000 -0.003527
# 5 0.003472 -0.000118 0.001415 0.000000 0.031269 0.000000
# 6 0.000000 0.000000 0.000000 -0.003527 0.000000 0.026711
#
#
# Mechanical properties :
#
#
# Convention : Reuss Voigt Hill
#
# Bulk Modulus (GPa) = 62.53497 70.37102 66.45299
# Shear Modulus (GPa) = 29.80552 33.39810 31.60181
#
# Velocity S-wave (km/s) = 3.79043 4.01238 3.90298
# Velocity P-wave (km/s) = 7.02145 7.44225 7.23491
#
# Compressibility (1/GPa) = 0.01599105
#
# Stress axis : x y z
#
# Youngs Moduli (GPa) = 82.18322 111.71767 70.09626
#
# Poissons Ratio (x) = 0.43916 0.39358
# Poissons Ratio (y) = 0.32306 0.01061
# Poissons Ratio (z) = 0.46144 0.01690
#
# Static dielectric constant tensor:
#      x y z
#    x 3.655080 0.000000 -0.213530 
#    y 0.000000 3.969170 0.000000 
#    z -0.213530 0.000000 3.603620 
# 
# 
# High freq. dielectric constant tensor:
#      x y z
#    x 1.819570 0.000000 -0.005600 
#    y 0.000000 1.810870 0.000000 
#    z -0.005600 0.000000 1.820970 
# 
# From -- ./inp_files/68638.got.cif
#   From: 2010.06.25/outbox.cif.g09.slc.cpg/sg13_35_cif.got.tgz:68638.got - 2010.06.28 04:50:58.
