data_PCOD8122247
_publ_section_title
;
Structure prediction by ZEFSAII (Michael W. Deem and Ramdas Pophale) SiO2 
 PCOD8122247
Probable space group: P 2/C
;
_chemical_formula_sum "Si O2"
_cell_formula_units_Z 28
_cell_length_a 19.746729
_cell_length_b 8.908424
_cell_length_c 13.756374
_cell_angle_alpha 90.000000
_cell_angle_beta 147.217169
_cell_angle_gamma 90.000000
_cell_volume 1310.277959
_symmetry_space_group_name_H-M "P 2/C"
_symmetry_group_IT_number 13
_symmetry_cell_setting 'monoclinic'
loop_
_space_group_symop_operation_xyz
x,y,z
-x,y,1/2-z
-x,-y,-z
x,-y,1/2+z
loop_
_atom_site_type_symbol
_atom_site_label
_atom_site_fract_x
_atom_site_fract_y
_atom_site_fract_z
Si Si1 0.122938 0.071612 0.527879
Si Si2 0.500000 0.813350 0.250000
Si Si3 0.622938 0.428388 0.027881
Si Si4 0.000000 0.313351 0.250000
Si Si5 0.823836 0.458957 0.635451
Si Si6 0.323836 0.958957 0.635450
Si Si7 0.114011 0.132412 0.739936
Si Si8 0.614011 0.367588 0.239936
O O1 0.095186 0.213536 0.426690
O O2 0.252010 0.997459 0.648462
O O3 0.141591 0.126969 0.659379
O O4 0.014890 0.947629 0.388062
O O5 0.595185 0.713536 0.426690
O O6 0.575685 0.913292 0.264768
O O7 0.752010 0.502540 0.148463
O O8 0.641594 0.373030 0.159383
O O9 0.514891 0.552371 0.888065
O O10 0.075685 0.413293 0.264767
O O11 0.897023 0.303009 0.737177
O O12 0.726672 0.452456 0.429230
O O13 0.226674 0.952456 0.429230
O O14 0.397023 0.803009 0.737177
#
# Coordination Sequence:
#
# PCOD8122247 Si02
#       8
#     4   2   4   2   4   4   4   4
#     4  11  24  45  66  99 131 167 215 275 314 384
#     4  12  26  40  66  98 134 170 218 262 322 380
#     4  11  24  45  66  99 131 167 215 275 314 384
#     4  12  26  40  66  98 134 170 218 262 322 380
#     4  11  25  44  66  95 131 172 213 268 320 388
#     4  11  25  44  66  95 131 172 213 268 320 388
#     4  10  25  43  70  92 129 172 219 260 331 378
#     4  10  25  43  70  92 129 172 219 260 331 378
#
# _framework density 21.369510999999999
#
# number of rings (size 3 to 8) (size 9 to 14) (size 15 to 20)
#    0.000    1.143    2.857    0.857   12.000    3.429 
#    0.000    0.000    0.000    0.000    0.000    0.000 
#    0.000    0.000    0.000    0.000    0.000    0.000 
#
# Total GULP energy -347439.172217 kJ/mol
# GULP energy per Si atom -12408.541865 kJ/mol
# Density = 2.132087 g / cm^3
# Si number density = 21.369511 Si / 1000 Ang^3
#
#
#
# Elastic Constant Matrix: (Units=GPa)
#
#
# Indices 1 2 3 4 5 6 
#
# 1 116.8048 50.5254 34.0965 0.0000 2.5754 0.0000
# 2 50.5254 84.1302 12.5143 0.0000 11.2267 0.0000
# 3 34.0965 12.5143 45.6280 0.0000 0.3754 0.0000
# 4 0.0000 0.0000 0.0000 22.1710 0.0000 3.9867
# 5 2.5754 11.2267 0.3754 0.0000 35.7622 0.0000
# 6 0.0000 0.0000 0.0000 3.9867 0.0000 37.6276
#
#
#
# Elastic Compliance Matrix: (Units=1/GPa)
#
#
# Indices 1 2 3 4 5 6 
#
# 1 0.014289 -0.007485 -0.008636 0.000000 0.001411 0.000000
# 2 -0.007485 0.016868 0.001006 0.000000 -0.004767 0.000000
# 3 -0.008636 0.001006 0.028094 0.000000 0.000011 0.000000
# 4 0.000000 0.000000 0.000000 0.045980 0.000000 -0.004872
# 5 0.001411 -0.004767 0.000011 0.000000 0.029357 0.000000
# 6 0.000000 0.000000 0.000000 -0.004872 0.000000 0.027092
#
#
# Mechanical properties :
#
#
# Convention : Reuss Voigt Hill
#
# Bulk Modulus (GPa) = 34.45839 48.98172 41.72006
# Shear Modulus (GPa) = 24.80345 29.07394 26.93869
#
# Velocity S-wave (km/s) = 3.41059 3.69254 3.55436
# Velocity P-wave (km/s) = 5.62757 6.41490 6.03409
#
# Compressibility (1/GPa) = 0.02902051
#
# Stress axis : x y z
#
# Youngs Moduli (GPa) = 69.98370 59.28373 35.59470
#
# Poissons Ratio (x) = 0.44375 0.30741
# Poissons Ratio (y) = 0.52384 -0.03582
# Poissons Ratio (z) = 0.60441 -0.05966
#
# Static dielectric constant tensor:
#      x y z
#    x 3.900340 0.000000 -0.082430 
#    y 0.000000 3.959140 0.000000 
#    z -0.082430 0.000000 3.830800 
# 
# 
# High freq. dielectric constant tensor:
#      x y z
#    x 1.852340 0.000000 -0.004110 
#    y 0.000000 1.852860 0.000000 
#    z -0.004110 0.000000 1.831080 
# 
# From -- ./inp_files/57550.got.cif
#   From: 2010.06.25/outbox.cif.g09.slc.cpg/sg13_29_cif.got.tgz:57550.got - 2010.06.28 04:50:58.
