data_PCOD8122586
_publ_section_title
;
Structure prediction by ZEFSAII (Michael W. Deem and Ramdas Pophale) SiO2 
 PCOD8122586
Probable space group: P 2/C
;
_chemical_formula_sum "Si O2"
_cell_formula_units_Z 28
_cell_length_a 25.336397
_cell_length_b 9.841933
_cell_length_c 26.113865
_cell_angle_alpha 90.000000
_cell_angle_beta 10.913093
_cell_angle_gamma 90.000000
_cell_volume 1232.799709
_symmetry_space_group_name_H-M "P 2/C"
_symmetry_group_IT_number 13
_symmetry_cell_setting 'monoclinic'
loop_
_space_group_symop_operation_xyz
x,y,z
-x,y,1/2-z
-x,-y,-z
x,-y,1/2+z
loop_
_atom_site_type_symbol
_atom_site_label
_atom_site_fract_x
_atom_site_fract_y
_atom_site_fract_z
Si Si1 0.407900 0.306780 0.979222
Si Si2 0.698125 0.864237 0.015519
Si Si3 0.983877 0.302949 0.822850
Si Si4 0.170946 0.243933 0.380288
Si Si5 0.460462 0.856750 0.702278
Si Si6 0.925579 0.507137 0.966492
Si Si7 0.580987 0.152557 0.910021
O O1 0.669312 0.392534 0.712528
O O2 0.500238 0.184571 0.928442
O O3 0.265621 0.248396 0.063245
O O4 0.202774 0.403698 0.206571
O O5 0.000000 0.903309 0.750000
O O6 0.500000 0.810582 0.250000
O O7 0.555662 0.993002 0.124475
O O8 0.917647 0.433485 0.919544
O O9 0.000000 0.355352 0.750000
O O10 0.276114 0.237901 0.561443
O O11 0.728647 0.195818 0.070161
O O12 0.262466 0.150649 0.341107
O O13 0.088909 0.396804 0.474377
O O14 0.910137 0.170898 0.602561
O O15 0.420673 0.253101 0.101579
O O16 0.500000 0.000000 0.000000
#
# Coordination Sequence:
#
# PCOD8122586 Si02
#       7
#     4   4   4   4   4   4   4
#     4  12  27  45  65  96 133 173 224 269 316 393
#     4  12  26  44  68  96 134 179 219 270 331 386
#     4  11  22  39  66  97 131 172 217 274 329 384
#     4  11  24  44  71 100 133 172 213 270 332 388
#     4  11  22  41  68 101 133 164 220 276 328 391
#     4  11  25  44  66  96 132 175 223 269 322 388
#     4  12  26  45  71 100 131 170 215 269 336 390
#
# _framework density 22.712530999999998
#
# number of rings (size 3 to 8) (size 9 to 14) (size 15 to 20)
#    0.000    0.571    0.000    9.857    0.000    7.429 
#    0.000    1.429    0.000    0.000    0.000    0.000 
#    0.000    0.000    0.000    0.000    0.000    0.000 
#
# Total GULP energy -347384.839545 kJ/mol
# GULP energy per Si atom -12406.601412 kJ/mol
# Density = 2.266084 g / cm^3
# Si number density = 22.712531 Si / 1000 Ang^3
#
#
#
# Elastic Constant Matrix: (Units=GPa)
#
#
# Indices 1 2 3 4 5 6 
#
# 1 108.8088 39.6134 25.1975 0.0000 3.9094 0.0000
# 2 39.6134 107.9110 31.9032 0.0000 -6.3868 0.0000
# 3 25.1975 31.9032 133.3798 0.0000 -4.5741 0.0000
# 4 0.0000 0.0000 0.0000 38.3044 0.0000 -0.9953
# 5 3.9094 -6.3868 -4.5741 0.0000 50.1999 0.0000
# 6 0.0000 0.0000 0.0000 -0.9953 0.0000 27.2157
#
#
#
# Elastic Compliance Matrix: (Units=1/GPa)
#
#
# Indices 1 2 3 4 5 6 
#
# 1 0.010877 -0.003718 -0.001214 0.000000 -0.001431 0.000000
# 2 -0.003718 0.011299 -0.001947 0.000000 0.001550 0.000000
# 3 -0.001214 -0.001947 0.008213 0.000000 0.000595 0.000000
# 4 0.000000 0.000000 0.000000 0.026131 0.000000 0.000956
# 5 -0.001431 0.001550 0.000595 0.000000 0.020283 0.000000
# 6 0.000000 0.000000 0.000000 0.000956 0.000000 0.036778
#
#
# Mechanical properties :
#
#
# Convention : Reuss Voigt Hill
#
# Bulk Modulus (GPa) = 60.13543 60.39197 60.26370
# Shear Modulus (GPa) = 37.62649 40.03637 38.83143
#
# Velocity S-wave (km/s) = 4.07460 4.20306 4.13933
# Velocity P-wave (km/s) = 6.97644 7.08532 7.03109
#
# Compressibility (1/GPa) = 0.01662913
#
# Stress axis : x y z
#
# Youngs Moduli (GPa) = 91.93854 88.50122 121.75900
#
# Poissons Ratio (x) = 0.32909 0.14787
# Poissons Ratio (y) = 0.34187 0.23707
# Poissons Ratio (z) = 0.11165 0.17232
#
# Static dielectric constant tensor:
#      x y z
#    x 4.142150 0.000000 0.158680 
#    y 0.000000 4.005600 0.000000 
#    z 0.158680 0.000000 4.450310 
# 
# 
# High freq. dielectric constant tensor:
#      x y z
#    x 1.904030 0.000000 0.004980 
#    y 0.000000 1.890760 0.000000 
#    z 0.004980 0.000000 1.919180 
# 
# From -- ./inp_files/98033.got.cif
#   From: 2010.06.25/outbox.cif.g09.slc.cpg/sg13_50_cif.got.tgz:98033.got - 2010.06.28 04:50:58.
