data_PCOD8122294
_publ_section_title
;
Structure prediction by ZEFSAII (Michael W. Deem and Ramdas Pophale) SiO2 
 PCOD8122294
Probable space group: P 2/C
;
_chemical_formula_sum "Si O2"
_cell_formula_units_Z 22
_cell_length_a 24.923753
_cell_length_b 7.218746
_cell_length_c 14.406096
_cell_angle_alpha 90.000000
_cell_angle_beta 20.906254
_cell_angle_gamma 90.000000
_cell_volume 924.900462
_symmetry_space_group_name_H-M "P 2/C"
_symmetry_group_IT_number 13
_symmetry_cell_setting 'monoclinic'
loop_
_space_group_symop_operation_xyz
x,y,z
-x,y,1/2-z
-x,-y,-z
x,-y,1/2+z
loop_
_atom_site_type_symbol
_atom_site_label
_atom_site_fract_x
_atom_site_fract_y
_atom_site_fract_z
Si Si1 0.500000 0.147815 0.750000
Si Si2 0.160467 0.190938 0.528172
Si Si3 0.786880 0.647713 0.869221
Si Si4 0.113399 0.758067 0.315682
Si Si5 0.333842 0.546715 0.240897
Si Si6 0.703730 0.103917 0.814675
O O1 0.361744 0.274415 0.940057
O O2 0.553644 0.013189 0.579978
O O3 0.167378 0.175696 0.627730
O O4 0.264399 0.353574 0.318753
O O5 0.000000 0.248670 0.750000
O O6 0.209835 0.993221 0.409376
O O7 0.761640 0.629627 0.019895
O O8 0.828366 0.449244 0.758132
O O9 0.932575 0.778354 0.617628
O O10 0.189753 0.892612 0.267260
O O11 0.339272 0.690026 0.147231
O O12 0.500000 0.500000 0.000000
#
# Coordination Sequence:
#
# PCOD8122294 Si02
#       6
#     2   4   4   4   4   4
#     4  12  28  44  76 114 146 200 252 310 378 452
#     4  11  27  49  76 110 149 192 254 312 374 450
#     4  10  25  48  78 105 151 196 254 306 377 449
#     4  10  26  49  77 111 146 201 252 311 374 456
#     4  11  28  48  75 106 153 198 246 307 377 447
#     4  12  30  46  77 111 153 196 252 311 382 446
#
# _framework density 23.786345000000001
#
# number of rings (size 3 to 8) (size 9 to 14) (size 15 to 20)
#    0.000    1.091    0.000    2.182   22.909    2.909 
#    0.000    0.000    0.000    0.000    0.000    0.000 
#    0.000    0.000    0.000    0.000    0.000    0.000 
#
# Total GULP energy -272949.882145 kJ/mol
# GULP energy per Si atom -12406.812825 kJ/mol
# Density = 2.373221 g / cm^3
# Si number density = 23.786345 Si / 1000 Ang^3
#
#
#
# Elastic Constant Matrix: (Units=GPa)
#
#
# Indices 1 2 3 4 5 6 
#
# 1 124.4155 63.2644 50.7805 0.0000 -8.4306 0.0000
# 2 63.2644 99.9144 51.6345 0.0000 -10.3050 0.0000
# 3 50.7805 51.6345 145.4515 0.0000 -23.7502 0.0000
# 4 0.0000 0.0000 0.0000 36.4444 0.0000 3.1676
# 5 -8.4306 -10.3050 -23.7502 0.0000 44.2050 0.0000
# 6 0.0000 0.0000 0.0000 3.1676 0.0000 49.4619
#
#
#
# Elastic Compliance Matrix: (Units=1/GPa)
#
#
# Indices 1 2 3 4 5 6 
#
# 1 0.012257 -0.006803 -0.001909 0.000000 -0.000274 0.000000
# 2 -0.006803 0.016046 -0.003203 0.000000 0.000722 0.000000
# 3 -0.001909 -0.003203 0.009315 0.000000 0.003894 0.000000
# 4 0.000000 0.000000 0.000000 0.027593 0.000000 -0.001767
# 5 -0.000274 0.000722 0.003894 0.000000 0.024830 0.000000
# 6 0.000000 0.000000 0.000000 -0.001767 0.000000 0.020331
#
#
# Mechanical properties :
#
#
# Convention : Reuss Voigt Hill
#
# Bulk Modulus (GPa) = 72.52959 77.90445 75.21702
# Shear Modulus (GPa) = 36.02366 39.62905 37.82636
#
# Velocity S-wave (km/s) = 3.89584 4.08615 3.99213
# Velocity P-wave (km/s) = 7.12706 7.42193 7.27599
#
# Compressibility (1/GPa) = 0.01378748
#
# Stress axis : x y z
#
# Youngs Moduli (GPa) = 81.58305 62.32102 107.35860
#
# Poissons Ratio (x) = 0.42396 0.20496
# Poissons Ratio (y) = 0.55500 0.34390
# Poissons Ratio (z) = 0.15575 0.19963
#
# Static dielectric constant tensor:
#      x y z
#    x 4.213640 0.000000 0.214970 
#    y 0.000000 4.385150 0.000000 
#    z 0.214970 0.000000 4.508870 
# 
# 
# High freq. dielectric constant tensor:
#      x y z
#    x 1.942420 0.000000 0.003300 
#    y 0.000000 1.956200 0.000000 
#    z 0.003300 0.000000 1.954680 
# 
# From -- ./inp_files/72095.got.cif
#   From: 2010.06.25/outbox.cif.g09.slc.cpg/sg13_37_cif.got.tgz:72095.got - 2010.06.28 04:50:58.
