data_PCOD8122594
_publ_section_title
;
Structure prediction by ZEFSAII (Michael W. Deem and Ramdas Pophale) SiO2 
 PCOD8122594
Probable space group: P 2/C
;
_chemical_formula_sum "Si O2"
_cell_formula_units_Z 20
_cell_length_a 15.106989
_cell_length_b 9.410694
_cell_length_c 19.576399
_cell_angle_alpha 90.000000
_cell_angle_beta 20.360754
_cell_angle_gamma 90.000000
_cell_volume 968.331796
_symmetry_space_group_name_H-M "P 2/C"
_symmetry_group_IT_number 13
_symmetry_cell_setting 'monoclinic'
loop_
_space_group_symop_operation_xyz
x,y,z
-x,y,1/2-z
-x,-y,-z
x,-y,1/2+z
loop_
_atom_site_type_symbol
_atom_site_label
_atom_site_fract_x
_atom_site_fract_y
_atom_site_fract_z
Si Si1 0.000000 0.260919 0.750000
Si Si2 0.383809 0.957058 0.012572
Si Si3 0.117248 0.847461 0.911287
Si Si4 0.201444 0.680251 0.468514
Si Si5 0.000000 0.193768 0.250000
Si Si6 0.212036 0.643127 0.961281
O O1 0.172304 0.163239 0.674397
O O2 0.139273 0.357078 0.593730
O O3 0.586690 0.879268 0.816779
O O4 0.500000 0.000000 0.000000
O O5 0.252843 0.097872 0.076669
O O6 0.069507 0.754395 0.014345
O O7 0.971432 0.771637 0.955965
O O8 0.000000 0.000000 0.000000
O O9 0.500000 0.725384 0.250000
O O10 0.073946 0.703333 0.634476
O O11 0.171785 0.517708 0.465242
O O12 0.500000 0.690996 0.750000
#
# Coordination Sequence:
#
# PCOD8122594 Si02
#       6
#     2   4   4   4   2   4
#     4  11  23  42  68  94 130 172 220 268 330 388
#     4  11  22  40  65 101 131 167 219 276 325 395
#     4  12  24  42  69  96 136 173 221 274 335 389
#     4  11  25  44  66  98 134 175 220 274 331 398
#     4  11  23  42  70  98 136 170 226 278 336 386
#     4  11  24  44  67  97 135 175 221 270 333 398
#
# _framework density 20.654077000000001
#
# number of rings (size 3 to 8) (size 9 to 14) (size 15 to 20)
#    0.000    0.800    4.000    3.600    2.800    0.800 
#    0.000    1.000    0.000    0.000    0.000    0.000 
#    0.000    0.000    0.000    0.000    0.000    0.000 
#
# Total GULP energy -247882.202511 kJ/mol
# GULP energy per Si atom -12394.110126 kJ/mol
# Density = 2.060707 g / cm^3
# Si number density = 20.654077 Si / 1000 Ang^3
#
#
#
# Elastic Constant Matrix: (Units=GPa)
#
#
# Indices 1 2 3 4 5 6 
#
# 1 132.6500 49.1418 47.2144 0.0000 9.3286 0.0000
# 2 49.1418 110.5897 36.0323 0.0000 -7.3621 0.0000
# 3 47.2144 36.0323 110.0494 0.0000 7.5508 0.0000
# 4 0.0000 0.0000 0.0000 -14.9578 0.0000 -25.5390
# 5 9.3286 -7.3621 7.5508 0.0000 40.1351 0.0000
# 6 0.0000 0.0000 0.0000 -25.5390 0.0000 1.1732
#
#
#
# Elastic Compliance Matrix: (Units=1/GPa)
#
#
# Indices 1 2 3 4 5 6 
#
# 1 0.010142 -0.003705 -0.002968 0.000000 -0.002478 0.000000
# 2 -0.003705 0.011732 -0.002491 0.000000 0.003482 0.000000
# 3 -0.002968 -0.002491 0.011306 0.000000 -0.001894 0.000000
# 4 0.000000 0.000000 0.000000 -0.001752 0.000000 -0.038130
# 5 -0.002478 0.003482 -0.001894 0.000000 0.026487 0.000000
# 6 0.000000 0.000000 0.000000 -0.038130 0.000000 0.022332
#
#
# Mechanical properties :
#
#
# Convention : Reuss Voigt Hill
#
# Bulk Modulus (GPa) = 67.32871 68.67405 68.00138
# Shear Modulus (GPa) = 48.29771 19.99679 34.14725
#
# Velocity S-wave (km/s) = 4.84096 3.11493 4.07048
# Velocity P-wave (km/s) = 7.99472 6.80139 7.42207
#
# Compressibility (1/GPa) = 0.01485250
#
# Stress axis : x y z
#
# Youngs Moduli (GPa) = 98.60216 85.23761 88.45064
#
# Poissons Ratio (x) = 0.31576 0.26253
# Poissons Ratio (y) = 0.36527 0.22031
# Poissons Ratio (z) = 0.29266 0.21231
#
# Static dielectric constant tensor:
#      x y z
#    x 3.726810 0.000000 0.140810 
#    y 0.000000 3.780480 0.000000 
#    z 0.140810 0.000000 3.820840 
# 
# 
# High freq. dielectric constant tensor:
#      x y z
#    x 1.812820 0.000000 -0.000460 
#    y 0.000000 1.818220 0.000000 
#    z -0.000460 0.000000 1.817060 
# 
# From -- ./inp_files/28180.got.cif
#   From: 2010.06.25/outbox.cif.g09.slc.cpg/sg13_15_cif.got.tgz:28180.got - 2010.06.28 04:50:58.
