data_PCOD8122816
_publ_section_title
;
Structure prediction by ZEFSAII (Michael W. Deem and Ramdas Pophale) SiO2 
 PCOD8122816
Probable space group: P 2/C
;
_chemical_formula_sum "Si O2"
_cell_formula_units_Z 16
_cell_length_a 6.000817
_cell_length_b 4.852380
_cell_length_c 21.999221
_cell_angle_alpha 90.000000
_cell_angle_beta 81.652470
_cell_angle_gamma 90.000000
_cell_volume 633.792209
_symmetry_space_group_name_H-M "P 2/C"
_symmetry_group_IT_number 13
_symmetry_cell_setting 'monoclinic'
loop_
_space_group_symop_operation_xyz
x,y,z
-x,y,1/2-z
-x,-y,-z
x,-y,1/2+z
loop_
_atom_site_type_symbol
_atom_site_label
_atom_site_fract_x
_atom_site_fract_y
_atom_site_fract_z
Si Si1 0.304257 0.781424 0.011991
Si Si2 0.069545 0.116821 0.402446
Si Si3 0.699418 0.478237 0.375147
Si Si4 0.491080 0.023125 0.821984
O O1 0.378744 0.509713 0.049510
O O2 0.203100 0.714255 0.950059
O O3 0.108174 0.906996 0.062244
O O4 0.500000 0.000000 0.000000
O O5 0.237150 0.924999 0.355825
O O6 0.949996 0.348224 0.364799
O O7 0.535618 0.285884 0.343071
O O8 0.678695 0.775909 0.343774
O O9 0.500000 0.046088 0.750000
#
# Coordination Sequence:
#
# PCOD8122816 Si02
#       4
#     4   4   4   4
#     4  11  23  47  75 113 152 189 247 311 383 450
#     4  11  25  45  78 109 148 199 240 312 385 443
#     4  12  25  50  72 111 145 191 251 307 371 450
#     4  12  29  51  73 106 152 197 256 309 367 452
#
# _framework density 25.244868
#
# number of rings (size 3 to 8) (size 9 to 14) (size 15 to 20)
#    0.000    0.500    5.000    1.500    3.500    5.000 
#    4.500    0.000    0.000    0.000    0.000    0.000 
#    0.000    0.000    0.000    0.000    0.000    0.000 
#
# Total GULP energy -198401.092167 kJ/mol
# GULP energy per Si atom -12400.068260 kJ/mol
# Density = 2.518741 g / cm^3
# Si number density = 25.244868 Si / 1000 Ang^3
#
#
#
# Elastic Constant Matrix: (Units=GPa)
#
#
# Indices 1 2 3 4 5 6 
#
# 1 124.7586 19.1571 60.8356 0.0000 -0.2677 0.0000
# 2 19.1571 80.8205 24.7658 0.0000 5.2020 0.0000
# 3 60.8356 24.7658 180.2159 0.0000 9.2606 0.0000
# 4 0.0000 0.0000 0.0000 34.4126 0.0000 22.4450
# 5 -0.2677 5.2020 9.2606 0.0000 38.0386 0.0000
# 6 0.0000 0.0000 0.0000 22.4450 0.0000 43.3351
#
#
#
# Elastic Compliance Matrix: (Units=1/GPa)
#
#
# Indices 1 2 3 4 5 6 
#
# 1 0.009775 -0.001416 -0.003158 0.000000 0.001031 0.000000
# 2 -0.001416 0.013191 -0.001257 0.000000 -0.001508 0.000000
# 3 -0.003158 -0.001257 0.006866 0.000000 -0.001522 0.000000
# 4 0.000000 0.000000 0.000000 0.043884 0.000000 -0.022729
# 5 0.001031 -0.001508 -0.001522 0.000000 0.026873 0.000000
# 6 0.000000 0.000000 0.000000 -0.022729 0.000000 0.034848
#
#
# Mechanical properties :
#
#
# Convention : Reuss Voigt Hill
#
# Bulk Modulus (GPa) = 55.03693 66.14577 60.59135
# Shear Modulus (GPa) = 32.64638 41.89304 37.26971
#
# Velocity S-wave (km/s) = 3.59999 4.07808 3.84647
# Velocity P-wave (km/s) = 6.25528 6.95937 6.61670
#
# Compressibility (1/GPa) = 0.01816962
#
# Stress axis : x y z
#
# Youngs Moduli (GPa) = 102.30057 75.80933 145.64458
#
# Poissons Ratio (x) = 0.10732 0.45998
# Poissons Ratio (y) = 0.14482 0.18313
# Poissons Ratio (z) = 0.32309 0.09532
#
# Static dielectric constant tensor:
#      x y z
#    x 5.108330 0.000000 0.152220 
#    y 0.000000 4.512400 0.000000 
#    z 0.152220 0.000000 4.644200 
# 
# 
# High freq. dielectric constant tensor:
#      x y z
#    x 2.027720 0.000000 0.012300 
#    y 0.000000 2.009230 0.000000 
#    z 0.012300 0.000000 1.994850 
# 
# From -- ./inp_files/72591.got.cif
#   From: 2010.06.25/outbox.cif.g09.slc.cpg/sg13_37_cif.got.tgz:72591.got - 2010.06.28 04:50:58.
