data_PCOD8122260
_publ_section_title
;
Structure prediction by ZEFSAII (Michael W. Deem and Ramdas Pophale) SiO2 
 PCOD8122260
Probable space group: P 2/C
;
_chemical_formula_sum "Si O2"
_cell_formula_units_Z 22
_cell_length_a 7.793561
_cell_length_b 5.363722
_cell_length_c 26.801676
_cell_angle_alpha 90.000000
_cell_angle_beta 124.381895
_cell_angle_gamma 90.000000
_cell_volume 924.638086
_symmetry_space_group_name_H-M "P 2/C"
_symmetry_group_IT_number 13
_symmetry_cell_setting 'monoclinic'
loop_
_space_group_symop_operation_xyz
x,y,z
-x,y,1/2-z
-x,-y,-z
x,-y,1/2+z
loop_
_atom_site_type_symbol
_atom_site_label
_atom_site_fract_x
_atom_site_fract_y
_atom_site_fract_z
Si Si1 0.422390 0.855046 0.651355
Si Si2 0.969595 0.094198 0.939190
Si Si3 0.197381 0.618512 0.957162
Si Si4 0.500000 0.477418 0.250000
Si Si5 0.246687 0.221374 0.787813
Si Si6 0.517376 0.483338 0.586214
O O1 0.363098 0.688016 0.689389
O O2 0.402726 0.701415 0.597327
O O3 0.271607 0.096442 0.619326
O O4 0.660792 0.942467 0.699645
O O5 0.064493 0.364205 0.943025
O O6 0.064945 0.864288 0.922868
O O7 0.000000 0.000000 0.000000
O O8 0.348837 0.600199 0.935695
O O9 0.329516 0.672604 0.029764
O O10 0.670155 0.636377 0.247403
O O11 0.332115 0.329163 0.853631
O O12 0.000000 0.215629 0.750000
#
# Coordination Sequence:
#
# PCOD8122260 Si02
#       6
#     4   4   4   2   4   4
#     4  11  25  45  73 101 146 186 255 302 372 441
#     4  12  25  43  74 108 147 193 239 299 373 445
#     4  11  26  44  72 109 150 192 237 295 376 441
#     4  10  26  48  68 104 138 196 248 318 360 448
#     4  11  26  47  73 100 146 193 253 309 372 432
#     4  10  25  44  69 104 146 187 245 299 361 448
#
# _framework density 23.793095000000001
#
# number of rings (size 3 to 8) (size 9 to 14) (size 15 to 20)
#    0.000    1.091    1.818    2.182   10.182    5.818 
#    0.000    0.000    0.000    0.000    0.000    0.000 
#    0.000    0.000    0.000    0.000    0.000    0.000 
#
# Total GULP energy -272708.624683 kJ/mol
# GULP energy per Si atom -12395.846577 kJ/mol
# Density = 2.373894 g / cm^3
# Si number density = 23.793095 Si / 1000 Ang^3
#
#
#
# Elastic Constant Matrix: (Units=GPa)
#
#
# Indices 1 2 3 4 5 6 
#
# 1 88.1199 12.0105 69.7709 0.0000 9.2959 0.0000
# 2 12.0105 71.6537 28.6774 0.0000 6.4035 0.0000
# 3 69.7709 28.6774 119.3351 0.0000 2.4912 0.0000
# 4 0.0000 0.0000 0.0000 30.5125 0.0000 16.8348
# 5 9.2959 6.4035 2.4912 0.0000 50.9805 0.0000
# 6 0.0000 0.0000 0.0000 16.8348 0.0000 16.8284
#
#
#
# Elastic Compliance Matrix: (Units=1/GPa)
#
#
# Indices 1 2 3 4 5 6 
#
# 1 0.021919 0.001932 -0.013204 0.000000 -0.003594 0.000000
# 2 0.001932 0.015771 -0.004876 0.000000 -0.002095 0.000000
# 3 -0.013204 -0.004876 0.017226 0.000000 0.002178 0.000000
# 4 0.000000 0.000000 0.000000 0.073146 0.000000 -0.073174
# 5 -0.003594 -0.002095 0.002178 0.000000 0.020427 0.000000
# 6 0.000000 0.000000 0.000000 -0.073174 0.000000 0.132625
#
#
# Mechanical properties :
#
#
# Convention : Reuss Voigt Hill
#
# Bulk Modulus (GPa) = 44.20979 55.55847 49.88413
# Shear Modulus (GPa) = 15.57871 30.90762 23.24317
#
# Velocity S-wave (km/s) = 2.56160 3.60810 3.12891
# Velocity P-wave (km/s) = 5.23167 6.38429 5.83650
#
# Compressibility (1/GPa) = 0.02261942
#
# Stress axis : x y z
#
# Youngs Moduli (GPa) = 45.62274 63.40855 58.05151
#
# Poissons Ratio (x) = -0.12250 0.76654
# Poissons Ratio (y) = -0.08814 0.28304
# Poissons Ratio (z) = 0.60242 0.30916
#
# Static dielectric constant tensor:
#      x y z
#    x 4.424400 0.000000 0.013710 
#    y 0.000000 4.503920 0.000000 
#    z 0.013710 0.000000 4.511520 
# 
# 
# High freq. dielectric constant tensor:
#      x y z
#    x 1.949770 0.000000 -0.006060 
#    y 0.000000 1.943650 0.000000 
#    z -0.006060 0.000000 1.955610 
# 
# From -- ./inp_files/74591.got.cif
#   From: 2010.06.25/outbox.cif.g09.slc.cpg/sg13_38_cif.got.tgz:74591.got - 2010.06.28 04:50:58.
