data_PCOD8122726
_publ_section_title
;
Structure prediction by ZEFSAII (Michael W. Deem and Ramdas Pophale) SiO2 
 PCOD8122726
Probable space group: P 2/C
;
_chemical_formula_sum "Si O2"
_cell_formula_units_Z 24
_cell_length_a 17.061518
_cell_length_b 6.385264
_cell_length_c 9.749247
_cell_angle_alpha 90.000000
_cell_angle_beta 93.826351
_cell_angle_gamma 90.000000
_cell_volume 1059.737801
_symmetry_space_group_name_H-M "P 2/C"
_symmetry_group_IT_number 13
_symmetry_cell_setting 'monoclinic'
loop_
_space_group_symop_operation_xyz
x,y,z
-x,y,1/2-z
-x,-y,-z
x,-y,1/2+z
loop_
_atom_site_type_symbol
_atom_site_label
_atom_site_fract_x
_atom_site_fract_y
_atom_site_fract_z
Si Si1 0.407308 0.786626 0.732971
Si Si2 0.333077 0.056268 0.958354
Si Si3 0.838624 0.679270 0.780972
Si Si4 0.195745 0.095878 0.596869
Si Si5 0.694891 0.583723 0.237331
Si Si6 0.087841 0.568051 0.979780
O O1 0.500000 0.784065 0.750000
O O2 0.379531 0.937611 0.607332
O O3 0.377325 0.547545 0.706152
O O4 0.372783 0.879705 0.869894
O O5 0.338210 0.288822 0.895349
O O6 0.240042 0.013492 0.974212
O O7 0.758327 0.593883 0.705297
O O8 0.904497 0.589505 0.684154
O O9 0.856549 0.602039 0.938387
O O10 0.829656 0.930055 0.788949
O O11 0.262027 0.256958 0.655757
O O12 0.114436 0.206132 0.542714
O O13 0.000000 0.500000 0.000000
#
# Coordination Sequence:
#
# PCOD8122726 Si02
#       6
#     4   4   4   4   4   4
#     4  12  28  45  71 106 147 191 239 303 371 428
#     4  12  24  47  73 102 145 188 244 302 356 435
#     4  11  23  45  72 103 141 186 239 290 355 427
#     4  11  23  44  74 103 135 189 240 295 351 425
#     4  11  23  42  71 100 138 181 245 289 353 419
#     4  11  25  43  71 106 145 182 232 294 359 429
#
# _framework density 22.647113000000001
#
# number of rings (size 3 to 8) (size 9 to 14) (size 15 to 20)
#    0.000    0.667    3.333    4.000    4.667    3.333 
#    0.000    3.333    0.000    0.000    0.000    0.000 
#    0.000    0.000    0.000    0.000    0.000    0.000 
#
# Total GULP energy -297465.813021 kJ/mol
# GULP energy per Si atom -12394.408876 kJ/mol
# Density = 2.259557 g / cm^3
# Si number density = 22.647113 Si / 1000 Ang^3
#
#
#
# Elastic Constant Matrix: (Units=GPa)
#
#
# Indices 1 2 3 4 5 6 
#
# 1 151.2253 57.4275 40.1727 0.0000 -7.6207 0.0000
# 2 57.4275 130.5654 45.3233 0.0000 -2.2740 0.0000
# 3 40.1727 45.3233 112.4483 0.0000 -8.6292 0.0000
# 4 0.0000 0.0000 0.0000 36.4583 0.0000 -10.0482
# 5 -7.6207 -2.2740 -8.6292 0.0000 28.8857 0.0000
# 6 0.0000 0.0000 0.0000 -10.0482 0.0000 34.5256
#
#
#
# Elastic Compliance Matrix: (Units=1/GPa)
#
#
# Indices 1 2 3 4 5 6 
#
# 1 0.008275 -0.003054 -0.001613 0.000000 0.001461 0.000000
# 2 -0.003054 0.010036 -0.003025 0.000000 -0.000919 0.000000
# 3 -0.001613 -0.003025 0.010887 0.000000 0.002589 0.000000
# 4 0.000000 0.000000 0.000000 0.029821 0.000000 0.008679
# 5 0.001461 -0.000919 0.002589 0.000000 0.035706 0.000000
# 6 0.000000 0.000000 0.000000 0.008679 0.000000 0.031490
#
#
# Mechanical properties :
#
#
# Convention : Reuss Voigt Hill
#
# Bulk Modulus (GPa) = 72.38910 75.56511 73.97711
# Shear Modulus (GPa) = 34.19925 36.72829 35.46377
#
# Velocity S-wave (km/s) = 3.89021 4.03148 3.96148
# Velocity P-wave (km/s) = 7.22576 7.42356 7.32533
#
# Compressibility (1/GPa) = 0.01381423
#
# Stress axis : x y z
#
# Youngs Moduli (GPa) = 120.85262 99.63900 91.85249
#
# Poissons Ratio (x) = 0.30430 0.14816
# Poissons Ratio (y) = 0.36909 0.27782
# Poissons Ratio (z) = 0.19494 0.30137
#
# Static dielectric constant tensor:
#      x y z
#    x 3.931710 0.000000 0.051210 
#    y 0.000000 4.341100 0.000000 
#    z 0.051210 0.000000 4.126070 
# 
# 
# High freq. dielectric constant tensor:
#      x y z
#    x 1.875710 0.000000 0.006120 
#    y 0.000000 1.905070 0.000000 
#    z 0.006120 0.000000 1.897880 
# 
# From -- ./inp_files/38188.got.cif
#   From: 2010.06.25/outbox.cif.g09.slc.cpg/sg13_20_cif.got.tgz:38188.got - 2010.06.28 04:50:58.
