data_PCOD8122221
_publ_section_title
;
Structure prediction by ZEFSAII (Michael W. Deem and Ramdas Pophale) SiO2 
 PCOD8122221
Probable space group: P 2/C
;
_chemical_formula_sum "Si O2"
_cell_formula_units_Z 18
_cell_length_a 19.973886
_cell_length_b 5.419284
_cell_length_c 9.447661
_cell_angle_alpha 90.000000
_cell_angle_beta 48.246595
_cell_angle_gamma 90.000000
_cell_volume 762.918191
_symmetry_space_group_name_H-M "P 2/C"
_symmetry_group_IT_number 13
_symmetry_cell_setting 'monoclinic'
loop_
_space_group_symop_operation_xyz
x,y,z
-x,y,1/2-z
-x,-y,-z
x,-y,1/2+z
loop_
_atom_site_type_symbol
_atom_site_label
_atom_site_fract_x
_atom_site_fract_y
_atom_site_fract_z
Si Si1 0.155162 0.483639 0.745907
Si Si2 0.500000 0.994037 0.250000
Si Si3 0.269258 0.663018 0.822158
Si Si4 0.984148 0.787912 0.919081
Si Si5 0.383159 0.836385 0.164207
O O1 0.215654 0.680048 0.747666
O O2 0.207065 0.342180 0.548678
O O3 0.060712 0.578080 0.817432
O O4 0.119598 0.297484 0.918183
O O5 0.440802 0.166219 0.437749
O O6 0.441898 0.821392 0.225717
O O7 0.324442 0.408526 0.741938
O O8 0.328476 0.907553 0.747706
O O9 0.000000 0.922373 0.750000
O O10 0.000000 0.000000 0.000000
#
# Coordination Sequence:
#
# PCOD8122221 Si02
#       5
#     4   2   4   4   4
#     4  11  26  42  66  97 146 182 242 289 350 410
#     4  10  24  48  72 100 140 178 228 284 340 448
#     4  12  26  44  70 106 140 182 230 296 346 414
#     4  11  26  44  67  99 135 199 238 289 352 417
#     4  11  26  44  72 103 136 182 228 281 360 410
#
# _framework density 23.593615
#
# number of rings (size 3 to 8) (size 9 to 14) (size 15 to 20)
#    0.000    0.889    2.222    2.667    9.333    5.333 
#    0.000    0.000    0.000    0.000    0.000    0.000 
#    0.000    0.000    0.000    0.000    0.000    0.000 
#
# Total GULP energy -223016.339792 kJ/mol
# GULP energy per Si atom -12389.796655 kJ/mol
# Density = 2.353992 g / cm^3
# Si number density = 23.593615 Si / 1000 Ang^3
#
#
#
# Elastic Constant Matrix: (Units=GPa)
#
#
# Indices 1 2 3 4 5 6 
#
# 1 103.1582 20.3782 45.1520 0.0000 2.4213 0.0000
# 2 20.3782 119.7826 49.9001 0.0000 -20.4260 0.0000
# 3 45.1520 49.9001 200.7799 0.0000 4.1575 0.0000
# 4 0.0000 0.0000 0.0000 18.3775 0.0000 9.1887
# 5 2.4213 -20.4260 4.1575 0.0000 45.1431 0.0000
# 6 0.0000 0.0000 0.0000 9.1887 0.0000 16.5316
#
#
#
# Elastic Compliance Matrix: (Units=1/GPa)
#
#
# Indices 1 2 3 4 5 6 
#
# 1 0.010875 -0.001104 -0.002153 0.000000 -0.000885 0.000000
# 2 -0.001104 0.010404 -0.002441 0.000000 0.004992 0.000000
# 3 -0.002153 -0.002441 0.006103 0.000000 -0.001551 0.000000
# 4 0.000000 0.000000 0.000000 0.075357 0.000000 -0.041886
# 5 -0.000885 0.004992 -0.001551 0.000000 0.024601 0.000000
# 6 0.000000 0.000000 0.000000 -0.041886 0.000000 0.083772
#
#
# Mechanical properties :
#
#
# Convention : Reuss Voigt Hill
#
# Bulk Modulus (GPa) = 62.55036 72.73125 67.64080
# Shear Modulus (GPa) = 21.94549 36.56312 29.25431
#
# Velocity S-wave (km/s) = 3.05314 3.94090 3.52508
# Velocity P-wave (km/s) = 6.24484 7.18340 6.73050
#
# Compressibility (1/GPa) = 0.01598712
#
# Stress axis : x y z
#
# Youngs Moduli (GPa) = 91.95371 96.11357 163.84101
#
# Poissons Ratio (x) = 0.10612 0.35273
# Poissons Ratio (y) = 0.10153 0.39992
# Poissons Ratio (z) = 0.19797 0.23460
#
# Static dielectric constant tensor:
#      x y z
#    x 4.140840 0.000000 0.316950 
#    y 0.000000 3.669980 0.000000 
#    z 0.316950 0.000000 4.651230 
# 
# 
# High freq. dielectric constant tensor:
#      x y z
#    x 1.947690 0.000000 0.003900 
#    y 0.000000 1.913650 0.000000 
#    z 0.003900 0.000000 1.969270 
# 
# From -- ./inp_files/20364.got.cif
#   From: 2010.06.25/outbox.cif.g09.slc.cpg/sg13_11_cif.got.tgz:20364.got - 2010.06.28 04:50:58.
