data_PCOD8122388
_publ_section_title
;
Structure prediction by ZEFSAII (Michael W. Deem and Ramdas Pophale) SiO2 
 PCOD8122388
Probable space group: P 2/C
;
_chemical_formula_sum "Si O2"
_cell_formula_units_Z 26
_cell_length_a 15.889985
_cell_length_b 11.342235
_cell_length_c 22.016529
_cell_angle_alpha 90.000000
_cell_angle_beta 16.354933
_cell_angle_gamma 90.000000
_cell_volume 1117.334681
_symmetry_space_group_name_H-M "P 2/C"
_symmetry_group_IT_number 13
_symmetry_cell_setting 'monoclinic'
loop_
_space_group_symop_operation_xyz
x,y,z
-x,y,1/2-z
-x,-y,-z
x,-y,1/2+z
loop_
_atom_site_type_symbol
_atom_site_label
_atom_site_fract_x
_atom_site_fract_y
_atom_site_fract_z
Si Si1 0.500000 0.622678 0.750000
Si Si2 0.560712 0.683001 0.954055
Si Si3 0.132059 0.161891 0.466064
Si Si4 0.541384 0.877955 0.064756
Si Si5 0.013185 0.475978 0.814936
Si Si6 0.212921 0.938772 0.482172
Si Si7 0.365404 0.877929 0.678954
O O1 0.753702 0.704780 0.604671
O O2 0.681229 0.543608 0.574321
O O3 0.640140 0.777520 0.950656
O O4 0.242943 0.619842 0.183422
O O5 0.848030 0.597883 0.755794
O O6 0.492160 0.752419 0.938046
O O7 0.333863 0.103502 0.273118
O O8 0.789230 0.157499 0.682202
O O9 0.177521 0.081440 0.495031
O O10 0.780296 0.897430 0.952752
O O11 0.536253 0.006590 0.035151
O O12 0.000000 0.475535 0.750000
O O13 0.500000 0.889059 0.250000
O O14 0.951456 0.865950 0.633389
#
# Coordination Sequence:
#
# PCOD8122388 Si02
#       7
#     2   4   4   4   4   4   4
#     4  12  22  46  78 102 128 198 244 292 360 414
#     4  11  26  48  65 101 144 183 236 301 354 418
#     4  11  20  38  68 104 142 176 241 289 341 443
#     4  11  21  40  66 100 145 183 219 287 354 433
#     4  11  27  51  73  99 141 183 253 307 345 416
#     4  11  19  34  62 102 143 177 224 278 348 429
#     4  11  22  38  66 104 142 186 221 286 361 434
#
# _framework density 23.269662
#
# number of rings (size 3 to 8) (size 9 to 14) (size 15 to 20)
#    0.000    0.923    5.385    2.308    2.154    0.000 
#    4.154    2.308    0.000    0.000    0.000    0.000 
#    0.000    0.000    0.000    0.000    0.000    0.000 
#
# Total GULP energy -322112.855212 kJ/mol
# GULP energy per Si atom -12388.955970 kJ/mol
# Density = 2.321670 g / cm^3
# Si number density = 23.269662 Si / 1000 Ang^3
#
#
#
# Elastic Constant Matrix: (Units=GPa)
#
#
# Indices 1 2 3 4 5 6 
#
# 1 108.2756 29.6350 22.3099 0.0000 3.3060 0.0000
# 2 29.6350 136.8230 42.6771 0.0000 11.5691 0.0000
# 3 22.3099 42.6771 70.8970 0.0000 9.5193 0.0000
# 4 0.0000 0.0000 0.0000 25.9902 0.0000 6.0014
# 5 3.3060 11.5691 9.5193 0.0000 39.6485 0.0000
# 6 0.0000 0.0000 0.0000 6.0014 0.0000 -14.1711
#
#
#
# Elastic Compliance Matrix: (Units=1/GPa)
#
#
# Indices 1 2 3 4 5 6 
#
# 1 0.010113 -0.001482 -0.002309 0.000000 0.000144 0.000000
# 2 -0.001482 0.009288 -0.004936 0.000000 -0.001401 0.000000
# 3 -0.002309 -0.004936 0.018170 0.000000 -0.002729 0.000000
# 4 0.000000 0.000000 0.000000 0.035049 0.000000 0.014843
# 5 0.000144 -0.001401 -0.002729 0.000000 0.026274 0.000000
# 6 0.000000 0.000000 0.000000 0.014843 0.000000 -0.064280
#
#
# Mechanical properties :
#
#
# Convention : Reuss Voigt Hill
#
# Bulk Modulus (GPa) = 49.71535 56.13772 52.92653
# Shear Modulus (GPa) = 85.07269 25.05179 55.06224
#
# Velocity S-wave (km/s) = 6.05300 3.28470 4.86971
# Velocity P-wave (km/s) = 8.38231 6.20990 7.37651
#
# Compressibility (1/GPa) = 0.02011451
#
# Stress axis : x y z
#
# Youngs Moduli (GPa) = 98.88439 107.66613 55.03678
#
# Poissons Ratio (x) = 0.15958 0.12710
# Poissons Ratio (y) = 0.14657 0.27168
# Poissons Ratio (z) = 0.22836 0.53148
#
# Static dielectric constant tensor:
#      x y z
#    x 4.195090 0.000000 0.013910 
#    y 0.000000 4.150420 0.000000 
#    z 0.013910 0.000000 4.469080 
# 
# 
# High freq. dielectric constant tensor:
#      x y z
#    x 1.920510 0.000000 -0.009350 
#    y 0.000000 1.910340 0.000000 
#    z -0.009350 0.000000 1.925310 
# 
# From -- ./inp_files/80159.got.cif
#   From: 2010.06.25/outbox.cif.g09.slc.cpg/sg13_41_cif.got.tgz:80159.got - 2010.06.28 04:50:58.
