data_PCOD8122580
_publ_section_title
;
Structure prediction by ZEFSAII (Michael W. Deem and Ramdas Pophale) SiO2 
 PCOD8122580
Probable space group: P 2/C
;
_chemical_formula_sum "Si O2"
_cell_formula_units_Z 28
_cell_length_a 16.934384
_cell_length_b 9.450124
_cell_length_c 13.954110
_cell_angle_alpha 90.000000
_cell_angle_beta 141.109600
_cell_angle_gamma 90.000000
_cell_volume 1402.015942
_symmetry_space_group_name_H-M "P 2/C"
_symmetry_group_IT_number 13
_symmetry_cell_setting 'monoclinic'
loop_
_space_group_symop_operation_xyz
x,y,z
-x,y,1/2-z
-x,-y,-z
x,-y,1/2+z
loop_
_atom_site_type_symbol
_atom_site_label
_atom_site_fract_x
_atom_site_fract_y
_atom_site_fract_z
Si Si1 0.297059 0.482501 0.312598
Si Si2 0.496723 0.611465 0.632467
Si Si3 0.134252 0.217455 0.163179
Si Si4 0.205676 0.981491 0.367770
Si Si5 0.847855 0.769245 0.342141
Si Si6 0.753352 0.984819 0.883757
Si Si7 0.519017 0.062732 0.413900
O O1 0.390666 0.507672 0.489874
O O2 0.369600 0.434882 0.284900
O O3 0.202289 0.361140 0.257633
O O4 0.217599 0.619474 0.211244
O O5 0.500000 0.598983 0.750000
O O6 0.461607 0.768775 0.565162
O O7 0.130976 0.111764 0.250341
O O8 0.209690 0.146620 0.147388
O O9 0.993996 0.251376 0.999320
O O10 0.170208 0.836241 0.280400
O O11 0.167895 0.971537 0.443545
O O12 0.355330 0.010709 0.506438
O O13 0.784493 0.869006 0.361465
O O14 0.603709 0.975083 0.765226
O O15 0.500000 0.000000 0.500000
#
# Coordination Sequence:
#
# PCOD8122580 Si02
#       7
#     4   4   4   4   4   4   4
#     4  11  23  42  64  90 125 163 206 252 306 375
#     4  11  23  40  64  93 125 159 199 257 317 371
#     4  11  24  41  61  88 124 166 210 251 298 362
#     4  11  22  39  64  91 122 159 203 257 312 364
#     4  11  24  41  61  88 124 166 210 251 298 362
#     4  11  22  39  64  91 122 159 203 257 312 364
#     4  12  19  38  65  95 122 152 196 256 318 370
#
# _framework density 19.971240000000002
#
# number of rings (size 3 to 8) (size 9 to 14) (size 15 to 20)
#    0.000    0.857    5.714    3.429    0.000    4.571 
#    0.000    0.000    0.000    5.143    0.000    0.000 
#    0.000    0.000    0.000    0.000    0.000    0.000 
#
# Total GULP energy -347283.323888 kJ/mol
# GULP energy per Si atom -12402.975853 kJ/mol
# Density = 1.992578 g / cm^3
# Si number density = 19.971240 Si / 1000 Ang^3
#
#
#
# Elastic Constant Matrix: (Units=GPa)
#
#
# Indices 1 2 3 4 5 6 
#
# 1 33.4520 21.6180 30.9076 0.0000 -15.0415 0.0000
# 2 21.6180 105.1078 26.1231 0.0000 -8.4007 0.0000
# 3 30.9076 26.1231 106.7042 0.0000 -5.9399 0.0000
# 4 0.0000 0.0000 0.0000 32.1786 0.0000 6.4433
# 5 -15.0415 -8.4007 -5.9399 0.0000 53.6294 0.0000
# 6 0.0000 0.0000 0.0000 6.4433 0.0000 4.9818
#
#
#
# Elastic Compliance Matrix: (Units=1/GPa)
#
#
# Indices 1 2 3 4 5 6 
#
# 1 0.050970 -0.006418 -0.012530 0.000000 0.011902 0.000000
# 2 -0.006418 0.011032 -0.000851 0.000000 -0.000166 0.000000
# 3 -0.012530 -0.000851 0.013087 0.000000 -0.002198 0.000000
# 4 0.000000 0.000000 0.000000 0.041937 0.000000 -0.054240
# 5 0.011902 -0.000166 -0.002198 0.000000 0.021715 0.000000
# 6 0.000000 0.000000 0.000000 -0.054240 0.000000 0.270882
#
#
# Mechanical properties :
#
#
# Convention : Reuss Voigt Hill
#
# Bulk Modulus (GPa) = 28.17592 44.72905 36.45249
# Shear Modulus (GPa) = 10.84476 29.26565 20.05520
#
# Velocity S-wave (km/s) = 2.33280 3.83219 3.17236
# Velocity P-wave (km/s) = 4.62546 6.48277 5.63121
#
# Compressibility (1/GPa) = 0.03549130
#
# Stress axis : x y z
#
# Youngs Moduli (GPa) = 19.61948 90.64310 76.41092
#
# Poissons Ratio (x) = 0.58172 0.95743
# Poissons Ratio (y) = 0.12591 0.06504
# Poissons Ratio (z) = 0.24583 0.07716
#
# Static dielectric constant tensor:
#      x y z
#    x 3.592150 0.000000 0.086580 
#    y 0.000000 3.643510 0.000000 
#    z 0.086580 0.000000 3.920250 
# 
# 
# High freq. dielectric constant tensor:
#      x y z
#    x 1.772260 0.000000 0.007560 
#    y 0.000000 1.775360 0.000000 
#    z 0.007560 0.000000 1.797000 
# 
# From -- ./inp_files/55327.got.cif
#   From: 2010.06.25/outbox.cif.g09.slc.cpg/sg13_28_cif.got.tgz:55327.got - 2010.06.28 04:50:58.
