data_PCOD8122544
_publ_section_title
;
Structure prediction by ZEFSAII (Michael W. Deem and Ramdas Pophale) SiO2 
 PCOD8122544
Probable space group: P 2/C
;
_chemical_formula_sum "Si O2"
_cell_formula_units_Z 24
_cell_length_a 18.208794
_cell_length_b 10.573063
_cell_length_c 19.331174
_cell_angle_alpha 90.000000
_cell_angle_beta 20.223954
_cell_angle_gamma 90.000000
_cell_volume 1286.553100
_symmetry_space_group_name_H-M "P 2/C"
_symmetry_group_IT_number 13
_symmetry_cell_setting 'monoclinic'
loop_
_space_group_symop_operation_xyz
x,y,z
-x,y,1/2-z
-x,-y,-z
x,-y,1/2+z
loop_
_atom_site_type_symbol
_atom_site_label
_atom_site_fract_x
_atom_site_fract_y
_atom_site_fract_z
Si Si1 0.267572 0.763474 0.150818
Si Si2 0.558171 0.689443 0.002780
Si Si3 0.051107 0.024977 0.533900
Si Si4 0.168106 0.130530 0.157384
Si Si5 0.786861 0.481378 0.727609
Si Si6 0.475895 0.907527 0.849375
O O1 0.198372 0.615848 0.219663
O O2 0.434599 0.795571 0.065732
O O3 0.389672 0.790186 0.971021
O O4 0.056531 0.846267 0.344722
O O5 0.668915 0.755124 0.970146
O O6 0.732707 0.621619 0.800602
O O7 0.388158 0.577287 0.171822
O O8 0.955893 0.909988 0.663400
O O9 0.303384 0.036354 0.318286
O O10 0.000000 0.000000 0.500000
O O11 0.000000 0.180902 0.250000
O O12 0.299189 0.016810 0.007688
O O13 0.000000 0.500000 0.500000
O O14 0.500000 0.858036 0.750000
#
# Coordination Sequence:
#
# PCOD8122544 Si02
#       6
#     4   4   4   4   4   4
#     4   9  21  35  59  89 114 147 205 245 289 356
#     4   9  20  37  61  86 118 145 201 255 287 352
#     4  11  22  34  61  87 117 156 198 239 300 357
#     4  11  22  38  56  88 124 157 195 241 300 372
#     4   9  20  37  61  87 114 147 196 254 304 333
#     4  11  22  38  56  84 125 161 190 240 298 358
#
# _framework density 18.654495000000001
#
# number of rings (size 3 to 8) (size 9 to 14) (size 15 to 20)
#    1.000    1.000    1.667    2.000    4.667    2.667 
#    0.000    0.000    3.667    1.000    0.000    0.000 
#    0.000    0.000    0.000    0.000    0.000    0.000 
#
# Total GULP energy -297372.645473 kJ/mol
# GULP energy per Si atom -12390.526895 kJ/mol
# Density = 1.861204 g / cm^3
# Si number density = 18.654495 Si / 1000 Ang^3
#
#
#
# Elastic Constant Matrix: (Units=GPa)
#
#
# Indices 1 2 3 4 5 6 
#
# 1 111.9203 20.8149 32.8597 0.0000 2.1046 0.0000
# 2 20.8149 59.7529 19.1479 0.0000 -0.1674 0.0000
# 3 32.8597 19.1479 117.2861 0.0000 6.2590 0.0000
# 4 0.0000 0.0000 0.0000 16.0681 0.0000 -1.0769
# 5 2.1046 -0.1674 6.2590 0.0000 28.1895 0.0000
# 6 0.0000 0.0000 0.0000 -1.0769 0.0000 20.2411
#
#
#
# Elastic Compliance Matrix: (Units=1/GPa)
#
#
# Indices 1 2 3 4 5 6 
#
# 1 0.010154 -0.002776 -0.002379 0.000000 -0.000246 0.000000
# 2 -0.002776 0.018434 -0.002276 0.000000 0.000822 0.000000
# 3 -0.002379 -0.002276 0.009670 0.000000 -0.001983 0.000000
# 4 0.000000 0.000000 0.000000 0.062458 0.000000 0.003323
# 5 -0.000246 0.000822 -0.001983 0.000000 0.035938 0.000000
# 6 0.000000 0.000000 0.000000 0.003323 0.000000 0.049581
#
#
# Mechanical properties :
#
#
# Convention : Reuss Voigt Hill
#
# Bulk Modulus (GPa) = 42.73831 48.28935 45.51383
# Shear Modulus (GPa) = 23.93558 27.30887 25.62223
#
# Velocity S-wave (km/s) = 3.58592 3.83028 3.71012
# Velocity P-wave (km/s) = 6.33288 6.74565 6.54252
#
# Compressibility (1/GPa) = 0.02339821
#
# Stress axis : x y z
#
# Youngs Moduli (GPa) = 98.48223 54.24744 103.41363
#
# Poissons Ratio (x) = 0.15057 0.24597
# Poissons Ratio (y) = 0.27335 0.23534
# Poissons Ratio (z) = 0.23424 0.12345
#
# Static dielectric constant tensor:
#      x y z
#    x 3.273600 0.000000 -0.132580 
#    y 0.000000 3.405730 0.000000 
#    z -0.132580 0.000000 3.592920 
# 
# 
# High freq. dielectric constant tensor:
#      x y z
#    x 1.700890 0.000000 -0.011870 
#    y 0.000000 1.705160 0.000000 
#    z -0.011870 0.000000 1.742880 
# 
# From -- ./inp_files/69900.got.cif
#   From: 2010.06.25/outbox.cif.g09.slc.cpg/sg13_35_cif.got.tgz:69900.got - 2010.06.28 04:50:58.
