data_PCOD8122505
_publ_section_title
;
Structure prediction by ZEFSAII (Michael W. Deem and Ramdas Pophale) SiO2 
 PCOD8122505
Probable space group: P 2/C
;
_chemical_formula_sum "Si O2"
_cell_formula_units_Z 28
_cell_length_a 13.831905
_cell_length_b 12.164131
_cell_length_c 9.341627
_cell_angle_alpha 90.000000
_cell_angle_beta 118.021210
_cell_angle_gamma 90.000000
_cell_volume 1387.506463
_symmetry_space_group_name_H-M "P 2/C"
_symmetry_group_IT_number 13
_symmetry_cell_setting 'monoclinic'
loop_
_space_group_symop_operation_xyz
x,y,z
-x,y,1/2-z
-x,-y,-z
x,-y,1/2+z
loop_
_atom_site_type_symbol
_atom_site_label
_atom_site_fract_x
_atom_site_fract_y
_atom_site_fract_z
Si Si1 0.256312 0.183084 0.113952
Si Si2 0.611771 0.615992 0.900605
Si Si3 0.390840 0.605630 0.259733
Si Si4 0.115430 0.149183 0.270110
Si Si5 0.886595 0.898725 0.226827
Si Si6 0.249156 0.184980 0.635299
Si Si7 0.417427 0.999572 0.814454
O O1 0.296224 0.292449 0.060910
O O2 0.162389 0.214637 0.165077
O O3 0.356274 0.117510 0.257488
O O4 0.205374 0.102916 0.959919
O O5 0.500000 0.658375 0.750000
O O6 0.649792 0.507073 0.841877
O O7 0.591612 0.592573 0.056054
O O8 0.500000 0.643104 0.250000
O O9 0.297507 0.693817 0.166498
O O10 0.213164 0.152873 0.452176
O O11 0.000000 0.198359 0.250000
O O12 0.097313 0.023562 0.208027
O O13 0.857856 0.819531 0.339126
O O14 0.000000 0.849587 0.250000
O O15 0.331090 0.098037 0.765095
O O16 0.500000 0.028711 0.750000
O O17 0.500000 0.000000 0.000000
#
# Coordination Sequence:
#
# PCOD8122505 Si02
#       7
#     4   4   4   4   4   4   4
#     4  12  23  40  64  92 129 169 211 257 323 376
#     4  11  25  43  67  94 125 170 214 258 309 378
#     4  11  25  44  67  94 126 167 216 257 309 377
#     4  11  23  39  64  95 128 167 215 264 312 379
#     4  11  21  41  64  92 128 166 216 264 314 380
#     4  12  23  40  62  93 128 167 211 257 321 374
#     4  12  24  37  56  91 133 166 201 249 315 382
#
# _framework density 20.180085999999999
#
# number of rings (size 3 to 8) (size 9 to 14) (size 15 to 20)
#    0.000    0.571    4.286    5.143    6.000    2.286 
#    0.000    0.000    0.000    5.143    0.000    0.000 
#    0.000    0.000    0.000    0.000    0.000    0.000 
#
# Total GULP energy -347143.718622 kJ/mol
# GULP energy per Si atom -12397.989951 kJ/mol
# Density = 2.013416 g / cm^3
# Si number density = 20.180086 Si / 1000 Ang^3
#
#
#
# Elastic Constant Matrix: (Units=GPa)
#
#
# Indices 1 2 3 4 5 6 
#
# 1 124.4114 52.3485 23.9915 0.0000 -25.5459 0.0000
# 2 52.3485 82.7703 20.2975 0.0000 -3.4026 0.0000
# 3 23.9915 20.2975 100.5086 0.0000 -19.9873 0.0000
# 4 0.0000 0.0000 0.0000 21.4992 0.0000 -3.8282
# 5 -25.5459 -3.4026 -19.9873 0.0000 39.9927 0.0000
# 6 0.0000 0.0000 0.0000 -3.8282 0.0000 31.2241
#
#
#
# Elastic Compliance Matrix: (Units=1/GPa)
#
#
# Indices 1 2 3 4 5 6 
#
# 1 0.012891 -0.007845 0.000013 0.000000 0.007574 0.000000
# 2 -0.007845 0.017487 -0.002620 0.000000 -0.004833 0.000000
# 3 0.000013 -0.002620 0.011584 0.000000 0.005575 0.000000
# 4 0.000000 0.000000 0.000000 0.047551 0.000000 0.005830
# 5 0.007574 -0.004833 0.005575 0.000000 0.032217 0.000000
# 6 0.000000 0.000000 0.000000 0.005830 0.000000 0.032741
#
#
# Mechanical properties :
#
#
# Convention : Reuss Voigt Hill
#
# Bulk Modulus (GPa) = 47.48581 55.66281 51.57431
# Shear Modulus (GPa) = 27.41286 32.61338 30.01312
#
# Velocity S-wave (km/s) = 3.68966 4.02446 3.86069
# Velocity P-wave (km/s) = 6.46015 7.01697 6.74431
#
# Compressibility (1/GPa) = 0.02105892
#
# Stress axis : x y z
#
# Youngs Moduli (GPa) = 77.57072 57.18486 86.32632
#
# Poissons Ratio (x) = 0.44863 -0.00114
# Poissons Ratio (y) = 0.60856 0.22617
# Poissons Ratio (z) = -0.00103 0.14982
#
# Static dielectric constant tensor:
#      x y z
#    x 4.046090 0.000000 -0.110910 
#    y 0.000000 3.875840 0.000000 
#    z -0.110910 0.000000 3.751450 
# 
# 
# High freq. dielectric constant tensor:
#      x y z
#    x 1.804710 0.000000 -0.014690 
#    y 0.000000 1.754630 0.000000 
#    z -0.014690 0.000000 1.802450 
# 
# From -- ./inp_files/19131.got.cif
#   From: 2010.06.25/outbox.cif.g09.slc.cpg/sg13_10_cif.got.tgz:19131.got - 2010.06.28 04:50:58.
