data_PCOD8122926
_publ_section_title
;
Structure prediction by ZEFSAII (Michael W. Deem and Ramdas Pophale) SiO2 
 PCOD8122926
Probable space group: P 2/C
;
_chemical_formula_sum "Si O2"
_cell_formula_units_Z 20
_cell_length_a 17.012698
_cell_length_b 6.155121
_cell_length_c 24.509500
_cell_angle_alpha 90.000000
_cell_angle_beta 19.440683
_cell_angle_gamma 90.000000
_cell_volume 854.216054
_symmetry_space_group_name_H-M "P 2/C"
_symmetry_group_IT_number 13
_symmetry_cell_setting 'monoclinic'
loop_
_space_group_symop_operation_xyz
x,y,z
-x,y,1/2-z
-x,-y,-z
x,-y,1/2+z
loop_
_atom_site_type_symbol
_atom_site_label
_atom_site_fract_x
_atom_site_fract_y
_atom_site_fract_z
Si Si1 0.497483 0.000097 0.376231
Si Si2 0.645322 0.649228 0.861939
Si Si3 0.319969 0.668439 0.910170
Si Si4 0.116202 0.649324 0.376513
Si Si5 0.899447 0.331306 0.370442
O O1 0.730875 0.860616 0.206748
O O2 0.257710 0.870935 0.545201
O O3 0.519622 0.139489 0.417973
O O4 0.454253 0.129369 0.348742
O O5 0.697493 0.499922 0.776253
O O6 0.886201 0.738093 0.730795
O O7 0.500000 0.500000 0.000000
O O8 0.500000 0.555785 0.750000
O O9 0.272516 0.499968 0.988762
O O10 0.081901 0.738029 0.035139
O O11 0.000000 0.500000 0.500000
O O12 0.000000 0.443817 0.250000
#
# Coordination Sequence:
#
# PCOD8122926 Si02
#       5
#     4   4   4   4   4
#     4  12  24  42  70 102 136 180 232 280 348 420
#     4  11  25  45  68  99 140 181 227 287 347 410
#     4  11  25  44  68  98 133 177 227 283 342 410
#     4  11  25  45  68  99 140 181 227 287 347 410
#     4  11  25  44  68  98 133 177 227 283 342 410
#
# _framework density 23.413281000000001
#
# number of rings (size 3 to 8) (size 9 to 14) (size 15 to 20)
#    0.000    0.800    0.000    7.200    0.000   14.400 
#    0.000    0.000    0.000    0.000    0.000    0.000 
#    0.000    0.000    0.000    0.000    0.000    0.000 
#
# Total GULP energy -247930.083798 kJ/mol
# GULP energy per Si atom -12396.504190 kJ/mol
# Density = 2.335999 g / cm^3
# Si number density = 23.413281 Si / 1000 Ang^3
#
#
#
# Elastic Constant Matrix: (Units=GPa)
#
#
# Indices 1 2 3 4 5 6 
#
# 1 141.9289 87.1002 73.3760 0.0000 1.9144 0.0000
# 2 87.1002 136.6028 84.9206 0.0000 -5.8279 0.0000
# 3 73.3760 84.9206 148.4408 0.0000 15.7752 0.0000
# 4 0.0000 0.0000 0.0000 67.8745 0.0000 -33.8495
# 5 1.9144 -5.8279 15.7752 0.0000 71.8248 0.0000
# 6 0.0000 0.0000 0.0000 -33.8495 0.0000 80.4302
#
#
#
# Elastic Compliance Matrix: (Units=1/GPa)
#
#
# Indices 1 2 3 4 5 6 
#
# 1 0.012124 -0.006267 -0.002374 0.000000 -0.000310 0.000000
# 2 -0.006267 0.015022 -0.005778 0.000000 0.002655 0.000000
# 3 -0.002374 -0.005778 0.011528 0.000000 -0.002937 0.000000
# 4 0.000000 0.000000 0.000000 0.018647 0.000000 0.007848
# 5 -0.000310 0.002655 -0.002937 0.000000 0.014792 0.000000
# 6 0.000000 0.000000 0.000000 0.007848 0.000000 0.015736
#
#
# Mechanical properties :
#
#
# Convention : Reuss Voigt Hill
#
# Bulk Modulus (GPa) = 101.68651 101.97402 101.83026
# Shear Modulus (GPa) = 41.67871 56.13096 48.90483
#
# Velocity S-wave (km/s) = 4.22374 4.90164 4.57526
# Velocity P-wave (km/s) = 8.20439 8.69961 8.45563
#
# Compressibility (1/GPa) = 0.00983415
#
# Stress axis : x y z
#
# Youngs Moduli (GPa) = 82.48235 66.56974 86.74534
#
# Poissons Ratio (x) = 0.41722 0.20597
# Poissons Ratio (y) = 0.51695 0.50120
# Poissons Ratio (z) = 0.19585 0.38463
#
# Static dielectric constant tensor:
#      x y z
#    x 4.584490 0.000000 -0.000300 
#    y 0.000000 3.794890 0.000000 
#    z -0.000300 0.000000 4.583470 
# 
# 
# High freq. dielectric constant tensor:
#      x y z
#    x 1.951260 0.000000 -0.014380 
#    y 0.000000 1.911700 0.000000 
#    z -0.014380 0.000000 1.945840 
# 
# From -- ./inp_files/93120.got.cif
#   From: 2010.06.25/outbox.cif.g09.slc.cpg/sg13_47_cif.got.tgz:93120.got - 2010.06.28 04:50:58.
