data_PCOD8122573
_publ_section_title
;
Structure prediction by ZEFSAII (Michael W. Deem and Ramdas Pophale) SiO2 
 PCOD8122573
Probable space group: P 2/C
;
_chemical_formula_sum "Si O2"
_cell_formula_units_Z 28
_cell_length_a 16.616538
_cell_length_b 6.375771
_cell_length_c 18.544456
_cell_angle_alpha 90.000000
_cell_angle_beta 43.839091
_cell_angle_gamma 90.000000
_cell_volume 1360.792998
_symmetry_space_group_name_H-M "P 2/C"
_symmetry_group_IT_number 13
_symmetry_cell_setting 'monoclinic'
loop_
_space_group_symop_operation_xyz
x,y,z
-x,y,1/2-z
-x,-y,-z
x,-y,1/2+z
loop_
_atom_site_type_symbol
_atom_site_label
_atom_site_fract_x
_atom_site_fract_y
_atom_site_fract_z
Si Si1 0.878684 0.057057 0.762608
Si Si2 0.329660 0.790504 0.378207
Si Si3 0.536044 0.221111 0.560682
Si Si4 0.000000 0.436897 0.750000
Si Si5 0.658031 0.105163 0.341181
Si Si6 0.601155 0.453150 0.285788
Si Si7 0.896917 0.816965 0.893774
Si Si8 0.500000 0.849821 0.750000
O O1 0.915330 0.296078 0.754776
O O2 0.767872 0.049747 0.781047
O O3 0.845194 0.947095 0.859894
O O4 0.984542 0.929795 0.657061
O O5 0.398880 0.738891 0.405933
O O6 0.342726 0.608276 0.309920
O O7 0.193232 0.817678 0.482081
O O8 0.383294 0.010416 0.316507
O O9 0.627060 0.211648 0.437657
O O10 0.451770 0.422202 0.611572
O O11 0.454968 0.015364 0.615692
O O12 0.921776 0.578631 0.853329
O O13 0.693378 0.291476 0.262783
O O14 0.498794 0.307876 0.318647
#
# Coordination Sequence:
#
# PCOD8122573 Si02
#       8
#     4   4   4   2   4   4   4   2
#     4   9  19  38  59  87 122 159 203 250 306 356
#     4  12  21  40  61  91 121 162 211 244 301 380
#     4  11  22  39  58  95 124 160 202 248 317 365
#     4   8  18  38  60  88 116 160 202 252 306 352
#     4  11  23  39  61  91 131 157 198 265 308 355
#     4  12  23  40  60  87 125 167 203 246 302 365
#     4   9  20  37  60  90 120 158 207 249 296 368
#     4  12  22  40  60  82 126 158 206 244 294 368
#
# _framework density 20.576236999999999
#
# number of rings (size 3 to 8) (size 9 to 14) (size 15 to 20)
#    0.000    1.714    5.714    0.429    0.000    4.571 
#    5.143    0.714    0.000    4.286    0.000    0.000 
#    0.000    0.000    0.000    0.000    0.000    0.000 
#
# Total GULP energy -346928.171092 kJ/mol
# GULP energy per Si atom -12390.291825 kJ/mol
# Density = 2.052940 g / cm^3
# Si number density = 20.576237 Si / 1000 Ang^3
#
#
#
# Elastic Constant Matrix: (Units=GPa)
#
#
# Indices 1 2 3 4 5 6 
#
# 1 50.5415 12.8939 25.3822 0.0000 0.7131 0.0000
# 2 12.8939 111.4583 47.1817 0.0000 8.2430 0.0000
# 3 25.3822 47.1817 122.7941 0.0000 -9.8308 0.0000
# 4 0.0000 0.0000 0.0000 19.6347 0.0000 3.0474
# 5 0.7131 8.2430 -9.8308 0.0000 21.7059 0.0000
# 6 0.0000 0.0000 0.0000 3.0474 0.0000 24.5724
#
#
#
# Elastic Compliance Matrix: (Units=1/GPa)
#
#
# Indices 1 2 3 4 5 6 
#
# 1 0.022269 -0.000403 -0.004664 0.000000 -0.002691 0.000000
# 2 -0.000403 0.011578 -0.004894 0.000000 -0.006600 0.000000
# 3 -0.004664 -0.004894 0.011569 0.000000 0.007251 0.000000
# 4 0.000000 0.000000 0.000000 0.051930 0.000000 -0.006440
# 5 -0.002691 -0.006600 0.007251 0.000000 0.051950 0.000000
# 6 0.000000 0.000000 0.000000 -0.006440 0.000000 0.041495
#
#
# Mechanical properties :
#
#
# Convention : Reuss Voigt Hill
#
# Bulk Modulus (GPa) = 39.22399 50.63440 44.92920
# Shear Modulus (GPa) = 22.80930 26.47167 24.64049
#
# Velocity S-wave (km/s) = 3.33307 3.59070 3.46428
# Velocity P-wave (km/s) = 5.82379 6.46934 6.15504
#
# Compressibility (1/GPa) = 0.02549460
#
# Stress axis : x y z
#
# Youngs Moduli (GPa) = 44.90632 86.36792 86.44041
#
# Poissons Ratio (x) = 0.03480 0.40313
# Poissons Ratio (y) = 0.01809 0.42303
# Poissons Ratio (z) = 0.20943 0.42268
#
# Static dielectric constant tensor:
#      x y z
#    x 3.618130 0.000000 0.076380 
#    y 0.000000 3.899820 0.000000 
#    z 0.076380 0.000000 3.647260 
# 
# 
# High freq. dielectric constant tensor:
#      x y z
#    x 1.787310 0.000000 0.005610 
#    y 0.000000 1.820670 0.000000 
#    z 0.005610 0.000000 1.781700 
# 
# From -- ./inp_files/80648.got.cif
#   From: 2010.06.25/outbox.cif.g09.slc.cpg/sg13_41_cif.got.tgz:80648.got - 2010.06.28 04:50:58.
