data_PCOD8122792
_publ_section_title
;
Structure prediction by ZEFSAII (Michael W. Deem and Ramdas Pophale) SiO2 
 PCOD8122792
Probable space group: P 2/C
;
_chemical_formula_sum "Si O2"
_cell_formula_units_Z 20
_cell_length_a 14.490957
_cell_length_b 5.252618
_cell_length_c 10.261092
_cell_angle_alpha 90.000000
_cell_angle_beta 89.784642
_cell_angle_gamma 90.000000
_cell_volume 781.022237
_symmetry_space_group_name_H-M "P 2/C"
_symmetry_group_IT_number 13
_symmetry_cell_setting 'monoclinic'
loop_
_space_group_symop_operation_xyz
x,y,z
-x,y,1/2-z
-x,-y,-z
x,-y,1/2+z
loop_
_atom_site_type_symbol
_atom_site_label
_atom_site_fract_x
_atom_site_fract_y
_atom_site_fract_z
Si Si1 0.176209 0.939273 0.658366
Si Si2 0.358832 0.016264 0.535055
Si Si3 0.594935 0.726982 0.212245
Si Si4 0.260648 0.358579 0.368555
Si Si5 0.899937 0.454918 0.943439
O O1 0.229595 0.906062 0.796403
O O2 0.112480 0.689382 0.654759
O O3 0.253111 0.917202 0.545409
O O4 0.114168 0.193765 0.640068
O O5 0.402658 0.045815 0.678532
O O6 0.344110 0.293624 0.468168
O O7 0.415377 0.835334 0.435857
O O8 0.500000 0.576472 0.250000
O O9 0.688903 0.560175 0.229910
O O10 0.172021 0.478055 0.438170
O O11 0.000000 0.500000 0.000000
#
# Coordination Sequence:
#
# PCOD8122792 Si02
#       5
#     4   4   4   4   4
#     4  11  23  45  73 106 148 197 243 312 383 453
#     4  11  24  46  72 105 150 198 256 317 386 462
#     4  12  26  45  73 109 151 204 263 325 387 461
#     4  11  24  45  72 104 153 198 257 317 391 457
#     4  11  25  45  75 110 151 194 253 311 383 460
#
# _framework density 25.607465999999999
#
# number of rings (size 3 to 8) (size 9 to 14) (size 15 to 20)
#    0.000    0.800    4.000    3.600    0.000    2.400 
#    0.000    4.000    0.000    0.000    0.000    0.000 
#    0.000    0.000    0.000    0.000    0.000    0.000 
#
# Total GULP energy -247763.341245 kJ/mol
# GULP energy per Si atom -12388.167062 kJ/mol
# Density = 2.554918 g / cm^3
# Si number density = 25.607466 Si / 1000 Ang^3
#
#
#
# Elastic Constant Matrix: (Units=GPa)
#
#
# Indices 1 2 3 4 5 6 
#
# 1 106.2857 29.4847 16.7534 0.0000 -8.8853 0.0000
# 2 29.4847 129.3031 32.3059 0.0000 4.2293 0.0000
# 3 16.7534 32.3059 112.1240 0.0000 15.4034 0.0000
# 4 0.0000 0.0000 0.0000 37.0270 0.0000 12.3001
# 5 -8.8853 4.2293 15.4034 0.0000 24.5978 0.0000
# 6 0.0000 0.0000 0.0000 12.3001 0.0000 31.3640
#
#
#
# Elastic Compliance Matrix: (Units=1/GPa)
#
#
# Indices 1 2 3 4 5 6 
#
# 1 0.010731 -0.002196 -0.001701 0.000000 0.005319 0.000000
# 2 -0.002196 0.008783 -0.002064 0.000000 -0.001011 0.000000
# 3 -0.001701 -0.002064 0.010726 0.000000 -0.006976 0.000000
# 4 0.000000 0.000000 0.000000 0.031053 0.000000 -0.012178
# 5 0.005319 -0.001011 -0.006976 0.000000 0.047118 0.000000
# 6 0.000000 0.000000 0.000000 -0.012178 0.000000 0.036660
#
#
# Mechanical properties :
#
#
# Convention : Reuss Voigt Hill
#
# Bulk Modulus (GPa) = 54.59129 56.08898 55.34014
# Shear Modulus (GPa) = 30.65649 36.54234 33.59942
#
# Velocity S-wave (km/s) = 3.46377 3.78169 3.62621
# Velocity P-wave (km/s) = 6.11242 6.40462 6.26023
#
# Compressibility (1/GPa) = 0.01831794
#
# Stress axis : x y z
#
# Youngs Moduli (GPa) = 93.19154 113.85463 93.23195
#
# Poissons Ratio (x) = 0.25000 0.15863
# Poissons Ratio (y) = 0.20463 0.19240
# Poissons Ratio (z) = 0.15856 0.23496
#
# Static dielectric constant tensor:
#      x y z
#    x 4.618980 0.000000 0.001620 
#    y 0.000000 4.515310 0.000000 
#    z 0.001620 0.000000 4.760360 
# 
# 
# High freq. dielectric constant tensor:
#      x y z
#    x 2.017320 0.000000 -0.000450 
#    y 0.000000 2.009560 0.000000 
#    z -0.000450 0.000000 2.030800 
# 
# From -- ./inp_files/35418.got.cif
#   From: 2010.06.25/outbox.cif.g09.slc.cpg/sg13_18_cif.got.tgz:35418.got - 2010.06.28 04:50:58.
