data_PCOD8122074
_publ_section_title
;
Structure prediction by ZEFSAII (Michael W. Deem and Ramdas Pophale) SiO2 
 PCOD8122074
Probable space group: P 2/C
;
_chemical_formula_sum "Si O2"
_cell_formula_units_Z 10
_cell_length_a 5.354086
_cell_length_b 11.046096
_cell_length_c 8.655262
_cell_angle_alpha 90.000000
_cell_angle_beta 123.202879
_cell_angle_gamma 90.000000
_cell_volume 428.314960
_symmetry_space_group_name_H-M "P 2/C"
_symmetry_group_IT_number 13
_symmetry_cell_setting 'monoclinic'
loop_
_space_group_symop_operation_xyz
x,y,z
-x,y,1/2-z
-x,-y,-z
x,-y,1/2+z
loop_
_atom_site_type_symbol
_atom_site_label
_atom_site_fract_x
_atom_site_fract_y
_atom_site_fract_z
Si Si1 0.644708 0.885954 0.630338
Si Si2 0.500000 0.526333 0.750000
Si Si3 0.705337 0.331311 0.584820
O O1 0.500000 0.873811 0.750000
O O2 0.563044 0.765908 0.503281
O O3 0.000000 0.899500 0.750000
O O4 0.500000 0.000000 0.500000
O O5 0.672874 0.444411 0.687892
O O6 0.266846 0.613383 0.579023
O O7 0.000000 0.263559 0.750000
#
# Coordination Sequence:
#
# PCOD8122074 Si02
#       3
#     4   2   4
#     4  12  28  49  76 107 146 188 244 301 365 430
#     4  10  24  42  68 106 148 190 242 288 362 426
#     4  11  24  43  72 104 147 189 243 293 362 422
#
# _framework density 23.347303
#
# number of rings (size 3 to 8) (size 9 to 14) (size 15 to 20)
#    0.000    0.800    2.000    3.600    8.400    6.400 
#    0.000    0.000    0.000    0.000    0.000    0.000 
#    0.000    0.000    0.000    0.000    0.000    0.000 
#
# Total GULP energy -123939.312881 kJ/mol
# GULP energy per Si atom -12393.931288 kJ/mol
# Density = 2.329416 g / cm^3
# Si number density = 23.347303 Si / 1000 Ang^3
#
#
#
# Elastic Constant Matrix: (Units=GPa)
#
#
# Indices 1 2 3 4 5 6 
#
# 1 124.9550 35.9394 76.0220 0.0000 23.7376 0.0000
# 2 35.9394 149.5052 85.8664 0.0000 17.3345 0.0000
# 3 76.0220 85.8664 201.1648 0.0000 27.2109 0.0000
# 4 0.0000 0.0000 0.0000 38.5861 0.0000 12.8872
# 5 23.7376 17.3345 27.2109 0.0000 51.8631 0.0000
# 6 0.0000 0.0000 0.0000 12.8872 0.0000 18.6076
#
#
#
# Elastic Compliance Matrix: (Units=1/GPa)
#
#
# Indices 1 2 3 4 5 6 
#
# 1 0.010818 -0.000183 -0.003605 0.000000 -0.002999 0.000000
# 2 -0.000183 0.008918 -0.003601 0.000000 -0.001008 0.000000
# 3 -0.003605 -0.003601 0.008056 0.000000 -0.001373 0.000000
# 4 0.000000 0.000000 0.000000 0.033715 0.000000 -0.023350
# 5 -0.002999 -0.001008 -0.001373 0.000000 0.021712 0.000000
# 6 0.000000 0.000000 0.000000 -0.023350 0.000000 0.069913
#
#
# Mechanical properties :
#
#
# Convention : Reuss Voigt Hill
#
# Bulk Modulus (GPa) = 76.83268 96.80896 86.82082
# Shear Modulus (GPa) = 29.02817 40.33120 34.67968
#
# Velocity S-wave (km/s) = 3.52990 4.16076 3.85825
# Velocity P-wave (km/s) = 7.04227 8.03974 7.55748
#
# Compressibility (1/GPa) = 0.01301530
#
# Stress axis : x y z
#
# Youngs Moduli (GPa) = 92.43677 112.13578 124.12750
#
# Poissons Ratio (x) = 0.02047 0.44744
# Poissons Ratio (y) = 0.01687 0.44701
# Poissons Ratio (z) = 0.33321 0.40383
#
# Static dielectric constant tensor:
#      x y z
#    x 2.371120 0.000000 0.776090 
#    y 0.000000 4.463040 0.000000 
#    z 0.776090 0.000000 4.553470 
# 
# 
# High freq. dielectric constant tensor:
#      x y z
#    x 1.890060 0.000000 -0.002070 
#    y 0.000000 1.939170 0.000000 
#    z -0.002070 0.000000 1.961000 
# 
# From -- ./inp_files/8251.got.cif
#   From: 2010.06.25/outbox.cif.g09.slc.cpg/sg13_5_cif.got.tgz:8251.got - 2010.06.28 04:50:58.
