data_PCOD8122875
_publ_section_title
;
Structure prediction by ZEFSAII (Michael W. Deem and Ramdas Pophale) SiO2 
 PCOD8122875
Probable space group: P 2/C
;
_chemical_formula_sum "Si O2"
_cell_formula_units_Z 20
_cell_length_a 5.258726
_cell_length_b 6.954292
_cell_length_c 24.378795
_cell_angle_alpha 90.000000
_cell_angle_beta 80.425775
_cell_angle_gamma 90.000000
_cell_volume 879.131556
_symmetry_space_group_name_H-M "P 2/C"
_symmetry_group_IT_number 13
_symmetry_cell_setting 'monoclinic'
loop_
_space_group_symop_operation_xyz
x,y,z
-x,y,1/2-z
-x,-y,-z
x,-y,1/2+z
loop_
_atom_site_type_symbol
_atom_site_label
_atom_site_fract_x
_atom_site_fract_y
_atom_site_fract_z
Si Si1 0.582669 0.963863 0.141868
Si Si2 0.486788 0.806554 0.466722
Si Si3 0.826438 0.480158 0.454631
Si Si4 0.000000 0.535579 0.750000
Si Si5 0.500000 0.711696 0.250000
Si Si6 0.080510 0.212412 0.145075
O O1 0.343772 0.092188 0.128307
O O2 0.827212 0.080681 0.154793
O O3 0.670248 0.840376 0.084694
O O4 0.479575 0.836668 0.195631
O O5 0.748410 0.696716 0.437854
O O6 0.397047 0.657966 0.515894
O O7 0.500000 0.000000 0.500000
O O8 0.965509 0.370674 0.400172
O O9 0.000000 0.500000 0.500000
O O10 0.238825 0.411252 0.763797
O O11 0.112411 0.673829 0.699905
#
# Coordination Sequence:
#
# PCOD8122875 Si02
#       6
#     4   4   4   2   2   4
#     4  12  26  45  73  99 142 182 241 282 356 416
#     4  11  24  45  67 104 141 188 233 289 345 419
#     4  11  26  41  71 101 144 185 237 284 354 411
#     4  12  26  46  72 100 144 176 240 290 354 412
#     4  12  26  46  72 104 134 188 232 294 348 424
#     4  12  26  46  70 103 139 187 231 295 346 421
#
# _framework density 22.749725000000002
#
# number of rings (size 3 to 8) (size 9 to 14) (size 15 to 20)
#    0.000    0.400    2.000    6.000    8.400    1.600 
#    0.000    0.000    0.000    0.000    0.000    0.000 
#    0.000    0.000    0.000    0.000    0.000    0.000 
#
# Total GULP energy -247834.780913 kJ/mol
# GULP energy per Si atom -12391.739046 kJ/mol
# Density = 2.269795 g / cm^3
# Si number density = 22.749725 Si / 1000 Ang^3
#
#
#
# Elastic Constant Matrix: (Units=GPa)
#
#
# Indices 1 2 3 4 5 6 
#
# 1 108.0613 27.4161 -10.7038 0.0000 8.2953 0.0000
# 2 27.4161 118.6363 29.8809 0.0000 5.9358 0.0000
# 3 -10.7038 29.8809 131.7326 0.0000 15.2836 0.0000
# 4 0.0000 0.0000 0.0000 43.7223 0.0000 7.8890
# 5 8.2953 5.9358 15.2836 0.0000 34.7705 0.0000
# 6 0.0000 0.0000 0.0000 7.8890 0.0000 6.9390
#
#
#
# Elastic Compliance Matrix: (Units=1/GPa)
#
#
# Indices 1 2 3 4 5 6 
#
# 1 0.010327 -0.002694 0.001773 0.000000 -0.002783 0.000000
# 2 -0.002694 0.009657 -0.002416 0.000000 0.000056 0.000000
# 3 0.001773 -0.002416 0.008730 0.000000 -0.003848 0.000000
# 4 0.000000 0.000000 0.000000 0.028774 0.000000 -0.032713
# 5 -0.002783 0.000056 -0.003848 0.000000 0.031106 0.000000
# 6 0.000000 0.000000 0.000000 -0.032713 0.000000 0.181305
#
#
# Mechanical properties :
#
#
# Convention : Reuss Voigt Hill
#
# Bulk Modulus (GPa) = 45.37148 50.17964 47.77556
# Shear Modulus (GPa) = 17.61066 37.87549 27.74308
#
# Velocity S-wave (km/s) = 2.78529 4.08472 3.49591
# Velocity P-wave (km/s) = 5.50734 6.65971 6.11075
#
# Compressibility (1/GPa) = 0.02204028
#
# Stress axis : x y z
#
# Youngs Moduli (GPa) = 96.83628 103.54819 114.55259
#
# Poissons Ratio (x) = 0.27893 -0.20310
# Poissons Ratio (y) = 0.26085 0.27675
# Poissons Ratio (z) = -0.17169 0.25017
#
# Static dielectric constant tensor:
#      x y z
#    x 3.985100 0.000000 -0.094100 
#    y 0.000000 4.300660 0.000000 
#    z -0.094100 0.000000 4.241340 
# 
# 
# High freq. dielectric constant tensor:
#      x y z
#    x 1.890650 0.000000 0.004480 
#    y 0.000000 1.918710 0.000000 
#    z 0.004480 0.000000 1.919950 
# 
# From -- ./inp_files/89834.got.cif
#   From: 2010.06.25/outbox.cif.g09.slc.cpg/sg13_45_cif.got.tgz:89834.got - 2010.06.28 04:50:58.
