data_PCOD8122652
_publ_section_title
;
Structure prediction by ZEFSAII (Michael W. Deem and Ramdas Pophale) SiO2 
 PCOD8122652
Probable space group: P 2/C
;
_chemical_formula_sum "Si O2"
_cell_formula_units_Z 24
_cell_length_a 9.839091
_cell_length_b 11.869683
_cell_length_c 13.946577
_cell_angle_alpha 90.000000
_cell_angle_beta 135.174561
_cell_angle_gamma 90.000000
_cell_volume 1148.205281
_symmetry_space_group_name_H-M "P 2/C"
_symmetry_group_IT_number 13
_symmetry_cell_setting 'monoclinic'
loop_
_space_group_symop_operation_xyz
x,y,z
-x,y,1/2-z
-x,-y,-z
x,-y,1/2+z
loop_
_atom_site_type_symbol
_atom_site_label
_atom_site_fract_x
_atom_site_fract_y
_atom_site_fract_z
Si Si1 0.045531 0.267182 0.520672
Si Si2 0.660034 0.171154 0.251696
Si Si3 0.329973 0.907914 0.237865
Si Si4 0.432258 0.757393 0.457670
Si Si5 0.866216 0.607569 0.099632
Si Si6 0.626996 0.597194 0.408161
O O1 0.133408 0.152813 0.607956
O O2 0.192914 0.321505 0.519841
O O3 0.850545 0.241322 0.367533
O O4 0.007505 0.358860 0.584054
O O5 0.500000 0.203211 0.250000
O O6 0.708899 0.039761 0.279900
O O7 0.595415 0.207270 0.114077
O O8 0.500000 0.873723 0.250000
O O9 0.388896 0.867480 0.372975
O O10 0.495619 0.652694 0.423870
O O11 0.238157 0.720989 0.415500
O O12 0.000000 0.554246 0.250000
O O13 0.701881 0.521974 0.983540
O O14 0.500000 0.577646 0.250000
#
# Coordination Sequence:
#
# PCOD8122652 Si02
#       6
#     4   4   4   4   4   4
#     4  12  23  46  67  99 136 173 222 279 331 390
#     4  11  26  41  70 103 135 179 219 271 332 407
#     4  11  22  47  70  97 137 179 221 269 340 395
#     4  12  23  46  67  99 136 173 222 279 331 390
#     4  12  26  42  69  99 134 176 227 275 331 396
#     4  12  26  46  71  95 134 182 223 275 335 394
#
# _framework density 20.902187000000001
#
# number of rings (size 3 to 8) (size 9 to 14) (size 15 to 20)
#    0.000    0.333    6.667    2.000    4.667    0.000 
#    0.000    1.667    0.000    0.000    0.000    0.000 
#    0.000    0.000    0.000    0.000    0.000    0.000 
#
# Total GULP energy -297798.422371 kJ/mol
# GULP energy per Si atom -12408.267599 kJ/mol
# Density = 2.085461 g / cm^3
# Si number density = 20.902187 Si / 1000 Ang^3
#
#
#
# Elastic Constant Matrix: (Units=GPa)
#
#
# Indices 1 2 3 4 5 6 
#
# 1 61.8114 12.5664 21.6821 0.0000 -4.9681 0.0000
# 2 12.5664 45.3340 15.4514 0.0000 0.1871 0.0000
# 3 21.6821 15.4514 137.6475 0.0000 -9.7299 0.0000
# 4 0.0000 0.0000 0.0000 40.5632 0.0000 4.6789
# 5 -4.9681 0.1871 -9.7299 0.0000 35.3785 0.0000
# 6 0.0000 0.0000 0.0000 4.6789 0.0000 18.4237
#
#
#
# Elastic Compliance Matrix: (Units=1/GPa)
#
#
# Indices 1 2 3 4 5 6 
#
# 1 0.017973 -0.004234 -0.002219 0.000000 0.001936 0.000000
# 2 -0.004234 0.023958 -0.002115 0.000000 -0.001303 0.000000
# 3 -0.002219 -0.002115 0.007986 0.000000 0.001896 0.000000
# 4 0.000000 0.000000 0.000000 0.025397 0.000000 -0.006450
# 5 0.001936 -0.001303 0.001896 0.000000 0.029066 0.000000
# 6 0.000000 0.000000 0.000000 -0.006450 0.000000 0.055916
#
#
# Mechanical properties :
#
#
# Convention : Reuss Voigt Hill
#
# Bulk Modulus (GPa) = 30.50415 38.24362 34.37388
# Shear Modulus (GPa) = 26.54527 31.87929 29.21228
#
# Velocity S-wave (km/s) = 3.56754 3.90957 3.74247
# Velocity P-wave (km/s) = 5.62096 6.22221 5.92921
#
# Compressibility (1/GPa) = 0.03278242
#
# Stress axis : x y z
#
# Youngs Moduli (GPa) = 55.63916 41.73944 125.22156
#
# Poissons Ratio (x) = 0.17671 0.27786
# Poissons Ratio (y) = 0.23556 0.26479
# Poissons Ratio (z) = 0.12346 0.08826
#
# Static dielectric constant tensor:
#      x y z
#    x 3.883630 0.000000 -0.075260 
#    y 0.000000 3.673400 0.000000 
#    z -0.075260 0.000000 3.872820 
# 
# 
# High freq. dielectric constant tensor:
#      x y z
#    x 1.827400 0.000000 -0.001530 
#    y 0.000000 1.816660 0.000000 
#    z -0.001530 0.000000 1.833490 
# 
# From -- ./inp_files/66689.got.cif
#   From: 2010.06.25/outbox.cif.g09.slc.cpg/sg13_34_cif.got.tgz:66689.got - 2010.06.28 04:50:58.
