data_PCOD8122317
_publ_section_title
;
Structure prediction by ZEFSAII (Michael W. Deem and Ramdas Pophale) SiO2 
 PCOD8122317
Probable space group: P 2/C
;
_chemical_formula_sum "Si O2"
_cell_formula_units_Z 18
_cell_length_a 13.719034
_cell_length_b 5.710767
_cell_length_c 14.436903
_cell_angle_alpha 90.000000
_cell_angle_beta 45.402014
_cell_angle_gamma 90.000000
_cell_volume 805.383905
_symmetry_space_group_name_H-M "P 2/C"
_symmetry_group_IT_number 13
_symmetry_cell_setting 'monoclinic'
loop_
_space_group_symop_operation_xyz
x,y,z
-x,y,1/2-z
-x,-y,-z
x,-y,1/2+z
loop_
_atom_site_type_symbol
_atom_site_label
_atom_site_fract_x
_atom_site_fract_y
_atom_site_fract_z
Si Si1 0.728116 0.403594 0.533928
Si Si2 0.500000 0.715419 0.750000
Si Si3 0.920034 0.749181 0.060963
Si Si4 0.853774 0.755030 0.315124
Si Si5 0.416392 0.981188 0.464025
O O1 0.645546 0.584102 0.652996
O O2 0.812986 0.239262 0.547468
O O3 0.828254 0.515183 0.389607
O O4 0.603407 0.277866 0.562641
O O5 0.489125 0.871373 0.666585
O O6 0.846182 0.728182 0.209494
O O7 0.000000 0.500000 0.000000
O O8 0.000000 0.000000 0.000000
O O9 0.000000 0.856583 0.250000
O O10 0.738822 0.934878 0.422250
O O11 0.500000 0.000000 0.500000
#
# Coordination Sequence:
#
# PCOD8122317 Si02
#       5
#     4   2   4   4   4
#     4  11  26  46  73 105 151 196 255 317 381 462
#     4  10  26  46  68 104 148 190 254 298 388 442
#     4  12  28  48  79 112 152 200 252 318 388 456
#     4  11  25  46  72 108 148 195 255 311 386 456
#     4  11  27  45  74 105 149 200 250 317 379 465
#
# _framework density 22.349588000000001
#
# number of rings (size 3 to 8) (size 9 to 14) (size 15 to 20)
#    0.000    0.889    2.222    2.000   15.556    2.667 
#    0.000    0.000    0.000    0.000    0.000    0.000 
#    0.000    0.000    0.000    0.000    0.000    0.000 
#
# Total GULP energy -223056.918209 kJ/mol
# GULP energy per Si atom -12392.051012 kJ/mol
# Density = 2.229872 g / cm^3
# Si number density = 22.349588 Si / 1000 Ang^3
#
#
#
# Elastic Constant Matrix: (Units=GPa)
#
#
# Indices 1 2 3 4 5 6 
#
# 1 173.2591 45.8415 56.4921 0.0000 17.1491 0.0000
# 2 45.8415 111.8889 53.5606 0.0000 3.7379 0.0000
# 3 56.4921 53.5606 159.7328 0.0000 22.4192 0.0000
# 4 0.0000 0.0000 0.0000 -2.4491 0.0000 28.3588
# 5 17.1491 3.7379 22.4192 0.0000 41.5057 0.0000
# 6 0.0000 0.0000 0.0000 28.3588 0.0000 7.8300
#
#
#
# Elastic Compliance Matrix: (Units=1/GPa)
#
#
# Indices 1 2 3 4 5 6 
#
# 1 0.007003 -0.002081 -0.001514 0.000000 -0.001888 0.000000
# 2 -0.002081 0.011307 -0.003282 0.000000 0.001614 0.000000
# 3 -0.001514 -0.003282 0.008404 0.000000 -0.003618 0.000000
# 4 0.000000 0.000000 0.000000 -0.009509 0.000000 0.034441
# 5 -0.001888 0.001614 -0.003618 0.000000 0.026682 0.000000
# 6 0.000000 0.000000 0.000000 0.034441 0.000000 0.002974
#
#
# Mechanical properties :
#
#
# Convention : Reuss Voigt Hill
#
# Bulk Modulus (GPa) = 77.15955 84.07438 80.61696
# Shear Modulus (GPa) = 76.99881 28.64309 52.82095
#
# Velocity S-wave (km/s) = 5.87595 3.58382 4.86675
# Velocity P-wave (km/s) = 8.97968 7.40436 8.22980
#
# Compressibility (1/GPa) = 0.01296016
#
# Stress axis : x y z
#
# Youngs Moduli (GPa) = 142.79850 88.43818 118.98867
#
# Poissons Ratio (x) = 0.18408 0.18011
# Poissons Ratio (y) = 0.29722 0.39052
# Poissons Ratio (z) = 0.21616 0.29025
#
# Static dielectric constant tensor:
#      x y z
#    x 3.825260 0.000000 0.152150 
#    y 0.000000 4.187010 0.000000 
#    z 0.152150 0.000000 4.250050 
# 
# 
# High freq. dielectric constant tensor:
#      x y z
#    x 1.885060 0.000000 0.009550 
#    y 0.000000 1.881610 0.000000 
#    z 0.009550 0.000000 1.903360 
# 
# From -- ./inp_files/51976.got.cif
#   From: 2010.06.25/outbox.cif.g09.slc.cpg/sg13_26_cif.got.tgz:51976.got - 2010.06.28 04:50:58.
