data_PCOD8122423
_publ_section_title
;
Structure prediction by ZEFSAII (Michael W. Deem and Ramdas Pophale) SiO2 
 PCOD8122423
Probable space group: P 2/C
;
_chemical_formula_sum "Si O2"
_cell_formula_units_Z 26
_cell_length_a 20.122402
_cell_length_b 9.374478
_cell_length_c 9.078301
_cell_angle_alpha 90.000000
_cell_angle_beta 44.913286
_cell_angle_gamma 90.000000
_cell_volume 1209.088858
_symmetry_space_group_name_H-M "P 2/C"
_symmetry_group_IT_number 13
_symmetry_cell_setting 'monoclinic'
loop_
_space_group_symop_operation_xyz
x,y,z
-x,y,1/2-z
-x,-y,-z
x,-y,1/2+z
loop_
_atom_site_type_symbol
_atom_site_label
_atom_site_fract_x
_atom_site_fract_y
_atom_site_fract_z
Si Si1 0.770746 0.278305 0.735400
Si Si2 0.098918 0.541970 0.915361
Si Si3 0.682411 0.089832 0.305875
Si Si4 0.854292 0.942290 0.316817
Si Si5 0.218408 0.765151 0.603607
Si Si6 0.000000 0.769979 0.250000
Si Si7 0.604565 0.831393 0.628994
O O1 0.844481 0.407710 0.611130
O O2 0.823027 0.142303 0.721479
O O3 0.733531 0.235058 0.631927
O O4 0.675660 0.302198 0.982835
O O5 0.165600 0.613974 0.690520
O O6 0.082471 0.664217 0.063983
O O7 0.000000 0.500000 0.000000
O O8 0.702870 0.216705 0.392134
O O9 0.605720 0.133242 0.302159
O O10 0.642505 0.961182 0.467931
O O11 0.779245 0.062548 0.067079
O O12 0.954634 0.876001 0.202300
O O13 0.860016 0.107992 0.259975
O O14 0.500000 0.787093 0.750000
#
# Coordination Sequence:
#
# PCOD8122423 Si02
#       7
#     4   4   4   4   4   2   4
#     4  11  24  42  65  94 136 177 221 275 344 395
#     4  12  26  42  63  94 138 186 229 270 331 408
#     4  11  20  38  66  98 133 170 213 280 343 390
#     4  11  22  41  64  96 134 172 223 282 329 387
#     4  12  23  42  67  95 132 180 224 273 342 397
#     4  12  24  40  62  96 134 180 238 274 320 402
#     4  11  22  40  69 101 133 171 225 280 342 406
#
# _framework density 21.503795
#
# number of rings (size 3 to 8) (size 9 to 14) (size 15 to 20)
#    0.000    0.615    7.692    1.385    0.000    1.846 
#    0.000    0.000    0.000    4.615    0.000    0.000 
#    0.000    0.000    0.000    0.000    0.000    0.000 
#
# Total GULP energy -322129.127578 kJ/mol
# GULP energy per Si atom -12389.581830 kJ/mol
# Density = 2.145485 g / cm^3
# Si number density = 21.503795 Si / 1000 Ang^3
#
#
#
# Elastic Constant Matrix: (Units=GPa)
#
#
# Indices 1 2 3 4 5 6 
#
# 1 158.3797 30.9789 45.9293 0.0000 12.6169 0.0000
# 2 30.9789 77.9544 14.0285 0.0000 2.7403 0.0000
# 3 45.9293 14.0285 55.1222 0.0000 15.0110 0.0000
# 4 0.0000 0.0000 0.0000 29.3912 0.0000 -0.1333
# 5 12.6169 2.7403 15.0110 0.0000 45.5673 0.0000
# 6 0.0000 0.0000 0.0000 -0.1333 0.0000 21.6639
#
#
#
# Elastic Compliance Matrix: (Units=1/GPa)
#
#
# Indices 1 2 3 4 5 6 
#
# 1 0.008688 -0.002254 -0.006643 0.000000 -0.000082 0.000000
# 2 -0.002254 0.014034 -0.001794 0.000000 0.000371 0.000000
# 3 -0.006643 -0.001794 0.025929 0.000000 -0.006594 0.000000
# 4 0.000000 0.000000 0.000000 0.034025 0.000000 0.000209
# 5 -0.000082 0.000371 -0.006594 0.000000 0.024118 0.000000
# 6 0.000000 0.000000 0.000000 0.000209 0.000000 0.046161
#
#
# Mechanical properties :
#
#
# Convention : Reuss Voigt Hill
#
# Bulk Modulus (GPa) = 36.67381 52.59216 44.63298
# Shear Modulus (GPa) = 27.25881 32.69244 29.97563
#
# Velocity S-wave (km/s) = 3.56424 3.90335 3.73764
# Velocity P-wave (km/s) = 5.83352 6.69515 6.27913
#
# Compressibility (1/GPa) = 0.02726742
#
# Stress axis : x y z
#
# Youngs Moduli (GPa) = 115.10406 71.25715 38.56665
#
# Poissons Ratio (x) = 0.16063 0.25620
# Poissons Ratio (y) = 0.25946 0.06920
# Poissons Ratio (z) = 0.76464 0.12787
#
# Static dielectric constant tensor:
#      x y z
#    x 4.131500 0.000000 0.056600 
#    y 0.000000 3.920160 0.000000 
#    z 0.056600 0.000000 4.185280 
# 
# 
# High freq. dielectric constant tensor:
#      x y z
#    x 1.843960 0.000000 0.026940 
#    y 0.000000 1.826850 0.000000 
#    z 0.026940 0.000000 1.839430 
# 
# From -- ./inp_files/22732.got.cif
#   From: 2010.06.25/outbox.cif.g09.slc.cpg/sg13_12_cif.got.tgz:22732.got - 2010.06.28 04:50:58.
