data_PCOD8122128
_publ_section_title
;
Structure prediction by ZEFSAII (Michael W. Deem and Ramdas Pophale) SiO2 
 PCOD8122128
Probable space group: P 2/C
;
_chemical_formula_sum "Si O2"
_cell_formula_units_Z 22
_cell_length_a 19.020505
_cell_length_b 5.332746
_cell_length_c 9.694322
_cell_angle_alpha 90.000000
_cell_angle_beta 68.382185
_cell_angle_gamma 90.000000
_cell_volume 914.145768
_symmetry_space_group_name_H-M "P 2/C"
_symmetry_group_IT_number 13
_symmetry_cell_setting 'monoclinic'
loop_
_space_group_symop_operation_xyz
x,y,z
-x,y,1/2-z
-x,-y,-z
x,-y,1/2+z
loop_
_atom_site_type_symbol
_atom_site_label
_atom_site_fract_x
_atom_site_fract_y
_atom_site_fract_z
Si Si1 0.552107 0.586069 0.838280
Si Si2 0.125824 0.578042 0.007588
Si Si3 0.354175 0.097977 0.717756
Si Si4 0.127900 0.791476 0.725411
Si Si5 0.000000 0.875490 0.250000
Si Si6 0.257300 0.904962 0.033185
O O1 0.500000 0.668132 0.750000
O O2 0.599879 0.837819 0.838525
O O3 0.600508 0.341074 0.761018
O O4 0.500000 0.500000 0.000000
O O5 0.118528 0.301045 0.074032
O O6 0.050253 0.718260 0.108393
O O7 0.203540 0.687904 0.013449
O O8 0.128816 0.570459 0.839191
O O9 0.322458 0.188792 0.590658
O O10 0.290712 0.055898 0.879806
O O11 0.208317 0.924994 0.672925
O O12 0.056363 0.966856 0.807028
#
# Coordination Sequence:
#
# PCOD8122128 Si02
#       6
#     4   4   4   4   2   4
#     4  12  26  48  74 108 144 189 242 296 358 438
#     4  11  25  43  68  98 143 182 247 296 367 430
#     4  12  26  45  76 104 150 191 240 298 370 428
#     4  11  25  43  68  98 143 182 247 298 364 433
#     4  10  24  44  68  98 134 188 238 306 364 424
#     4  11  26  42  66 106 140 191 238 302 361 435
#
# _framework density 24.066184
#
# number of rings (size 3 to 8) (size 9 to 14) (size 15 to 20)
#    0.000    0.727    1.818    4.364    7.636    4.364 
#    0.000    0.000    0.000    0.000    0.000    0.000 
#    0.000    0.000    0.000    0.000    0.000    0.000 
#
# Total GULP energy -272691.669279 kJ/mol
# GULP energy per Si atom -12395.075876 kJ/mol
# Density = 2.401141 g / cm^3
# Si number density = 24.066184 Si / 1000 Ang^3
#
#
#
# Elastic Constant Matrix: (Units=GPa)
#
#
# Indices 1 2 3 4 5 6 
#
# 1 99.2827 20.9783 35.2598 0.0000 -22.3732 0.0000
# 2 20.9783 77.6602 -16.9185 0.0000 -16.1548 0.0000
# 3 35.2598 -16.9185 69.9808 0.0000 6.2783 0.0000
# 4 0.0000 0.0000 0.0000 29.8514 0.0000 10.5810
# 5 -22.3732 -16.1548 6.2783 0.0000 28.5116 0.0000
# 6 0.0000 0.0000 0.0000 10.5810 0.0000 1.5917
#
#
#
# Elastic Compliance Matrix: (Units=1/GPa)
#
#
# Indices 1 2 3 4 5 6 
#
# 1 0.018438 -0.004512 -0.011680 0.000000 0.014483 0.000000
# 2 -0.004512 0.016278 0.005814 0.000000 0.004402 0.000000
# 3 -0.011680 0.005814 0.022552 0.000000 -0.010837 0.000000
# 4 0.000000 0.000000 0.000000 -0.024699 0.000000 0.164192
# 5 0.014483 0.004402 -0.010837 0.000000 0.051319 0.000000
# 6 0.000000 0.000000 0.000000 0.164192 0.000000 -0.463223
#
#
# Mechanical properties :
#
#
# Convention : Reuss Voigt Hill
#
# Bulk Modulus (GPa) = 27.38900 36.17366 31.78133
# Shear Modulus (GPa) = -14.43383 25.83123 5.69870
#
# Velocity S-wave (km/s) = -2.45165 3.27974 1.54048
# Velocity P-wave (km/s) = 1.84155 5.42271 4.04951
#
# Compressibility (1/GPa) = 0.03651101
#
# Stress axis : x y z
#
# Youngs Moduli (GPa) = 54.23699 61.43337 44.34110
#
# Poissons Ratio (x) = 0.27720 0.51791
# Poissons Ratio (y) = 0.24473 -0.25779
# Poissons Ratio (z) = 0.63349 -0.35717
#
# Static dielectric constant tensor:
#      x y z
#    x 4.642780 0.000000 -0.360320 
#    y 0.000000 4.273710 0.000000 
#    z -0.360320 0.000000 4.501460 
# 
# 
# High freq. dielectric constant tensor:
#      x y z
#    x 1.972140 0.000000 -0.006630 
#    y 0.000000 1.945320 0.000000 
#    z -0.006630 0.000000 1.967120 
# 
# From -- ./inp_files/22232.got.cif
#   From: 2010.06.25/outbox.cif.g09.slc.cpg/sg13_12_cif.got.tgz:22232.got - 2010.06.28 04:50:58.
