data_PCOD8122578
_publ_section_title
;
Structure prediction by ZEFSAII (Michael W. Deem and Ramdas Pophale) SiO2 
 PCOD8122578
Probable space group: P 2/C
;
_chemical_formula_sum "Si O2"
_cell_formula_units_Z 28
_cell_length_a 14.490825
_cell_length_b 12.307480
_cell_length_c 8.691021
_cell_angle_alpha 90.000000
_cell_angle_beta 67.575758
_cell_angle_gamma 90.000000
_cell_volume 1432.800773
_symmetry_space_group_name_H-M "P 2/C"
_symmetry_group_IT_number 13
_symmetry_cell_setting 'monoclinic'
loop_
_space_group_symop_operation_xyz
x,y,z
-x,y,1/2-z
-x,-y,-z
x,-y,1/2+z
loop_
_atom_site_type_symbol
_atom_site_label
_atom_site_fract_x
_atom_site_fract_y
_atom_site_fract_z
Si Si1 0.885899 0.433514 0.869725
Si Si2 0.603226 0.643481 0.744085
Si Si3 0.397360 0.589012 0.394116
Si Si4 0.074707 0.954171 0.079288
Si Si5 0.806186 0.635116 0.101829
Si Si6 0.805880 0.246600 0.115865
Si Si7 0.112985 0.814005 0.628134
O O1 0.815733 0.403892 0.770439
O O2 0.000000 0.440359 0.750000
O O3 0.853458 0.549186 0.954215
O O4 0.874469 0.343372 0.008911
O O5 0.500000 0.696867 0.750000
O O6 0.623748 0.537935 0.625884
O O7 0.689818 0.730851 0.653839
O O8 0.598186 0.608880 0.925934
O O9 0.500000 0.627382 0.250000
O O10 0.309201 0.655798 0.367700
O O11 0.000000 0.899641 0.250000
O O12 0.136769 0.057805 0.102012
O O13 0.156516 0.867848 0.975070
O O14 0.000000 0.000000 0.000000
O O15 0.864742 0.750005 0.044854
O O16 0.815302 0.242128 0.293076
O O17 0.000000 0.796952 0.750000
#
# Coordination Sequence:
#
# PCOD8122578 Si02
#       7
#     4   4   4   4   4   4   4
#     4  12  25  37  57  88 134 170 206 246 315 383
#     4  11  23  40  64  93 128 166 212 263 316 379
#     4  11  22  39  64  90 125 165 211 257 310 373
#     4  11  23  42  65  92 123 165 214 260 308 371
#     4  12  23  39  59  91 127 170 204 257 313 379
#     4  12  23  40  64  92 126 164 208 264 317 367
#     4  11  22  40  63  88 127 163 209 257 309 374
#
# _framework density 19.542144
#
# number of rings (size 3 to 8) (size 9 to 14) (size 15 to 20)
#    0.000    0.571    5.714    5.571    4.000    0.000 
#    0.000    0.000    0.000    1.714    0.000    0.000 
#    0.000    0.000    0.000    0.000    0.000    0.000 
#
# Total GULP energy -347200.521327 kJ/mol
# GULP energy per Si atom -12400.018619 kJ/mol
# Density = 1.949766 g / cm^3
# Si number density = 19.542144 Si / 1000 Ang^3
#
#
#
# Elastic Constant Matrix: (Units=GPa)
#
#
# Indices 1 2 3 4 5 6 
#
# 1 117.7583 35.8705 34.0461 0.0000 -7.8411 0.0000
# 2 35.8705 92.4183 34.9438 0.0000 -17.8412 0.0000
# 3 34.0461 34.9438 91.3450 0.0000 1.6011 0.0000
# 4 0.0000 0.0000 0.0000 29.7858 0.0000 -2.3735
# 5 -7.8411 -17.8412 1.6011 0.0000 37.2521 0.0000
# 6 0.0000 0.0000 0.0000 -2.3735 0.0000 28.5952
#
#
#
# Elastic Compliance Matrix: (Units=1/GPa)
#
#
# Indices 1 2 3 4 5 6 
#
# 1 0.010186 -0.002720 -0.002773 0.000000 0.000961 0.000000
# 2 -0.002720 0.015032 -0.004857 0.000000 0.006836 0.000000
# 3 -0.002773 -0.004857 0.013900 0.000000 -0.003507 0.000000
# 4 0.000000 0.000000 0.000000 0.033797 0.000000 0.002805
# 5 0.000961 0.006836 -0.003507 0.000000 0.030471 0.000000
# 6 0.000000 0.000000 0.000000 0.002805 0.000000 0.035204
#
#
# Mechanical properties :
#
#
# Convention : Reuss Voigt Hill
#
# Bulk Modulus (GPa) = 54.28890 56.80471 55.54681
# Shear Modulus (GPa) = 30.22467 32.23737 31.23102
#
# Velocity S-wave (km/s) = 3.93700 4.06597 4.00201
# Velocity P-wave (km/s) = 6.96472 7.15358 7.05979
#
# Compressibility (1/GPa) = 0.01841997
#
# Stress axis : x y z
#
# Youngs Moduli (GPa) = 98.17305 66.52568 71.94039
#
# Poissons Ratio (x) = 0.18092 0.19949
# Poissons Ratio (y) = 0.26699 0.34938
# Poissons Ratio (z) = 0.27224 0.32308
#
# Static dielectric constant tensor:
#      x y z
#    x 3.797070 0.000000 0.076310 
#    y 0.000000 3.758890 0.000000 
#    z 0.076310 0.000000 3.942460 
# 
# 
# High freq. dielectric constant tensor:
#      x y z
#    x 1.761440 0.000000 0.007060 
#    y 0.000000 1.739370 0.000000 
#    z 0.007060 0.000000 1.779020 
# 
# From -- ./inp_files/18747.got.cif
#   From: 2010.06.25/outbox.cif.g09.slc.cpg/sg13_10_cif.got.tgz:18747.got - 2010.06.28 04:50:58.
