data_PCOD8122433
_publ_section_title
;
Structure prediction by ZEFSAII (Michael W. Deem and Ramdas Pophale) SiO2 
 PCOD8122433
Probable space group: P 2/C
;
_chemical_formula_sum "Si O2"
_cell_formula_units_Z 32
_cell_length_a 12.075279
_cell_length_b 13.032247
_cell_length_c 14.334131
_cell_angle_alpha 90.000000
_cell_angle_beta 43.627281
_cell_angle_gamma 90.000000
_cell_volume 1556.375731
_symmetry_space_group_name_H-M "P 2/C"
_symmetry_group_IT_number 13
_symmetry_cell_setting 'monoclinic'
loop_
_space_group_symop_operation_xyz
x,y,z
-x,y,1/2-z
-x,-y,-z
x,-y,1/2+z
loop_
_atom_site_type_symbol
_atom_site_label
_atom_site_fract_x
_atom_site_fract_y
_atom_site_fract_z
Si Si1 0.350727 0.935408 0.407611
Si Si2 0.907091 0.527405 0.149156
Si Si3 0.441388 0.217583 0.007490
Si Si4 0.112038 0.308442 0.263542
Si Si5 0.628262 0.646178 0.246360
Si Si6 0.108152 0.797026 0.464852
Si Si7 0.955648 0.257877 0.878217
Si Si8 0.385251 0.827497 0.905740
O O1 0.500000 0.906093 0.250000
O O2 0.378484 0.882734 0.490962
O O3 0.181919 0.899860 0.464090
O O4 0.328571 0.055691 0.432292
O O5 0.908721 0.430410 0.215595
O O6 0.721185 0.552318 0.238199
O O7 0.994726 0.623044 0.144464
O O8 0.000000 0.500000 0.000000
O O9 0.554469 0.284018 0.872197
O O10 0.295234 0.287357 0.129347
O O11 0.533258 0.183511 0.043778
O O12 0.000000 0.267100 0.250000
O O13 0.055315 0.244251 0.388218
O O14 0.500000 0.603377 0.250000
O O15 0.754197 0.711103 0.107925
O O16 0.059381 0.811756 0.386599
O O17 0.000000 0.214644 0.750000
O O18 0.766114 0.247808 0.010373
O O19 0.500000 0.797434 0.750000
#
# Coordination Sequence:
#
# PCOD8122433 Si02
#       8
#     4   4   4   4   4   4   4   4
#     4  11  22  42  72  98 128 179 218 270 332 391
#     4  11  24  42  67  93 132 180 217 271 337 396
#     4  12  23  42  69  99 135 168 222 277 324 392
#     4  12  23  40  67  99 133 167 218 280 329 385
#     4  11  20  41  70  93 127 175 223 266 330 394
#     4  11  20  42  69  92 130 173 220 263 330 393
#     4  11  24  45  68  93 133 178 215 272 332 391
#     4  11  26  44  64  99 138 174 215 272 335 389
#
# _framework density 20.560587999999999
#
# number of rings (size 3 to 8) (size 9 to 14) (size 15 to 20)
#    0.000    0.750    6.250    3.000    0.000    1.000 
#    4.500    0.000    0.000    0.000    0.000    0.000 
#    0.000    0.000    0.000    0.000    0.000    0.000 
#
# Total GULP energy -396878.869302 kJ/mol
# GULP energy per Si atom -12402.464666 kJ/mol
# Density = 2.051379 g / cm^3
# Si number density = 20.560588 Si / 1000 Ang^3
#
#
#
# Elastic Constant Matrix: (Units=GPa)
#
#
# Indices 1 2 3 4 5 6 
#
# 1 150.9355 43.8421 31.7901 0.0000 9.7068 0.0000
# 2 43.8421 76.5586 35.6834 0.0000 -1.7722 0.0000
# 3 31.7901 35.6834 99.3861 0.0000 2.1976 0.0000
# 4 0.0000 0.0000 0.0000 20.2822 0.0000 -7.8007
# 5 9.7068 -1.7722 2.1976 0.0000 33.0259 0.0000
# 6 0.0000 0.0000 0.0000 -7.8007 0.0000 13.1712
#
#
#
# Elastic Compliance Matrix: (Units=1/GPa)
#
#
# Indices 1 2 3 4 5 6 
#
# 1 0.008262 -0.004307 -0.001039 0.000000 -0.002590 0.000000
# 2 -0.004307 0.017981 -0.005135 0.000000 0.002572 0.000000
# 3 -0.001039 -0.005135 0.012255 0.000000 -0.000786 0.000000
# 4 0.000000 0.000000 0.000000 0.063848 0.000000 0.037814
# 5 -0.002590 0.002572 -0.000786 0.000000 0.031231 0.000000
# 6 0.000000 0.000000 0.000000 0.037814 0.000000 0.098318
#
#
# Mechanical properties :
#
#
# Convention : Reuss Voigt Hill
#
# Bulk Modulus (GPa) = 57.02547 61.05682 59.04115
# Shear Modulus (GPa) = 19.32717 27.66684 23.49700
#
# Velocity S-wave (km/s) = 3.06928 3.67226 3.38423
# Velocity P-wave (km/s) = 6.35265 6.90950 6.63692
#
# Compressibility (1/GPa) = 0.01753602
#
# Stress axis : x y z
#
# Youngs Moduli (GPa) = 121.03919 55.61326 81.59769
#
# Poissons Ratio (x) = 0.23952 0.08478
# Poissons Ratio (y) = 0.52130 0.41902
# Poissons Ratio (z) = 0.12577 0.28559
#
# Static dielectric constant tensor:
#      x y z
#    x 4.006000 0.000000 -0.000900 
#    y 0.000000 3.707900 0.000000 
#    z -0.000900 0.000000 3.916260 
# 
# 
# High freq. dielectric constant tensor:
#      x y z
#    x 1.820660 0.000000 0.003300 
#    y 0.000000 1.785570 0.000000 
#    z 0.003300 0.000000 1.813730 
# 
# From -- ./inp_files/51466.got.cif
#   From: 2010.06.25/outbox.cif.g09.slc.cpg/sg13_26_cif.got.tgz:51466.got - 2010.06.28 04:50:58.
