data_PCOD8122188
_publ_section_title
;
Structure prediction by ZEFSAII (Michael W. Deem and Ramdas Pophale) SiO2 
 PCOD8122188
Probable space group: P 2/C
;
_chemical_formula_sum "Si O2"
_cell_formula_units_Z 26
_cell_length_a 13.801877
_cell_length_b 13.884933
_cell_length_c 9.057890
_cell_angle_alpha 90.000000
_cell_angle_beta 41.530864
_cell_angle_gamma 90.000000
_cell_volume 1150.900658
_symmetry_space_group_name_H-M "P 2/C"
_symmetry_group_IT_number 13
_symmetry_cell_setting 'monoclinic'
loop_
_space_group_symop_operation_xyz
x,y,z
-x,y,1/2-z
-x,-y,-z
x,-y,1/2+z
loop_
_atom_site_type_symbol
_atom_site_label
_atom_site_fract_x
_atom_site_fract_y
_atom_site_fract_z
Si Si1 0.275333 0.880668 0.152098
Si Si2 0.825802 0.960676 0.940100
Si Si3 0.293566 0.402506 0.552391
Si Si4 0.040767 0.725538 0.364811
Si Si5 0.641558 0.595120 0.184997
Si Si6 0.148932 0.245252 0.167226
Si Si7 0.500000 0.757581 0.750000
O O1 0.259531 0.950917 0.308220
O O2 0.146152 0.803428 0.321140
O O3 0.250909 0.945318 0.036632
O O4 0.433852 0.826267 0.955972
O O5 0.789397 0.863531 0.889154
O O6 0.000000 0.978974 0.750000
O O7 0.123739 0.377259 0.770823
O O8 0.292641 0.497499 0.455412
O O9 0.379358 0.415473 0.612523
O O10 0.366008 0.316563 0.369315
O O11 0.000000 0.761586 0.250000
O O12 0.888621 0.714560 0.627088
O O13 0.500000 0.619234 0.250000
O O14 0.744766 0.685883 0.043172
O O15 0.000000 0.240592 0.250000
#
# Coordination Sequence:
#
# PCOD8122188 Si02
#       7
#     4   4   4   4   4   4   2
#     4  11  23  41  67  96 133 176 227 271 345 396
#     4  11  22  41  66  96 132 177 215 286 332 404
#     4  11  25  46  68  97 134 176 230 279 337 404
#     4  11  24  41  68 101 131 180 226 282 337 401
#     4  12  26  44  70  98 132 183 226 276 341 410
#     4  11  22  45  66  94 141 175 221 284 338 388
#     4  10  24  46  68  86 140 178 216 284 334 406
#
# _framework density 22.591003000000001
#
# number of rings (size 3 to 8) (size 9 to 14) (size 15 to 20)
#    0.000    0.923    5.385    2.308    4.308    3.077 
#    1.385    0.000    0.000    0.000    0.000    0.000 
#    0.000    0.000    0.000    0.000    0.000    0.000 
#
# Total GULP energy -322160.262401 kJ/mol
# GULP energy per Si atom -12390.779323 kJ/mol
# Density = 2.253959 g / cm^3
# Si number density = 22.591003 Si / 1000 Ang^3
#
#
#
# Elastic Constant Matrix: (Units=GPa)
#
#
# Indices 1 2 3 4 5 6 
#
# 1 54.5748 22.1209 10.8982 0.0000 13.9713 0.0000
# 2 22.1209 118.6256 23.1906 0.0000 -5.4557 0.0000
# 3 10.8982 23.1906 54.8981 0.0000 20.9971 0.0000
# 4 0.0000 0.0000 0.0000 37.2932 0.0000 3.6469
# 5 13.9713 -5.4557 20.9971 0.0000 25.5386 0.0000
# 6 0.0000 0.0000 0.0000 3.6469 0.0000 22.9857
#
#
#
# Elastic Compliance Matrix: (Units=1/GPa)
#
#
# Indices 1 2 3 4 5 6 
#
# 1 0.024872 -0.006541 0.005199 0.000000 -0.019279 0.000000
# 2 -0.006541 0.012018 -0.008940 0.000000 0.013496 0.000000
# 3 0.005199 -0.008940 0.033227 0.000000 -0.032073 0.000000
# 4 0.000000 0.000000 0.000000 0.027237 0.000000 -0.004321
# 5 -0.019279 0.013496 -0.032073 0.000000 0.078955 0.000000
# 6 0.000000 0.000000 0.000000 -0.004321 0.000000 0.044191
#
#
# Mechanical properties :
#
#
# Convention : Reuss Voigt Hill
#
# Bulk Modulus (GPa) = 20.18047 37.83531 29.00789
# Shear Modulus (GPa) = 19.41127 28.62277 24.01702
#
# Velocity S-wave (km/s) = 2.93447 3.56335 3.26409
# Velocity P-wave (km/s) = 4.52038 5.80640 5.20328
#
# Compressibility (1/GPa) = 0.04955286
#
# Stress axis : x y z
#
# Youngs Moduli (GPa) = 40.20594 83.20763 30.09601
#
# Poissons Ratio (x) = 0.54427 -0.15648
# Poissons Ratio (y) = 0.26299 0.26907
# Poissons Ratio (z) = -0.20904 0.74390
#
# Static dielectric constant tensor:
#      x y z
#    x 3.757670 0.000000 -0.012320 
#    y 0.000000 4.223450 0.000000 
#    z -0.012320 0.000000 4.778200 
# 
# 
# High freq. dielectric constant tensor:
#      x y z
#    x 1.850760 0.000000 0.010260 
#    y 0.000000 1.903940 0.000000 
#    z 0.010260 0.000000 1.908360 
# 
# From -- ./inp_files/19818.got.cif
#   From: 2010.06.25/outbox.cif.g09.slc.cpg/sg13_10_cif.got.tgz:19818.got - 2010.06.28 04:50:58.
