data_PCOD8122606
_publ_section_title
;
Structure prediction by ZEFSAII (Michael W. Deem and Ramdas Pophale) SiO2 
 PCOD8122606
Probable space group: P 2/C
;
_chemical_formula_sum "Si O2"
_cell_formula_units_Z 18
_cell_length_a 8.571068
_cell_length_b 9.653587
_cell_length_c 9.626425
_cell_angle_alpha 90.000000
_cell_angle_beta 92.142489
_cell_angle_gamma 90.000000
_cell_volume 795.948530
_symmetry_space_group_name_H-M "P 2/C"
_symmetry_group_IT_number 13
_symmetry_cell_setting 'monoclinic'
loop_
_space_group_symop_operation_xyz
x,y,z
-x,y,1/2-z
-x,-y,-z
x,-y,1/2+z
loop_
_atom_site_type_symbol
_atom_site_label
_atom_site_fract_x
_atom_site_fract_y
_atom_site_fract_z
Si Si1 0.338157 0.549673 0.055798
Si Si2 0.689479 0.840680 0.348882
Si Si3 0.000000 0.091361 0.750000
Si Si4 0.185299 0.352124 0.275380
Si Si5 0.274407 0.058031 0.358122
O O1 0.380555 0.687265 0.147263
O O2 0.262577 0.436732 0.153186
O O3 0.500000 0.500000 0.000000
O O4 0.218222 0.579785 0.926728
O O5 0.653117 0.924470 0.488265
O O6 0.374194 0.062181 0.779674
O O7 0.877854 0.817536 0.335868
O O8 0.904427 0.994874 0.638687
O O9 0.270478 0.202641 0.273506
O O10 0.000000 0.342055 0.250000
#
# Coordination Sequence:
#
# PCOD8122606 Si02
#       5
#     4   4   2   4   4
#     4  11  25  42  60  89 134 176 209 258 323 378
#     4   9  19  33  58  88 123 163 202 253 314 373
#     4   8  16  30  56  88 130 142 206 252 322 344
#     4  11  22  41  65  94 124 167 219 265 311 376
#     4   9  18  33  57  92 128 152 203 266 319 353
#
# _framework density 22.614526000000001
#
# number of rings (size 3 to 8) (size 9 to 14) (size 15 to 20)
#    1.333    0.889    1.111    2.000    1.556    1.778 
#    0.000    1.111    0.000    2.667    0.000    0.000 
#    0.000    0.000    0.000    0.000    0.000    0.000 
#
# Total GULP energy -222990.978627 kJ/mol
# GULP energy per Si atom -12388.387702 kJ/mol
# Density = 2.256305 g / cm^3
# Si number density = 22.614526 Si / 1000 Ang^3
#
#
#
# Elastic Constant Matrix: (Units=GPa)
#
#
# Indices 1 2 3 4 5 6 
#
# 1 40.9474 2.1570 24.5141 0.0000 -4.9162 0.0000
# 2 2.1570 120.6219 66.6657 0.0000 -23.4146 0.0000
# 3 24.5141 66.6657 121.7199 0.0000 -12.3148 0.0000
# 4 0.0000 0.0000 0.0000 -57.6762 0.0000 -77.9504
# 5 -4.9162 -23.4146 -12.3148 0.0000 33.5255 0.0000
# 6 0.0000 0.0000 0.0000 -77.9504 0.0000 -32.5488
#
#
#
# Elastic Compliance Matrix: (Units=1/GPa)
#
#
# Indices 1 2 3 4 5 6 
#
# 1 0.029631 0.004917 -0.008177 0.000000 0.004775 0.000000
# 2 0.004917 0.014061 -0.007919 0.000000 0.007632 0.000000
# 3 -0.008177 -0.007919 0.014041 0.000000 -0.001572 0.000000
# 4 0.000000 0.000000 0.000000 0.007752 0.000000 -0.018564
# 5 0.004775 0.007632 -0.001572 0.000000 0.035281 0.000000
# 6 0.000000 0.000000 0.000000 -0.018564 0.000000 0.013736
#
#
# Mechanical properties :
#
#
# Convention : Reuss Voigt Hill
#
# Bulk Modulus (GPa) = 28.27004 52.21810 40.24407
# Shear Modulus (GPa) = 33.63559 1.32360 17.47959
#
# Velocity S-wave (km/s) = 3.86079 0.76587 2.78319
# Velocity P-wave (km/s) = 5.69230 4.89109 5.30684
#
# Compressibility (1/GPa) = 0.03537314
#
# Stress axis : x y z
#
# Youngs Moduli (GPa) = 33.74791 71.12026 71.22189
#
# Poissons Ratio (x) = -0.34967 0.58241
# Poissons Ratio (y) = -0.16592 0.56401
# Poissons Ratio (z) = 0.27597 0.56320
#
# Static dielectric constant tensor:
#      x y z
#    x 3.959780 0.000000 0.107860 
#    y 0.000000 4.112550 0.000000 
#    z 0.107860 0.000000 4.074410 
# 
# 
# High freq. dielectric constant tensor:
#      x y z
#    x 1.892720 0.000000 -0.001270 
#    y 0.000000 1.892240 0.000000 
#    z -0.001270 0.000000 1.892600 
# 
# From -- ./inp_files/11612.got.cif
#   From: 2010.06.25/outbox.cif.g09.slc.cpg/sg13_6_cif.got.tgz:11612.got - 2010.06.28 04:50:58.
