data_PCOD8122155
_publ_section_title
;
Structure prediction by ZEFSAII (Michael W. Deem and Ramdas Pophale) SiO2 
 PCOD8122155
Probable space group: P 2/C
;
_chemical_formula_sum "Si O2"
_cell_formula_units_Z 14
_cell_length_a 12.894956
_cell_length_b 10.208887
_cell_length_c 13.293373
_cell_angle_alpha 90.000000
_cell_angle_beta 158.587364
_cell_angle_gamma 90.000000
_cell_volume 638.886931
_symmetry_space_group_name_H-M "P 2/C"
_symmetry_group_IT_number 13
_symmetry_cell_setting 'monoclinic'
loop_
_space_group_symop_operation_xyz
x,y,z
-x,y,1/2-z
-x,-y,-z
x,-y,1/2+z
loop_
_atom_site_type_symbol
_atom_site_label
_atom_site_fract_x
_atom_site_fract_y
_atom_site_fract_z
Si Si1 0.403662 0.226217 0.558035
Si Si2 0.996707 0.849457 0.524147
Si Si3 0.813591 0.298767 0.494873
Si Si4 0.000000 0.452776 0.250000
O O1 0.500000 0.156491 0.750000
O O2 0.687607 0.220204 0.746754
O O3 0.278642 0.370039 0.469925
O O4 0.147909 0.154513 0.269613
O O5 0.171597 0.768094 0.600168
O O6 0.000000 0.000000 0.500000
O O7 0.500000 0.287841 0.250000
O O8 0.913275 0.452002 0.578113
O O9 0.000000 0.225582 0.750000
#
# Coordination Sequence:
#
# PCOD8122155 Si02
#       4
#     4   4   4   2
#     4  12  24  47  70 105 137 183 228 295 341 410
#     4  12  27  45  72 105 138 190 235 274 353 415
#     4  10  24  45  68 102 139 179 230 296 340 407
#     4  10  24  46  70 100 144 176 242 270 376 380
#
# _framework density 21.91311
#
# number of rings (size 3 to 8) (size 9 to 14) (size 15 to 20)
#    0.857    0.000    2.857    3.429    0.000    5.714 
#    0.000    0.000    0.000    0.000    0.000    0.000 
#    0.000    0.000    0.000    0.000    0.000    0.000 
#
# Total GULP energy -173440.623550 kJ/mol
# GULP energy per Si atom -12388.615968 kJ/mol
# Density = 2.186324 g / cm^3
# Si number density = 21.913110 Si / 1000 Ang^3
#
#
#
# Elastic Constant Matrix: (Units=GPa)
#
#
# Indices 1 2 3 4 5 6 
#
# 1 85.5648 74.0575 34.0752 0.0000 8.9015 0.0000
# 2 74.0575 146.2047 56.6600 0.0000 0.1388 0.0000
# 3 34.0752 56.6600 151.6391 0.0000 4.2448 0.0000
# 4 0.0000 0.0000 0.0000 17.4327 0.0000 -9.9322
# 5 8.9015 0.1388 4.2448 0.0000 57.5113 0.0000
# 6 0.0000 0.0000 0.0000 -9.9322 0.0000 31.2323
#
#
#
# Elastic Compliance Matrix: (Units=1/GPa)
#
#
# Indices 1 2 3 4 5 6 
#
# 1 0.021495 -0.010580 -0.000786 0.000000 -0.003243 0.000000
# 2 -0.010580 0.013208 -0.002608 0.000000 0.001798 0.000000
# 3 -0.000786 -0.002608 0.007758 0.000000 -0.000445 0.000000
# 4 0.000000 0.000000 0.000000 0.070057 0.000000 0.022279
# 5 -0.003243 0.001798 -0.000445 0.000000 0.017918 0.000000
# 6 0.000000 0.000000 0.000000 0.022279 0.000000 0.039103
#
#
# Mechanical properties :
#
#
# Convention : Reuss Voigt Hill
#
# Bulk Modulus (GPa) = 68.90631 79.22155 74.06393
# Shear Modulus (GPa) = 24.71277 35.80965 30.26121
#
# Velocity S-wave (km/s) = 3.36186 4.04687 3.72016
# Velocity P-wave (km/s) = 6.82517 7.62019 7.23361
#
# Compressibility (1/GPa) = 0.01451246
#
# Stress axis : x y z
#
# Youngs Moduli (GPa) = 46.52311 75.71241 128.89628
#
# Poissons Ratio (x) = 0.80104 0.10132
# Poissons Ratio (y) = 0.49222 0.33616
# Poissons Ratio (z) = 0.03657 0.19746
#
# Static dielectric constant tensor:
#      x y z
#    x 6.101020 0.000000 -2.358120 
#    y 0.000000 3.741890 0.000000 
#    z -2.358120 0.000000 6.711130 
# 
# 
# High freq. dielectric constant tensor:
#      x y z
#    x 1.858350 0.000000 0.003960 
#    y 0.000000 1.838100 0.000000 
#    z 0.003960 0.000000 1.891560 
# 
# From -- ./inp_files/33495.got.cif
#   From: 2010.06.25/outbox.cif.g09.slc.cpg/sg13_17_cif.got.tgz:33495.got - 2010.06.28 04:50:58.
