data_PCOD8122334
_publ_section_title
;
Structure prediction by ZEFSAII (Michael W. Deem and Ramdas Pophale) SiO2 
 PCOD8122334
Probable space group: P 2/C
;
_chemical_formula_sum "Si O2"
_cell_formula_units_Z 18
_cell_length_a 6.961075
_cell_length_b 6.183889
_cell_length_c 21.547011
_cell_angle_alpha 90.000000
_cell_angle_beta 59.947062
_cell_angle_gamma 90.000000
_cell_volume 802.830285
_symmetry_space_group_name_H-M "P 2/C"
_symmetry_group_IT_number 13
_symmetry_cell_setting 'monoclinic'
loop_
_space_group_symop_operation_xyz
x,y,z
-x,y,1/2-z
-x,-y,-z
x,-y,1/2+z
loop_
_atom_site_type_symbol
_atom_site_label
_atom_site_fract_x
_atom_site_fract_y
_atom_site_fract_z
Si Si1 0.772527 0.610161 0.024675
Si Si2 0.712981 0.905524 0.929807
Si Si3 0.810450 0.920125 0.127535
Si Si4 0.496720 0.292639 0.356590
Si Si5 0.500000 0.391719 0.750000
O O1 0.762872 0.829218 0.066751
O O2 0.586848 0.437779 0.072574
O O3 0.760860 0.675298 0.954671
O O4 0.000000 0.500000 0.000000
O O5 0.673008 0.866187 0.862197
O O6 0.927113 0.061639 0.900842
O O7 0.500000 0.000000 0.000000
O O8 0.704049 0.757784 0.195150
O O9 0.694605 0.155395 0.147564
O O10 0.596956 0.455361 0.289147
#
# Coordination Sequence:
#
# PCOD8122334 Si02
#       5
#     4   4   4   4   2
#     4  11  21  40  71 103 139 172 216 279 355 410
#     4  12  23  41  76 109 138 172 224 287 358 407
#     4  11  23  45  69  98 139 183 222 290 337 405
#     4  11  23  44  70  98 135 184 228 285 332 415
#     4  10  26  48  70  86 138 194 242 272 338 402
#
# _framework density 22.420680000000001
#
# number of rings (size 3 to 8) (size 9 to 14) (size 15 to 20)
#    0.000    0.889    4.444    3.333    0.000    0.000 
#    0.000    6.667    0.000    0.000    0.000    0.000 
#    0.000    0.000    0.000    0.000    0.000    0.000 
#
# Total GULP energy -223137.030262 kJ/mol
# GULP energy per Si atom -12396.501681 kJ/mol
# Density = 2.236965 g / cm^3
# Si number density = 22.420680 Si / 1000 Ang^3
#
#
#
# Elastic Constant Matrix: (Units=GPa)
#
#
# Indices 1 2 3 4 5 6 
#
# 1 126.5715 42.8498 48.7428 0.0000 -5.0208 0.0000
# 2 42.8498 103.0004 42.8873 0.0000 -2.2614 0.0000
# 3 48.7428 42.8873 100.5653 0.0000 2.2140 0.0000
# 4 0.0000 0.0000 0.0000 41.9217 0.0000 -1.1576
# 5 -5.0208 -2.2614 2.2140 0.0000 28.8952 0.0000
# 6 0.0000 0.0000 0.0000 -1.1576 0.0000 42.4275
#
#
#
# Elastic Compliance Matrix: (Units=1/GPa)
#
#
# Indices 1 2 3 4 5 6 
#
# 1 0.010391 -0.002634 -0.003955 0.000000 0.001902 0.000000
# 2 -0.002634 0.012523 -0.004082 0.000000 0.000835 0.000000
# 3 -0.003955 -0.004082 0.013647 0.000000 -0.002052 0.000000
# 4 0.000000 0.000000 0.000000 0.023872 0.000000 0.000651
# 5 0.001902 0.000835 -0.002052 0.000000 0.035161 0.000000
# 6 0.000000 0.000000 0.000000 0.000651 0.000000 0.023587
#
#
# Mechanical properties :
#
#
# Convention : Reuss Voigt Hill
#
# Bulk Modulus (GPa) = 65.71183 66.56633 66.13908
# Shear Modulus (GPa) = 34.34172 35.69269 35.01721
#
# Velocity S-wave (km/s) = 3.91794 3.99426 3.95628
# Velocity P-wave (km/s) = 7.05969 7.14327 7.10160
#
# Compressibility (1/GPa) = 0.01521796
#
# Stress axis : x y z
#
# Youngs Moduli (GPa) = 96.23729 79.85555 73.27811
#
# Poissons Ratio (x) = 0.21037 0.28980
# Poissons Ratio (y) = 0.25352 0.29912
# Poissons Ratio (z) = 0.38060 0.32597
#
# Static dielectric constant tensor:
#      x y z
#    x 3.700920 0.000000 -0.193650 
#    y 0.000000 3.962580 0.000000 
#    z -0.193650 0.000000 3.698680 
# 
# 
# High freq. dielectric constant tensor:
#      x y z
#    x 1.874920 0.000000 0.008290 
#    y 0.000000 1.899950 0.000000 
#    z 0.008290 0.000000 1.870200 
# 
# From -- ./inp_files/82984.got.cif
#   From: 2010.06.25/outbox.cif.g09.slc.cpg/sg13_42_cif.got.tgz:82984.got - 2010.06.28 04:50:58.
