data_PCOD8122994
_publ_section_title
;
Structure prediction by ZEFSAII (Michael W. Deem and Ramdas Pophale) SiO2 
 PCOD8122994
Probable space group: P 2/C
;
_chemical_formula_sum "Si O2"
_cell_formula_units_Z 32
_cell_length_a 11.516131
_cell_length_b 13.316689
_cell_length_c 10.004448
_cell_angle_alpha 90.000000
_cell_angle_beta 112.858010
_cell_angle_gamma 90.000000
_cell_volume 1413.765380
_symmetry_space_group_name_H-M "P 2/C"
_symmetry_group_IT_number 13
_symmetry_cell_setting 'monoclinic'
loop_
_space_group_symop_operation_xyz
x,y,z
-x,y,1/2-z
-x,-y,-z
x,-y,1/2+z
loop_
_atom_site_type_symbol
_atom_site_label
_atom_site_fract_x
_atom_site_fract_y
_atom_site_fract_z
Si Si1 0.920318 0.051852 0.348510
Si Si2 0.487995 0.307586 0.401753
Si Si3 0.891065 0.712563 0.880944
Si Si4 0.243671 0.625552 0.430959
Si Si5 0.248085 0.393448 0.413629
Si Si6 0.844958 0.703083 0.381471
Si Si7 0.469677 0.107489 0.541004
Si Si8 0.285233 0.098540 0.687058
O O1 0.895562 0.168721 0.360334
O O2 0.000000 0.033771 0.250000
O O3 0.779295 0.002681 0.283844
O O4 0.000000 0.000000 0.500000
O O5 0.500000 0.315284 0.250000
O O6 0.612132 0.345337 0.533547
O O7 0.380460 0.384427 0.398457
O O8 0.448997 0.193351 0.421215
O O9 0.859453 0.656657 0.728002
O O10 0.790210 0.686031 0.949868
O O11 0.023376 0.672213 0.993907
O O12 0.219687 0.508018 0.436690
O O13 0.160066 0.656674 0.267429
O O14 0.259977 0.338203 0.562458
O O15 0.828571 0.822099 0.360153
O O16 0.338671 0.089848 0.561015
O O17 0.594335 0.139043 0.678146
O O18 0.500000 0.000000 0.500000
#
# Coordination Sequence:
#
# PCOD8122994 Si02
#       8
#     4   4   4   4   4   4   4   4
#     4  12  29  47  77 109 151 201 245 300 369 456
#     4  12  26  48  74 105 148 194 247 311 379 450
#     4  12  28  49  74 114 153 197 249 308 369 444
#     4  12  28  48  76 108 147 199 251 313 370 444
#     4  12  27  49  75 107 150 196 254 312 377 430
#     4  12  25  46  77 104 150 193 249 303 368 453
#     4  11  27  44  71 107 144 191 241 311 376 441
#     4  11  26  46  71 107 143 192 243 302 372 446
#
# _framework density 22.634589999999999
#
# number of rings (size 3 to 8) (size 9 to 14) (size 15 to 20)
#    0.000    0.250    5.000    2.625    8.750    3.500 
#    0.000    0.000    0.000    0.000    0.000    0.000 
#    0.000    0.000    0.000    0.000    0.000    0.000 
#
# Total GULP energy -396857.904239 kJ/mol
# GULP energy per Si atom -12401.809507 kJ/mol
# Density = 2.258307 g / cm^3
# Si number density = 22.634590 Si / 1000 Ang^3
#
#
#
# Elastic Constant Matrix: (Units=GPa)
#
#
# Indices 1 2 3 4 5 6 
#
# 1 95.9791 31.7680 15.5637 0.0000 -3.5646 0.0000
# 2 31.7680 131.2135 33.0559 0.0000 -11.8219 0.0000
# 3 15.5637 33.0559 79.3122 0.0000 -14.6855 0.0000
# 4 0.0000 0.0000 0.0000 29.6200 0.0000 -2.9246
# 5 -3.5646 -11.8219 -14.6855 0.0000 44.5645 0.0000
# 6 0.0000 0.0000 0.0000 -2.9246 0.0000 32.6389
#
#
#
# Elastic Compliance Matrix: (Units=1/GPa)
#
#
# Indices 1 2 3 4 5 6 
#
# 1 0.011432 -0.002468 -0.001242 0.000000 -0.000150 0.000000
# 2 -0.002468 0.009105 -0.003088 0.000000 0.001200 0.000000
# 3 -0.001242 -0.003088 0.014877 0.000000 0.003984 0.000000
# 4 0.000000 0.000000 0.000000 0.034062 0.000000 0.003052
# 5 -0.000150 0.001200 0.003984 0.000000 0.024059 0.000000
# 6 0.000000 0.000000 0.000000 0.003052 0.000000 0.030912
#
#
# Mechanical properties :
#
#
# Convention : Reuss Voigt Hill
#
# Bulk Modulus (GPa) = 45.83760 51.91999 48.87879
# Shear Modulus (GPa) = 34.40783 36.43917 35.42350
#
# Velocity S-wave (km/s) = 3.90313 4.01669 3.96032
# Velocity P-wave (km/s) = 6.37242 6.67083 6.52333
#
# Compressibility (1/GPa) = 0.02181615
#
# Stress axis : x y z
#
# Youngs Moduli (GPa) = 87.47537 109.83120 67.21817
#
# Poissons Ratio (x) = 0.27109 0.08350
# Poissons Ratio (y) = 0.21591 0.20758
# Poissons Ratio (z) = 0.10867 0.33918
#
# Static dielectric constant tensor:
#      x y z
#    x 4.374020 0.000000 0.026420 
#    y 0.000000 4.437830 0.000000 
#    z 0.026420 0.000000 4.082000 
# 
# 
# High freq. dielectric constant tensor:
#      x y z
#    x 1.906700 0.000000 -0.000580 
#    y 0.000000 1.897380 0.000000 
#    z -0.000580 0.000000 1.901770 
# 
# From -- ./inp_files/34171.got.cif
#   From: 2010.06.25/outbox.cif.g09.slc.cpg/sg13_18_cif.got.tgz:34171.got - 2010.06.28 04:50:58.
