data_PCOD8122364
_publ_section_title
;
Structure prediction by ZEFSAII (Michael W. Deem and Ramdas Pophale) SiO2 
 PCOD8122364
Probable space group: P 2/C
;
_chemical_formula_sum "Si O2"
_cell_formula_units_Z 24
_cell_length_a 22.623180
_cell_length_b 8.600193
_cell_length_c 11.377375
_cell_angle_alpha 90.000000
_cell_angle_beta 28.422660
_cell_angle_gamma 90.000000
_cell_volume 1053.623349
_symmetry_space_group_name_H-M "P 2/C"
_symmetry_group_IT_number 13
_symmetry_cell_setting 'monoclinic'
loop_
_space_group_symop_operation_xyz
x,y,z
-x,y,1/2-z
-x,-y,-z
x,-y,1/2+z
loop_
_atom_site_type_symbol
_atom_site_label
_atom_site_fract_x
_atom_site_fract_y
_atom_site_fract_z
Si Si1 0.141291 0.775200 0.838582
Si Si2 0.887696 0.710513 0.872394
Si Si3 0.572708 0.235954 0.343046
Si Si4 0.272727 0.444475 0.265709
Si Si5 0.596935 0.918139 0.182471
Si Si6 0.500000 0.567259 0.750000
Si Si7 0.000000 0.005843 0.750000
O O1 0.089995 0.704626 0.806694
O O2 0.156172 0.635333 0.905393
O O3 0.273883 0.859384 0.594820
O O4 0.039540 0.893342 0.068458
O O5 0.000000 0.631862 0.750000
O O6 0.882886 0.894199 0.917557
O O7 0.764062 0.615518 0.121815
O O8 0.685141 0.335897 0.200172
O O9 0.463210 0.213729 0.629646
O O10 0.513390 0.328870 0.340804
O O11 0.626752 0.071405 0.206569
O O12 0.381218 0.458364 0.978951
O O13 0.500000 0.961793 0.250000
#
# Coordination Sequence:
#
# PCOD8122364 Si02
#       7
#     4   4   4   4   4   2   2
#     4  12  25  48  77 101 144 187 243 303 353 423
#     4  10  27  50  70 104 141 185 243 305 352 420
#     4  11  24  40  70 107 146 189 229 280 361 428
#     4  12  25  44  72 107 145 187 235 290 365 428
#     4  11  23  44  71 112 145 186 236 291 353 438
#     4  12  24  42  66 104 148 188 226 286 358 434
#     4  10  28  48  74 102 132 192 248 300 358 400
#
# _framework density 22.778537
#
# number of rings (size 3 to 8) (size 9 to 14) (size 15 to 20)
#    0.500    0.333    2.500    4.000    5.833    0.667 
#    3.000    0.000    0.000    0.000    0.000    0.000 
#    0.000    0.000    0.000    0.000    0.000    0.000 
#
# Total GULP energy -297613.554622 kJ/mol
# GULP energy per Si atom -12400.564776 kJ/mol
# Density = 2.272669 g / cm^3
# Si number density = 22.778537 Si / 1000 Ang^3
#
#
#
# Elastic Constant Matrix: (Units=GPa)
#
#
# Indices 1 2 3 4 5 6 
#
# 1 159.1403 55.2751 42.6308 0.0000 11.1147 0.0000
# 2 55.2751 113.9300 57.4333 0.0000 4.3186 0.0000
# 3 42.6308 57.4333 102.6938 0.0000 12.1935 0.0000
# 4 0.0000 0.0000 0.0000 42.2122 0.0000 -3.9129
# 5 11.1147 4.3186 12.1935 0.0000 30.3392 0.0000
# 6 0.0000 0.0000 0.0000 -3.9129 0.0000 59.0217
#
#
#
# Elastic Compliance Matrix: (Units=1/GPa)
#
#
# Indices 1 2 3 4 5 6 
#
# 1 0.007833 -0.003068 -0.001310 0.000000 -0.001907 0.000000
# 2 -0.003068 0.013458 -0.006467 0.000000 0.001808 0.000000
# 3 -0.001310 -0.006467 0.014420 0.000000 -0.004395 0.000000
# 4 0.000000 0.000000 0.000000 0.023836 0.000000 0.001580
# 5 -0.001907 0.001808 -0.004395 0.000000 0.035168 0.000000
# 6 0.000000 0.000000 0.000000 0.001580 0.000000 0.017048
#
#
# Mechanical properties :
#
#
# Convention : Reuss Voigt Hill
#
# Bulk Modulus (GPa) = 71.32101 76.27139 73.79620
# Shear Modulus (GPa) = 36.19847 41.00960 38.60404
#
# Velocity S-wave (km/s) = 3.99074 4.24767 4.12121
# Velocity P-wave (km/s) = 7.25350 7.59036 7.42384
#
# Compressibility (1/GPa) = 0.01402111
#
# Stress axis : x y z
#
# Youngs Moduli (GPa) = 127.65862 74.30743 69.34711
#
# Poissons Ratio (x) = 0.22798 0.09082
# Poissons Ratio (y) = 0.39166 0.44850
# Poissons Ratio (z) = 0.16718 0.48058
#
# Static dielectric constant tensor:
#      x y z
#    x 4.223040 0.000000 0.176080 
#    y 0.000000 4.163950 0.000000 
#    z 0.176080 0.000000 3.811940 
# 
# 
# High freq. dielectric constant tensor:
#      x y z
#    x 1.910400 0.000000 0.011830 
#    y 0.000000 1.909510 0.000000 
#    z 0.011830 0.000000 1.880880 
# 
# From -- ./inp_files/41574.got.cif
#   From: 2010.06.25/outbox.cif.g09.slc.cpg/sg13_21_cif.got.tgz:41574.got - 2010.06.28 04:50:58.
