data_PCOD8122836
_publ_section_title
;
Structure prediction by ZEFSAII (Michael W. Deem and Ramdas Pophale) SiO2 
 PCOD8122836
Probable space group: P 2/C
;
_chemical_formula_sum "Si O2"
_cell_formula_units_Z 28
_cell_length_a 25.653461
_cell_length_b 7.749512
_cell_length_c 9.644899
_cell_angle_alpha 90.000000
_cell_angle_beta 139.135585
_cell_angle_gamma 90.000000
_cell_volume 1254.514943
_symmetry_space_group_name_H-M "P 2/C"
_symmetry_group_IT_number 13
_symmetry_cell_setting 'monoclinic'
loop_
_space_group_symop_operation_xyz
x,y,z
-x,y,1/2-z
-x,-y,-z
x,-y,1/2+z
loop_
_atom_site_type_symbol
_atom_site_label
_atom_site_fract_x
_atom_site_fract_y
_atom_site_fract_z
Si Si1 0.085483 0.621684 0.469122
Si Si2 0.593508 0.331863 0.939828
Si Si3 0.346596 0.640622 0.249005
Si Si4 0.776865 0.132725 0.611067
Si Si5 0.184747 0.513453 0.410077
Si Si6 0.316003 0.014944 0.812061
Si Si7 0.054063 0.989763 0.975486
O O1 0.152860 0.573884 0.494257
O O2 0.110096 0.545034 0.667018
O O3 0.082213 0.826746 0.474197
O O4 0.000000 0.546315 0.250000
O O5 0.500000 0.305577 0.750000
O O6 0.624133 0.375748 0.848701
O O7 0.614976 0.489289 0.083578
O O8 0.630514 0.155391 0.072285
O O9 0.369274 0.827856 0.358159
O O10 0.249573 0.637223 0.060478
O O11 0.763611 0.334683 0.556956
O O12 0.715684 0.066152 0.601672
O O13 0.759945 0.022471 0.439053
O O14 0.868997 0.123065 0.839111
O O15 0.000000 0.896254 0.750000
O O16 0.000000 0.000000 0.000000
#
# Coordination Sequence:
#
# PCOD8122836 Si02
#       7
#     4   4   4   4   4   4   4
#     4  11  24  42  62  97 140 184 242 297 355 418
#     4  12  28  50  76 110 147 186 240 303 368 446
#     4  12  26  48  76 109 145 191 241 296 370 435
#     4  12  23  42  69  99 143 189 242 300 352 430
#     4  12  24  42  70 102 137 189 242 296 355 428
#     4  12  25  46  72 108 144 193 246 294 365 440
#     4  11  24  42  63  95 138 187 239 297 354 413
#
# _framework density 22.319382999999998
#
# number of rings (size 3 to 8) (size 9 to 14) (size 15 to 20)
#    0.000    0.286    2.857    7.714    0.000    2.857 
#    0.000    0.000    0.000    0.000    0.000    0.000 
#    0.000    0.000    0.000    0.000    0.000    0.000 
#
# Total GULP energy -347349.031035 kJ/mol
# GULP energy per Si atom -12405.322537 kJ/mol
# Density = 2.226858 g / cm^3
# Si number density = 22.319383 Si / 1000 Ang^3
#
#
#
# Elastic Constant Matrix: (Units=GPa)
#
#
# Indices 1 2 3 4 5 6 
#
# 1 101.4530 24.5673 50.7715 0.0000 -6.5932 0.0000
# 2 24.5673 123.6319 43.6094 0.0000 -5.8020 0.0000
# 3 50.7715 43.6094 113.5514 0.0000 -3.4665 0.0000
# 4 0.0000 0.0000 0.0000 25.7005 0.0000 -1.8076
# 5 -6.5932 -5.8020 -3.4665 0.0000 40.6055 0.0000
# 6 0.0000 0.0000 0.0000 -1.8076 0.0000 21.7562
#
#
#
# Elastic Compliance Matrix: (Units=1/GPa)
#
#
# Indices 1 2 3 4 5 6 
#
# 1 0.012832 -0.000544 -0.005481 0.000000 0.001538 0.000000
# 2 -0.000544 0.009422 -0.003346 0.000000 0.000972 0.000000
# 3 -0.005481 -0.003346 0.012533 0.000000 -0.000298 0.000000
# 4 0.000000 0.000000 0.000000 0.039139 0.000000 0.003252
# 5 0.001538 0.000972 -0.000298 0.000000 0.024990 0.000000
# 6 0.000000 0.000000 0.000000 0.003252 0.000000 0.046234
#
#
# Mechanical properties :
#
#
# Convention : Reuss Voigt Hill
#
# Bulk Modulus (GPa) = 62.32537 64.05917 63.19227
# Shear Modulus (GPa) = 29.54367 32.25832 30.90100
#
# Velocity S-wave (km/s) = 3.64219 3.80584 3.72491
# Velocity P-wave (km/s) = 6.75813 6.93369 6.84647
#
# Compressibility (1/GPa) = 0.01604483
#
# Stress axis : x y z
#
# Youngs Moduli (GPa) = 77.93253 106.12971 79.78780
#
# Poissons Ratio (x) = 0.05775 0.43735
# Poissons Ratio (y) = 0.04241 0.26695
# Poissons Ratio (z) = 0.42718 0.35508
#
# Static dielectric constant tensor:
#      x y z
#    x 3.888420 0.000000 -0.143990 
#    y 0.000000 4.072140 0.000000 
#    z -0.143990 0.000000 4.333880 
# 
# 
# High freq. dielectric constant tensor:
#      x y z
#    x 1.879110 0.000000 -0.015410 
#    y 0.000000 1.890440 0.000000 
#    z -0.015410 0.000000 1.890850 
# 
# From -- ./inp_files/24619.got.cif
#   From: 2010.06.25/outbox.cif.g09.slc.cpg/sg13_13_cif.got.tgz:24619.got - 2010.06.28 04:50:58.
