data_PCOD8122862
_publ_section_title
;
Structure prediction by ZEFSAII (Michael W. Deem and Ramdas Pophale) SiO2 
 PCOD8122862
Probable space group: P 2/C
;
_chemical_formula_sum "Si O2"
_cell_formula_units_Z 24
_cell_length_a 14.155588
_cell_length_b 6.707051
_cell_length_c 18.869279
_cell_angle_alpha 90.000000
_cell_angle_beta 41.392437
_cell_angle_gamma 90.000000
_cell_volume 1184.557402
_symmetry_space_group_name_H-M "P 2/C"
_symmetry_group_IT_number 13
_symmetry_cell_setting 'monoclinic'
loop_
_space_group_symop_operation_xyz
x,y,z
-x,y,1/2-z
-x,-y,-z
x,-y,1/2+z
loop_
_atom_site_type_symbol
_atom_site_label
_atom_site_fract_x
_atom_site_fract_y
_atom_site_fract_z
Si Si1 0.343133 0.884854 0.827565
Si Si2 0.893303 0.573374 0.499988
Si Si3 0.238578 0.808239 0.500011
Si Si4 0.456873 0.714689 0.499996
Si Si5 0.001767 0.115155 0.827545
Si Si6 0.684736 0.999994 0.315257
O O1 0.500000 0.790556 0.750000
O O2 0.230606 0.705919 0.895466
O O3 0.330567 0.993393 0.759975
O O4 0.323857 0.055778 0.896891
O O5 0.828933 0.380387 0.499982
O O6 0.978529 0.705917 0.395432
O O7 0.000000 0.500000 0.500000
O O8 0.344023 0.723806 0.500028
O O9 0.117622 0.944255 0.603112
O O10 0.500000 0.500000 0.500000
O O11 0.606009 0.809123 0.391815
O O12 0.389741 0.809202 0.608133
O O13 0.000000 0.209469 0.750000
O O14 0.149511 0.006574 0.759930
#
# Coordination Sequence:
#
# PCOD8122862 Si02
#       6
#     4   4   4   4   4   4
#     4  11  24  44  70  96 133 179 221 272 336 402
#     4  11  26  44  67 101 135 171 226 282 329 398
#     4  11  24  45  67  99 136 172 220 278 335 394
#     4  11  26  40  66  99 137 170 218 276 327 393
#     4  11  24  44  70  96 133 179 221 272 336 402
#     4  11  24  45  66  94 132 173 220 269 336 390
#
# _framework density 20.260731
#
# number of rings (size 3 to 8) (size 9 to 14) (size 15 to 20)
#    0.000    1.000    3.333    2.000    4.667    8.000 
#    0.000    0.000    0.000    0.000    0.000    0.000 
#    0.000    0.000    0.000    0.000    0.000    0.000 
#
# Total GULP energy -297682.606588 kJ/mol
# GULP energy per Si atom -12403.441941 kJ/mol
# Density = 2.021462 g / cm^3
# Si number density = 20.260731 Si / 1000 Ang^3
#
#
#
# Elastic Constant Matrix: (Units=GPa)
#
#
# Indices 1 2 3 4 5 6 
#
# 1 158.9613 65.2136 69.0237 0.0000 -2.5822 0.0000
# 2 65.2136 154.9197 62.8884 0.0000 0.0687 0.0000
# 3 69.0237 62.8884 143.4320 0.0000 2.2198 0.0000
# 4 0.0000 0.0000 0.0000 15.7763 0.0000 -1.1434
# 5 -2.5822 0.0687 2.2198 0.0000 12.3558 0.0000
# 6 0.0000 0.0000 0.0000 -1.1434 0.0000 44.3301
#
#
#
# Elastic Compliance Matrix: (Units=1/GPa)
#
#
# Indices 1 2 3 4 5 6 
#
# 1 0.008680 -0.002365 -0.003177 0.000000 0.002398 0.000000
# 2 -0.002365 0.008501 -0.002588 0.000000 -0.000077 0.000000
# 3 -0.003177 -0.002588 0.009673 0.000000 -0.002387 0.000000
# 4 0.000000 0.000000 0.000000 0.063505 0.000000 0.001638
# 5 0.002398 -0.000077 -0.002387 0.000000 0.081864 0.000000
# 6 0.000000 0.000000 0.000000 0.001638 0.000000 0.022600
#
#
# Mechanical properties :
#
#
# Convention : Reuss Voigt Hill
#
# Bulk Modulus (GPa) = 94.40193 94.61828 94.51010
# Shear Modulus (GPa) = 23.29769 31.83827 27.56798
#
# Velocity S-wave (km/s) = 3.39469 3.96842 3.69272
# Velocity P-wave (km/s) = 7.87781 8.23405 8.05790
#
# Compressibility (1/GPa) = 0.01059300
#
# Stress axis : x y z
#
# Youngs Moduli (GPa) = 115.21331 117.63099 103.38586
#
# Poissons Ratio (x) = 0.27820 0.32846
# Poissons Ratio (y) = 0.27249 0.26757
# Poissons Ratio (z) = 0.36603 0.30444
#
# Static dielectric constant tensor:
#      x y z
#    x 3.361220 0.000000 0.027690 
#    y 0.000000 3.590000 0.000000 
#    z 0.027690 0.000000 4.023510 
# 
# 
# High freq. dielectric constant tensor:
#      x y z
#    x 1.813420 0.000000 -0.000010 
#    y 0.000000 1.790530 0.000000 
#    z -0.000010 0.000000 1.813050 
# 
# From -- ./inp_files/79241.got.cif
#   From: 2010.06.25/outbox.cif.g09.slc.cpg/sg13_40_cif.got.tgz:79241.got - 2010.06.28 04:50:58.
