data_PCOD8122985
_publ_section_title
;
Structure prediction by ZEFSAII (Michael W. Deem and Ramdas Pophale) SiO2 
 PCOD8122985
Probable space group: P 2/C
;
_chemical_formula_sum "Si O2"
_cell_formula_units_Z 24
_cell_length_a 20.840374
_cell_length_b 5.143847
_cell_length_c 14.330469
_cell_angle_alpha 90.000000
_cell_angle_beta 141.357094
_cell_angle_gamma 90.000000
_cell_volume 959.316299
_symmetry_space_group_name_H-M "P 2/C"
_symmetry_group_IT_number 13
_symmetry_cell_setting 'monoclinic'
loop_
_space_group_symop_operation_xyz
x,y,z
-x,y,1/2-z
-x,-y,-z
x,-y,1/2+z
loop_
_atom_site_type_symbol
_atom_site_label
_atom_site_fract_x
_atom_site_fract_y
_atom_site_fract_z
Si Si1 0.500000 0.415788 0.250000
Si Si2 0.198033 0.995896 0.750590
Si Si3 0.000000 0.282313 0.750000
Si Si4 0.085247 0.503950 0.674245
Si Si5 0.332674 0.568641 0.192338
Si Si6 0.418336 0.163757 0.965824
Si Si7 0.197348 0.058750 0.044406
O O1 0.410792 0.593360 0.193263
O O2 0.536947 0.253888 0.383571
O O3 0.153025 0.763625 0.761366
O O4 0.149511 0.956619 0.593272
O O5 0.166653 0.271455 0.757044
O O6 0.321280 0.982858 0.880977
O O7 0.986800 0.480283 0.818778
O O8 0.898939 0.103349 0.631605
O O9 0.000000 0.500000 0.500000
O O10 0.383443 0.607105 0.353428
O O11 0.281517 0.286202 0.131788
O O12 0.249107 0.787874 0.075713
O O13 0.500000 0.000000 0.000000
#
# Coordination Sequence:
#
# PCOD8122985 Si02
#       7
#     2   4   2   4   4   4   4
#     4  12  26  50  82 120 152 216 268 324 408 478
#     4  11  25  51  78 106 156 202 251 312 396 455
#     4  12  30  48  80 116 154 202 264 322 378 464
#     4  12  27  50  76 112 152 201 254 316 382 462
#     4  11  27  51  77 113 161 200 258 322 393 465
#     4  11  27  53  83 116 163 206 262 335 395 472
#     4  11  26  51  76 113 155 203 254 323 380 463
#
# _framework density 25.017817999999998
#
# number of rings (size 3 to 8) (size 9 to 14) (size 15 to 20)
#    0.000    0.667    1.667    5.000    2.333    6.667 
#    6.000    0.000    0.000    0.000    0.000    0.000 
#    0.000    0.000    0.000    0.000    0.000    0.000 
#
# Total GULP energy -297528.189816 kJ/mol
# GULP energy per Si atom -12397.007909 kJ/mol
# Density = 2.496088 g / cm^3
# Si number density = 25.017818 Si / 1000 Ang^3
#
#
#
# Elastic Constant Matrix: (Units=GPa)
#
#
# Indices 1 2 3 4 5 6 
#
# 1 171.2674 38.9606 57.5772 0.0000 -11.0800 0.0000
# 2 38.9606 95.6715 13.4643 0.0000 4.8744 0.0000
# 3 57.5772 13.4643 137.5182 0.0000 -7.3681 0.0000
# 4 0.0000 0.0000 0.0000 23.2414 0.0000 4.2309
# 5 -11.0800 4.8744 -7.3681 0.0000 47.8691 0.0000
# 6 0.0000 0.0000 0.0000 4.2309 0.0000 46.2070
#
#
#
# Elastic Compliance Matrix: (Units=1/GPa)
#
#
# Indices 1 2 3 4 5 6 
#
# 1 0.007503 -0.002744 -0.002788 0.000000 0.001587 0.000000
# 2 -0.002744 0.011677 -0.000093 0.000000 -0.001838 0.000000
# 3 -0.002788 -0.000093 0.008484 0.000000 0.000670 0.000000
# 4 0.000000 0.000000 0.000000 0.043756 0.000000 -0.004006
# 5 0.001587 -0.001838 0.000670 0.000000 0.021548 0.000000
# 6 0.000000 0.000000 0.000000 -0.004006 0.000000 0.022009
#
#
# Mechanical properties :
#
#
# Convention : Reuss Voigt Hill
#
# Bulk Modulus (GPa) = 60.92225 69.38460 65.15342
# Shear Modulus (GPa) = 37.96613 43.09385 40.52999
#
# Velocity S-wave (km/s) = 3.89982 4.15484 4.02934
# Velocity P-wave (km/s) = 6.68450 7.12819 6.90991
#
# Compressibility (1/GPa) = 0.01641436
#
# Stress axis : x y z
#
# Youngs Moduli (GPa) = 133.28249 85.64139 117.86999
#
# Poissons Ratio (x) = 0.23500 0.32858
# Poissons Ratio (y) = 0.36572 0.01095
# Poissons Ratio (z) = 0.37155 0.00796
#
# Static dielectric constant tensor:
#      x y z
#    x 4.853270 0.000000 0.017680 
#    y 0.000000 4.391310 0.000000 
#    z 0.017680 0.000000 4.596470 
# 
# 
# High freq. dielectric constant tensor:
#      x y z
#    x 2.023820 0.000000 0.002350 
#    y 0.000000 1.991680 0.000000 
#    z 0.002350 0.000000 2.005660 
# 
# From -- ./inp_files/56662.got.cif
#   From: 2010.06.25/outbox.cif.g09.slc.cpg/sg13_29_cif.got.tgz:56662.got - 2010.06.28 04:50:58.
