data_PCOD8122483
_publ_section_title
;
Structure prediction by ZEFSAII (Michael W. Deem and Ramdas Pophale) SiO2 
 PCOD8122483
Probable space group: P 2/C
;
_chemical_formula_sum "Si O2"
_cell_formula_units_Z 24
_cell_length_a 8.102131
_cell_length_b 9.748179
_cell_length_c 13.349673
_cell_angle_alpha 90.000000
_cell_angle_beta 92.511353
_cell_angle_gamma 90.000000
_cell_volume 1053.358173
_symmetry_space_group_name_H-M "P 2/C"
_symmetry_group_IT_number 13
_symmetry_cell_setting 'monoclinic'
loop_
_space_group_symop_operation_xyz
x,y,z
-x,y,1/2-z
-x,-y,-z
x,-y,1/2+z
loop_
_atom_site_type_symbol
_atom_site_label
_atom_site_fract_x
_atom_site_fract_y
_atom_site_fract_z
Si Si1 0.056126 0.397913 0.147182
Si Si2 0.694384 0.004236 0.634778
Si Si3 0.184861 0.644796 0.033608
Si Si4 0.286389 0.859209 0.670916
Si Si5 0.954993 0.921401 0.399270
Si Si6 0.473331 0.181273 0.507809
O O1 0.175655 0.501740 0.092071
O O2 0.148981 0.257552 0.176678
O O3 0.000000 0.465948 0.250000
O O4 0.892671 0.367826 0.078640
O O5 0.565099 0.130196 0.612140
O O6 0.876939 0.062738 0.662735
O O7 0.631807 0.894962 0.718038
O O8 0.678291 0.921926 0.527275
O O9 0.081751 0.760358 0.090414
O O10 0.381309 0.676028 0.029582
O O11 0.405715 0.811558 0.584647
O O12 0.203041 0.006636 0.651905
O O13 0.000000 0.000000 0.500000
#
# Coordination Sequence:
#
# PCOD8122483 Si02
#       6
#     4   4   4   4   4   4
#     4  11  24  43  65  93 129 176 228 266 320 398
#     4  11  22  36  63  98 128 163 213 274 324 391
#     4  11  24  42  66  94 132 174 214 275 332 387
#     4  12  23  38  67  96 127 172 223 268 328 396
#     4  12  19  40  66  93 123 169 216 273 326 384
#     4  11  21  39  61  95 137 162 210 271 339 386
#
# _framework density 22.784272000000001
#
# number of rings (size 3 to 8) (size 9 to 14) (size 15 to 20)
#    0.000    0.667    5.000    4.000    0.000    2.000 
#    0.000    0.000    0.000    6.000    0.000    0.000 
#    0.000    0.000    0.000    0.000    0.000    0.000 
#
# Total GULP energy -297427.348491 kJ/mol
# GULP energy per Si atom -12392.806187 kJ/mol
# Density = 2.273241 g / cm^3
# Si number density = 22.784272 Si / 1000 Ang^3
#
#
#
# Elastic Constant Matrix: (Units=GPa)
#
#
# Indices 1 2 3 4 5 6 
#
# 1 113.4543 27.8784 44.7733 0.0000 -7.0338 0.0000
# 2 27.8784 84.5865 46.1276 0.0000 4.8250 0.0000
# 3 44.7733 46.1276 114.4288 0.0000 -8.2614 0.0000
# 4 0.0000 0.0000 0.0000 22.2838 0.0000 4.9558
# 5 -7.0338 4.8250 -8.2614 0.0000 25.9682 0.0000
# 6 0.0000 0.0000 0.0000 4.9558 0.0000 42.5368
#
#
#
# Elastic Compliance Matrix: (Units=1/GPa)
#
#
# Indices 1 2 3 4 5 6 
#
# 1 0.010702 -0.001866 -0.003276 0.000000 0.002203 0.000000
# 2 -0.001866 0.016106 -0.006156 0.000000 -0.005457 0.000000
# 3 -0.003276 -0.006156 0.012815 0.000000 0.004333 0.000000
# 4 0.000000 0.000000 0.000000 0.046069 0.000000 -0.005367
# 5 0.002203 -0.005457 0.004333 0.000000 0.041498 0.000000
# 6 0.000000 0.000000 0.000000 -0.005367 0.000000 0.024134
#
#
# Mechanical properties :
#
#
# Convention : Reuss Voigt Hill
#
# Bulk Modulus (GPa) = 58.73315 61.11425 59.92370
# Shear Modulus (GPa) = 27.84007 31.07046 29.45527
#
# Velocity S-wave (km/s) = 3.49936 3.69681 3.59944
# Velocity P-wave (km/s) = 6.49317 6.71588 6.60547
#
# Compressibility (1/GPa) = 0.01702616
#
# Stress axis : x y z
#
# Youngs Moduli (GPa) = 93.43859 62.08988 78.03149
#
# Poissons Ratio (x) = 0.11589 0.25564
# Poissons Ratio (y) = 0.17440 0.48036
# Poissons Ratio (z) = 0.30611 0.38223
#
# Static dielectric constant tensor:
#      x y z
#    x 4.544610 0.000000 0.317610 
#    y 0.000000 2.989300 0.000000 
#    z 0.317610 0.000000 5.128140 
# 
# 
# High freq. dielectric constant tensor:
#      x y z
#    x 1.912710 0.000000 -0.000170 
#    y 0.000000 1.868940 0.000000 
#    z -0.000170 0.000000 1.908540 
# 
# From -- ./inp_files/46133.got.cif
#   From: 2010.06.25/outbox.cif.g09.slc.cpg/sg13_24_cif.got.tgz:46133.got - 2010.06.28 04:50:58.
