data_PCOD8122626
_publ_section_title
;
Structure prediction by ZEFSAII (Michael W. Deem and Ramdas Pophale) SiO2 
 PCOD8122626
Probable space group: P 2/C
;
_chemical_formula_sum "Si O2"
_cell_formula_units_Z 24
_cell_length_a 14.365645
_cell_length_b 9.163068
_cell_length_c 12.684023
_cell_angle_alpha 90.000000
_cell_angle_beta 140.229450
_cell_angle_gamma 90.000000
_cell_volume 1068.093822
_symmetry_space_group_name_H-M "P 2/C"
_symmetry_group_IT_number 13
_symmetry_cell_setting 'monoclinic'
loop_
_space_group_symop_operation_xyz
x,y,z
-x,y,1/2-z
-x,-y,-z
x,-y,1/2+z
loop_
_atom_site_type_symbol
_atom_site_label
_atom_site_fract_x
_atom_site_fract_y
_atom_site_fract_z
Si Si1 0.684959 0.659943 0.020826
Si Si2 0.121853 0.549804 0.687373
Si Si3 0.377340 0.446386 0.260515
Si Si4 0.132189 0.838222 0.804053
Si Si5 0.664539 0.943154 0.132126
Si Si6 0.353733 0.778773 0.174654
O O1 0.831066 0.578606 0.190060
O O2 0.684639 0.828580 0.054547
O O3 0.672022 0.648314 0.883744
O O4 0.538481 0.590502 0.942726
O O5 0.267661 0.598458 0.755438
O O6 0.060289 0.694462 0.688977
O O7 0.000000 0.500000 0.500000
O O8 0.377318 0.616531 0.235935
O O9 0.000000 0.922607 0.750000
O O10 0.216897 0.932817 0.790614
O O11 0.240094 0.774892 0.983423
O O12 0.705910 0.875316 0.280882
O O13 0.500000 0.000000 0.000000
O O14 0.500000 0.844499 0.250000
#
# Coordination Sequence:
#
# PCOD8122626 Si02
#       6
#     4   4   4   4   4   4
#     4  11  24  42  73 105 135 182 242 299 355 422
#     4  12  25  44  73 103 138 188 243 295 359 435
#     4  11  22  42  74 106 139 178 245 310 352 415
#     4  12  28  49  71 104 149 195 240 299 379 439
#     4  12  27  46  73 109 146 193 243 300 364 444
#     4  12  22  44  75 103 145 192 239 305 367 426
#
# _framework density 22.469936000000001
#
# number of rings (size 3 to 8) (size 9 to 14) (size 15 to 20)
#    0.000    0.333    6.667    2.500    0.000    4.667 
#    3.000    0.000    0.000    0.000    0.000    0.000 
#    0.000    0.000    0.000    0.000    0.000    0.000 
#
# Total GULP energy -297599.007167 kJ/mol
# GULP energy per Si atom -12399.958632 kJ/mol
# Density = 2.241879 g / cm^3
# Si number density = 22.469936 Si / 1000 Ang^3
#
#
#
# Elastic Constant Matrix: (Units=GPa)
#
#
# Indices 1 2 3 4 5 6 
#
# 1 96.6175 24.0140 3.9376 0.0000 10.0412 0.0000
# 2 24.0140 115.9079 30.7110 0.0000 -7.4333 0.0000
# 3 3.9376 30.7110 109.0007 0.0000 -3.5955 0.0000
# 4 0.0000 0.0000 0.0000 -84.0004 0.0000 86.5593
# 5 10.0412 -7.4333 -3.5955 0.0000 34.2796 0.0000
# 6 0.0000 0.0000 0.0000 86.5593 0.0000 -40.7127
#
#
#
# Elastic Compliance Matrix: (Units=1/GPa)
#
#
# Indices 1 2 3 4 5 6 
#
# 1 0.011410 -0.002670 0.000211 0.000000 -0.003899 0.000000
# 2 -0.002670 0.010054 -0.002648 0.000000 0.002685 0.000000
# 3 0.000211 -0.002648 0.009926 0.000000 0.000405 0.000000
# 4 0.000000 0.000000 0.000000 0.009997 0.000000 0.021254
# 5 -0.003899 0.002685 0.000405 0.000000 0.030939 0.000000
# 6 0.000000 0.000000 0.000000 0.021254 0.000000 0.020626
#
#
# Mechanical properties :
#
#
# Convention : Reuss Voigt Hill
#
# Bulk Modulus (GPa) = 47.21901 48.76127 47.99014
# Shear Modulus (GPa) = 45.36217 -0.56247 22.39985
#
# Velocity S-wave (km/s) = 4.49797 -0.50086 3.16077
# Velocity P-wave (km/s) = 6.93077 4.62745 5.89275
#
# Compressibility (1/GPa) = 0.02117791
#
# Stress axis : x y z
#
# Youngs Moduli (GPa) = 87.63980 99.45818 100.74551
#
# Poissons Ratio (x) = 0.26556 -0.02131
# Poissons Ratio (y) = 0.23401 0.26676
# Poissons Ratio (z) = -0.01854 0.26335
#
# Static dielectric constant tensor:
#      x y z
#    x 3.850890 0.000000 -0.073930 
#    y 0.000000 3.973300 0.000000 
#    z -0.073930 0.000000 4.153690 
# 
# 
# High freq. dielectric constant tensor:
#      x y z
#    x 1.900240 0.000000 -0.007120 
#    y 0.000000 1.874370 0.000000 
#    z -0.007120 0.000000 1.892050 
# 
# From -- ./inp_files/53217.got.cif
#   From: 2010.06.25/outbox.cif.g09.slc.cpg/sg13_27_cif.got.tgz:53217.got - 2010.06.28 04:50:58.
