data_PCOD8122694
_publ_section_title
;
Structure prediction by ZEFSAII (Michael W. Deem and Ramdas Pophale) SiO2 
 PCOD8122694
Probable space group: P 2/C
;
_chemical_formula_sum "Si O2"
_cell_formula_units_Z 22
_cell_length_a 10.459919
_cell_length_b 18.544218
_cell_length_c 5.532668
_cell_angle_alpha 90.000000
_cell_angle_beta 114.548646
_cell_angle_gamma 90.000000
_cell_volume 976.171525
_symmetry_space_group_name_H-M "P 2/C"
_symmetry_group_IT_number 13
_symmetry_cell_setting 'monoclinic'
loop_
_space_group_symop_operation_xyz
x,y,z
-x,y,1/2-z
-x,-y,-z
x,-y,1/2+z
loop_
_atom_site_type_symbol
_atom_site_label
_atom_site_fract_x
_atom_site_fract_y
_atom_site_fract_z
Si Si1 0.834790 0.533484 0.601076
Si Si2 0.209702 0.037057 0.596348
Si Si3 0.852573 0.179539 0.755203
Si Si4 0.365188 0.202361 0.275937
Si Si5 0.165929 0.700172 0.914727
Si Si6 0.500000 0.908171 0.250000
O O1 0.772001 0.493361 0.311767
O O2 0.797300 0.616717 0.531944
O O3 0.000000 0.519358 0.750000
O O4 0.140022 0.117066 0.536984
O O5 0.379305 0.040229 0.762420
O O6 0.156458 0.002584 0.301025
O O7 0.731167 0.153865 0.476305
O O8 0.000000 0.193101 0.750000
O O9 0.797138 0.255997 0.814784
O O10 0.500000 0.237794 0.250000
O O11 0.264671 0.267222 0.284329
O O12 0.418509 0.144596 0.506861
O O13 0.000000 0.713257 0.750000
#
# Coordination Sequence:
#
# PCOD8122694 Si02
#       6
#     4   4   4   4   4   2
#     4   9  20  37  63 101 143 184 229 278 337 412
#     4  12  27  45  69  96 136 184 232 296 359 422
#     4  12  26  43  70 101 140 180 237 290 355 428
#     4  12  23  43  71 101 136 180 236 294 347 411
#     4  11  23  40  71 103 141 185 230 289 350 410
#     4  12  24  44  68  98 130 180 236 300 350 418
#
# _framework density 22.537023000000001
#
# number of rings (size 3 to 8) (size 9 to 14) (size 15 to 20)
#    0.000    0.727    5.455    1.636    2.545    1.455 
#    0.000    0.000    0.000    1.091    0.000    0.000 
#    0.000    0.000    0.000    0.000    0.000    0.000 
#
# Total GULP energy -272654.776791 kJ/mol
# GULP energy per Si atom -12393.398945 kJ/mol
# Density = 2.248573 g / cm^3
# Si number density = 22.537023 Si / 1000 Ang^3
#
#
#
# Elastic Constant Matrix: (Units=GPa)
#
#
# Indices 1 2 3 4 5 6 
#
# 1 107.6228 12.8859 14.9388 0.0000 -20.2938 0.0000
# 2 12.8859 98.5983 39.4287 0.0000 -23.9877 0.0000
# 3 14.9388 39.4287 127.6497 0.0000 -24.3247 0.0000
# 4 0.0000 0.0000 0.0000 510.1813 0.0000 -450.2250
# 5 -20.2938 -23.9877 -24.3247 0.0000 33.7812 0.0000
# 6 0.0000 0.0000 0.0000 -450.2250 0.0000 434.9230
#
#
#
# Elastic Compliance Matrix: (Units=1/GPa)
#
#
# Indices 1 2 3 4 5 6 
#
# 1 0.010482 0.000216 -0.000075 0.000000 0.006397 0.000000
# 2 0.000216 0.012973 -0.002611 0.000000 0.007462 0.000000
# 3 -0.000075 -0.002611 0.009605 0.000000 0.005018 0.000000
# 4 0.000000 0.000000 0.000000 0.022668 0.000000 0.023465
# 5 0.006397 0.007462 0.005018 0.000000 0.042357 0.000000
# 6 0.000000 0.000000 0.000000 0.023465 0.000000 0.026590
#
#
# Mechanical properties :
#
#
# Convention : Reuss Voigt Hill
#
# Bulk Modulus (GPa) = 35.55776 52.04196 43.79986
# Shear Modulus (GPa) = 35.97434 213.55160 124.76297
#
# Velocity S-wave (km/s) = 3.99962 9.74482 7.44844
# Velocity P-wave (km/s) = 6.09435 12.23754 9.66691
#
# Compressibility (1/GPa) = 0.02812325
#
# Stress axis : x y z
#
# Youngs Moduli (GPa) = 95.39770 77.08127 104.11020
#
# Poissons Ratio (x) = -0.01666 0.00776
# Poissons Ratio (y) = -0.02062 0.27178
# Poissons Ratio (z) = 0.00711 0.20122
#
# Static dielectric constant tensor:
#      x y z
#    x 4.091940 0.000000 -0.264000 
#    y 0.000000 3.895210 0.000000 
#    z -0.264000 0.000000 4.220030 
# 
# 
# High freq. dielectric constant tensor:
#      x y z
#    x 1.884560 0.000000 -0.018280 
#    y 0.000000 1.877640 0.000000 
#    z -0.018280 0.000000 1.892230 
# 
# From -- ./inp_files/3689.got.cif
#   From: 2010.06.25/outbox.cif.g09.slc.cpg/sg13_2_cif.got.tgz:3689.got - 2010.06.28 04:50:58.
