data_PCOD8122667
_publ_section_title
;
Structure prediction by ZEFSAII (Michael W. Deem and Ramdas Pophale) SiO2 
 PCOD8122667
Probable space group: P 2/C
;
_chemical_formula_sum "Si O2"
_cell_formula_units_Z 32
_cell_length_a 11.656900
_cell_length_b 16.401602
_cell_length_c 17.631208
_cell_angle_alpha 90.000000
_cell_angle_beta 152.283858
_cell_angle_gamma 90.000000
_cell_volume 1567.796835
_symmetry_space_group_name_H-M "P 2/C"
_symmetry_group_IT_number 13
_symmetry_cell_setting 'monoclinic'
loop_
_space_group_symop_operation_xyz
x,y,z
-x,y,1/2-z
-x,-y,-z
x,-y,1/2+z
loop_
_atom_site_type_symbol
_atom_site_label
_atom_site_fract_x
_atom_site_fract_y
_atom_site_fract_z
Si Si1 0.003396 0.118045 0.559892
Si Si2 0.525965 0.820066 0.356513
Si Si3 0.412553 0.320145 0.893837
Si Si4 0.433535 0.378874 0.065085
Si Si5 0.223664 0.549153 0.933323
Si Si6 0.900132 0.295720 0.517970
Si Si7 0.958595 0.420933 0.425758
Si Si8 0.771231 0.960858 0.446309
O O1 0.276177 0.142413 0.745958
O O2 0.019797 0.077411 0.486459
O O3 0.843578 0.200819 0.467623
O O4 0.872273 0.048195 0.535949
O O5 0.500000 0.798201 0.250000
O O6 0.581308 0.742422 0.442416
O O7 0.733903 0.890726 0.488924
O O8 0.125430 0.310103 0.707630
O O9 0.440846 0.311762 0.001606
O O10 0.516037 0.410322 0.937018
O O11 0.694098 0.422267 0.230717
O O12 0.243134 0.451753 0.935912
O O13 0.347640 0.332950 0.091221
O O14 0.000000 0.580428 0.750000
O O15 0.173045 0.577439 0.989385
O O16 0.979837 0.338402 0.486544
O O17 0.000000 0.500000 0.500000
O O18 0.500000 0.972964 0.250000
#
# Coordination Sequence:
#
# PCOD8122667 Si02
#       8
#     4   4   4   4   4   4   4   4
#     4   8  16  30  51  82 116 150 186 237 292 354
#     4   8  17  32  55  88 115 148 197 244 293 351
#     4  11  23  39  62  84 117 159 199 242 295 361
#     4  12  25  43  59  84 120 157 201 246 297 364
#     4  12  25  41  63  82 115 161 206 242 294 358
#     4  11  23  38  61  89 120 154 198 249 304 346
#     4  12  26  42  59  89 117 155 199 258 300 341
#     4   8  14  28  51  82 118 148 186 235 295 351
#
# _framework density 20.410806999999998
#
# number of rings (size 3 to 8) (size 9 to 14) (size 15 to 20)
#    0.000    2.000    2.500    2.625    5.250    2.000 
#    0.000    0.000    0.000    0.750    0.000    8.750 
#    0.000    0.000    0.000    0.000    0.000    0.000 
#
# Total GULP energy -396488.837130 kJ/mol
# GULP energy per Si atom -12390.276160 kJ/mol
# Density = 2.036435 g / cm^3
# Si number density = 20.410807 Si / 1000 Ang^3
#
#
#
# Elastic Constant Matrix: (Units=GPa)
#
#
# Indices 1 2 3 4 5 6 
#
# 1 92.1048 42.7450 11.3197 0.0000 -4.7856 0.0000
# 2 42.7450 145.4463 12.7615 0.0000 -5.5405 0.0000
# 3 11.3197 12.7615 50.0379 0.0000 -7.1931 0.0000
# 4 0.0000 0.0000 0.0000 22.5343 0.0000 12.2741
# 5 -4.7856 -5.5405 -7.1931 0.0000 27.7239 0.0000
# 6 0.0000 0.0000 0.0000 12.2741 0.0000 33.2646
#
#
#
# Elastic Compliance Matrix: (Units=1/GPa)
#
#
# Indices 1 2 3 4 5 6 
#
# 1 0.012787 -0.003558 -0.001839 0.000000 0.001019 0.000000
# 2 -0.003558 0.008048 -0.001148 0.000000 0.000697 0.000000
# 3 -0.001839 -0.001148 0.021414 0.000000 0.005009 0.000000
# 4 0.000000 0.000000 0.000000 0.055539 0.000000 -0.020493
# 5 0.001019 0.000697 0.005009 0.000000 0.037685 0.000000
# 6 0.000000 0.000000 0.000000 -0.020493 0.000000 0.037624
#
#
# Mechanical properties :
#
#
# Convention : Reuss Voigt Hill
#
# Bulk Modulus (GPa) = 34.29304 46.80461 40.54882
# Shear Modulus (GPa) = 25.52250 31.42207 28.47229
#
# Velocity S-wave (km/s) = 3.53999 3.92788 3.73897
# Velocity P-wave (km/s) = 5.79194 6.59940 6.20881
#
# Compressibility (1/GPa) = 0.02916044
#
# Stress axis : x y z
#
# Youngs Moduli (GPa) = 78.20243 124.25088 46.69928
#
# Poissons Ratio (x) = 0.44207 0.08587
# Poissons Ratio (y) = 0.27824 0.05359
# Poissons Ratio (z) = 0.14380 0.14259
#
# Static dielectric constant tensor:
#      x y z
#    x 4.320760 0.000000 0.076200 
#    y 0.000000 4.000720 0.000000 
#    z 0.076200 0.000000 3.394620 
# 
# 
# High freq. dielectric constant tensor:
#      x y z
#    x 1.795280 0.000000 0.025350 
#    y 0.000000 1.802200 0.000000 
#    z 0.025350 0.000000 1.761500 
# 
# From -- ./inp_files/66981.got.cif
#   From: 2010.06.25/outbox.cif.g09.slc.cpg/sg13_34_cif.got.tgz:66981.got - 2010.06.28 04:50:58.
