data_PCOD8122504
_publ_section_title
;
Structure prediction by ZEFSAII (Michael W. Deem and Ramdas Pophale) SiO2 
 PCOD8122504
Probable space group: P 2/C
;
_chemical_formula_sum "Si O2"
_cell_formula_units_Z 26
_cell_length_a 8.433712
_cell_length_b 6.501635
_cell_length_c 29.360948
_cell_angle_alpha 90.000000
_cell_angle_beta 122.808410
_cell_angle_gamma 90.000000
_cell_volume 1353.139175
_symmetry_space_group_name_H-M "P 2/C"
_symmetry_group_IT_number 13
_symmetry_cell_setting 'monoclinic'
loop_
_space_group_symop_operation_xyz
x,y,z
-x,y,1/2-z
-x,-y,-z
x,-y,1/2+z
loop_
_atom_site_type_symbol
_atom_site_label
_atom_site_fract_x
_atom_site_fract_y
_atom_site_fract_z
Si Si1 0.253999 0.362227 0.692588
Si Si2 0.583693 0.450477 0.101455
Si Si3 0.311531 0.122304 0.457625
Si Si4 0.500000 0.015668 0.250000
Si Si5 0.193019 0.532118 0.003397
Si Si6 0.414517 0.606688 0.795648
Si Si7 0.849045 0.278731 0.592208
O O1 0.257113 0.486290 0.741090
O O2 0.390094 0.481685 0.678882
O O3 0.048033 0.364431 0.639624
O O4 0.322547 0.127457 0.709338
O O5 0.646875 0.277264 0.076350
O O6 0.359968 0.486340 0.064924
O O7 0.647284 0.386087 0.161769
O O8 0.690531 0.660151 0.104454
O O9 0.221781 0.238944 0.487260
O O10 0.500000 0.000000 0.500000
O O11 0.152493 0.966719 0.413969
O O12 0.559473 0.158798 0.216839
O O13 0.206866 0.369963 0.965106
O O14 0.000000 0.500000 0.000000
#
# Coordination Sequence:
#
# PCOD8122504 Si02
#       7
#     4   4   4   2   4   4   4
#     4   9  20  38  60  84 115 153 195 246 300 349
#     4  11  22  38  60  84 120 157 195 245 302 353
#     4  11  21  41  59  84 123 159 193 246 305 351
#     4   8  18  38  60  84 118 146 198 250 290 356
#     4  11  23  39  61  88 115 153 204 244 295 359
#     4   9  20  39  61  84 118 151 194 251 296 348
#     4  11  22  39  59  84 120 157 193 246 295 361
#
# _framework density 19.214580000000002
#
# number of rings (size 3 to 8) (size 9 to 14) (size 15 to 20)
#    0.000    2.154    3.077    1.846    0.000    9.846 
#    2.769    0.000    0.000    0.000    0.000    0.000 
#    0.000    0.000    0.000    0.000    0.000    0.000 
#
# Total GULP energy -322365.370884 kJ/mol
# GULP energy per Si atom -12398.668111 kJ/mol
# Density = 1.917085 g / cm^3
# Si number density = 19.214580 Si / 1000 Ang^3
#
#
#
# Elastic Constant Matrix: (Units=GPa)
#
#
# Indices 1 2 3 4 5 6 
#
# 1 70.2287 22.1788 10.8692 0.0000 -7.1762 0.0000
# 2 22.1788 117.4778 20.4088 0.0000 -7.9434 0.0000
# 3 10.8692 20.4088 75.5109 0.0000 -8.5805 0.0000
# 4 0.0000 0.0000 0.0000 20.7475 0.0000 3.2809
# 5 -7.1762 -7.9434 -8.5805 0.0000 46.5407 0.0000
# 6 0.0000 0.0000 0.0000 3.2809 0.0000 21.0898
#
#
#
# Elastic Compliance Matrix: (Units=1/GPa)
#
#
# Indices 1 2 3 4 5 6 
#
# 1 0.015429 -0.002566 -0.001335 0.000000 0.001695 0.000000
# 2 -0.002566 0.009414 -0.002081 0.000000 0.000827 0.000000
# 3 -0.001335 -0.002081 0.014232 0.000000 0.002063 0.000000
# 4 0.000000 0.000000 0.000000 0.049414 0.000000 -0.007687
# 5 0.001695 0.000827 0.002063 0.000000 0.022269 0.000000
# 6 0.000000 0.000000 0.000000 -0.007687 0.000000 0.048612
#
#
# Mechanical properties :
#
#
# Convention : Reuss Voigt Hill
#
# Bulk Modulus (GPa) = 36.88476 41.12568 39.00522
# Shear Modulus (GPa) = 27.72027 31.65961 29.68994
#
# Velocity S-wave (km/s) = 3.80237 4.06357 3.93514
# Velocity P-wave (km/s) = 6.20607 6.59293 6.40242
#
# Compressibility (1/GPa) = 0.02711147
#
# Stress axis : x y z
#
# Youngs Moduli (GPa) = 64.81103 106.22206 70.26366
#
# Poissons Ratio (x) = 0.27262 0.09378
# Poissons Ratio (y) = 0.16634 0.14622
# Poissons Ratio (z) = 0.08650 0.22105
#
# Static dielectric constant tensor:
#      x y z
#    x 3.421450 0.000000 -0.002140 
#    y 0.000000 3.788990 0.000000 
#    z -0.002140 0.000000 3.492910 
# 
# 
# High freq. dielectric constant tensor:
#      x y z
#    x 1.734000 0.000000 0.002240 
#    y 0.000000 1.757010 0.000000 
#    z 0.002240 0.000000 1.749810 
# 
# From -- ./inp_files/95550.got.cif
#   From: 2010.06.25/outbox.cif.g09.slc.cpg/sg13_48_cif.got.tgz:95550.got - 2010.06.28 04:50:58.
