data_PCOD8122339
_publ_section_title
;
Structure prediction by ZEFSAII (Michael W. Deem and Ramdas Pophale) SiO2 
 PCOD8122339
Probable space group: P 2/C
;
_chemical_formula_sum "Si O2"
_cell_formula_units_Z 16
_cell_length_a 6.238903
_cell_length_b 10.781053
_cell_length_c 10.300896
_cell_angle_alpha 90.000000
_cell_angle_beta 92.916479
_cell_angle_gamma 90.000000
_cell_volume 691.960874
_symmetry_space_group_name_H-M "P 2/C"
_symmetry_group_IT_number 13
_symmetry_cell_setting 'monoclinic'
loop_
_space_group_symop_operation_xyz
x,y,z
-x,y,1/2-z
-x,-y,-z
x,-y,1/2+z
loop_
_atom_site_type_symbol
_atom_site_label
_atom_site_fract_x
_atom_site_fract_y
_atom_site_fract_z
Si Si1 0.500000 0.508748 0.750000
Si Si2 0.631944 0.947049 0.124597
Si Si3 0.000000 0.903553 0.750000
Si Si4 0.179577 0.316928 0.860866
Si Si5 0.147185 0.666756 0.640867
O O1 0.332333 0.427955 0.824193
O O2 0.378076 0.601158 0.648018
O O3 0.500000 0.971995 0.250000
O O4 0.669259 0.800982 0.107456
O O5 0.862459 0.014339 0.145721
O O6 0.500000 0.000000 0.000000
O O7 0.840568 0.814726 0.829219
O O8 0.000000 0.285264 0.750000
O O9 0.057163 0.352132 0.991831
O O10 0.000000 0.602931 0.750000
#
# Coordination Sequence:
#
# PCOD8122339 Si02
#       5
#     2   4   2   4   4
#     4  12  26  48  74 110 144 196 256 294 372 440
#     4  12  27  46  77 111 148 194 246 307 375 446
#     4  10  26  48  74 108 146 190 248 304 372 434
#     4  12  27  47  75 110 150 193 247 309 368 435
#     4  10  27  47  75 102 147 196 243 304 362 438
#
# _framework density 23.122693000000002
#
# number of rings (size 3 to 8) (size 9 to 14) (size 15 to 20)
#    0.750    0.000    2.500    3.000    8.750    8.000 
#    0.000    0.000    0.000    0.000    0.000    0.000 
#    0.000    0.000    0.000    0.000    0.000    0.000 
#
# Total GULP energy -198356.140564 kJ/mol
# GULP energy per Si atom -12397.258785 kJ/mol
# Density = 2.307007 g / cm^3
# Si number density = 23.122693 Si / 1000 Ang^3
#
#
#
# Elastic Constant Matrix: (Units=GPa)
#
#
# Indices 1 2 3 4 5 6 
#
# 1 98.4545 56.7515 58.9204 0.0000 26.8434 0.0000
# 2 56.7515 125.5885 32.9742 0.0000 15.1121 0.0000
# 3 58.9204 32.9742 206.2255 0.0000 13.2491 0.0000
# 4 0.0000 0.0000 0.0000 -1.4460 0.0000 6.6408
# 5 26.8434 15.1121 13.2491 0.0000 47.5250 0.0000
# 6 0.0000 0.0000 0.0000 6.6408 0.0000 51.0147
#
#
#
# Elastic Compliance Matrix: (Units=1/GPa)
#
#
# Indices 1 2 3 4 5 6 
#
# 1 0.017893 -0.006273 -0.003654 0.000000 -0.007093 0.000000
# 2 -0.006273 0.010768 0.000064 0.000000 0.000101 0.000000
# 3 -0.003654 0.000064 0.005856 0.000000 0.000411 0.000000
# 4 0.000000 0.000000 0.000000 -0.432813 0.000000 0.056341
# 5 -0.007093 0.000101 0.000411 0.000000 0.024901 0.000000
# 6 0.000000 0.000000 0.000000 0.056341 0.000000 0.012268
#
#
# Mechanical properties :
#
#
# Convention : Reuss Voigt Hill
#
# Bulk Modulus (GPa) = 67.60047 80.84007 74.22027
# Shear Modulus (GPa) = -14.86016 38.19358 11.66671
#
# Velocity S-wave (km/s) = -2.53784 4.06862 2.24867
# Velocity P-wave (km/s) = 4.55099 7.55704 6.23780
#
# Compressibility (1/GPa) = 0.01479280
#
# Stress axis : x y z
#
# Youngs Moduli (GPa) = 55.88687 92.86637 170.75618
#
# Poissons Ratio (x) = 0.58254 0.62387
# Poissons Ratio (y) = 0.35057 -0.01092
# Poissons Ratio (z) = 0.20419 -0.00594
#
# Static dielectric constant tensor:
#      x y z
#    x 4.073660 0.000000 0.068810 
#    y 0.000000 4.252410 0.000000 
#    z 0.068810 0.000000 4.414370 
# 
# 
# High freq. dielectric constant tensor:
#      x y z
#    x 1.899900 0.000000 0.001300 
#    y 0.000000 1.932840 0.000000 
#    z 0.001300 0.000000 1.922500 
# 
# From -- ./inp_files/25803.got.cif
#   From: 2010.06.25/outbox.cif.g09.slc.cpg/sg13_13_cif.got.tgz:25803.got - 2010.06.28 04:50:58.
