data_PCOD8122041
_publ_section_title
;
Structure prediction by ZEFSAII (Michael W. Deem and Ramdas Pophale) SiO2 
 PCOD8122041
Probable space group: P 2/C
;
_chemical_formula_sum "Si O2"
_cell_formula_units_Z 18
_cell_length_a 22.809424
_cell_length_b 4.734786
_cell_length_c 10.364655
_cell_angle_alpha 90.000000
_cell_angle_beta 143.262179
_cell_angle_gamma 90.000000
_cell_volume 669.549563
_symmetry_space_group_name_H-M "P 2/C"
_symmetry_group_IT_number 13
_symmetry_cell_setting 'monoclinic'
loop_
_space_group_symop_operation_xyz
x,y,z
-x,y,1/2-z
-x,-y,-z
x,-y,1/2+z
loop_
_atom_site_type_symbol
_atom_site_label
_atom_site_fract_x
_atom_site_fract_y
_atom_site_fract_z
Si Si1 0.141299 0.992854 0.661295
Si Si2 0.163906 0.500238 0.865275
Si Si3 0.558937 0.623149 0.481524
Si Si4 0.309065 0.860376 0.267475
Si Si5 0.000000 0.321784 0.250000
O O1 0.183262 0.178648 0.856690
O O2 0.223322 0.991516 0.696499
O O3 0.038650 0.120764 0.432723
O O4 0.116940 0.673041 0.661720
O O5 0.089777 0.488468 0.856006
O O6 0.263134 0.676796 0.068572
O O7 0.500000 0.725315 0.250000
O O8 0.500000 0.500000 0.500000
O O9 0.629295 0.377919 0.547488
O O10 0.618456 0.888423 0.646748
#
# Coordination Sequence:
#
# PCOD8122041 Si02
#       5
#     4   4   4   4   2
#     4  11  24  42  70  98 143 186 236 295 352 433
#     4  11  24  42  70  98 142 186 238 293 353 433
#     4  12  28  48  76 106 144 186 242 300 370 438
#     4  11  26  45  70 103 139 185 238 295 367 430
#     4  10  24  42  64 108 136 190 236 288 356 420
#
# _framework density 26.883742999999999
#
# number of rings (size 3 to 8) (size 9 to 14) (size 15 to 20)
#    0.000    0.889    0.000    5.333    9.333    7.111 
#    0.000    0.000    0.000    0.000    0.000    0.000 
#    0.000    0.000    0.000    0.000    0.000    0.000 
#
# Total GULP energy -223224.686226 kJ/mol
# GULP energy per Si atom -12401.371457 kJ/mol
# Density = 2.682255 g / cm^3
# Si number density = 26.883743 Si / 1000 Ang^3
#
#
#
# Elastic Constant Matrix: (Units=GPa)
#
#
# Indices 1 2 3 4 5 6 
#
# 1 60.6221 -2.9119 29.7954 0.0000 -9.2984 0.0000
# 2 -2.9119 108.4883 9.2338 0.0000 10.4992 0.0000
# 3 29.7954 9.2338 75.8105 0.0000 10.7429 0.0000
# 4 0.0000 0.0000 0.0000 21.2893 0.0000 -4.1859
# 5 -9.2984 10.4992 10.7429 0.0000 36.4004 0.0000
# 6 0.0000 0.0000 0.0000 -4.1859 0.0000 32.3248
#
#
#
# Elastic Compliance Matrix: (Units=1/GPa)
#
#
# Indices 1 2 3 4 5 6 
#
# 1 0.022943 0.000651 -0.010333 0.000000 0.008722 0.000000
# 2 0.000651 0.009548 -0.001098 0.000000 -0.002263 0.000000
# 3 -0.010333 -0.001098 0.018488 0.000000 -0.007779 0.000000
# 4 0.000000 0.000000 0.000000 0.048199 0.000000 0.006241
# 5 0.008722 -0.002263 -0.007779 0.000000 0.032649 0.000000
# 6 0.000000 0.000000 0.000000 0.006241 0.000000 0.031744
#
#
# Mechanical properties :
#
#
# Convention : Reuss Voigt Hill
#
# Bulk Modulus (GPa) = 33.99101 35.23951 34.61526
# Shear Modulus (GPa) = 25.64938 31.92315 28.78627
#
# Velocity S-wave (km/s) = 3.09218 3.44968 3.27581
# Velocity P-wave (km/s) = 5.04182 5.38550 5.21649
#
# Compressibility (1/GPa) = 0.02941955
#
# Stress axis : x y z
#
# Youngs Moduli (GPa) = 43.58594 104.73871 54.08961
#
# Poissons Ratio (x) = -0.06820 0.55888
# Poissons Ratio (y) = -0.02838 0.05939
# Poissons Ratio (z) = 0.45035 0.11501
#
# Static dielectric constant tensor:
#      x y z
#    x 4.414390 0.000000 0.113130 
#    y 0.000000 4.884910 0.000000 
#    z 0.113130 0.000000 5.229540 
# 
# 
# High freq. dielectric constant tensor:
#      x y z
#    x 2.064170 0.000000 0.000930 
#    y 0.000000 2.097350 0.000000 
#    z 0.000930 0.000000 2.091890 
# 
# From -- ./inp_files/42059.got.cif
#   From: 2010.06.25/outbox.cif.g09.slc.cpg/sg13_22_cif.got.tgz:42059.got - 2010.06.28 04:50:58.
