data_PCOD8122052
_publ_section_title
;
Structure prediction by ZEFSAII (Michael W. Deem and Ramdas Pophale) SiO2 
 PCOD8122052
Probable space group: P 2/C
;
_chemical_formula_sum "Si O2"
_cell_formula_units_Z 26
_cell_length_a 22.790298
_cell_length_b 6.053815
_cell_length_c 9.881045
_cell_angle_alpha 90.000000
_cell_angle_beta 121.474749
_cell_angle_gamma 90.000000
_cell_volume 1162.692964
_symmetry_space_group_name_H-M "P 2/C"
_symmetry_group_IT_number 13
_symmetry_cell_setting 'monoclinic'
loop_
_space_group_symop_operation_xyz
x,y,z
-x,y,1/2-z
-x,-y,-z
x,-y,1/2+z
loop_
_atom_site_type_symbol
_atom_site_label
_atom_site_fract_x
_atom_site_fract_y
_atom_site_fract_z
Si Si1 0.500000 0.946405 0.750000
Si Si2 0.728436 0.062731 0.534886
Si Si3 0.385073 0.643688 0.729229
Si Si4 0.835878 0.361712 0.791395
Si Si5 0.954401 0.069650 0.818783
Si Si6 0.158743 0.743727 0.903102
Si Si7 0.387164 0.257213 0.524611
O O1 0.451430 0.793084 0.781673
O O2 0.454170 0.101978 0.598764
O O3 0.846915 0.602505 0.465253
O O4 0.782091 0.927978 0.506581
O O5 0.679609 0.896366 0.556477
O O6 0.684822 0.227511 0.388926
O O7 0.389190 0.410964 0.658794
O O8 0.384971 0.589376 0.888894
O O9 0.903717 0.262375 0.804337
O O10 0.820731 0.592982 0.700082
O O11 0.770381 0.203004 0.695559
O O12 0.000000 0.163457 0.750000
O O13 0.914072 0.856452 0.714952
O O14 0.000000 0.000000 0.000000
#
# Coordination Sequence:
#
# PCOD8122052 Si02
#       7
#     2   4   4   4   4   4   4
#     4  10  24  42  64  92 130 172 210 264 312 378
#     4  10  24  43  66  91 129 168 214 261 316 373
#     4  11  24  42  66  95 128 168 213 263 317 378
#     4  11  25  42  66  95 128 167 212 262 316 378
#     4  11  24  45  66  94 131 169 212 261 317 378
#     4  11  25  42  66  96 127 167 213 261 317 377
#     4  11  24  42  66  95 128 167 214 262 319 378
#
# _framework density 22.361878999999998
#
# number of rings (size 3 to 8) (size 9 to 14) (size 15 to 20)
#    0.000    1.231    1.538    2.769    2.154   14.769 
#    0.000    0.000    0.000    0.000    0.000    0.000 
#    0.000    0.000    0.000    0.000    0.000    0.000 
#
# Total GULP energy -322520.631472 kJ/mol
# GULP energy per Si atom -12404.639672 kJ/mol
# Density = 2.231098 g / cm^3
# Si number density = 22.361879 Si / 1000 Ang^3
#
#
#
# Elastic Constant Matrix: (Units=GPa)
#
#
# Indices 1 2 3 4 5 6 
#
# 1 84.7488 15.6357 49.6012 0.0000 21.6248 0.0000
# 2 15.6357 71.2502 9.2280 0.0000 14.6715 0.0000
# 3 49.6012 9.2280 88.8466 0.0000 1.1994 0.0000
# 4 0.0000 0.0000 0.0000 30.2047 0.0000 -8.7037
# 5 21.6248 14.6715 1.1994 0.0000 41.4427 0.0000
# 6 0.0000 0.0000 0.0000 -8.7037 0.0000 18.8134
#
#
#
# Elastic Compliance Matrix: (Units=1/GPa)
#
#
# Indices 1 2 3 4 5 6 
#
# 1 0.021595 -0.001035 -0.011806 0.000000 -0.010560 0.000000
# 2 -0.001035 0.015391 -0.000955 0.000000 -0.004881 0.000000
# 3 -0.011806 -0.000955 0.017865 0.000000 0.005981 0.000000
# 4 0.000000 0.000000 0.000000 0.038200 0.000000 0.017672
# 5 -0.010560 -0.004881 0.005981 0.000000 0.031195 0.000000
# 6 0.000000 0.000000 0.000000 0.017672 0.000000 0.061329
#
#
# Mechanical properties :
#
#
# Convention : Reuss Voigt Hill
#
# Bulk Modulus (GPa) = 36.68558 43.75281 40.21920
# Shear Modulus (GPa) = 22.49698 29.45088 25.97393
#
# Velocity S-wave (km/s) = 3.17526 3.63300 3.41182
# Velocity P-wave (km/s) = 5.46663 6.09972 5.79183
#
# Compressibility (1/GPa) = 0.02725867
#
# Stress axis : x y z
#
# Youngs Moduli (GPa) = 46.30761 64.97329 55.97634
#
# Poissons Ratio (x) = 0.06728 0.66084
# Poissons Ratio (y) = 0.04795 0.05344
# Poissons Ratio (z) = 0.54670 0.06202
#
# Static dielectric constant tensor:
#      x y z
#    x 4.363850 0.000000 0.351790 
#    y 0.000000 3.940520 0.000000 
#    z 0.351790 0.000000 4.068690 
# 
# 
# High freq. dielectric constant tensor:
#      x y z
#    x 1.890590 0.000000 0.012820 
#    y 0.000000 1.875410 0.000000 
#    z 0.012820 0.000000 1.890030 
# 
# From -- ./inp_files/41087.got.cif
#   From: 2010.06.25/outbox.cif.g09.slc.cpg/sg13_21_cif.got.tgz:41087.got - 2010.06.28 04:50:58.
