data_PCOD8122347
_publ_section_title
;
Structure prediction by ZEFSAII (Michael W. Deem and Ramdas Pophale) SiO2 
 PCOD8122347
Probable space group: P 2/C
;
_chemical_formula_sum "Si O2"
_cell_formula_units_Z 24
_cell_length_a 13.017279
_cell_length_b 6.281340
_cell_length_c 24.922197
_cell_angle_alpha 90.000000
_cell_angle_beta 148.700346
_cell_angle_gamma 90.000000
_cell_volume 1058.658905
_symmetry_space_group_name_H-M "P 2/C"
_symmetry_group_IT_number 13
_symmetry_cell_setting 'monoclinic'
loop_
_space_group_symop_operation_xyz
x,y,z
-x,y,1/2-z
-x,-y,-z
x,-y,1/2+z
loop_
_atom_site_type_symbol
_atom_site_label
_atom_site_fract_x
_atom_site_fract_y
_atom_site_fract_z
Si Si1 0.857191 0.147778 0.052079
Si Si2 0.733910 0.010020 0.605287
Si Si3 0.500000 0.870261 0.250000
Si Si4 0.213604 0.438410 0.575603
Si Si5 0.417445 0.822349 0.622734
Si Si6 0.000000 0.386672 0.750000
Si Si7 0.796853 0.262667 0.231793
O O1 0.787632 0.159382 0.082776
O O2 0.093099 0.184867 0.164118
O O3 0.779448 0.339747 0.980978
O O4 0.777870 0.923079 0.993090
O O5 0.820547 0.926143 0.699814
O O6 0.500000 0.000000 0.500000
O O7 0.833166 0.244404 0.644327
O O8 0.696747 0.726041 0.341482
O O9 0.471018 0.002036 0.291680
O O10 0.346161 0.647378 0.632934
O O11 0.000000 0.500000 0.500000
O O12 0.565371 0.718723 0.644918
O O13 0.116004 0.521402 0.755803
#
# Coordination Sequence:
#
# PCOD8122347 Si02
#       7
#     4   4   2   4   4   2   4
#     4  11  25  45  70 107 139 187 239 285 364 418
#     4  12  25  47  69 104 151 190 232 293 353 431
#     4  10  26  50  70 104 140 182 242 292 370 422
#     4  11  28  48  74 107 139 185 245 303 356 428
#     4  11  27  46  74 102 142 189 235 297 361 425
#     4  12  26  44  72 102 148 190 236 288 350 420
#     4  12  26  44  71 107 145 189 238 289 350 428
#
# _framework density 22.670193000000001
#
# number of rings (size 3 to 8) (size 9 to 14) (size 15 to 20)
#    0.000    0.667    5.000    0.500   11.667    2.000 
#    0.000    0.000    0.000    0.000    0.000    0.000 
#    0.000    0.000    0.000    0.000    0.000    0.000 
#
# Total GULP energy -297445.167048 kJ/mol
# GULP energy per Si atom -12393.548627 kJ/mol
# Density = 2.261859 g / cm^3
# Si number density = 22.670193 Si / 1000 Ang^3
#
#
#
# Elastic Constant Matrix: (Units=GPa)
#
#
# Indices 1 2 3 4 5 6 
#
# 1 111.6721 62.9042 40.1560 0.0000 15.3142 0.0000
# 2 62.9042 129.1263 70.5737 0.0000 14.5961 0.0000
# 3 40.1560 70.5737 134.7489 0.0000 -8.8413 0.0000
# 4 0.0000 0.0000 0.0000 37.1483 0.0000 2.5826
# 5 15.3142 14.5961 -8.8413 0.0000 38.2960 0.0000
# 6 0.0000 0.0000 0.0000 2.5826 0.0000 29.2843
#
#
#
# Elastic Compliance Matrix: (Units=1/GPa)
#
#
# Indices 1 2 3 4 5 6 
#
# 1 0.012794 -0.005083 -0.001380 0.000000 -0.003497 0.000000
# 2 -0.005083 0.014161 -0.006217 0.000000 -0.004800 0.000000
# 3 -0.001380 -0.006217 0.011454 0.000000 0.005566 0.000000
# 4 0.000000 0.000000 0.000000 0.027085 0.000000 -0.002389
# 5 -0.003497 -0.004800 0.005566 0.000000 0.030625 0.000000
# 6 0.000000 0.000000 0.000000 -0.002389 0.000000 0.034359
#
#
# Mechanical properties :
#
#
# Convention : Reuss Voigt Hill
#
# Bulk Modulus (GPa) = 76.63523 80.31279 78.47401
# Shear Modulus (GPa) = 31.21358 34.40662 32.81010
#
# Velocity S-wave (km/s) = 3.71463 3.90000 3.80844
# Velocity P-wave (km/s) = 7.23019 7.46883 7.35048
#
# Compressibility (1/GPa) = 0.01304883
#
# Stress axis : x y z
#
# Youngs Moduli (GPa) = 78.16262 70.61680 87.30858
#
# Poissons Ratio (x) = 0.35895 0.12048
# Poissons Ratio (y) = 0.39730 0.54278
# Poissons Ratio (z) = 0.10786 0.43901
#
# Static dielectric constant tensor:
#      x y z
#    x 3.956070 0.000000 0.041410 
#    y 0.000000 4.109590 0.000000 
#    z 0.041410 0.000000 4.683720 
# 
# 
# High freq. dielectric constant tensor:
#      x y z
#    x 1.885440 0.000000 -0.002430 
#    y 0.000000 1.889500 0.000000 
#    z -0.002430 0.000000 1.917190 
# 
# From -- ./inp_files/52139.got.cif
#   From: 2010.06.25/outbox.cif.g09.slc.cpg/sg13_27_cif.got.tgz:52139.got - 2010.06.28 04:50:58.
