data_PCOD8122267
_publ_section_title
;
Structure prediction by ZEFSAII (Michael W. Deem and Ramdas Pophale) SiO2 
 PCOD8122267
Probable space group: P 2/C
;
_chemical_formula_sum "Si O2"
_cell_formula_units_Z 22
_cell_length_a 10.039030
_cell_length_b 9.368170
_cell_length_c 10.989369
_cell_angle_alpha 90.000000
_cell_angle_beta 108.541044
_cell_angle_gamma 90.000000
_cell_volume 979.877163
_symmetry_space_group_name_H-M "P 2/C"
_symmetry_group_IT_number 13
_symmetry_cell_setting 'monoclinic'
loop_
_space_group_symop_operation_xyz
x,y,z
-x,y,1/2-z
-x,-y,-z
x,-y,1/2+z
loop_
_atom_site_type_symbol
_atom_site_label
_atom_site_fract_x
_atom_site_fract_y
_atom_site_fract_z
Si Si1 0.562656 0.320605 0.651998
Si Si2 0.332159 0.779441 0.704071
Si Si3 0.727742 0.714248 0.544299
Si Si4 0.206192 0.594603 0.454398
Si Si5 0.000000 0.219489 0.750000
Si Si6 0.755074 0.097648 0.830563
O O1 0.500000 0.408584 0.750000
O O2 0.440537 0.295123 0.520029
O O3 0.683766 0.411104 0.625460
O O4 0.624258 0.172653 0.724267
O O5 0.500000 0.767933 0.750000
O O6 0.254865 0.750795 0.809680
O O7 0.270035 0.667389 0.591130
O O8 0.283936 0.936282 0.651525
O O9 0.816536 0.573634 0.529395
O O10 0.787070 0.836033 0.472627
O O11 0.067577 0.677052 0.371478
O O12 0.890328 0.114943 0.783683
#
# Coordination Sequence:
#
# PCOD8122267 Si02
#       6
#     4   4   4   4   2   4
#     4   9  19  38  68  94 139 176 218 278 348 398
#     4  12  26  41  73 110 140 174 226 284 355 409
#     4  11  24  41  69 106 137 173 230 284 349 405
#     4  11  25  43  69  99 140 185 227 283 340 403
#     4  10  26  52  70  86 142 192 238 278 330 398
#     4  10  25  45  68  98 139 188 227 279 339 410
#
# _framework density 22.451794
#
# number of rings (size 3 to 8) (size 9 to 14) (size 15 to 20)
#    0.000    1.455    1.818    2.182   12.727    2.909 
#    0.000    0.000    0.000    0.000    0.000    0.000 
#    0.000    0.000    0.000    0.000    0.000    0.000 
#
# Total GULP energy -272766.254209 kJ/mol
# GULP energy per Si atom -12398.466100 kJ/mol
# Density = 2.240069 g / cm^3
# Si number density = 22.451794 Si / 1000 Ang^3
#
#
#
# Elastic Constant Matrix: (Units=GPa)
#
#
# Indices 1 2 3 4 5 6 
#
# 1 59.8586 -0.5094 26.3991 0.0000 3.6321 0.0000
# 2 -0.5094 118.2343 51.6578 0.0000 -8.4724 0.0000
# 3 26.3991 51.6578 132.2622 0.0000 -12.8491 0.0000
# 4 0.0000 0.0000 0.0000 35.2976 0.0000 -6.1684
# 5 3.6321 -8.4724 -12.8491 0.0000 27.2215 0.0000
# 6 0.0000 0.0000 0.0000 -6.1684 0.0000 16.1134
#
#
#
# Elastic Compliance Matrix: (Units=1/GPa)
#
#
# Indices 1 2 3 4 5 6 
#
# 1 0.019199 0.001966 -0.005020 0.000000 -0.004319 0.000000
# 2 0.001966 0.010447 -0.004384 0.000000 0.000920 0.000000
# 3 -0.005020 -0.004384 0.010698 0.000000 0.004355 0.000000
# 4 0.000000 0.000000 0.000000 0.030362 0.000000 0.011623
# 5 -0.004319 0.000920 0.004355 0.000000 0.039654 0.000000
# 6 0.000000 0.000000 0.000000 0.011623 0.000000 0.066509
#
#
# Mechanical properties :
#
#
# Convention : Reuss Voigt Hill
#
# Bulk Modulus (GPa) = 39.26151 51.71669 45.48910
# Shear Modulus (GPa) = 24.97100 31.24701 28.10900
#
# Velocity S-wave (km/s) = 3.33859 3.73465 3.54216
# Velocity P-wave (km/s) = 5.69092 6.45611 6.08555
#
# Compressibility (1/GPa) = 0.02547024
#
# Stress axis : x y z
#
# Youngs Moduli (GPa) = 52.08725 95.71765 93.47732
#
# Poissons Ratio (x) = -0.18821 0.46921
# Poissons Ratio (y) = -0.10242 0.40976
# Poissons Ratio (z) = 0.26145 0.41958
#
# Static dielectric constant tensor:
#      x y z
#    x 4.074780 0.000000 -0.109240 
#    y 0.000000 3.906500 0.000000 
#    z -0.109240 0.000000 4.174580 
# 
# 
# High freq. dielectric constant tensor:
#      x y z
#    x 1.879940 0.000000 -0.014180 
#    y 0.000000 1.877830 0.000000 
#    z -0.014180 0.000000 1.895130 
# 
# From -- ./inp_files/32703.got.cif
#   From: 2010.06.25/outbox.cif.g09.slc.cpg/sg13_17_cif.got.tgz:32703.got - 2010.06.28 04:50:58.
