data_PCOD8122443
_publ_section_title
;
Structure prediction by ZEFSAII (Michael W. Deem and Ramdas Pophale) SiO2 
 PCOD8122443
Probable space group: P 2/C
;
_chemical_formula_sum "Si O2"
_cell_formula_units_Z 28
_cell_length_a 20.465293
_cell_length_b 9.165571
_cell_length_c 9.623043
_cell_angle_alpha 90.000000
_cell_angle_beta 46.644663
_cell_angle_gamma 90.000000
_cell_volume 1312.472052
_symmetry_space_group_name_H-M "P 2/C"
_symmetry_group_IT_number 13
_symmetry_cell_setting 'monoclinic'
loop_
_space_group_symop_operation_xyz
x,y,z
-x,y,1/2-z
-x,-y,-z
x,-y,1/2+z
loop_
_atom_site_type_symbol
_atom_site_label
_atom_site_fract_x
_atom_site_fract_y
_atom_site_fract_z
Si Si1 0.440552 0.481854 0.453007
Si Si2 0.736847 0.846078 0.639356
Si Si3 0.723130 0.679623 0.387381
Si Si4 0.145246 0.431082 0.201266
Si Si5 0.910442 0.346246 0.939547
Si Si6 0.601158 0.198019 0.582373
Si Si7 0.250472 0.830491 0.420679
O O1 0.500000 0.402917 0.250000
O O2 0.500000 0.500000 0.500000
O O3 0.356590 0.377154 0.596519
O O4 0.405606 0.633739 0.445237
O O5 0.692252 0.760348 0.573850
O O6 0.822473 0.754169 0.565005
O O7 0.776102 0.999660 0.528212
O O8 0.661671 0.872891 0.869407
O O9 0.782870 0.540627 0.336095
O O10 0.766214 0.793905 0.217757
O O11 0.072309 0.395038 0.427060
O O12 0.100270 0.506369 0.135132
O O13 0.187748 0.275499 0.101133
O O14 0.000000 0.264978 0.750000
O O15 0.500000 0.130336 0.750000
O O16 0.648948 0.181456 0.661968
#
# Coordination Sequence:
#
# PCOD8122443 Si02
#       7
#     4   4   4   4   4   4   4
#     4  11  21  34  58  90 122 157 220 280 318 361
#     4  11  25  42  66  94 136 179 217 265 336 403
#     4  11  22  38  65  92 123 176 219 263 332 383
#     4  11  22  41  69  97 132 166 218 271 324 389
#     4  11  23  44  72 103 132 166 215 274 334 396
#     4  11  23  41  65  93 132 174 223 281 322 375
#     4  12  23  42  64  94 135 178 217 268 327 391
#
# _framework density 21.333787999999998
#
# number of rings (size 3 to 8) (size 9 to 14) (size 15 to 20)
#    0.000    0.857    4.286    3.857    2.000    0.571 
#    0.000    4.286    0.000    0.000    0.000    0.000 
#    0.000    0.000    0.000    0.000    0.000    0.000 
#
# Total GULP energy -346959.602153 kJ/mol
# GULP energy per Si atom -12391.414363 kJ/mol
# Density = 2.128523 g / cm^3
# Si number density = 21.333788 Si / 1000 Ang^3
#
#
#
# Elastic Constant Matrix: (Units=GPa)
#
#
# Indices 1 2 3 4 5 6 
#
# 1 67.2149 12.0462 40.9519 0.0000 7.3363 0.0000
# 2 12.0462 94.4015 27.5845 0.0000 -0.8745 0.0000
# 3 40.9519 27.5845 137.9733 0.0000 6.5961 0.0000
# 4 0.0000 0.0000 0.0000 22.4655 0.0000 4.5514
# 5 7.3363 -0.8745 6.5961 0.0000 33.9571 0.0000
# 6 0.0000 0.0000 0.0000 4.5514 0.0000 14.9898
#
#
#
# Elastic Compliance Matrix: (Units=1/GPa)
#
#
# Indices 1 2 3 4 5 6 
#
# 1 0.018518 -0.000878 -0.005177 0.000000 -0.003018 0.000000
# 2 -0.000878 0.011310 -0.002042 0.000000 0.000878 0.000000
# 3 -0.005177 -0.002042 0.009227 0.000000 -0.000727 0.000000
# 4 0.000000 0.000000 0.000000 0.047430 0.000000 -0.014402
# 5 -0.003018 0.000878 -0.000727 0.000000 0.030265 0.000000
# 6 0.000000 0.000000 0.000000 -0.014402 0.000000 0.071085
#
#
# Mechanical properties :
#
#
# Convention : Reuss Voigt Hill
#
# Bulk Modulus (GPa) = 43.74260 51.19498 47.46879
# Shear Modulus (GPa) = 23.62382 28.88297 26.25339
#
# Velocity S-wave (km/s) = 3.33129 3.68348 3.51180
# Velocity P-wave (km/s) = 5.94517 6.49152 6.22434
#
# Compressibility (1/GPa) = 0.02286101
#
# Stress axis : x y z
#
# Youngs Moduli (GPa) = 54.00036 88.41673 108.37398
#
# Poissons Ratio (x) = 0.07766 0.56100
# Poissons Ratio (y) = 0.04743 0.22135
# Poissons Ratio (z) = 0.27954 0.18058
#
# Static dielectric constant tensor:
#      x y z
#    x 4.123890 0.000000 0.396940 
#    y 0.000000 3.617060 0.000000 
#    z 0.396940 0.000000 4.657460 
# 
# 
# High freq. dielectric constant tensor:
#      x y z
#    x 1.835410 0.000000 0.021010 
#    y 0.000000 1.823570 0.000000 
#    z 0.021010 0.000000 1.844280 
# 
# From -- ./inp_files/22958.got.cif
#   From: 2010.06.25/outbox.cif.g09.slc.cpg/sg13_12_cif.got.tgz:22958.got - 2010.06.28 04:50:58.
