data_PCOD8122416
_publ_section_title
;
Structure prediction by ZEFSAII (Michael W. Deem and Ramdas Pophale) SiO2 
 PCOD8122416
Probable space group: P 2/C
;
_chemical_formula_sum "Si O2"
_cell_formula_units_Z 32
_cell_length_a 14.690954
_cell_length_b 11.688698
_cell_length_c 17.376157
_cell_angle_alpha 90.000000
_cell_angle_beta 32.759307
_cell_angle_gamma 90.000000
_cell_volume 1614.567834
_symmetry_space_group_name_H-M "P 2/C"
_symmetry_group_IT_number 13
_symmetry_cell_setting 'monoclinic'
loop_
_space_group_symop_operation_xyz
x,y,z
-x,y,1/2-z
-x,-y,-z
x,-y,1/2+z
loop_
_atom_site_type_symbol
_atom_site_label
_atom_site_fract_x
_atom_site_fract_y
_atom_site_fract_z
Si Si1 0.879259 0.042120 0.262724
Si Si2 0.051105 0.186416 0.018796
Si Si3 0.681949 0.552089 0.641667
Si Si4 0.198730 0.383860 0.283348
Si Si5 0.335790 0.297218 0.904553
Si Si6 0.213885 0.188575 0.740020
Si Si7 0.981828 0.409487 0.672683
Si Si8 0.393680 0.232121 0.030020
O O1 0.711450 0.115173 0.395999
O O2 0.000000 0.058938 0.250000
O O3 0.957556 0.079301 0.124523
O O4 0.832704 0.909222 0.288060
O O5 0.927619 0.292071 0.089574
O O6 0.179267 0.219889 0.994711
O O7 0.142822 0.154402 0.874443
O O8 0.500000 0.607371 0.750000
O O9 0.705538 0.551097 0.716584
O O10 0.690311 0.422511 0.609611
O O11 0.833521 0.619633 0.492639
O O12 0.341322 0.317587 0.134880
O O13 0.093033 0.473399 0.308277
O O14 0.500000 0.239727 0.750000
O O15 0.355794 0.304926 0.981156
O O16 0.413183 0.198970 0.601761
O O17 0.141184 0.306628 0.760375
O O18 0.000000 0.426609 0.750000
#
# Coordination Sequence:
#
# PCOD8122416 Si02
#       8
#     4   4   4   4   4   4   4   4
#     4  11  24  44  67  94 126 169 220 280 331 383
#     4  11  21  41  70  91 126 166 221 266 324 391
#     4  11  24  40  64  94 139 171 211 265 323 389
#     4  11  24  42  64  98 131 175 211 268 331 379
#     4  11  20  37  65 100 124 164 214 274 317 369
#     4  12  25  43  65  94 133 174 217 265 335 391
#     4  12  25  41  64  95 137 175 215 265 325 408
#     4  11  25  41  69  95 130 167 226 274 319 391
#
# _framework density 19.819545999999999
#
# number of rings (size 3 to 8) (size 9 to 14) (size 15 to 20)
#    0.000    0.750    5.000    3.000    3.500    0.500 
#    0.000    0.000    0.000    0.750    0.000    0.000 
#    0.000    0.000    0.000    0.000    0.000    0.000 
#
# Total GULP energy -396870.008133 kJ/mol
# GULP energy per Si atom -12402.187754 kJ/mol
# Density = 1.977444 g / cm^3
# Si number density = 19.819546 Si / 1000 Ang^3
#
#
#
# Elastic Constant Matrix: (Units=GPa)
#
#
# Indices 1 2 3 4 5 6 
#
# 1 128.5711 33.7740 64.9217 0.0000 -0.0825 0.0000
# 2 33.7740 89.4812 40.8594 0.0000 -1.8794 0.0000
# 3 64.9217 40.8594 128.3171 0.0000 -0.6013 0.0000
# 4 0.0000 0.0000 0.0000 -130.1209 0.0000 -10.8076
# 5 -0.0825 -1.8794 -0.6013 0.0000 35.4709 0.0000
# 6 0.0000 0.0000 0.0000 -10.8076 0.0000 -1.7935
#
#
#
# Elastic Compliance Matrix: (Units=1/GPa)
#
#
# Indices 1 2 3 4 5 6 
#
# 1 0.010698 -0.001836 -0.004829 0.000000 -0.000154 0.000000
# 2 -0.001836 0.013406 -0.003337 0.000000 0.000649 0.000000
# 3 -0.004829 -0.003337 0.011299 0.000000 0.000004 0.000000
# 4 0.000000 0.000000 0.000000 -0.015386 0.000000 0.092715
# 5 -0.000154 0.000649 0.000004 0.000000 0.028226 0.000000
# 6 0.000000 0.000000 0.000000 0.092715 0.000000 -1.116266
#
#
# Mechanical properties :
#
#
# Convention : Reuss Voigt Hill
#
# Bulk Modulus (GPa) = 64.93708 69.49772 67.21740
# Shear Modulus (GPa) = -4.79439 -5.50107 -5.14773
#
# Velocity S-wave (km/s) = -1.55701 -1.66781 -1.61336
# Velocity P-wave (km/s) = 5.44086 5.60647 5.52429
#
# Compressibility (1/GPa) = 0.01539952
#
# Stress axis : x y z
#
# Youngs Moduli (GPa) = 93.47220 74.59420 88.50490
#
# Poissons Ratio (x) = 0.13698 0.42737
# Poissons Ratio (y) = 0.17164 0.29531
# Poissons Ratio (z) = 0.45136 0.24889
#
# Static dielectric constant tensor:
#      x y z
#    x 3.675350 0.000000 -0.111710 
#    y 0.000000 3.425110 0.000000 
#    z -0.111710 0.000000 4.049960 
# 
# 
# High freq. dielectric constant tensor:
#      x y z
#    x 1.784640 0.000000 -0.001320 
#    y 0.000000 1.760970 0.000000 
#    z -0.001320 0.000000 1.789230 
# 
# From -- ./inp_files/68653.got.cif
#   From: 2010.06.25/outbox.cif.g09.slc.cpg/sg13_35_cif.got.tgz:68653.got - 2010.06.28 04:50:58.
