data_PCOD8122960
_publ_section_title
;
Structure prediction by ZEFSAII (Michael W. Deem and Ramdas Pophale) SiO2 
 PCOD8122960
Probable space group: P 2/C
;
_chemical_formula_sum "Si O2"
_cell_formula_units_Z 16
_cell_length_a 6.447446
_cell_length_b 9.287403
_cell_length_c 13.015437
_cell_angle_alpha 90.000000
_cell_angle_beta 65.663392
_cell_angle_gamma 90.000000
_cell_volume 710.110524
_symmetry_space_group_name_H-M "P 2/C"
_symmetry_group_IT_number 13
_symmetry_cell_setting 'monoclinic'
loop_
_space_group_symop_operation_xyz
x,y,z
-x,y,1/2-z
-x,-y,-z
x,-y,1/2+z
loop_
_atom_site_type_symbol
_atom_site_label
_atom_site_fract_x
_atom_site_fract_y
_atom_site_fract_z
Si Si1 0.834140 0.189809 0.583342
Si Si2 0.117918 0.898778 0.830838
Si Si3 0.513479 0.559219 0.386360
Si Si4 0.000000 0.330513 0.750000
Si Si5 0.500000 0.315926 0.250000
O O1 0.615686 0.291932 0.612026
O O2 0.955735 0.178428 0.447930
O O3 0.000449 0.242217 0.641958
O O4 0.755715 0.030880 0.636477
O O5 0.297346 0.784047 0.751837
O O6 0.000000 0.954246 0.750000
O O7 0.500000 0.500000 0.500000
O O8 0.773904 0.573198 0.296906
O O9 0.396365 0.423711 0.355265
#
# Coordination Sequence:
#
# PCOD8122960 Si02
#       5
#     4   4   4   2   2
#     4  11  25  47  73 104 141 192 237 293 364 424
#     4  11  26  45  72 105 144 187 238 297 354 430
#     4  12  27  45  73 106 143 190 236 299 354 429
#     4  12  24  46  76 100 148 188 236 292 364 428
#     4  12  26  40  68 106 142 178 240 296 342 434
#
# _framework density 22.531704999999999
#
# number of rings (size 3 to 8) (size 9 to 14) (size 15 to 20)
#    0.000    0.500    3.750    3.000    8.750    2.000 
#    0.000    6.250    0.000    0.000    0.000    0.000 
#    0.000    0.000    0.000    0.000    0.000    0.000 
#
# Total GULP energy -198224.183139 kJ/mol
# GULP energy per Si atom -12389.011446 kJ/mol
# Density = 2.248042 g / cm^3
# Si number density = 22.531705 Si / 1000 Ang^3
#
#
#
# Elastic Constant Matrix: (Units=GPa)
#
#
# Indices 1 2 3 4 5 6 
#
# 1 103.3343 61.6581 46.5561 0.0000 2.8684 0.0000
# 2 61.6581 147.5629 45.9110 0.0000 -8.5095 0.0000
# 3 46.5561 45.9110 143.7414 0.0000 29.0049 0.0000
# 4 0.0000 0.0000 0.0000 41.7042 0.0000 3.6182
# 5 2.8684 -8.5095 29.0049 0.0000 43.6957 0.0000
# 6 0.0000 0.0000 0.0000 3.6182 0.0000 37.3461
#
#
#
# Elastic Compliance Matrix: (Units=1/GPa)
#
#
# Indices 1 2 3 4 5 6 
#
# 1 0.013931 -0.004890 -0.002971 0.000000 0.000105 0.000000
# 2 -0.004890 0.009746 -0.002282 0.000000 0.003734 0.000000
# 3 -0.002971 -0.002282 0.010044 0.000000 -0.006916 0.000000
# 4 0.000000 0.000000 0.000000 0.024182 0.000000 -0.002343
# 5 0.000105 0.003734 -0.006916 0.000000 0.028197 0.000000
# 6 0.000000 0.000000 0.000000 -0.002343 0.000000 0.027004
#
#
# Mechanical properties :
#
#
# Convention : Reuss Voigt Hill
#
# Bulk Modulus (GPa) = 74.44621 78.09878 76.27249
# Shear Modulus (GPa) = 36.26639 40.58340 38.42490
#
# Velocity S-wave (km/s) = 4.01630 4.24862 4.13409
# Velocity P-wave (km/s) = 7.39053 7.66842 7.53076
#
# Compressibility (1/GPa) = 0.01343252
#
# Stress axis : x y z
#
# Youngs Moduli (GPa) = 71.78114 102.61027 99.56267
#
# Poissons Ratio (x) = 0.50182 0.29584
# Poissons Ratio (y) = 0.35105 0.22722
# Poissons Ratio (z) = 0.21329 0.23418
#
# Static dielectric constant tensor:
#      x y z
#    x 3.834110 0.000000 0.248580 
#    y 0.000000 4.905180 0.000000 
#    z 0.248580 0.000000 4.181250 
# 
# 
# High freq. dielectric constant tensor:
#      x y z
#    x 1.874240 0.000000 0.020500 
#    y 0.000000 1.905450 0.000000 
#    z 0.020500 0.000000 1.905480 
# 
# From -- ./inp_files/43156.got.cif
#   From: 2010.06.25/outbox.cif.g09.slc.cpg/sg13_22_cif.got.tgz:43156.got - 2010.06.28 04:50:58.
