data_PCOD8122540
_publ_section_title
;
Structure prediction by ZEFSAII (Michael W. Deem and Ramdas Pophale) SiO2 
 PCOD8122540
Probable space group: P 2/C
;
_chemical_formula_sum "Si O2"
_cell_formula_units_Z 22
_cell_length_a 12.404422
_cell_length_b 10.990667
_cell_length_c 15.417252
_cell_angle_alpha 90.000000
_cell_angle_beta 152.179956
_cell_angle_gamma 90.000000
_cell_volume 980.938309
_symmetry_space_group_name_H-M "P 2/C"
_symmetry_group_IT_number 13
_symmetry_cell_setting 'monoclinic'
loop_
_space_group_symop_operation_xyz
x,y,z
-x,y,1/2-z
-x,-y,-z
x,-y,1/2+z
loop_
_atom_site_type_symbol
_atom_site_label
_atom_site_fract_x
_atom_site_fract_y
_atom_site_fract_z
Si Si1 0.981737 0.287905 0.409206
Si Si2 0.000000 0.915114 0.250000
Si Si3 0.691104 0.112775 0.954383
Si Si4 0.574990 0.327480 0.996714
Si Si5 0.268957 0.500664 0.537197
Si Si6 0.062055 0.292159 0.662937
O O1 0.726139 0.308841 0.190177
O O2 0.088784 0.172155 0.436379
O O3 0.143187 0.404959 0.510648
O O4 0.960396 0.263955 0.495685
O O5 0.076785 0.835004 0.223014
O O6 0.222522 0.995941 0.431892
O O7 0.500000 0.069686 0.750000
O O8 0.572655 0.208786 0.934395
O O9 0.681209 0.441888 0.020835
O O10 0.313568 0.354876 0.838275
O O11 0.500000 0.541893 0.750000
O O12 0.110679 0.618233 0.409043
#
# Coordination Sequence:
#
# PCOD8122540 Si02
#       6
#     4   2   4   4   4   4
#     4  11  22  45  77 105 133 192 241 278 356 436
#     4  12  30  46  66 104 150 182 244 302 344 402
#     4  11  21  47  77 100 139 187 240 295 346 415
#     4  11  23  46  79 103 138 191 235 286 358 427
#     4  11  23  45  75 106 148 181 228 299 354 424
#     4  12  28  46  67 113 144 183 241 290 354 424
#
# _framework density 22.427506999999999
#
# number of rings (size 3 to 8) (size 9 to 14) (size 15 to 20)
#    0.000    0.727    5.455    3.273    2.545    5.818 
#    0.000    0.000    0.000    0.000    0.000    0.000 
#    0.000    0.000    0.000    0.000    0.000    0.000 
#
# Total GULP energy -273005.739359 kJ/mol
# GULP energy per Si atom -12409.351789 kJ/mol
# Density = 2.237646 g / cm^3
# Si number density = 22.427507 Si / 1000 Ang^3
#
#
#
# Elastic Constant Matrix: (Units=GPa)
#
#
# Indices 1 2 3 4 5 6 
#
# 1 79.5810 42.8560 64.9289 0.0000 -1.0371 0.0000
# 2 42.8560 128.9606 57.1762 0.0000 2.8351 0.0000
# 3 64.9289 57.1762 195.9787 0.0000 -10.5540 0.0000
# 4 0.0000 0.0000 0.0000 33.6714 0.0000 -5.1950
# 5 -1.0371 2.8351 -10.5540 0.0000 31.4082 0.0000
# 6 0.0000 0.0000 0.0000 -5.1950 0.0000 22.5536
#
#
#
# Elastic Compliance Matrix: (Units=1/GPa)
#
#
# Indices 1 2 3 4 5 6 
#
# 1 0.018893 -0.003985 -0.005137 0.000000 -0.000743 0.000000
# 2 -0.003985 0.009838 -0.001634 0.000000 -0.001569 0.000000
# 3 -0.005137 -0.001634 0.007414 0.000000 0.002469 0.000000
# 4 0.000000 0.000000 0.000000 0.030793 0.000000 0.007093
# 5 -0.000743 -0.001569 0.002469 0.000000 0.032786 0.000000
# 6 0.000000 0.000000 0.000000 0.007093 0.000000 0.045972
#
#
# Mechanical properties :
#
#
# Convention : Reuss Voigt Hill
#
# Bulk Modulus (GPa) = 68.33868 81.60474 74.97171
# Shear Modulus (GPa) = 29.05528 33.49727 31.27627
#
# Velocity S-wave (km/s) = 3.60324 3.86888 3.73842
# Velocity P-wave (km/s) = 6.91724 7.51150 7.22048
#
# Compressibility (1/GPa) = 0.01463300
#
# Stress axis : x y z
#
# Youngs Moduli (GPa) = 52.92954 101.65051 134.87487
#
# Poissons Ratio (x) = 0.40505 0.69283
# Poissons Ratio (y) = 0.21091 0.22044
# Poissons Ratio (z) = 0.27189 0.16614
#
# Static dielectric constant tensor:
#      x y z
#    x 3.922790 0.000000 -0.064110 
#    y 0.000000 3.908380 0.000000 
#    z -0.064110 0.000000 4.187480 
# 
# 
# High freq. dielectric constant tensor:
#      x y z
#    x 1.878200 0.000000 -0.011230 
#    y 0.000000 1.870290 0.000000 
#    z -0.011230 0.000000 1.906390 
# 
# From -- ./inp_files/51245.got.cif
#   From: 2010.06.25/outbox.cif.g09.slc.cpg/sg13_26_cif.got.tgz:51245.got - 2010.06.28 04:50:58.
