data_PCOD8122470
_publ_section_title
;
Structure prediction by ZEFSAII (Michael W. Deem and Ramdas Pophale) SiO2 
 PCOD8122470
Probable space group: P 2/C
;
_chemical_formula_sum "Si O2"
_cell_formula_units_Z 20
_cell_length_a 8.965533
_cell_length_b 8.462906
_cell_length_c 24.204109
_cell_angle_alpha 90.000000
_cell_angle_beta 34.115474
_cell_angle_gamma 90.000000
_cell_volume 1030.009474
_symmetry_space_group_name_H-M "P 2/C"
_symmetry_group_IT_number 13
_symmetry_cell_setting 'monoclinic'
loop_
_space_group_symop_operation_xyz
x,y,z
-x,y,1/2-z
-x,-y,-z
x,-y,1/2+z
loop_
_atom_site_type_symbol
_atom_site_label
_atom_site_fract_x
_atom_site_fract_y
_atom_site_fract_z
Si Si1 0.000000 0.651235 0.250000
Si Si2 0.013106 0.204521 0.415955
Si Si3 0.398027 0.549048 0.840169
Si Si4 0.937336 0.346726 0.210730
Si Si5 0.523839 0.224737 0.633202
Si Si6 0.500000 0.971312 0.250000
O O1 0.976546 0.533209 0.310698
O O2 0.257834 0.761972 0.177587
O O3 0.129695 0.351069 0.415507
O O4 0.913044 0.264558 0.386300
O O5 0.235347 0.071853 0.340639
O O6 0.754638 0.136623 0.527118
O O7 0.500000 0.485917 0.750000
O O8 0.620851 0.665991 0.797351
O O9 0.356785 0.398581 0.891693
O O10 0.000000 0.258997 0.250000
O O11 0.451631 0.133648 0.710921
#
# Coordination Sequence:
#
# PCOD8122470 Si02
#       6
#     2   4   4   4   4   2
#     4   8  20  40  58  88 120 150 188 256 296 334
#     4  11  21  38  62  89 115 157 203 237 296 353
#     4   9  16  36  60  86 114 148 196 255 287 325
#     4   8  16  34  61  81 116 146 180 249 297 323
#     4  11  22  38  62  87 117 159 198 241 296 350
#     4  12  24  40  56  84 132 154 190 246 286 358
#
# _framework density 19.417297000000001
#
# number of rings (size 3 to 8) (size 9 to 14) (size 15 to 20)
#    0.600    1.600    4.000    1.200    0.000    0.800 
#    1.800    1.000    0.000    0.000    0.000    0.000 
#    0.000    0.000    0.000    0.000    0.000    0.000 
#
# Total GULP energy -247841.217716 kJ/mol
# GULP energy per Si atom -12392.060886 kJ/mol
# Density = 1.937310 g / cm^3
# Si number density = 19.417297 Si / 1000 Ang^3
#
#
#
# Elastic Constant Matrix: (Units=GPa)
#
#
# Indices 1 2 3 4 5 6 
#
# 1 132.9780 22.8775 50.9523 0.0000 -0.7084 0.0000
# 2 22.8775 51.1704 27.9658 0.0000 -6.3718 0.0000
# 3 50.9523 27.9658 115.7511 0.0000 -9.6013 0.0000
# 4 0.0000 0.0000 0.0000 12.4038 0.0000 -1.8178
# 5 -0.7084 -6.3718 -9.6013 0.0000 21.0228 0.0000
# 6 0.0000 0.0000 0.0000 -1.8178 0.0000 15.8206
#
#
#
# Elastic Compliance Matrix: (Units=1/GPa)
#
#
# Indices 1 2 3 4 5 6 
#
# 1 0.009344 -0.002416 -0.003704 0.000000 -0.002109 0.000000
# 2 -0.002416 0.023559 -0.004202 0.000000 0.005140 0.000000
# 3 -0.003704 -0.004202 0.011609 0.000000 0.003903 0.000000
# 4 0.000000 0.000000 0.000000 0.082001 0.000000 0.009422
# 5 -0.002109 0.005140 0.003903 0.000000 0.050837 0.000000
# 6 0.000000 0.000000 0.000000 0.009422 0.000000 0.064291
#
#
# Mechanical properties :
#
#
# Convention : Reuss Voigt Hill
#
# Bulk Modulus (GPa) = 41.89817 55.94340 48.92079
# Shear Modulus (GPa) = 18.50197 23.05638 20.77917
#
# Velocity S-wave (km/s) = 3.09019 3.44963 3.27484
# Velocity P-wave (km/s) = 5.86148 6.68881 6.28877
#
# Compressibility (1/GPa) = 0.02386739
#
# Stress axis : x y z
#
# Youngs Moduli (GPa) = 107.02339 42.44630 86.14074
#
# Poissons Ratio (x) = 0.10253 0.31910
# Poissons Ratio (y) = 0.25852 0.36199
# Poissons Ratio (z) = 0.39645 0.17837
#
# Static dielectric constant tensor:
#      x y z
#    x 3.775930 0.000000 0.109260 
#    y 0.000000 3.272410 0.000000 
#    z 0.109260 0.000000 3.295470 
# 
# 
# High freq. dielectric constant tensor:
#      x y z
#    x 1.765370 0.000000 0.000440 
#    y 0.000000 1.728650 0.000000 
#    z 0.000440 0.000000 1.735550 
# 
# From -- ./inp_files/52554.got.cif
#   From: 2010.06.25/outbox.cif.g09.slc.cpg/sg13_27_cif.got.tgz:52554.got - 2010.06.28 04:50:58.
