data_PCOD8122972
_publ_section_title
;
Structure prediction by ZEFSAII (Michael W. Deem and Ramdas Pophale) SiO2 
 PCOD8122972
Probable space group: P 2/C
;
_chemical_formula_sum "Si O2"
_cell_formula_units_Z 16
_cell_length_a 8.077119
_cell_length_b 8.314437
_cell_length_c 16.118925
_cell_angle_alpha 90.000000
_cell_angle_beta 36.764959
_cell_angle_gamma 90.000000
_cell_volume 647.909078
_symmetry_space_group_name_H-M "P 2/C"
_symmetry_group_IT_number 13
_symmetry_cell_setting 'monoclinic'
loop_
_space_group_symop_operation_xyz
x,y,z
-x,y,1/2-z
-x,-y,-z
x,-y,1/2+z
loop_
_atom_site_type_symbol
_atom_site_label
_atom_site_fract_x
_atom_site_fract_y
_atom_site_fract_z
Si Si1 0.142050 0.128678 0.505517
Si Si2 0.311946 0.292173 0.208988
Si Si3 0.740958 0.169384 0.454670
Si Si4 0.665703 0.349850 0.763935
O O1 0.404367 0.227212 0.361563
O O2 0.941846 0.261564 0.623996
O O3 0.255866 0.023988 0.537795
O O4 0.000000 0.000000 0.500000
O O5 0.306689 0.220601 0.119259
O O6 0.282958 0.483593 0.209436
O O7 0.041493 0.232826 0.367864
O O8 0.502609 0.231979 0.610075
O O9 0.500000 0.400908 0.750000
#
# Coordination Sequence:
#
# PCOD8122972 Si02
#       4
#     4   4   4   4
#     4  12  26  47  77 110 151 193 254 309 370 440
#     4  11  27  46  74 108 154 194 246 306 371 446
#     4  11  25  48  73 110 147 197 250 304 369 437
#     4  12  26  46  76 111 150 198 246 306 377 436
#
# _framework density 24.694821000000001
#
# number of rings (size 3 to 8) (size 9 to 14) (size 15 to 20)
#    0.000    0.500    2.500    4.500    3.500    7.000 
#    0.000    0.000    0.000    0.000    0.000    0.000 
#    0.000    0.000    0.000    0.000    0.000    0.000 
#
# Total GULP energy -198391.470094 kJ/mol
# GULP energy per Si atom -12399.466881 kJ/mol
# Density = 2.463861 g / cm^3
# Si number density = 24.694821 Si / 1000 Ang^3
#
#
#
# Elastic Constant Matrix: (Units=GPa)
#
#
# Indices 1 2 3 4 5 6 
#
# 1 25.6906 41.3662 16.1297 0.0000 -5.6132 0.0000
# 2 41.3662 193.2497 62.2373 0.0000 -19.3981 0.0000
# 3 16.1297 62.2373 163.5809 0.0000 -33.7165 0.0000
# 4 0.0000 0.0000 0.0000 76.8732 0.0000 -18.1333
# 5 -5.6132 -19.3981 -33.7165 0.0000 39.2555 0.0000
# 6 0.0000 0.0000 0.0000 -18.1333 0.0000 40.3049
#
#
#
# Elastic Compliance Matrix: (Units=1/GPa)
#
#
# Indices 1 2 3 4 5 6 
#
# 1 0.059686 -0.012333 -0.000838 0.000000 0.001720 0.000000
# 2 -0.012333 0.008493 -0.001839 0.000000 0.000853 0.000000
# 3 -0.000838 -0.001839 0.008121 0.000000 0.005947 0.000000
# 4 0.000000 0.000000 0.000000 0.014553 0.000000 0.006547
# 5 0.001720 0.000853 0.005947 0.000000 0.031249 0.000000
# 6 0.000000 0.000000 0.000000 0.006547 0.000000 0.027757
#
#
# Mechanical properties :
#
#
# Convention : Reuss Voigt Hill
#
# Bulk Modulus (GPa) = 21.60859 69.10974 45.35917
# Shear Modulus (GPa) = 25.60083 48.80592 37.20338
#
# Velocity S-wave (km/s) = 3.22326 4.45045 3.88561
# Velocity P-wave (km/s) = 4.75623 7.37936 6.20793
#
# Compressibility (1/GPa) = 0.04627790
#
# Stress axis : x y z
#
# Youngs Moduli (GPa) = 16.75444 117.74857 123.13330
#
# Poissons Ratio (x) = 1.45224 0.10322
# Poissons Ratio (y) = 0.20664 0.22646
# Poissons Ratio (z) = 0.01404 0.21656
#
# Static dielectric constant tensor:
#      x y z
#    x 4.614750 0.000000 -0.419030 
#    y 0.000000 4.562010 0.000000 
#    z -0.419030 0.000000 4.618410 
# 
# 
# High freq. dielectric constant tensor:
#      x y z
#    x 1.991610 0.000000 -0.008380 
#    y 0.000000 1.997450 0.000000 
#    z -0.008380 0.000000 2.000000 
# 
# From -- ./inp_files/14700.got.cif
#   From: 2010.06.25/outbox.cif.g09.slc.cpg/sg13_8_cif.got.tgz:14700.got - 2010.06.28 04:50:58.
