data_PCOD8122608
_publ_section_title
;
Structure prediction by ZEFSAII (Michael W. Deem and Ramdas Pophale) SiO2 
 PCOD8122608
Probable space group: P 2/C
;
_chemical_formula_sum "Si O2"
_cell_formula_units_Z 30
_cell_length_a 11.606087
_cell_length_b 10.993846
_cell_length_c 16.888604
_cell_angle_alpha 90.000000
_cell_angle_beta 43.316873
_cell_angle_gamma 90.000000
_cell_volume 1478.338902
_symmetry_space_group_name_H-M "P 2/C"
_symmetry_group_IT_number 13
_symmetry_cell_setting 'monoclinic'
loop_
_space_group_symop_operation_xyz
x,y,z
-x,y,1/2-z
-x,-y,-z
x,-y,1/2+z
loop_
_atom_site_type_symbol
_atom_site_label
_atom_site_fract_x
_atom_site_fract_y
_atom_site_fract_z
Si Si1 0.716219 0.170730 0.226748
Si Si2 0.500000 0.000682 0.750000
Si Si3 0.024836 0.795907 0.034130
Si Si4 0.992519 0.020190 0.165157
Si Si5 0.010543 0.533712 0.086366
Si Si6 0.333411 0.571192 0.676965
Si Si7 0.752339 0.175983 0.543960
Si Si8 0.654202 0.414503 0.515423
O O1 0.556611 0.082932 0.295682
O O2 0.653320 0.302415 0.283816
O O3 0.837421 0.112584 0.232067
O O4 0.800597 0.178334 0.097460
O O5 0.648543 0.086131 0.649329
O O6 0.973898 0.911491 0.111924
O O7 0.891070 0.765844 0.032317
O O8 0.035045 0.678271 0.085023
O O9 0.000000 0.967138 0.250000
O O10 0.160941 0.097887 0.068504
O O11 0.841451 0.494493 0.215771
O O12 0.170959 0.472931 0.046036
O O13 0.000000 0.500000 0.000000
O O14 0.491764 0.489871 0.625993
O O15 0.345872 0.598105 0.578363
O O16 0.638845 0.281015 0.561863
#
# Coordination Sequence:
#
# PCOD8122608 Si02
#       8
#     4   2   4   4   4   4   4   4
#     4  11  22  42  67  92 129 167 219 263 318 385
#     4  12  24  38  68 104 124 162 218 274 312 386
#     4  11  22  42  63  98 127 166 223 267 313 385
#     4  11  22  41  66  92 127 172 214 260 324 383
#     4  12  23  41  68  98 126 173 220 267 322 384
#     4  11  26  44  66  99 135 173 216 267 329 394
#     4  11  22  42  67  92 129 167 219 263 318 385
#     4  11  26  44  66  99 135 173 216 267 329 394
#
# _framework density 20.293044999999999
#
# number of rings (size 3 to 8) (size 9 to 14) (size 15 to 20)
#    0.000    0.800    5.333    2.800    3.733    1.600 
#    0.000    5.333    0.000    0.000    0.000    0.000 
#    0.000    0.000    0.000    0.000    0.000    0.000 
#
# Total GULP energy -372088.757100 kJ/mol
# GULP energy per Si atom -12402.958570 kJ/mol
# Density = 2.024686 g / cm^3
# Si number density = 20.293045 Si / 1000 Ang^3
#
#
#
# Elastic Constant Matrix: (Units=GPa)
#
#
# Indices 1 2 3 4 5 6 
#
# 1 76.8620 35.7159 38.4354 0.0000 -0.8330 0.0000
# 2 35.7159 131.2272 29.7440 0.0000 1.7195 0.0000
# 3 38.4354 29.7440 74.2888 0.0000 -4.5159 0.0000
# 4 0.0000 0.0000 0.0000 35.2896 0.0000 -6.1647
# 5 -0.8330 1.7195 -4.5159 0.0000 36.8464 0.0000
# 6 0.0000 0.0000 0.0000 -6.1647 0.0000 46.5178
#
#
#
# Elastic Compliance Matrix: (Units=1/GPa)
#
#
# Indices 1 2 3 4 5 6 
#
# 1 0.018695 -0.003171 -0.008431 0.000000 -0.000463 0.000000
# 2 -0.003171 0.008943 -0.001984 0.000000 -0.000732 0.000000
# 3 -0.008431 -0.001984 0.018751 0.000000 0.002200 0.000000
# 4 0.000000 0.000000 0.000000 0.029009 0.000000 0.003844
# 5 -0.000463 -0.000732 0.002200 0.000000 0.027433 0.000000
# 6 0.000000 0.000000 0.000000 0.003844 0.000000 0.022007
#
#
# Mechanical properties :
#
#
# Convention : Reuss Voigt Hill
#
# Bulk Modulus (GPa) = 52.03945 54.46317 53.25131
# Shear Modulus (GPa) = 31.56276 35.62961 33.59619
#
# Velocity S-wave (km/s) = 3.94807 4.19472 4.07326
# Velocity P-wave (km/s) = 6.81782 7.09630 6.95845
#
# Compressibility (1/GPa) = 0.01921619
#
# Stress axis : x y z
#
# Youngs Moduli (GPa) = 53.49115 111.82133 53.33030
#
# Poissons Ratio (x) = 0.35460 0.44961
# Poissons Ratio (y) = 0.16963 0.10583
# Poissons Ratio (z) = 0.45097 0.22190
#
# Static dielectric constant tensor:
#      x y z
#    x 3.401700 0.000000 0.103220 
#    y 0.000000 3.888010 0.000000 
#    z 0.103220 0.000000 3.552370 
# 
# 
# High freq. dielectric constant tensor:
#      x y z
#    x 1.790360 0.000000 -0.005900 
#    y 0.000000 1.811170 0.000000 
#    z -0.005900 0.000000 1.789580 
# 
# From -- ./inp_files/66629.got.cif
#   From: 2010.06.25/outbox.cif.g09.slc.cpg/sg13_34_cif.got.tgz:66629.got - 2010.06.28 04:50:58.
