data_PCOD8122556
_publ_section_title
;
Structure prediction by ZEFSAII (Michael W. Deem and Ramdas Pophale) SiO2 
 PCOD8122556
Probable space group: P 2/C
;
_chemical_formula_sum "Si O2"
_cell_formula_units_Z 28
_cell_length_a 6.783868
_cell_length_b 11.527590
_cell_length_c 23.267713
_cell_angle_alpha 90.000000
_cell_angle_beta 51.480488
_cell_angle_gamma 90.000000
_cell_volume 1423.627255
_symmetry_space_group_name_H-M "P 2/C"
_symmetry_group_IT_number 13
_symmetry_cell_setting 'monoclinic'
loop_
_space_group_symop_operation_xyz
x,y,z
-x,y,1/2-z
-x,-y,-z
x,-y,1/2+z
loop_
_atom_site_type_symbol
_atom_site_label
_atom_site_fract_x
_atom_site_fract_y
_atom_site_fract_z
Si Si1 0.000000 0.148829 0.750000
Si Si2 0.816518 0.431064 0.992317
Si Si3 0.306120 0.162972 0.020319
Si Si4 0.000000 0.475505 0.250000
Si Si5 0.393374 0.334030 0.707591
Si Si6 0.845993 0.930325 0.397280
Si Si7 0.863043 0.783586 0.071189
Si Si8 0.253480 0.402705 0.095882
O O1 0.795624 0.226400 0.754265
O O2 0.879893 0.071378 0.822184
O O3 0.833287 0.488299 0.926475
O O4 0.893714 0.297729 0.974117
O O5 0.533146 0.430692 0.068303
O O6 0.000000 0.500000 0.000000
O O7 0.247122 0.286392 0.059476
O O8 0.187707 0.064646 0.081935
O O9 0.603904 0.145268 0.958999
O O10 0.170069 0.152488 0.983474
O O11 0.750177 0.553482 0.289618
O O12 0.943381 0.394073 0.315352
O O13 0.500000 0.365247 0.750000
O O14 0.620469 0.298089 0.624712
O O15 0.087792 0.878871 0.387827
#
# Coordination Sequence:
#
# PCOD8122556 Si02
#       8
#     2   4   4   2   4   4   4   4
#     4  11  22  39  62  92 126 163 205 258 322 366
#     4  11  22  37  65  91 123 162 210 261 312 372
#     4  11  24  42  64  91 129 170 215 255 307 380
#     4  11  26  39  60  94 134 165 205 252 324 388
#     4  11  22  37  62  94 128 156 201 269 319 368
#     4  11  24  41  64  95 127 166 214 264 312 370
#     4  12  21  39  67  96 123 160 216 267 312 365
#     4  11  24  41  61  92 127 170 208 254 317 382
#
# _framework density 19.668068999999999
#
# number of rings (size 3 to 8) (size 9 to 14) (size 15 to 20)
#    0.000    0.857    5.714    2.143    4.000    0.571 
#    0.000    0.000    0.000    0.000    0.000    0.000 
#    0.000    0.000    0.000    0.000    0.000    0.000 
#
# Total GULP energy -347268.669669 kJ/mol
# GULP energy per Si atom -12402.452488 kJ/mol
# Density = 1.962330 g / cm^3
# Si number density = 19.668069 Si / 1000 Ang^3
#
#
#
# Elastic Constant Matrix: (Units=GPa)
#
#
# Indices 1 2 3 4 5 6 
#
# 1 99.1359 24.0652 20.2600 0.0000 3.4523 0.0000
# 2 24.0652 63.3690 26.1570 0.0000 6.2280 0.0000
# 3 20.2600 26.1570 112.6905 0.0000 5.5193 0.0000
# 4 0.0000 0.0000 0.0000 27.8099 0.0000 1.5541
# 5 3.4523 6.2280 5.5193 0.0000 27.6196 0.0000
# 6 0.0000 0.0000 0.0000 1.5541 0.0000 20.0345
#
#
#
# Elastic Compliance Matrix: (Units=1/GPa)
#
#
# Indices 1 2 3 4 5 6 
#
# 1 0.011245 -0.003772 -0.001130 0.000000 -0.000329 0.000000
# 2 -0.003772 0.018995 -0.003579 0.000000 -0.003096 0.000000
# 3 -0.001130 -0.003579 0.009959 0.000000 -0.001042 0.000000
# 4 0.000000 0.000000 0.000000 0.036115 0.000000 -0.002802
# 5 -0.000329 -0.003096 -0.001042 0.000000 0.037154 0.000000
# 6 0.000000 0.000000 0.000000 -0.002802 0.000000 0.050131
#
#
# Mechanical properties :
#
#
# Convention : Reuss Voigt Hill
#
# Bulk Modulus (GPa) = 43.03531 46.23998 44.63765
# Shear Modulus (GPa) = 26.55251 28.74034 27.64643
#
# Velocity S-wave (km/s) = 3.67826 3.82680 3.75327
# Velocity P-wave (km/s) = 6.32201 6.56408 6.44418
#
# Compressibility (1/GPa) = 0.02323673
#
# Stress axis : x y z
#
# Youngs Moduli (GPa) = 88.92716 52.64644 100.41333
#
# Poissons Ratio (x) = 0.19856 0.11348
# Poissons Ratio (y) = 0.33540 0.35940
# Poissons Ratio (z) = 0.10050 0.18843
#
# Static dielectric constant tensor:
#      x y z
#    x 3.763940 0.000000 -0.066800 
#    y 0.000000 3.533910 0.000000 
#    z -0.066800 0.000000 3.531040 
# 
# 
# High freq. dielectric constant tensor:
#      x y z
#    x 1.782230 0.000000 0.004100 
#    y 0.000000 1.752980 0.000000 
#    z 0.004100 0.000000 1.761900 
# 
# From -- ./inp_files/73557.got.cif
#   From: 2010.06.25/outbox.cif.g09.slc.cpg/sg13_37_cif.got.tgz:73557.got - 2010.06.28 04:50:58.
