data_PCOD8122287
_publ_section_title
;
Structure prediction by ZEFSAII (Michael W. Deem and Ramdas Pophale) SiO2 
 PCOD8122287
Probable space group: P 2/C
;
_chemical_formula_sum "Si O2"
_cell_formula_units_Z 24
_cell_length_a 15.609876
_cell_length_b 11.082409
_cell_length_c 10.895192
_cell_angle_alpha 90.000000
_cell_angle_beta 144.563206
_cell_angle_gamma 90.000000
_cell_volume 1092.823696
_symmetry_space_group_name_H-M "P 2/C"
_symmetry_group_IT_number 13
_symmetry_cell_setting 'monoclinic'
loop_
_space_group_symop_operation_xyz
x,y,z
-x,y,1/2-z
-x,-y,-z
x,-y,1/2+z
loop_
_atom_site_type_symbol
_atom_site_label
_atom_site_fract_x
_atom_site_fract_y
_atom_site_fract_z
Si Si1 0.850075 0.794803 0.141115
Si Si2 0.361360 0.369347 0.508245
Si Si3 0.165958 0.751164 0.979634
Si Si4 0.387699 0.176402 0.338659
Si Si5 0.147969 0.425397 0.681798
Si Si6 0.700925 0.924524 0.179342
O O1 0.873448 0.666001 0.231296
O O2 0.812451 0.895796 0.198780
O O3 0.000000 0.836339 0.250000
O O4 0.717907 0.778374 0.891764
O O5 0.500000 0.411761 0.750000
O O6 0.247376 0.288643 0.451590
O O7 0.420632 0.287476 0.466594
O O8 0.286626 0.488846 0.367959
O O9 0.000000 0.783771 0.750000
O O10 0.176836 0.642257 0.088600
O O11 0.240760 0.870743 0.123576
O O12 0.541791 0.132353 0.460860
O O13 0.309473 0.068036 0.321569
O O14 0.000000 0.500000 0.500000
#
# Coordination Sequence:
#
# PCOD8122287 Si02
#       6
#     4   4   4   4   4   4
#     4  11  26  44  69 102 134 176 233 279 338 407
#     4  12  26  42  70 103 135 177 232 281 336 412
#     4  11  24  44  69  99 137 179 225 282 343 405
#     4  11  25  45  73  96 140 180 223 280 343 403
#     4  11  25  44  68  95 139 184 220 280 346 398
#     4  10  25  47  69 100 136 182 222 280 344 402
#
# _framework density 21.961455999999998
#
# number of rings (size 3 to 8) (size 9 to 14) (size 15 to 20)
#    0.000    1.000    3.333    1.500    9.333    4.667 
#    0.000    0.000    0.000    0.000    0.000    0.000 
#    0.000    0.000    0.000    0.000    0.000    0.000 
#
# Total GULP energy -297805.008230 kJ/mol
# GULP energy per Si atom -12408.542010 kJ/mol
# Density = 2.191147 g / cm^3
# Si number density = 21.961456 Si / 1000 Ang^3
#
#
#
# Elastic Constant Matrix: (Units=GPa)
#
#
# Indices 1 2 3 4 5 6 
#
# 1 88.7351 29.2340 8.0882 0.0000 1.1562 0.0000
# 2 29.2340 90.2261 36.8427 0.0000 3.3120 0.0000
# 3 8.0882 36.8427 144.9059 0.0000 1.6212 0.0000
# 4 0.0000 0.0000 0.0000 35.1918 0.0000 6.0109
# 5 1.1562 3.3120 1.6212 0.0000 35.8923 0.0000
# 6 0.0000 0.0000 0.0000 6.0109 0.0000 19.6434
#
#
#
# Elastic Compliance Matrix: (Units=1/GPa)
#
#
# Indices 1 2 3 4 5 6 
#
# 1 0.012634 -0.004245 0.000375 0.000000 -0.000032 0.000000
# 2 -0.004245 0.013830 -0.003268 0.000000 -0.000992 0.000000
# 3 0.000375 -0.003268 0.007712 0.000000 -0.000059 0.000000
# 4 0.000000 0.000000 0.000000 0.029983 0.000000 -0.009175
# 5 -0.000032 -0.000992 -0.000059 0.000000 0.027956 0.000000
# 6 0.000000 0.000000 0.000000 -0.009175 0.000000 0.053715
#
#
# Mechanical properties :
#
#
# Convention : Reuss Voigt Hill
#
# Bulk Modulus (GPa) = 50.25683 52.46634 51.36158
# Shear Modulus (GPa) = 29.98667 34.79233 32.38950
#
# Velocity S-wave (km/s) = 3.69917 3.98458 3.84452
# Velocity P-wave (km/s) = 6.41708 6.71649 6.56849
#
# Compressibility (1/GPa) = 0.01989779
#
# Stress axis : x y z
#
# Youngs Moduli (GPa) = 79.14878 72.30794 129.67262
#
# Poissons Ratio (x) = 0.30698 -0.04857
# Poissons Ratio (y) = 0.33602 0.42379
# Poissons Ratio (z) = -0.02965 0.23632
#
# Static dielectric constant tensor:
#      x y z
#    x 4.092060 0.000000 0.038130 
#    y 0.000000 3.992710 0.000000 
#    z 0.038130 0.000000 4.174250 
# 
# 
# High freq. dielectric constant tensor:
#      x y z
#    x 1.867260 0.000000 0.000460 
#    y 0.000000 1.864000 0.000000 
#    z 0.000460 0.000000 1.883480 
# 
# From -- ./inp_files/39249.got.cif
#   From: 2010.06.25/outbox.cif.g09.slc.cpg/sg13_20_cif.got.tgz:39249.got - 2010.06.28 04:50:58.
