data_PCOD8122167
_publ_section_title
;
Structure prediction by ZEFSAII (Michael W. Deem and Ramdas Pophale) SiO2 
 PCOD8122167
Probable space group: P 2/C
;
_chemical_formula_sum "Si O2"
_cell_formula_units_Z 16
_cell_length_a 8.167837
_cell_length_b 6.731993
_cell_length_c 16.571987
_cell_angle_alpha 90.000000
_cell_angle_beta 51.608279
_cell_angle_gamma 90.000000
_cell_volume 714.202315
_symmetry_space_group_name_H-M "P 2/C"
_symmetry_group_IT_number 13
_symmetry_cell_setting 'monoclinic'
loop_
_space_group_symop_operation_xyz
x,y,z
-x,y,1/2-z
-x,-y,-z
x,-y,1/2+z
loop_
_atom_site_type_symbol
_atom_site_label
_atom_site_fract_x
_atom_site_fract_y
_atom_site_fract_z
Si Si1 0.421520 0.166329 0.960917
Si Si2 0.984615 0.610044 0.918719
Si Si3 0.181092 0.286096 0.749866
Si Si4 0.714705 0.962892 0.653741
O O1 0.611834 0.300302 0.868609
O O2 0.307094 0.032208 0.930407
O O3 0.250091 0.332485 0.040588
O O4 0.500000 0.000000 0.000000
O O5 0.098303 0.494564 0.810938
O O6 0.097678 0.815138 0.897395
O O7 0.000000 0.500000 0.000000
O O8 0.000000 0.190182 0.750000
O O9 0.233083 0.153298 0.809683
O O10 0.500000 0.861435 0.750000
#
# Coordination Sequence:
#
# PCOD8122167 Si02
#       4
#     4   4   4   4
#     4  11  25  47  76 104 148 198 244 305 383 450
#     4  12  26  42  75 104 145 192 248 306 373 440
#     4  11  26  46  70 106 147 184 251 303 367 451
#     4  10  24  45  70  99 146 191 235 306 375 442
#
# _framework density 22.402614
#
# number of rings (size 3 to 8) (size 9 to 14) (size 15 to 20)
#    0.000    1.000    2.500    2.250    7.000    6.000 
#    0.000    0.000    0.000    0.000    0.000    0.000 
#    0.000    0.000    0.000    0.000    0.000    0.000 
#
# Total GULP energy -198307.341821 kJ/mol
# GULP energy per Si atom -12394.208864 kJ/mol
# Density = 2.235162 g / cm^3
# Si number density = 22.402614 Si / 1000 Ang^3
#
#
#
# Elastic Constant Matrix: (Units=GPa)
#
#
# Indices 1 2 3 4 5 6 
#
# 1 152.2140 46.5647 63.2816 0.0000 -10.4369 0.0000
# 2 46.5647 85.2789 70.1648 0.0000 -23.3571 0.0000
# 3 63.2816 70.1648 143.0175 0.0000 -26.0486 0.0000
# 4 0.0000 0.0000 0.0000 -3.1086 0.0000 -30.2731
# 5 -10.4369 -23.3571 -26.0486 0.0000 50.0368 0.0000
# 6 0.0000 0.0000 0.0000 -30.2731 0.0000 32.3336
#
#
#
# Elastic Compliance Matrix: (Units=1/GPa)
#
#
# Indices 1 2 3 4 5 6 
#
# 1 0.008400 -0.002738 -0.002527 0.000000 -0.000841 0.000000
# 2 -0.002738 0.021560 -0.008437 0.000000 0.005101 0.000000
# 3 -0.002527 -0.008437 0.012634 0.000000 0.002112 0.000000
# 4 0.000000 0.000000 0.000000 -0.031794 0.000000 -0.029768
# 5 -0.000841 0.005101 0.002112 0.000000 0.023290 0.000000
# 6 0.000000 0.000000 0.000000 -0.029768 0.000000 0.003057
#
#
# Mechanical properties :
#
#
# Convention : Reuss Voigt Hill
#
# Bulk Modulus (GPa) = 65.83023 82.28140 74.05581
# Shear Modulus (GPa) = 71.82466 29.21897 50.52182
#
# Velocity S-wave (km/s) = 5.66837 3.61538 4.75402
# Velocity P-wave (km/s) = 8.50232 7.36452 7.95379
#
# Compressibility (1/GPa) = 0.01519059
#
# Stress axis : x y z
#
# Youngs Moduli (GPa) = 119.04562 46.38223 79.15243
#
# Poissons Ratio (x) = 0.12701 0.19999
# Poissons Ratio (y) = 0.32598 0.66779
# Poissons Ratio (z) = 0.30079 0.39131
#
# Static dielectric constant tensor:
#      x y z
#    x 4.693700 0.000000 -0.067960 
#    y 0.000000 3.308610 0.000000 
#    z -0.067960 0.000000 4.446030 
# 
# 
# High freq. dielectric constant tensor:
#      x y z
#    x 1.905640 0.000000 -0.010270 
#    y 0.000000 1.869730 0.000000 
#    z -0.010270 0.000000 1.897750 
# 
# From -- ./inp_files/45125.got.cif
#   From: 2010.06.25/outbox.cif.g09.slc.cpg/sg13_23_cif.got.tgz:45125.got - 2010.06.28 04:50:58.
