data_PCOD8122110
_publ_section_title
;
Structure prediction by ZEFSAII (Michael W. Deem and Ramdas Pophale) SiO2 
 PCOD8122110
Probable space group: P 2/C
;
_chemical_formula_sum "Si O2"
_cell_formula_units_Z 28
_cell_length_a 8.908589
_cell_length_b 15.071408
_cell_length_c 13.510728
_cell_angle_alpha 90.000000
_cell_angle_beta 46.504216
_cell_angle_gamma 90.000000
_cell_volume 1315.933768
_symmetry_space_group_name_H-M "P 2/C"
_symmetry_group_IT_number 13
_symmetry_cell_setting 'monoclinic'
loop_
_space_group_symop_operation_xyz
x,y,z
-x,y,1/2-z
-x,-y,-z
x,-y,1/2+z
loop_
_atom_site_type_symbol
_atom_site_label
_atom_site_fract_x
_atom_site_fract_y
_atom_site_fract_z
Si Si1 0.247016 0.862438 0.017043
Si Si2 0.336325 0.527686 0.750140
Si Si3 0.087383 0.476278 0.609181
Si Si4 0.500000 0.268272 0.750000
Si Si5 0.500000 0.983062 0.750000
Si Si6 0.757298 0.125828 0.748033
Si Si7 0.424958 0.390532 0.955710
Si Si8 0.596575 0.671436 0.568927
O O1 0.302482 0.874184 0.108068
O O2 0.002267 0.875066 0.117813
O O3 0.369509 0.929001 0.890515
O O4 0.316659 0.766724 0.941876
O O5 0.500000 0.480609 0.750000
O O6 0.405110 0.471629 0.621798
O O7 0.390272 0.634105 0.719983
O O8 0.098833 0.505865 0.880569
O O9 0.204766 0.567131 0.585609
O O10 0.228958 0.404632 0.487237
O O11 0.000000 0.432950 0.750000
O O12 0.668419 0.211572 0.733343
O O13 0.379396 0.331240 0.880451
O O14 0.662006 0.039305 0.740295
O O15 0.523463 0.322771 0.989299
#
# Coordination Sequence:
#
# PCOD8122110 Si02
#       8
#     4   4   4   2   2   4   4   4
#     4  11  24  42  73 101 129 173 210 273 325 395
#     4  11  23  36  56  86 129 170 216 265 315 367
#     4  11  21  37  62  83 126 183 216 264 318 372
#     4  11  22  40  63  92 126 160 225 282 302 385
#     4  11  24  48  69 100 140 158 205 270 348 405
#     4  10  24  43  72 100 125 170 216 259 332 410
#     4  11  21  38  58  87 122 170 218 268 312 361
#     4  11  23  37  61  93 125 168 223 263 318 375
#
# _framework density 21.277667999999998
#
# number of rings (size 3 to 8) (size 9 to 14) (size 15 to 20)
#    0.000    1.143    5.000    1.714    5.000    3.429 
#    0.000    0.000    0.000    0.000    0.000    0.000 
#    0.000    0.000    0.000    0.000    0.000    0.000 
#
# Total GULP energy -346871.801185 kJ/mol
# GULP energy per Si atom -12388.278614 kJ/mol
# Density = 2.122924 g / cm^3
# Si number density = 21.277668 Si / 1000 Ang^3
#
#
#
# Elastic Constant Matrix: (Units=GPa)
#
#
# Indices 1 2 3 4 5 6 
#
# 1 135.6378 50.3119 36.2833 0.0000 -17.1201 0.0000
# 2 50.3119 125.4318 38.0354 0.0000 -10.6537 0.0000
# 3 36.2833 38.0354 92.2199 0.0000 -14.0721 0.0000
# 4 0.0000 0.0000 0.0000 35.8990 0.0000 7.9139
# 5 -17.1201 -10.6537 -14.0721 0.0000 30.3529 0.0000
# 6 0.0000 0.0000 0.0000 7.9139 0.0000 9.1419
#
#
#
# Elastic Compliance Matrix: (Units=1/GPa)
#
#
# Indices 1 2 3 4 5 6 
#
# 1 0.009399 -0.002879 -0.001997 0.000000 0.003365 0.000000
# 2 -0.002879 0.010063 -0.002934 0.000000 0.000548 0.000000
# 3 -0.001997 -0.002934 0.013463 0.000000 0.004085 0.000000
# 4 0.000000 0.000000 0.000000 0.034426 0.000000 -0.029802
# 5 0.003365 0.000548 0.004085 0.000000 0.036930 0.000000
# 6 0.000000 0.000000 0.000000 -0.029802 0.000000 0.135186
#
#
# Mechanical properties :
#
#
# Convention : Reuss Voigt Hill
#
# Bulk Modulus (GPa) = 57.78603 66.95006 62.36805
# Shear Modulus (GPa) = 19.16761 30.32268 24.74514
#
# Velocity S-wave (km/s) = 3.00464 3.77914 3.41392
# Velocity P-wave (km/s) = 6.26532 7.11166 6.70186
#
# Compressibility (1/GPa) = 0.01730522
#
# Stress axis : x y z
#
# Youngs Moduli (GPa) = 106.38967 99.36902 74.27702
#
# Poissons Ratio (x) = 0.28605 0.14836
# Poissons Ratio (y) = 0.30626 0.21796
# Poissons Ratio (z) = 0.21250 0.29159
#
# Static dielectric constant tensor:
#      x y z
#    x 4.302090 0.000000 0.283110 
#    y 0.000000 3.672570 0.000000 
#    z 0.283110 0.000000 4.064310 
# 
# 
# High freq. dielectric constant tensor:
#      x y z
#    x 1.860280 0.000000 0.014250 
#    y 0.000000 1.812460 0.000000 
#    z 0.014250 0.000000 1.844190 
# 
# From -- ./inp_files/47666.got.cif
#   From: 2010.06.25/outbox.cif.g09.slc.cpg/sg13_24_cif.got.tgz:47666.got - 2010.06.28 04:50:58.
