data_PCOD8122257
_publ_section_title
;
Structure prediction by ZEFSAII (Michael W. Deem and Ramdas Pophale) SiO2 
 PCOD8122257
Probable space group: P 2/C
;
_chemical_formula_sum "Si O2"
_cell_formula_units_Z 16
_cell_length_a 4.978059
_cell_length_b 8.139741
_cell_length_c 16.311370
_cell_angle_alpha 90.000000
_cell_angle_beta 74.836924
_cell_angle_gamma 90.000000
_cell_volume 637.928120
_symmetry_space_group_name_H-M "P 2/C"
_symmetry_group_IT_number 13
_symmetry_cell_setting 'monoclinic'
loop_
_space_group_symop_operation_xyz
x,y,z
-x,y,1/2-z
-x,-y,-z
x,-y,1/2+z
loop_
_atom_site_type_symbol
_atom_site_label
_atom_site_fract_x
_atom_site_fract_y
_atom_site_fract_z
Si Si1 0.716034 0.853516 0.806610
Si Si2 0.295792 0.408249 0.834453
Si Si3 0.220936 0.208021 0.627936
Si Si4 0.372377 0.645155 0.957188
O O1 0.500000 0.884231 0.750000
O O2 0.607032 0.740920 0.888243
O O3 0.000000 0.770703 0.750000
O O4 0.811107 0.022386 0.842026
O O5 0.500000 0.490733 0.750000
O O6 0.482173 0.273814 0.866615
O O7 0.181900 0.552265 0.903837
O O8 0.038024 0.312360 0.814675
O O9 0.203967 0.229145 0.529256
O O10 0.500000 0.500000 0.000000
#
# Coordination Sequence:
#
# PCOD8122257 Si02
#       4
#     4   4   4   4
#     4  12  26  45  71 102 136 180 232 286 342 410
#     4  11  22  40  67  98 134 178 227 278 334 400
#     4  11  23  43  67  97 134 177 224 279 339 401
#     4  10  25  44  67  99 138 181 226 281 345 411
#
# _framework density 25.081195999999998
#
# number of rings (size 3 to 8) (size 9 to 14) (size 15 to 20)
#    0.000    1.000    0.000    6.750    0.000   12.000 
#    0.000    8.750    0.000    0.000    0.000    0.000 
#    0.000    0.000    0.000    0.000    0.000    0.000 
#
# Total GULP energy -198332.578309 kJ/mol
# GULP energy per Si atom -12395.786144 kJ/mol
# Density = 2.502411 g / cm^3
# Si number density = 25.081196 Si / 1000 Ang^3
#
#
#
# Elastic Constant Matrix: (Units=GPa)
#
#
# Indices 1 2 3 4 5 6 
#
# 1 105.9635 33.5380 42.9795 0.0000 -10.2663 0.0000
# 2 33.5380 77.5212 50.0805 0.0000 13.6473 0.0000
# 3 42.9795 50.0805 155.2988 0.0000 4.5907 0.0000
# 4 0.0000 0.0000 0.0000 45.4726 0.0000 -8.5979
# 5 -10.2663 13.6473 4.5907 0.0000 34.9291 0.0000
# 6 0.0000 0.0000 0.0000 -8.5979 0.0000 25.0162
#
#
#
# Elastic Compliance Matrix: (Units=1/GPa)
#
#
# Indices 1 2 3 4 5 6 
#
# 1 0.012438 -0.005164 -0.001952 0.000000 0.005930 0.000000
# 2 -0.005164 0.019652 -0.004654 0.000000 -0.008584 0.000000
# 3 -0.001952 -0.004654 0.008477 0.000000 0.000131 0.000000
# 4 0.000000 0.000000 0.000000 0.023520 0.000000 0.008084
# 5 0.005930 -0.008584 0.000131 0.000000 0.033709 0.000000
# 6 0.000000 0.000000 0.000000 0.008084 0.000000 0.042752
#
#
# Mechanical properties :
#
#
# Convention : Reuss Voigt Hill
#
# Bulk Modulus (GPa) = 58.73597 65.77548 62.25573
# Shear Modulus (GPa) = 29.45272 35.22928 32.34100
#
# Velocity S-wave (km/s) = 3.43052 3.75188 3.59479
# Velocity P-wave (km/s) = 6.25783 6.71198 6.48888
#
# Compressibility (1/GPa) = 0.01702534
#
# Stress axis : x y z
#
# Youngs Moduli (GPa) = 80.39914 50.88603 117.97162
#
# Poissons Ratio (x) = 0.26276 0.23032
# Poissons Ratio (y) = 0.41516 0.54909
# Poissons Ratio (z) = 0.15697 0.23685
#
# Static dielectric constant tensor:
#      x y z
#    x 4.264820 0.000000 0.241330 
#    y 0.000000 4.463110 0.000000 
#    z 0.241330 0.000000 5.504510 
# 
# 
# High freq. dielectric constant tensor:
#      x y z
#    x 1.985220 0.000000 0.006010 
#    y 0.000000 1.991930 0.000000 
#    z 0.006010 0.000000 2.033760 
# 
# From -- ./inp_files/60517.got.cif
#   From: 2010.06.25/outbox.cif.g09.slc.cpg/sg13_31_cif.got.tgz:60517.got - 2010.06.28 04:50:58.
