data_PCOD8122265
_publ_section_title
;
Structure prediction by ZEFSAII (Michael W. Deem and Ramdas Pophale) SiO2 
 PCOD8122265
Probable space group: P 2/C
;
_chemical_formula_sum "Si O2"
_cell_formula_units_Z 22
_cell_length_a 5.005723
_cell_length_b 9.001433
_cell_length_c 24.093331
_cell_angle_alpha 90.000000
_cell_angle_beta 115.385332
_cell_angle_gamma 90.000000
_cell_volume 980.792345
_symmetry_space_group_name_H-M "P 2/C"
_symmetry_group_IT_number 13
_symmetry_cell_setting 'monoclinic'
loop_
_space_group_symop_operation_xyz
x,y,z
-x,y,1/2-z
-x,-y,-z
x,-y,1/2+z
loop_
_atom_site_type_symbol
_atom_site_label
_atom_site_fract_x
_atom_site_fract_y
_atom_site_fract_z
Si Si1 0.023705 0.579491 0.560360
Si Si2 0.117627 0.839502 0.021907
Si Si3 0.831222 0.998499 0.785705
Si Si4 0.198952 0.193610 0.895812
Si Si5 0.000000 0.707363 0.750000
Si Si6 0.323500 0.502443 0.864991
O O1 0.986477 0.752625 0.542375
O O2 0.330208 0.527468 0.614505
O O3 0.000000 0.500000 0.500000
O O4 0.760640 0.552756 0.580491
O O5 0.971581 0.760044 0.062990
O O6 0.530107 0.146361 0.940342
O O7 0.000000 0.000000 0.000000
O O8 0.500000 0.058287 0.750000
O O9 0.000000 0.075313 0.750000
O O10 0.003934 0.055010 0.855509
O O11 0.832022 0.817352 0.778929
O O12 0.219172 0.329869 0.853463
O O13 0.804235 0.598704 0.696128
#
# Coordination Sequence:
#
# PCOD8122265 Si02
#       6
#     4   4   4   4   2   4
#     4  12  24  47  70 102 142 173 224 287 342 406
#     4  12  27  41  70 103 138 177 228 266 353 406
#     4  10  25  45  67  92 136 177 229 280 340 393
#     4  12  24  46  66 103 135 180 221 287 331 409
#     4  10  30  44  72 102 132 184 232 278 350 396
#     4  12  26  44  74  99 138 180 229 283 342 411
#
# _framework density 22.430841999999998
#
# number of rings (size 3 to 8) (size 9 to 14) (size 15 to 20)
#    0.545    0.000    3.636    3.273    8.909    0.000 
#    0.000    0.000    0.000    0.000    0.000    0.000 
#    0.000    0.000    0.000    0.000    0.000    0.000 
#
# Total GULP energy -272584.384615 kJ/mol
# GULP energy per Si atom -12390.199301 kJ/mol
# Density = 2.237979 g / cm^3
# Si number density = 22.430842 Si / 1000 Ang^3
#
#
#
# Elastic Constant Matrix: (Units=GPa)
#
#
# Indices 1 2 3 4 5 6 
#
# 1 104.7908 4.1761 22.2485 0.0000 29.3794 0.0000
# 2 4.1761 119.8211 41.2151 0.0000 10.1813 0.0000
# 3 22.2485 41.2151 100.5378 0.0000 21.8337 0.0000
# 4 0.0000 0.0000 0.0000 44.9372 0.0000 -11.5498
# 5 29.3794 10.1813 21.8337 0.0000 37.6175 0.0000
# 6 0.0000 0.0000 0.0000 -11.5498 0.0000 124.3365
#
#
#
# Elastic Compliance Matrix: (Units=1/GPa)
#
#
# Indices 1 2 3 4 5 6 
#
# 1 0.012315 0.000702 -0.001010 0.000000 -0.009221 0.000000
# 2 0.000702 0.009760 -0.003963 0.000000 -0.000889 0.000000
# 3 -0.001010 -0.003963 0.013033 0.000000 -0.005703 0.000000
# 4 0.000000 0.000000 0.000000 0.022798 0.000000 0.002118
# 5 -0.009221 -0.000889 -0.005703 0.000000 0.037336 0.000000
# 6 0.000000 0.000000 0.000000 0.002118 0.000000 0.008239
#
#
# Mechanical properties :
#
#
# Convention : Reuss Voigt Hill
#
# Bulk Modulus (GPa) = 37.64399 51.15878 44.40138
# Shear Modulus (GPa) = 41.36348 58.54558 49.95453
#
# Velocity S-wave (km/s) = 4.29889 5.11441 4.72428
# Velocity P-wave (km/s) = 6.43889 7.59823 7.04246
#
# Compressibility (1/GPa) = 0.02656467
#
# Stress axis : x y z
#
# Youngs Moduli (GPa) = 81.20389 102.45738 76.72628
#
# Poissons Ratio (x) = -0.07191 0.07752
# Poissons Ratio (y) = -0.05699 0.30409
# Poissons Ratio (z) = 0.08204 0.40607
#
# Static dielectric constant tensor:
#      x y z
#    x 4.245240 0.000000 0.134790 
#    y 0.000000 4.030860 0.000000 
#    z 0.134790 0.000000 4.165050 
# 
# 
# High freq. dielectric constant tensor:
#      x y z
#    x 1.892510 0.000000 0.003920 
#    y 0.000000 1.892800 0.000000 
#    z 0.003920 0.000000 1.877790 
# 
# From -- ./inp_files/90342.got.cif
#   From: 2010.06.25/outbox.cif.g09.slc.cpg/sg13_46_cif.got.tgz:90342.got - 2010.06.28 04:50:58.
