data_PCOD8122092
_publ_section_title
;
Structure prediction by ZEFSAII (Michael W. Deem and Ramdas Pophale) SiO2 
 PCOD8122092
Probable space group: P 2/C
;
_chemical_formula_sum "Si O2"
_cell_formula_units_Z 24
_cell_length_a 9.247067
_cell_length_b 8.182090
_cell_length_c 21.353196
_cell_angle_alpha 90.000000
_cell_angle_beta 47.406533
_cell_angle_gamma 90.000000
_cell_volume 1189.355738
_symmetry_space_group_name_H-M "P 2/C"
_symmetry_group_IT_number 13
_symmetry_cell_setting 'monoclinic'
loop_
_space_group_symop_operation_xyz
x,y,z
-x,y,1/2-z
-x,-y,-z
x,-y,1/2+z
loop_
_atom_site_type_symbol
_atom_site_label
_atom_site_fract_x
_atom_site_fract_y
_atom_site_fract_z
Si Si1 0.663832 0.104410 0.548373
Si Si2 0.518701 0.687197 0.508186
Si Si3 0.378910 0.177686 0.171574
Si Si4 0.300440 0.720682 0.337586
Si Si5 0.500000 0.594824 0.750000
Si Si6 0.000000 0.013570 0.250000
Si Si7 0.904508 0.137790 0.902401
O O1 0.540528 0.196565 0.531610
O O2 0.731650 0.235066 0.580255
O O3 0.530074 0.971984 0.622821
O O4 0.854570 0.018418 0.461217
O O5 0.500000 0.500000 0.500000
O O6 0.378120 0.720105 0.607843
O O7 0.742390 0.723685 0.462508
O O8 0.430505 0.292189 0.214224
O O9 0.155568 0.117851 0.244870
O O10 0.500000 0.801077 0.250000
O O11 0.319284 0.522948 0.325341
O O12 0.118305 0.789749 0.352313
O O13 0.886129 0.905681 0.334486
#
# Coordination Sequence:
#
# PCOD8122092 Si02
#       7
#     4   4   4   4   2   2   4
#     4  11  21  45  65  97 129 175 228 267 334 396
#     4  11  23  43  68  95 136 174 215 284 337 397
#     4  11  23  42  64  97 130 172 224 274 326 406
#     4  10  24  43  64  95 135 174 219 276 337 396
#     4  10  26  42  62  98 136 174 218 272 350 384
#     4  12  22  38  70  98 128 164 234 276 324 392
#     4  11  23  41  67  99 125 177 225 274 330 403
#
# _framework density 20.178991
#
# number of rings (size 3 to 8) (size 9 to 14) (size 15 to 20)
#    0.500    0.667    3.333    3.500    3.500    1.333 
#    0.000    4.167    0.000    0.000    0.000    0.000 
#    0.000    0.000    0.000    0.000    0.000    0.000 
#
# Total GULP energy -297587.330980 kJ/mol
# GULP energy per Si atom -12399.472124 kJ/mol
# Density = 2.013306 g / cm^3
# Si number density = 20.178991 Si / 1000 Ang^3
#
#
#
# Elastic Constant Matrix: (Units=GPa)
#
#
# Indices 1 2 3 4 5 6 
#
# 1 117.6378 54.5548 40.8262 0.0000 2.9888 0.0000
# 2 54.5548 123.1564 40.7465 0.0000 10.3795 0.0000
# 3 40.8262 40.7465 89.2159 0.0000 9.8330 0.0000
# 4 0.0000 0.0000 0.0000 47.3612 0.0000 26.7809
# 5 2.9888 10.3795 9.8330 0.0000 46.9093 0.0000
# 6 0.0000 0.0000 0.0000 26.7809 0.0000 64.3476
#
#
#
# Elastic Compliance Matrix: (Units=1/GPa)
#
#
# Indices 1 2 3 4 5 6 
#
# 1 0.011581 -0.004028 -0.003559 0.000000 0.000899 0.000000
# 2 -0.004028 0.011036 -0.003026 0.000000 -0.001551 0.000000
# 3 -0.003559 -0.003026 0.014455 0.000000 -0.002134 0.000000
# 4 0.000000 0.000000 0.000000 0.027613 0.000000 -0.011492
# 5 0.000899 -0.001551 -0.002134 0.000000 0.022051 0.000000
# 6 0.000000 0.000000 0.000000 -0.011492 0.000000 0.020324
#
#
# Mechanical properties :
#
#
# Convention : Reuss Voigt Hill
#
# Bulk Modulus (GPa) = 63.11110 66.91833 65.01472
# Shear Modulus (GPa) = 37.43431 44.64913 41.04172
#
# Velocity S-wave (km/s) = 4.31177 4.70899 4.51475
# Velocity P-wave (km/s) = 7.49213 7.92467 7.71144
#
# Compressibility (1/GPa) = 0.01584507
#
# Stress axis : x y z
#
# Youngs Moduli (GPa) = 86.34718 90.61160 69.18241
#
# Poissons Ratio (x) = 0.36502 0.24622
# Poissons Ratio (y) = 0.34785 0.20934
# Poissons Ratio (z) = 0.30730 0.27419
#
# Static dielectric constant tensor:
#      x y z
#    x 3.512940 0.000000 0.129760 
#    y 0.000000 3.438490 0.000000 
#    z 0.129760 0.000000 3.774120 
# 
# 
# High freq. dielectric constant tensor:
#      x y z
#    x 1.788690 0.000000 0.008540 
#    y 0.000000 1.782290 0.000000 
#    z 0.008540 0.000000 1.796350 
# 
# From -- ./inp_files/69539.got.cif
#   From: 2010.06.25/outbox.cif.g09.slc.cpg/sg13_35_cif.got.tgz:69539.got - 2010.06.28 04:50:58.
