data_PCOD8122627
_publ_section_title
;
Structure prediction by ZEFSAII (Michael W. Deem and Ramdas Pophale) SiO2 
 PCOD8122627
Probable space group: P 2/C
;
_chemical_formula_sum "Si O2"
_cell_formula_units_Z 22
_cell_length_a 14.515319
_cell_length_b 6.453226
_cell_length_c 22.867390
_cell_angle_alpha 90.000000
_cell_angle_beta 28.294004
_cell_angle_gamma 90.000000
_cell_volume 1015.300954
_symmetry_space_group_name_H-M "P 2/C"
_symmetry_group_IT_number 13
_symmetry_cell_setting 'monoclinic'
loop_
_space_group_symop_operation_xyz
x,y,z
-x,y,1/2-z
-x,-y,-z
x,-y,1/2+z
loop_
_atom_site_type_symbol
_atom_site_label
_atom_site_fract_x
_atom_site_fract_y
_atom_site_fract_z
Si Si1 0.611336 0.254695 0.550626
Si Si2 0.708395 0.575410 0.778689
Si Si3 0.713099 0.908494 0.877819
Si Si4 0.119794 0.417347 0.564725
Si Si5 0.542565 0.145648 0.159709
Si Si6 0.000000 0.760556 0.250000
O O1 0.438890 0.394802 0.619678
O O2 0.754375 0.189828 0.418076
O O3 0.744985 0.381448 0.521043
O O4 0.515528 0.060297 0.636628
O O5 0.741120 0.738791 0.812169
O O6 0.617908 0.688653 0.772665
O O7 0.913468 0.463781 0.649341
O O8 0.858753 0.100223 0.788559
O O9 0.500000 0.000000 0.000000
O O10 0.234506 0.225572 0.471112
O O11 0.108780 0.380132 0.641227
O O12 0.500000 0.090960 0.250000
#
# Coordination Sequence:
#
# PCOD8122627 Si02
#       6
#     4   4   4   4   4   2
#     4  11  22  43  63  96 139 175 211 275 332 394
#     4  11  24  40  70  99 132 174 223 271 332 400
#     4  12  20  37  66  98 137 173 210 262 340 401
#     4  11  24  42  67 101 135 171 218 272 337 397
#     4  11  26  47  67  93 131 181 230 276 324 381
#     4  12  22  38  68 104 142 168 206 274 340 404
#
# _framework density 21.668454000000001
#
# number of rings (size 3 to 8) (size 9 to 14) (size 15 to 20)
#    0.000    0.727    3.636    4.909    0.000    3.636 
#    0.000    1.818    0.000    0.000    0.000    0.000 
#    0.000    0.000    0.000    0.000    0.000    0.000 
#
# Total GULP energy -272809.958719 kJ/mol
# GULP energy per Si atom -12400.452669 kJ/mol
# Density = 2.161914 g / cm^3
# Si number density = 21.668454 Si / 1000 Ang^3
#
#
#
# Elastic Constant Matrix: (Units=GPa)
#
#
# Indices 1 2 3 4 5 6 
#
# 1 74.1052 24.5923 28.2417 0.0000 -1.4598 0.0000
# 2 24.5923 95.3192 25.8195 0.0000 -8.1279 0.0000
# 3 28.2417 25.8195 83.3514 0.0000 -13.5792 0.0000
# 4 0.0000 0.0000 0.0000 21.8490 0.0000 -12.7357
# 5 -1.4598 -8.1279 -13.5792 0.0000 47.2164 0.0000
# 6 0.0000 0.0000 0.0000 -12.7357 0.0000 26.8575
#
#
#
# Elastic Compliance Matrix: (Units=1/GPa)
#
#
# Indices 1 2 3 4 5 6 
#
# 1 0.016305 -0.003021 -0.004817 0.000000 -0.001401 0.000000
# 2 -0.003021 0.012057 -0.002506 0.000000 0.001261 0.000000
# 3 -0.004817 -0.002506 0.015015 0.000000 0.003738 0.000000
# 4 0.000000 0.000000 0.000000 0.063252 0.000000 0.029994
# 5 -0.001401 0.001261 0.003738 0.000000 0.022428 0.000000
# 6 0.000000 0.000000 0.000000 0.029994 0.000000 0.051457
#
#
# Mechanical properties :
#
#
# Convention : Reuss Voigt Hill
#
# Bulk Modulus (GPa) = 44.07480 45.56474 44.81977
# Shear Modulus (GPa) = 23.95053 30.79274 27.37164
#
# Velocity S-wave (km/s) = 3.32824 3.77382 3.55801
# Velocity P-wave (km/s) = 5.92910 6.32951 6.13258
#
# Compressibility (1/GPa) = 0.02268870
#
# Stress axis : x y z
#
# Youngs Moduli (GPa) = 61.33028 82.94046 66.60175
#
# Poissons Ratio (x) = 0.25060 0.32082
# Poissons Ratio (y) = 0.18530 0.16687
# Poissons Ratio (z) = 0.29543 0.20781
#
# Static dielectric constant tensor:
#      x y z
#    x 3.667290 0.000000 -0.177290 
#    y 0.000000 4.250800 0.000000 
#    z -0.177290 0.000000 4.122950 
# 
# 
# High freq. dielectric constant tensor:
#      x y z
#    x 1.827790 0.000000 -0.023660 
#    y 0.000000 1.872400 0.000000 
#    z -0.023660 0.000000 1.843900 
# 
# From -- ./inp_files/52333.got.cif
#   From: 2010.06.25/outbox.cif.g09.slc.cpg/sg13_27_cif.got.tgz:52333.got - 2010.06.28 04:50:58.
