data_PCOD8122153
_publ_section_title
;
Structure prediction by ZEFSAII (Michael W. Deem and Ramdas Pophale) SiO2 
 PCOD8122153
Probable space group: P 2/C
;
_chemical_formula_sum "Si O2"
_cell_formula_units_Z 20
_cell_length_a 13.083716
_cell_length_b 9.810760
_cell_length_c 12.879789
_cell_angle_alpha 90.000000
_cell_angle_beta 145.840744
_cell_angle_gamma 90.000000
_cell_volume 928.300250
_symmetry_space_group_name_H-M "P 2/C"
_symmetry_group_IT_number 13
_symmetry_cell_setting 'monoclinic'
loop_
_space_group_symop_operation_xyz
x,y,z
-x,y,1/2-z
-x,-y,-z
x,-y,1/2+z
loop_
_atom_site_type_symbol
_atom_site_label
_atom_site_fract_x
_atom_site_fract_y
_atom_site_fract_z
Si Si1 0.621153 0.560227 0.512223
Si Si2 0.088288 0.354342 0.091121
Si Si3 0.500000 0.764708 0.250000
Si Si4 0.100096 0.849243 0.933458
Si Si5 0.702333 0.698710 0.943982
Si Si6 0.000000 0.894082 0.250000
O O1 0.500000 0.500000 0.500000
O O2 0.785855 0.639540 0.702454
O O3 0.498026 0.668257 0.348835
O O4 0.694046 0.445676 0.494644
O O5 0.194278 0.313871 0.077442
O O6 0.943993 0.235166 0.998629
O O7 0.000000 0.500000 0.000000
O O8 0.681564 0.855675 0.398676
O O9 0.000000 0.777702 0.750000
O O10 0.028885 0.007250 0.875639
O O11 0.500000 0.755152 0.750000
O O12 0.819049 0.801921 0.113960
#
# Coordination Sequence:
#
# PCOD8122153 Si02
#       6
#     4   4   2   4   4   2
#     4  12  21  40  66 105 140 175 226 293 365 411
#     4  12  24  42  72 107 143 179 233 303 365 413
#     4  12  22  42  70  98 134 176 238 290 352 420
#     4  10  24  45  67  98 135 191 230 285 346 421
#     4  12  25  43  69 104 140 187 235 291 346 426
#     4  10  26  46  68  96 148 190 244 274 340 438
#
# _framework density 21.544753
#
# number of rings (size 3 to 8) (size 9 to 14) (size 15 to 20)
#    0.600    0.000    5.000    3.600    1.400    0.800 
#    0.000    1.000    0.000    0.000    0.000    0.000 
#    0.000    0.000    0.000    0.000    0.000    0.000 
#
# Total GULP energy -247884.576503 kJ/mol
# GULP energy per Si atom -12394.228825 kJ/mol
# Density = 2.149572 g / cm^3
# Si number density = 21.544753 Si / 1000 Ang^3
#
#
#
# Elastic Constant Matrix: (Units=GPa)
#
#
# Indices 1 2 3 4 5 6 
#
# 1 124.3374 34.1025 44.4627 0.0000 19.2071 0.0000
# 2 34.1025 101.3547 42.7040 0.0000 11.8283 0.0000
# 3 44.4627 42.7040 130.5110 0.0000 16.9218 0.0000
# 4 0.0000 0.0000 0.0000 50.9837 0.0000 -0.7984
# 5 19.2071 11.8283 16.9218 0.0000 34.9843 0.0000
# 6 0.0000 0.0000 0.0000 -0.7984 0.0000 17.5756
#
#
#
# Elastic Compliance Matrix: (Units=1/GPa)
#
#
# Indices 1 2 3 4 5 6 
#
# 1 0.009967 -0.001963 -0.002272 0.000000 -0.003709 0.000000
# 2 -0.001963 0.011991 -0.003061 0.000000 -0.001496 0.000000
# 3 -0.002272 -0.003061 0.009754 0.000000 -0.002435 0.000000
# 4 0.000000 0.000000 0.000000 0.019628 0.000000 0.000892
# 5 -0.003709 -0.001496 -0.002435 0.000000 0.032304 0.000000
# 6 0.000000 0.000000 0.000000 0.000892 0.000000 0.056937
#
#
# Mechanical properties :
#
#
# Convention : Reuss Voigt Hill
#
# Bulk Modulus (GPa) = 58.41495 66.52682 62.47088
# Shear Modulus (GPa) = 31.07913 36.37099 33.72506
#
# Velocity S-wave (km/s) = 3.80220 4.11318 3.96074
# Velocity P-wave (km/s) = 6.81526 7.31458 7.06933
#
# Compressibility (1/GPa) = 0.01711891
#
# Stress axis : x y z
#
# Youngs Moduli (GPa) = 100.33551 83.39535 102.52681
#
# Poissons Ratio (x) = 0.16373 0.23295
# Poissons Ratio (y) = 0.19698 0.31381
# Poissons Ratio (z) = 0.22798 0.25525
#
# Static dielectric constant tensor:
#      x y z
#    x 4.360280 0.000000 0.751730 
#    y 0.000000 3.515910 0.000000 
#    z 0.751730 0.000000 5.308940 
# 
# 
# High freq. dielectric constant tensor:
#      x y z
#    x 1.837230 0.000000 0.003830 
#    y 0.000000 1.837240 0.000000 
#    z 0.003830 0.000000 1.863270 
# 
# From -- ./inp_files/33446.got.cif
#   From: 2010.06.25/outbox.cif.g09.slc.cpg/sg13_17_cif.got.tgz:33446.got - 2010.06.28 04:50:58.
