data_PCOD8122421
_publ_section_title
;
Structure prediction by ZEFSAII (Michael W. Deem and Ramdas Pophale) SiO2 
 PCOD8122421
Probable space group: P 2/C
;
_chemical_formula_sum "Si O2"
_cell_formula_units_Z 26
_cell_length_a 8.176671
_cell_length_b 9.675538
_cell_length_c 24.738744
_cell_angle_alpha 90.000000
_cell_angle_beta 138.146942
_cell_angle_gamma 90.000000
_cell_volume 1305.870138
_symmetry_space_group_name_H-M "P 2/C"
_symmetry_group_IT_number 13
_symmetry_cell_setting 'monoclinic'
loop_
_space_group_symop_operation_xyz
x,y,z
-x,y,1/2-z
-x,-y,-z
x,-y,1/2+z
loop_
_atom_site_type_symbol
_atom_site_label
_atom_site_fract_x
_atom_site_fract_y
_atom_site_fract_z
Si Si1 0.000000 0.419204 0.250000
Si Si2 0.909976 0.984566 0.354112
Si Si3 0.510239 0.149313 0.695913
Si Si4 0.853543 0.496478 0.519297
Si Si5 0.135383 0.724184 0.893289
Si Si6 0.713086 0.753966 0.051628
Si Si7 0.379014 0.629120 0.362462
O O1 0.922818 0.322903 0.181649
O O2 0.781576 0.524576 0.212935
O O3 0.969595 0.145183 0.366935
O O4 0.728967 0.952648 0.361121
O O5 0.763400 0.940629 0.262517
O O6 0.167245 0.904586 0.424101
O O7 0.500000 0.238307 0.750000
O O8 0.497995 0.249545 0.642153
O O9 0.955215 0.605683 0.587928
O O10 0.855722 0.343250 0.544331
O O11 0.575263 0.534304 0.439941
O O12 0.000000 0.500000 0.500000
O O13 0.422505 0.761286 0.969328
O O14 0.774642 0.698911 0.127022
#
# Coordination Sequence:
#
# PCOD8122421 Si02
#       7
#     2   4   4   4   4   4   4
#     4  12  22  36  64  96 132 152 220 266 336 362
#     4   9  21  41  62  89 131 166 208 261 314 388
#     4   8  21  39  61  90 127 165 217 246 318 385
#     4  11  23  41  62  91 125 164 214 261 315 380
#     4  11  23  41  61  96 128 162 207 271 318 381
#     4  11  20  41  64  93 122 162 224 249 318 378
#     4  11  20  38  64  90 118 168 205 272 297 385
#
# _framework density 19.910095999999999
#
# number of rings (size 3 to 8) (size 9 to 14) (size 15 to 20)
#    0.923    0.615    3.077    3.231    0.000    1.231 
#    5.538    8.462    0.000    0.000    0.000    0.000 
#    0.000    0.000    0.000    0.000    0.000    0.000 
#
# Total GULP energy -322147.270923 kJ/mol
# GULP energy per Si atom -12390.279651 kJ/mol
# Density = 1.986478 g / cm^3
# Si number density = 19.910096 Si / 1000 Ang^3
#
#
#
# Elastic Constant Matrix: (Units=GPa)
#
#
# Indices 1 2 3 4 5 6 
#
# 1 101.4855 40.0805 27.5390 0.0000 -9.3747 0.0000
# 2 40.0805 109.5254 39.0851 0.0000 3.2576 0.0000
# 3 27.5390 39.0851 84.8123 0.0000 -0.9169 0.0000
# 4 0.0000 0.0000 0.0000 21.5729 0.0000 5.9366
# 5 -9.3747 3.2576 -0.9169 0.0000 26.5921 0.0000
# 6 0.0000 0.0000 0.0000 5.9366 0.0000 35.6665
#
#
#
# Elastic Compliance Matrix: (Units=1/GPa)
#
#
# Indices 1 2 3 4 5 6 
#
# 1 0.012434 -0.003914 -0.002182 0.000000 0.004788 0.000000
# 2 -0.003914 0.012221 -0.004394 0.000000 -0.003028 0.000000
# 3 -0.002182 -0.004394 0.014527 0.000000 0.000270 0.000000
# 4 0.000000 0.000000 0.000000 0.048580 0.000000 -0.008086
# 5 0.004788 -0.003028 0.000270 0.000000 0.039673 0.000000
# 6 0.000000 0.000000 0.000000 -0.008086 0.000000 0.029383
#
#
# Mechanical properties :
#
#
# Convention : Reuss Voigt Hill
#
# Bulk Modulus (GPa) = 54.93773 56.58140 55.75956
# Shear Modulus (GPa) = 27.19409 29.37421 28.28415
#
# Velocity S-wave (km/s) = 3.69974 3.84519 3.77316
# Velocity P-wave (km/s) = 6.77522 6.94220 6.85922
#
# Compressibility (1/GPa) = 0.01820243
#
# Stress axis : x y z
#
# Youngs Moduli (GPa) = 80.42686 81.82944 68.83789
#
# Poissons Ratio (x) = 0.32027 0.15019
# Poissons Ratio (y) = 0.31478 0.30245
# Poissons Ratio (z) = 0.17548 0.35953
#
# Static dielectric constant tensor:
#      x y z
#    x 2.813580 0.000000 -0.031630 
#    y 0.000000 3.690950 0.000000 
#    z -0.031630 0.000000 3.669290 
# 
# 
# High freq. dielectric constant tensor:
#      x y z
#    x 1.766030 0.000000 0.007690 
#    y 0.000000 1.770040 0.000000 
#    z 0.007690 0.000000 1.779650 
# 
# From -- ./inp_files/91332.got.cif
#   From: 2010.06.25/outbox.cif.g09.slc.cpg/sg13_46_cif.got.tgz:91332.got - 2010.06.28 04:50:58.
