data_PCOD8122912
_publ_section_title
;
Structure prediction by ZEFSAII (Michael W. Deem and Ramdas Pophale) SiO2 
 PCOD8122912
Probable space group: P 2/C
;
_chemical_formula_sum "Si O2"
_cell_formula_units_Z 28
_cell_length_a 9.030315
_cell_length_b 10.514889
_cell_length_c 14.263060
_cell_angle_alpha 90.000000
_cell_angle_beta 64.695128
_cell_angle_gamma 90.000000
_cell_volume 1224.365067
_symmetry_space_group_name_H-M "P 2/C"
_symmetry_group_IT_number 13
_symmetry_cell_setting 'monoclinic'
loop_
_space_group_symop_operation_xyz
x,y,z
-x,y,1/2-z
-x,-y,-z
x,-y,1/2+z
loop_
_atom_site_type_symbol
_atom_site_label
_atom_site_fract_x
_atom_site_fract_y
_atom_site_fract_z
Si Si1 0.400064 0.742646 0.999267
Si Si2 0.898409 0.711829 0.685321
Si Si3 0.830136 0.085142 0.843025
Si Si4 0.613831 0.092760 0.307595
Si Si5 0.397519 0.263314 0.869933
Si Si6 0.891868 0.106962 0.478679
Si Si7 0.339567 0.543420 0.854788
O O1 0.222712 0.802276 0.073065
O O2 0.488319 0.706565 0.071795
O O3 0.506206 0.851461 0.920880
O O4 0.365711 0.620281 0.944629
O O5 0.764910 0.816684 0.745769
O O6 0.814265 0.588049 0.664962
O O7 0.000000 0.671812 0.750000
O O8 0.009861 0.765359 0.571050
O O9 0.000000 0.127255 0.750000
O O10 0.683154 0.050137 0.810199
O O11 0.845366 0.950518 0.891110
O O12 0.500000 0.078576 0.250000
O O13 0.500000 0.229370 0.750000
O O14 0.301995 0.396072 0.882739
O O15 0.269480 0.147122 0.919346
O O16 0.000000 0.000000 0.500000
O O17 0.500000 0.566531 0.750000
#
# Coordination Sequence:
#
# PCOD8122912 Si02
#       7
#     4   4   4   4   4   4   4
#     4  12  23  45  75 107 142 193 244 300 364 433
#     4  12  21  43  75 106 141 187 241 299 359 438
#     4  12  26  43  67 109 152 185 234 304 371 434
#     4  12  22  42  72 109 138 193 250 291 362 447
#     4  11  28  48  71 108 146 193 249 302 358 428
#     4  12  26  43  70 101 150 187 229 298 375 431
#     4  11  24  48  79 105 141 193 251 302 358 432
#
# _framework density 22.868998000000001
#
# number of rings (size 3 to 8) (size 9 to 14) (size 15 to 20)
#    0.000    0.286    7.143    1.714    2.000    1.143 
#    0.000    0.000    0.000    0.000    0.000    0.000 
#    0.000    0.000    0.000    0.000    0.000    0.000 
#
# Total GULP energy -347246.445238 kJ/mol
# GULP energy per Si atom -12401.658759 kJ/mol
# Density = 2.281695 g / cm^3
# Si number density = 22.868998 Si / 1000 Ang^3
#
#
#
# Elastic Constant Matrix: (Units=GPa)
#
#
# Indices 1 2 3 4 5 6 
#
# 1 128.8374 20.7769 50.6496 0.0000 17.0299 0.0000
# 2 20.7769 62.5993 34.7001 0.0000 -4.2491 0.0000
# 3 50.6496 34.7001 149.3983 0.0000 -10.6950 0.0000
# 4 0.0000 0.0000 0.0000 29.9807 0.0000 -7.4237
# 5 17.0299 -4.2491 -10.6950 0.0000 47.5620 0.0000
# 6 0.0000 0.0000 0.0000 -7.4237 0.0000 31.1086
#
#
#
# Elastic Compliance Matrix: (Units=1/GPa)
#
#
# Indices 1 2 3 4 5 6 
#
# 1 0.009922 -0.001783 -0.003268 0.000000 -0.004447 0.000000
# 2 -0.001783 0.018678 -0.003627 0.000000 0.001492 0.000000
# 3 -0.003268 -0.003627 0.008847 0.000000 0.002835 0.000000
# 4 0.000000 0.000000 0.000000 0.035450 0.000000 0.008460
# 5 -0.004447 0.001492 0.002835 0.000000 0.023388 0.000000
# 6 0.000000 0.000000 0.000000 0.008460 0.000000 0.034164
#
#
# Mechanical properties :
#
#
# Convention : Reuss Voigt Hill
#
# Bulk Modulus (GPa) = 49.77487 61.45423 55.61455
# Shear Modulus (GPa) = 32.36202 37.37747 34.86974
#
# Velocity S-wave (km/s) = 3.76587 4.04718 3.90905
# Velocity P-wave (km/s) = 6.38134 6.98356 6.68923
#
# Compressibility (1/GPa) = 0.02009046
#
# Stress axis : x y z
#
# Youngs Moduli (GPa) = 100.78840 53.53808 113.03565
#
# Poissons Ratio (x) = 0.09548 0.36938
# Poissons Ratio (y) = 0.17975 0.40997
# Poissons Ratio (z) = 0.32936 0.19418
#
# Static dielectric constant tensor:
#      x y z
#    x 4.494680 0.000000 0.102330 
#    y 0.000000 4.065420 0.000000 
#    z 0.102330 0.000000 4.325260 
# 
# 
# High freq. dielectric constant tensor:
#      x y z
#    x 1.916710 0.000000 0.005980 
#    y 0.000000 1.890420 0.000000 
#    z 0.005980 0.000000 1.916900 
# 
# From -- ./inp_files/47116.got.cif
#   From: 2010.06.25/outbox.cif.g09.slc.cpg/sg13_24_cif.got.tgz:47116.got - 2010.06.28 04:50:58.
