data_PCOD8122689
_publ_section_title
;
Structure prediction by ZEFSAII (Michael W. Deem and Ramdas Pophale) SiO2 
 PCOD8122689
Probable space group: P 2/C
;
_chemical_formula_sum "Si O2"
_cell_formula_units_Z 20
_cell_length_a 8.062535
_cell_length_b 11.126401
_cell_length_c 11.997811
_cell_angle_alpha 90.000000
_cell_angle_beta 55.113835
_cell_angle_gamma 90.000000
_cell_volume 882.867963
_symmetry_space_group_name_H-M "P 2/C"
_symmetry_group_IT_number 13
_symmetry_cell_setting 'monoclinic'
loop_
_space_group_symop_operation_xyz
x,y,z
-x,y,1/2-z
-x,-y,-z
x,-y,1/2+z
loop_
_atom_site_type_symbol
_atom_site_label
_atom_site_fract_x
_atom_site_fract_y
_atom_site_fract_z
Si Si1 0.084441 0.133237 0.971115
Si Si2 0.704761 0.725060 0.699942
Si Si3 0.639675 0.724609 0.979671
Si Si4 0.767715 0.528577 0.096763
Si Si5 0.209278 0.718798 0.227599
O O1 0.900873 0.221445 0.067789
O O2 0.259951 0.161385 0.993940
O O3 0.169360 0.161274 0.815476
O O4 0.000000 0.000000 0.000000
O O5 0.500000 0.800915 0.750000
O O6 0.658447 0.597324 0.658263
O O7 0.734933 0.719821 0.820684
O O8 0.694968 0.596380 0.013406
O O9 0.395109 0.743327 0.070986
O O10 0.715537 0.612544 0.221587
O O11 0.000000 0.500000 0.000000
O O12 0.000000 0.680446 0.250000
#
# Coordination Sequence:
#
# PCOD8122689 Si02
#       5
#     4   4   4   4   4
#     4  11  25  46  68  94 129 177 230 280 336 393
#     4  12  25  42  69 102 135 177 228 273 335 403
#     4  11  25  45  69  97 141 180 217 281 335 397
#     4  11  23  40  67  99 137 177 221 269 334 400
#     4  11  24  43  67  98 136 177 221 271 337 402
#
# _framework density 22.653445000000001
#
# number of rings (size 3 to 8) (size 9 to 14) (size 15 to 20)
#    0.000    0.800    4.000    5.400    2.800    4.800 
#    0.000    3.000    0.000    0.000    0.000    0.000 
#    0.000    0.000    0.000    0.000    0.000    0.000 
#
# Total GULP energy -247940.090980 kJ/mol
# GULP energy per Si atom -12397.004549 kJ/mol
# Density = 2.260188 g / cm^3
# Si number density = 22.653445 Si / 1000 Ang^3
#
#
#
# Elastic Constant Matrix: (Units=GPa)
#
#
# Indices 1 2 3 4 5 6 
#
# 1 105.0821 12.3860 10.7857 0.0000 -15.8246 0.0000
# 2 12.3860 119.6781 28.1638 0.0000 2.6836 0.0000
# 3 10.7857 28.1638 77.5065 0.0000 -11.4499 0.0000
# 4 0.0000 0.0000 0.0000 13.0866 0.0000 -2.1158
# 5 -15.8246 2.6836 -11.4499 0.0000 54.6338 0.0000
# 6 0.0000 0.0000 0.0000 -2.1158 0.0000 16.0212
#
#
#
# Elastic Compliance Matrix: (Units=1/GPa)
#
#
# Indices 1 2 3 4 5 6 
#
# 1 0.010124 -0.000961 -0.000639 0.000000 0.002846 0.000000
# 2 -0.000961 0.009303 -0.003462 0.000000 -0.001461 0.000000
# 3 -0.000639 -0.003462 0.014702 0.000000 0.003066 0.000000
# 4 0.000000 0.000000 0.000000 0.078081 0.000000 0.010312
# 5 0.002846 -0.001461 0.003066 0.000000 0.019842 0.000000
# 6 0.000000 0.000000 0.000000 0.010312 0.000000 0.063779
#
#
# Mechanical properties :
#
#
# Convention : Reuss Voigt Hill
#
# Bulk Modulus (GPa) = 41.66107 44.99308 43.32707
# Shear Modulus (GPa) = 23.36910 33.47709 28.42309
#
# Velocity S-wave (km/s) = 3.21532 3.84838 3.54601
# Velocity P-wave (km/s) = 5.67582 6.29692 5.99442
#
# Compressibility (1/GPa) = 0.02400323
#
# Stress axis : x y z
#
# Youngs Moduli (GPa) = 98.77726 107.49445 68.01693
#
# Poissons Ratio (x) = 0.10332 0.04347
# Poissons Ratio (y) = 0.09494 0.23551
# Poissons Ratio (z) = 0.06314 0.37220
#
# Static dielectric constant tensor:
#      x y z
#    x 4.766730 0.000000 -1.940780 
#    y 0.000000 4.052990 0.000000 
#    z -1.940780 0.000000 9.563140 
# 
# 
# High freq. dielectric constant tensor:
#      x y z
#    x 1.909110 0.000000 -0.020800 
#    y 0.000000 1.859570 0.000000 
#    z -0.020800 0.000000 1.916100 
# 
# From -- ./inp_files/29281.got.cif
#   From: 2010.06.25/outbox.cif.g09.slc.cpg/sg13_15_cif.got.tgz:29281.got - 2010.06.28 04:50:58.
