data_PCOD8122326
_publ_section_title
;
Structure prediction by ZEFSAII (Michael W. Deem and Ramdas Pophale) SiO2 
 PCOD8122326
Probable space group: P 2/C
;
_chemical_formula_sum "Si O2"
_cell_formula_units_Z 18
_cell_length_a 8.209074
_cell_length_b 5.033934
_cell_length_c 21.751835
_cell_angle_alpha 90.000000
_cell_angle_beta 119.307413
_cell_angle_gamma 90.000000
_cell_volume 783.821254
_symmetry_space_group_name_H-M "P 2/C"
_symmetry_group_IT_number 13
_symmetry_cell_setting 'monoclinic'
loop_
_space_group_symop_operation_xyz
x,y,z
-x,y,1/2-z
-x,-y,-z
x,-y,1/2+z
loop_
_atom_site_type_symbol
_atom_site_label
_atom_site_fract_x
_atom_site_fract_y
_atom_site_fract_z
Si Si1 0.892446 0.730178 0.613876
Si Si2 0.500000 0.481967 0.750000
Si Si3 0.544574 0.668688 0.625922
Si Si4 0.321258 0.172674 0.550513
Si Si5 0.132219 0.222260 0.641016
O O1 0.757711 0.736329 0.648222
O O2 0.772531 0.803651 0.532432
O O3 0.974077 0.437549 0.624209
O O4 0.060431 0.939592 0.653014
O O5 0.521422 0.672875 0.695209
O O6 0.321722 0.289371 0.712051
O O7 0.489955 0.381761 0.588568
O O8 0.403443 0.879029 0.570766
O O9 0.165536 0.216178 0.574015
#
# Coordination Sequence:
#
# PCOD8122326 Si02
#       5
#     4   2   4   4   4
#     4  12  23  41  68 102 123 160 215 269 315 364
#     4  10  26  48  60  88 128 182 214 246 324 376
#     4  11  24  42  68  92 132 169 207 260 312 384
#     4  11  22  42  67  98 130 165 202 259 330 379
#     4  11  24  41  66  91 131 167 209 263 310 381
#
# _framework density 22.96442
#
# number of rings (size 3 to 8) (size 9 to 14) (size 15 to 20)
#    0.000    0.889    0.000    8.000    0.000    8.889 
#    0.000    4.444    0.000    0.000    0.000    0.000 
#    0.000    0.000    0.000    0.000    0.000    0.000 
#
# Total GULP energy -223364.476817 kJ/mol
# GULP energy per Si atom -12409.137601 kJ/mol
# Density = 2.291215 g / cm^3
# Si number density = 22.964420 Si / 1000 Ang^3
#
#
#
# Elastic Constant Matrix: (Units=GPa)
#
#
# Indices 1 2 3 4 5 6 
#
# 1 128.2948 22.3696 30.3451 0.0000 10.2402 0.0000
# 2 22.3696 84.5171 7.3543 0.0000 -3.3184 0.0000
# 3 30.3451 7.3543 69.5052 0.0000 8.1883 0.0000
# 4 0.0000 0.0000 0.0000 13.8678 0.0000 10.2546
# 5 10.2402 -3.3184 8.1883 0.0000 14.1671 0.0000
# 6 0.0000 0.0000 0.0000 10.2546 0.0000 45.9998
#
#
#
# Elastic Compliance Matrix: (Units=1/GPa)
#
#
# Indices 1 2 3 4 5 6 
#
# 1 0.009417 -0.002431 -0.003203 0.000000 -0.005525 0.000000
# 2 -0.002431 0.012761 -0.000910 0.000000 0.005272 0.000000
# 3 -0.003203 -0.000910 0.016777 0.000000 -0.007595 0.000000
# 4 0.000000 0.000000 0.000000 0.086342 0.000000 -0.019248
# 5 -0.005525 0.005272 -0.007595 0.000000 0.080204 0.000000
# 6 0.000000 0.000000 0.000000 -0.019248 0.000000 0.026030
#
#
# Mechanical properties :
#
#
# Convention : Reuss Voigt Hill
#
# Bulk Modulus (GPa) = 38.65914 44.71724 41.68819
# Shear Modulus (GPa) = 19.74393 29.62347 24.68370
#
# Velocity S-wave (km/s) = 2.93535 3.59552 3.28207
# Velocity P-wave (km/s) = 5.32534 6.06231 5.70574
#
# Compressibility (1/GPa) = 0.02586711
#
# Stress axis : x y z
#
# Youngs Moduli (GPa) = 106.19120 78.36103 59.60562
#
# Poissons Ratio (x) = 0.19047 0.19093
# Poissons Ratio (y) = 0.25811 0.05425
# Poissons Ratio (z) = 0.34016 0.07133
#
# Static dielectric constant tensor:
#      x y z
#    x 4.369910 0.000000 -0.066340 
#    y 0.000000 4.226760 0.000000 
#    z -0.066340 0.000000 4.083330 
# 
# 
# High freq. dielectric constant tensor:
#      x y z
#    x 1.921010 0.000000 0.002430 
#    y 0.000000 1.919980 0.000000 
#    z 0.002430 0.000000 1.899220 
# 
# From -- ./inp_files/62076.got.cif
#   From: 2010.06.25/outbox.cif.g09.slc.cpg/sg13_32_cif.got.tgz:62076.got - 2010.06.28 04:50:58.
