data_PCOD8122590
_publ_section_title
;
Structure prediction by ZEFSAII (Michael W. Deem and Ramdas Pophale) SiO2 
 PCOD8122590
Probable space group: P 2/C
;
_chemical_formula_sum "Si O2"
_cell_formula_units_Z 32
_cell_length_a 15.098526
_cell_length_b 13.006377
_cell_length_c 8.753954
_cell_angle_alpha 90.000000
_cell_angle_beta 62.609176
_cell_angle_gamma 90.000000
_cell_volume 1526.349055
_symmetry_space_group_name_H-M "P 2/C"
_symmetry_group_IT_number 13
_symmetry_cell_setting 'monoclinic'
loop_
_space_group_symop_operation_xyz
x,y,z
-x,y,1/2-z
-x,-y,-z
x,-y,1/2+z
loop_
_atom_site_type_symbol
_atom_site_label
_atom_site_fract_x
_atom_site_fract_y
_atom_site_fract_z
Si Si1 0.253461 0.568685 0.570788
Si Si2 0.096605 0.255416 0.751916
Si Si3 0.608371 0.217453 0.151303
Si Si4 0.053950 0.408382 0.049529
Si Si5 0.602661 0.943949 0.882179
Si Si6 0.612233 0.761258 0.101898
Si Si7 0.762106 0.377822 0.077192
Si Si8 0.284669 0.858112 0.204815
O O1 0.166069 0.565524 0.512211
O O2 0.339079 0.651656 0.472829
O O3 0.296704 0.455574 0.492872
O O4 0.209293 0.575208 0.777985
O O5 0.141714 0.335012 0.590930
O O6 0.171975 0.164886 0.741500
O O7 0.000000 0.203356 0.750000
O O8 0.060181 0.311455 0.933498
O O9 0.500000 0.269187 0.250000
O O10 0.606789 0.096805 0.204811
O O11 0.687265 0.286067 0.180640
O O12 0.639986 0.213433 0.950349
O O13 0.000000 0.377707 0.250000
O O14 0.000000 0.500000 0.000000
O O15 0.695594 0.020214 0.834405
O O16 0.606890 0.834403 0.960964
O O17 0.500000 0.000000 0.000000
O O18 0.500000 0.744114 0.250000
O O19 0.689308 0.824240 0.145861
#
# Coordination Sequence:
#
# PCOD8122590 Si02
#       8
#     4   4   4   4   4   4   4   4
#     4  12  24  43  62  98 137 174 222 273 333 404
#     4  11  23  44  66  98 134 174 224 277 332 403
#     4  11  22  40  61  97 129 171 225 271 321 399
#     4  12  23  39  69  99 128 167 223 279 331 384
#     4  12  22  41  70  98 131 171 227 279 333 388
#     4  12  24  42  66 102 138 174 223 279 331 404
#     4  11  25  41  65  91 136 179 216 268 335 400
#     4  11  24  38  67  97 133 172 216 277 340 388
#
# _framework density 20.965062
#
# number of rings (size 3 to 8) (size 9 to 14) (size 15 to 20)
#    0.000    0.500    5.000    4.875    1.750    0.500 
#    0.000    1.250    0.000    7.500    0.000    0.000 
#    0.000    0.000    0.000    0.000    0.000    0.000 
#
# Total GULP energy -396544.289448 kJ/mol
# GULP energy per Si atom -12392.009045 kJ/mol
# Density = 2.091734 g / cm^3
# Si number density = 20.965062 Si / 1000 Ang^3
#
#
#
# Elastic Constant Matrix: (Units=GPa)
#
#
# Indices 1 2 3 4 5 6 
#
# 1 115.2941 46.3679 45.0033 0.0000 -5.2072 0.0000
# 2 46.3679 103.5824 31.4008 0.0000 -12.8054 0.0000
# 3 45.0033 31.4008 95.5538 0.0000 -6.5286 0.0000
# 4 0.0000 0.0000 0.0000 31.9790 0.0000 -1.2907
# 5 -5.2072 -12.8054 -6.5286 0.0000 28.9264 0.0000
# 6 0.0000 0.0000 0.0000 -1.2907 0.0000 28.4736
#
#
#
# Elastic Compliance Matrix: (Units=1/GPa)
#
#
# Indices 1 2 3 4 5 6 
#
# 1 0.012001 -0.004138 -0.004337 0.000000 -0.000650 0.000000
# 2 -0.004138 0.012628 -0.001899 0.000000 0.004417 0.000000
# 3 -0.004337 -0.001899 0.013225 0.000000 0.001363 0.000000
# 4 0.000000 0.000000 0.000000 0.031328 0.000000 0.001420
# 5 -0.000650 0.004417 0.001363 0.000000 0.036716 0.000000
# 6 0.000000 0.000000 0.000000 0.001420 0.000000 0.035185
#
#
# Mechanical properties :
#
#
# Convention : Reuss Voigt Hill
#
# Bulk Modulus (GPa) = 58.45740 62.21938 60.33839
# Shear Modulus (GPa) = 29.84480 30.65302 30.24891
#
# Velocity S-wave (km/s) = 3.77709 3.82789 3.80257
# Velocity P-wave (km/s) = 6.85315 7.01991 6.93703
#
# Compressibility (1/GPa) = 0.01710647
#
# Stress axis : x y z
#
# Youngs Moduli (GPa) = 83.32609 79.18765 75.61369
#
# Poissons Ratio (x) = 0.32767 0.32792
# Poissons Ratio (y) = 0.34479 0.14361
# Poissons Ratio (z) = 0.36137 0.15040
#
# Static dielectric constant tensor:
#      x y z
#    x 3.893860 0.000000 0.072640 
#    y 0.000000 3.888630 0.000000 
#    z 0.072640 0.000000 4.001170 
# 
# 
# High freq. dielectric constant tensor:
#      x y z
#    x 1.820190 0.000000 0.014580 
#    y 0.000000 1.805980 0.000000 
#    z 0.014580 0.000000 1.840060 
# 
# From -- ./inp_files/19630.got.cif
#   From: 2010.06.25/outbox.cif.g09.slc.cpg/sg13_10_cif.got.tgz:19630.got - 2010.06.28 04:50:58.
