data_PCOD8122903
_publ_section_title
;
Structure prediction by ZEFSAII (Michael W. Deem and Ramdas Pophale) SiO2 
 PCOD8122903
Probable space group: P 2/C
;
_chemical_formula_sum "Si O2"
_cell_formula_units_Z 28
_cell_length_a 9.438265
_cell_length_b 15.274850
_cell_length_c 10.828524
_cell_angle_alpha 90.000000
_cell_angle_beta 59.879681
_cell_angle_gamma 90.000000
_cell_volume 1350.333971
_symmetry_space_group_name_H-M "P 2/C"
_symmetry_group_IT_number 13
_symmetry_cell_setting 'monoclinic'
loop_
_space_group_symop_operation_xyz
x,y,z
-x,y,1/2-z
-x,-y,-z
x,-y,1/2+z
loop_
_atom_site_type_symbol
_atom_site_label
_atom_site_fract_x
_atom_site_fract_y
_atom_site_fract_z
Si Si1 0.271032 0.034132 0.221200
Si Si2 0.224399 0.165649 0.021453
Si Si3 0.680335 0.332842 0.166979
Si Si4 0.810359 0.640761 0.864893
Si Si5 0.500000 0.087582 0.750000
Si Si6 0.880355 0.836381 0.540858
Si Si7 0.603086 0.503712 0.080239
Si Si8 0.000000 0.911941 0.250000
O O1 0.275605 0.093327 0.098545
O O2 0.252417 0.094905 0.350572
O O3 0.433280 0.975230 0.169023
O O4 0.116701 0.969939 0.283534
O O5 0.232766 0.260840 0.076421
O O6 0.043487 0.149339 0.049526
O O7 0.356204 0.152794 0.855807
O O8 0.500000 0.288397 0.250000
O O9 0.708882 0.379766 0.285739
O O10 0.820939 0.262733 0.081201
O O11 0.687023 0.408630 0.060803
O O12 0.000000 0.627492 0.750000
O O13 0.748450 0.575146 0.999134
O O14 0.899256 0.850552 0.386996
O O15 0.500000 0.527027 0.250000
O O16 0.500000 0.500000 0.000000
#
# Coordination Sequence:
#
# PCOD8122903 Si02
#       8
#     4   4   4   4   2   4   4   2
#     4  12  23  44  71  94 136 193 236 293 356 417
#     4  12  24  46  69  98 144 185 232 298 363 411
#     4  11  24  47  75 103 136 182 239 279 363 439
#     4  12  24  46  77 105 140 191 239 289 363 443
#     4  12  28  40  64 114 138 182 252 292 348 424
#     4  12  24  46  68 100 139 189 230 301 357 417
#     4  11  24  50  77 108 147 184 229 303 367 430
#     4  12  24  42  68  94 142 184 242 288 352 412
#
# _framework density 20.735610999999999
#
# number of rings (size 3 to 8) (size 9 to 14) (size 15 to 20)
#    0.000    0.286    8.571    1.714    2.000    1.714 
#    3.857    0.000    0.000    0.000    0.000    0.000 
#    0.000    0.000    0.000    0.000    0.000    0.000 
#
# Total GULP energy -347206.549398 kJ/mol
# GULP energy per Si atom -12400.233907 kJ/mol
# Density = 2.068842 g / cm^3
# Si number density = 20.735611 Si / 1000 Ang^3
#
#
#
# Elastic Constant Matrix: (Units=GPa)
#
#
# Indices 1 2 3 4 5 6 
#
# 1 99.3052 38.4728 32.2115 0.0000 -1.9762 0.0000
# 2 38.4728 107.9333 57.6886 0.0000 -6.9881 0.0000
# 3 32.2115 57.6886 123.5090 0.0000 0.1237 0.0000
# 4 0.0000 0.0000 0.0000 25.6363 0.0000 2.1156
# 5 -1.9762 -6.9881 0.1237 0.0000 37.2774 0.0000
# 6 0.0000 0.0000 0.0000 2.1156 0.0000 35.2204
#
#
#
# Elastic Compliance Matrix: (Units=1/GPa)
#
#
# Indices 1 2 3 4 5 6 
#
# 1 0.011887 -0.003439 -0.001494 0.000000 -0.000010 0.000000
# 2 -0.003439 0.013549 -0.005434 0.000000 0.002376 0.000000
# 3 -0.001494 -0.005434 0.011025 0.000000 -0.001134 0.000000
# 4 0.000000 0.000000 0.000000 0.039202 0.000000 -0.002355
# 5 -0.000010 0.002376 -0.001134 0.000000 0.027274 0.000000
# 6 0.000000 0.000000 0.000000 -0.002355 0.000000 0.028534
#
#
# Mechanical properties :
#
#
# Convention : Reuss Voigt Hill
#
# Bulk Modulus (GPa) = 63.58331 65.27705 64.43018
# Shear Modulus (GPa) = 31.75664 33.11846 32.43755
#
# Velocity S-wave (km/s) = 3.91769 4.00081 3.95946
# Velocity P-wave (km/s) = 7.15505 7.27261 7.21407
#
# Compressibility (1/GPa) = 0.01572740
#
# Stress axis : x y z
#
# Youngs Moduli (GPa) = 84.12745 73.80588 90.70024
#
# Poissons Ratio (x) = 0.25384 0.13547
# Poissons Ratio (y) = 0.28934 0.49286
# Poissons Ratio (z) = 0.12566 0.40105
#
# Static dielectric constant tensor:
#      x y z
#    x 3.883130 0.000000 0.014480 
#    y 0.000000 3.790510 0.000000 
#    z 0.014480 0.000000 3.848270 
# 
# 
# High freq. dielectric constant tensor:
#      x y z
#    x 1.820360 0.000000 0.002690 
#    y 0.000000 1.811690 0.000000 
#    z 0.002690 0.000000 1.811990 
# 
# From -- ./inp_files/30337.got.cif
#   From: 2010.06.25/outbox.cif.g09.slc.cpg/sg13_16_cif.got.tgz:30337.got - 2010.06.28 04:50:58.
