data_PCOD8122677
_publ_section_title
;
Structure prediction by ZEFSAII (Michael W. Deem and Ramdas Pophale) SiO2 
 PCOD8122677
Probable space group: P 2/C
;
_chemical_formula_sum "Si O2"
_cell_formula_units_Z 16
_cell_length_a 4.952310
_cell_length_b 8.502489
_cell_length_c 18.076831
_cell_angle_alpha 90.000000
_cell_angle_beta 108.011964
_cell_angle_gamma 90.000000
_cell_volume 723.857450
_symmetry_space_group_name_H-M "P 2/C"
_symmetry_group_IT_number 13
_symmetry_cell_setting 'monoclinic'
loop_
_space_group_symop_operation_xyz
x,y,z
-x,y,1/2-z
-x,-y,-z
x,-y,1/2+z
loop_
_atom_site_type_symbol
_atom_site_label
_atom_site_fract_x
_atom_site_fract_y
_atom_site_fract_z
Si Si1 0.526312 0.769182 0.566136
Si Si2 0.191663 0.717167 0.195540
Si Si3 0.862898 0.938129 0.065457
Si Si4 0.945971 0.571227 0.915579
O O1 0.372141 0.803987 0.474035
O O2 0.274636 0.719361 0.601466
O O3 0.743950 0.625201 0.583956
O O4 0.702572 0.927436 0.600027
O O5 0.500000 0.758610 0.250000
O O6 0.186025 0.555137 0.150343
O O7 0.000000 0.696910 0.250000
O O8 0.101869 0.862995 0.136673
O O9 0.000000 0.000000 0.000000
O O10 0.000000 0.500000 0.000000
#
# Coordination Sequence:
#
# PCOD8122677 Si02
#       4
#     4   4   4   4
#     4  11  23  39  75 102 133 173 254 283 327 406
#     4  12  29  46  71 106 149 182 229 303 373 414
#     4  11  24  45  75 109 136 188 244 288 346 437
#     4  12  23  43  72 103 135 189 237 284 342 429
#
# _framework density 22.1038
#
# number of rings (size 3 to 8) (size 9 to 14) (size 15 to 20)
#    0.000    0.500    5.000    2.250   10.500    0.000 
#    0.000    5.000    0.000    0.000    0.000    0.000 
#    0.000    0.000    0.000    0.000    0.000    0.000 
#
# Total GULP energy -198336.032138 kJ/mol
# GULP energy per Si atom -12396.002009 kJ/mol
# Density = 2.205349 g / cm^3
# Si number density = 22.103800 Si / 1000 Ang^3
#
#
#
# Elastic Constant Matrix: (Units=GPa)
#
#
# Indices 1 2 3 4 5 6 
#
# 1 133.8394 46.4621 53.4944 0.0000 19.0213 0.0000
# 2 46.4621 112.0931 70.7789 0.0000 13.8605 0.0000
# 3 53.4944 70.7789 131.2899 0.0000 21.6487 0.0000
# 4 0.0000 0.0000 0.0000 51.5840 0.0000 5.2760
# 5 19.0213 13.8605 21.6487 0.0000 47.6946 0.0000
# 6 0.0000 0.0000 0.0000 5.2760 0.0000 51.2817
#
#
#
# Elastic Compliance Matrix: (Units=1/GPa)
#
#
# Indices 1 2 3 4 5 6 
#
# 1 0.009459 -0.002193 -0.002329 0.000000 -0.002078 0.000000
# 2 -0.002193 0.014054 -0.006651 0.000000 -0.000190 0.000000
# 3 -0.002329 -0.006651 0.012625 0.000000 -0.002868 0.000000
# 4 0.000000 0.000000 0.000000 0.019592 0.000000 -0.002016
# 5 -0.002078 -0.000190 -0.002868 0.000000 0.023153 0.000000
# 6 0.000000 0.000000 0.000000 -0.002016 0.000000 0.019707
#
#
# Mechanical properties :
#
#
# Convention : Reuss Voigt Hill
#
# Bulk Modulus (GPa) = 72.51662 79.85479 76.18571
# Shear Modulus (GPa) = 39.82990 43.87788 41.85389
#
# Velocity S-wave (km/s) = 4.24954 4.46026 4.35618
# Velocity P-wave (km/s) = 7.54696 7.92028 7.73587
#
# Compressibility (1/GPa) = 0.01378994
#
# Stress axis : x y z
#
# Youngs Moduli (GPa) = 105.71631 71.15607 79.21081
#
# Poissons Ratio (x) = 0.15606 0.18450
# Poissons Ratio (y) = 0.23185 0.52686
# Poissons Ratio (z) = 0.24624 0.47328
#
# Static dielectric constant tensor:
#      x y z
#    x 4.330940 0.000000 0.270660 
#    y 0.000000 3.518840 0.000000 
#    z 0.270660 0.000000 3.677820 
# 
# 
# High freq. dielectric constant tensor:
#      x y z
#    x 1.893810 0.000000 0.023050 
#    y 0.000000 1.883290 0.000000 
#    z 0.023050 0.000000 1.835340 
# 
# From -- ./inp_files/55137.got.cif
#   From: 2010.06.25/outbox.cif.g09.slc.cpg/sg13_28_cif.got.tgz:55137.got - 2010.06.28 04:50:58.
