data_PCOD8122743
_publ_section_title
;
Structure prediction by ZEFSAII (Michael W. Deem and Ramdas Pophale) SiO2 
 PCOD8122743
Probable space group: P 2/C
;
_chemical_formula_sum "Si O2"
_cell_formula_units_Z 16
_cell_length_a 8.119005
_cell_length_b 9.307055
_cell_length_c 16.273310
_cell_angle_alpha 90.000000
_cell_angle_beta 146.274087
_cell_angle_gamma 90.000000
_cell_volume 682.741947
_symmetry_space_group_name_H-M "P 2/C"
_symmetry_group_IT_number 13
_symmetry_cell_setting 'monoclinic'
loop_
_space_group_symop_operation_xyz
x,y,z
-x,y,1/2-z
-x,-y,-z
x,-y,1/2+z
loop_
_atom_site_type_symbol
_atom_site_label
_atom_site_fract_x
_atom_site_fract_y
_atom_site_fract_z
Si Si1 0.126544 0.955282 0.217641
Si Si2 0.944096 0.670919 0.380434
Si Si3 0.574286 0.549052 0.440208
Si Si4 0.769778 0.165930 0.972400
O O1 0.959911 0.800782 0.140085
O O2 0.479297 0.934785 0.358703
O O3 0.000000 0.021661 0.250000
O O4 0.047390 0.066258 0.111276
O O5 0.706519 0.568983 0.236023
O O6 0.802329 0.757216 0.397794
O O7 0.220271 0.570931 0.519235
O O8 0.500000 0.500000 0.500000
O O9 0.742123 0.700315 0.523180
#
# Coordination Sequence:
#
# PCOD8122743 Si02
#       4
#     4   4   4   4
#     4  11  23  43  67  98 135 177 228 283 338 407
#     4  11  24  44  67  98 136 175 222 280 340 407
#     4  11  23  43  68  99 134 174 222 279 338 406
#     4  11  25  44  66  99 136 178 226 282 342 406
#
# _framework density 23.434916000000001
#
# number of rings (size 3 to 8) (size 9 to 14) (size 15 to 20)
#    0.000    1.000    0.000    9.000    0.000    4.000 
#    0.000    5.000    0.000    0.000    0.000    0.000 
#    0.000    0.000    0.000    0.000    0.000    0.000 
#
# Total GULP energy -198311.234963 kJ/mol
# GULP energy per Si atom -12394.452185 kJ/mol
# Density = 2.338158 g / cm^3
# Si number density = 23.434916 Si / 1000 Ang^3
#
#
#
# Elastic Constant Matrix: (Units=GPa)
#
#
# Indices 1 2 3 4 5 6 
#
# 1 139.8891 25.9093 56.1279 0.0000 -9.8914 0.0000
# 2 25.9093 112.9891 67.6826 0.0000 3.1144 0.0000
# 3 56.1279 67.6826 86.0426 0.0000 -13.7350 0.0000
# 4 0.0000 0.0000 0.0000 64.5505 0.0000 -4.1679
# 5 -9.8914 3.1144 -13.7350 0.0000 30.2298 0.0000
# 6 0.0000 0.0000 0.0000 -4.1679 0.0000 37.9216
#
#
#
# Elastic Compliance Matrix: (Units=1/GPa)
#
#
# Indices 1 2 3 4 5 6 
#
# 1 0.010282 0.003460 -0.009648 0.000000 -0.001376 0.000000
# 2 0.003460 0.020089 -0.019633 0.000000 -0.009858 0.000000
# 3 -0.009648 -0.019633 0.035773 0.000000 0.015119 0.000000
# 4 0.000000 0.000000 0.000000 0.015602 0.000000 0.001715
# 5 -0.001376 -0.009858 0.015119 0.000000 0.040515 0.000000
# 6 0.000000 0.000000 0.000000 0.001715 0.000000 0.026559
#
#
# Mechanical properties :
#
#
# Convention : Reuss Voigt Hill
#
# Bulk Modulus (GPa) = 68.96040 70.92893 69.94466
# Shear Modulus (GPa) = 24.35504 39.15381 31.75443
#
# Velocity S-wave (km/s) = 3.22726 4.09191 3.68503
# Velocity P-wave (km/s) = 6.58613 7.25652 6.92944
#
# Compressibility (1/GPa) = 0.01450108
#
# Stress axis : x y z
#
# Youngs Moduli (GPa) = 97.26204 49.77744 27.95412
#
# Poissons Ratio (x) = -0.17221 0.26970
# Poissons Ratio (y) = -0.33648 0.54883
# Poissons Ratio (z) = 0.93837 0.97728
#
# Static dielectric constant tensor:
#      x y z
#    x 4.293470 0.000000 -0.025750 
#    y 0.000000 4.918590 0.000000 
#    z -0.025750 0.000000 4.031530 
# 
# 
# High freq. dielectric constant tensor:
#      x y z
#    x 1.935980 0.000000 -0.004780 
#    y 0.000000 1.942500 0.000000 
#    z -0.004780 0.000000 1.912850 
# 
# From -- ./inp_files/63994.got.cif
#   From: 2010.06.25/outbox.cif.g09.slc.cpg/sg13_32_cif.got.tgz:63994.got - 2010.06.28 04:50:58.
