data_PCOD8122720
_publ_section_title
;
Structure prediction by ZEFSAII (Michael W. Deem and Ramdas Pophale) SiO2 
 PCOD8122720
Probable space group: P 2/C
;
_chemical_formula_sum "Si O2"
_cell_formula_units_Z 24
_cell_length_a 13.619373
_cell_length_b 14.317452
_cell_length_c 10.880629
_cell_angle_alpha 90.000000
_cell_angle_beta 149.167114
_cell_angle_gamma 90.000000
_cell_volume 1087.429362
_symmetry_space_group_name_H-M "P 2/C"
_symmetry_group_IT_number 13
_symmetry_cell_setting 'monoclinic'
loop_
_space_group_symop_operation_xyz
x,y,z
-x,y,1/2-z
-x,-y,-z
x,-y,1/2+z
loop_
_atom_site_type_symbol
_atom_site_label
_atom_site_fract_x
_atom_site_fract_y
_atom_site_fract_z
Si Si1 0.808198 0.517068 0.367893
Si Si2 0.000000 0.350496 0.250000
Si Si3 0.734818 0.877520 0.879296
Si Si4 0.489055 0.380549 0.375636
Si Si5 0.956687 0.810217 0.889568
Si Si6 0.344239 0.182200 0.942090
Si Si7 0.000000 0.036575 0.250000
O O1 0.838771 0.579972 0.522925
O O2 0.717137 0.415550 0.297240
O O3 0.000000 0.500000 0.500000
O O4 0.666075 0.574623 0.132996
O O5 0.082895 0.285306 0.228707
O O6 0.831363 0.813508 0.877744
O O7 0.508664 0.898332 0.605643
O O8 0.758491 0.823717 0.035615
O O9 0.842798 0.975853 0.008772
O O10 0.500000 0.416470 0.250000
O O11 0.512234 0.270181 0.412623
O O12 0.897936 0.898265 0.741888
O O13 0.184407 0.818041 0.164982
#
# Coordination Sequence:
#
# PCOD8122720 Si02
#       7
#     4   2   4   4   4   4   2
#     4  11  25  43  67  97 137 184 228 287 341 416
#     4  11  24  44  69 102 134 186 235 270 360 409
#     4  11  23  42  69  98 134 183 230 288 348 414
#     4  11  23  43  65  99 134 172 234 286 335 407
#     4  11  24  46  67  98 144 178 229 294 344 421
#     4  11  23  42  68 100 130 181 232 280 352 416
#     4  11  24  44  69 102 136 182 235 288 350 423
#
# _framework density 22.070398999999998
#
# number of rings (size 3 to 8) (size 9 to 14) (size 15 to 20)
#    0.000    1.000    5.000    1.500    2.333    0.667 
#    6.000    4.167    0.000    0.000    0.000    0.000 
#    0.000    0.000    0.000    0.000    0.000    0.000 
#
# Total GULP energy -297482.842513 kJ/mol
# GULP energy per Si atom -12395.118438 kJ/mol
# Density = 2.202017 g / cm^3
# Si number density = 22.070399 Si / 1000 Ang^3
#
#
#
# Elastic Constant Matrix: (Units=GPa)
#
#
# Indices 1 2 3 4 5 6 
#
# 1 104.6803 38.1662 50.9060 0.0000 6.7957 0.0000
# 2 38.1662 95.6809 24.6728 0.0000 1.3780 0.0000
# 3 50.9060 24.6728 114.7041 0.0000 -4.7677 0.0000
# 4 0.0000 0.0000 0.0000 23.8155 0.0000 -28.1565
# 5 6.7957 1.3780 -4.7677 0.0000 37.0779 0.0000
# 6 0.0000 0.0000 0.0000 -28.1565 0.0000 29.8434
#
#
#
# Elastic Compliance Matrix: (Units=1/GPa)
#
#
# Indices 1 2 3 4 5 6 
#
# 1 0.013875 -0.004097 -0.005405 0.000000 -0.003086 0.000000
# 2 -0.004097 0.012294 -0.000819 0.000000 0.000189 0.000000
# 3 -0.005405 -0.000819 0.011396 0.000000 0.002486 0.000000
# 4 0.000000 0.000000 0.000000 -0.363709 0.000000 -0.343151
# 5 -0.003086 0.000189 0.002486 0.000000 0.027849 0.000000
# 6 0.000000 0.000000 0.000000 -0.343151 0.000000 -0.290246
#
#
# Mechanical properties :
#
#
# Convention : Reuss Voigt Hill
#
# Bulk Modulus (GPa) = 59.08313 60.28393 59.68353
# Shear Modulus (GPa) = -8.89269 31.56872 11.33802
#
# Velocity S-wave (km/s) = -2.00947 3.78612 2.26900
# Velocity P-wave (km/s) = 4.63081 6.81811 5.82800
#
# Compressibility (1/GPa) = 0.01692531
#
# Stress axis : x y z
#
# Youngs Moduli (GPa) = 72.07083 81.34170 87.74829
#
# Poissons Ratio (x) = 0.33322 0.47428
# Poissons Ratio (y) = 0.29524 0.07182
# Poissons Ratio (z) = 0.38954 0.06658
#
# Static dielectric constant tensor:
#      x y z
#    x 3.930140 0.000000 -0.130830 
#    y 0.000000 3.784490 0.000000 
#    z -0.130830 0.000000 4.228600 
# 
# 
# High freq. dielectric constant tensor:
#      x y z
#    x 1.865090 0.000000 -0.012080 
#    y 0.000000 1.866890 0.000000 
#    z -0.012080 0.000000 1.878470 
# 
# From -- ./inp_files/37425.got.cif
#   From: 2010.06.25/outbox.cif.g09.slc.cpg/sg13_19_cif.got.tgz:37425.got - 2010.06.28 04:50:58.
