data_PCOD8122049
_publ_section_title
;
Structure prediction by ZEFSAII (Michael W. Deem and Ramdas Pophale) SiO2 
 PCOD8122049
Probable space group: P 2/C
;
_chemical_formula_sum "Si O2"
_cell_formula_units_Z 24
_cell_length_a 22.166906
_cell_length_b 4.542819
_cell_length_c 8.871449
_cell_angle_alpha 90.000000
_cell_angle_beta 108.303534
_cell_angle_gamma 90.000000
_cell_volume 848.158649
_symmetry_space_group_name_H-M "P 2/C"
_symmetry_group_IT_number 13
_symmetry_cell_setting 'monoclinic'
loop_
_space_group_symop_operation_xyz
x,y,z
-x,y,1/2-z
-x,-y,-z
x,-y,1/2+z
loop_
_atom_site_type_symbol
_atom_site_label
_atom_site_fract_x
_atom_site_fract_y
_atom_site_fract_z
Si Si1 0.000000 0.692895 0.750000
Si Si2 0.746172 0.347075 0.398715
Si Si3 0.581233 0.743284 0.544300
Si Si4 0.500000 0.076544 0.250000
Si Si5 0.170580 0.160031 0.617017
Si Si6 0.330716 0.253202 0.873096
Si Si7 0.088119 0.825044 0.325931
O O1 0.043544 0.937383 0.695855
O O2 0.050659 0.463297 0.863875
O O3 0.810689 0.543557 0.458994
O O4 0.724850 0.246490 0.546953
O O5 0.692505 0.556719 0.286988
O O6 0.765660 0.050439 0.319729
O O7 0.552977 0.869562 0.367591
O O8 0.604564 0.416362 0.519395
O O9 0.530866 0.724753 0.641830
O O10 0.644669 0.926528 0.647917
O O11 0.114008 0.994262 0.490411
O O12 0.146326 0.260282 0.762427
#
# Coordination Sequence:
#
# PCOD8122049 Si02
#       7
#     2   4   4   2   4   4   4
#     4  10  24  42  64  92 124 162 204 252 304 362
#     4  12  24  40  64  90 124 160 204 252 304 362
#     4  11  24  41  64  90 124 161 204 251 304 362
#     4  10  24  42  64  92 124 162 204 252 304 362
#     4  12  24  42  64  92 124 162 204 252 304 362
#     4  12  24  42  64  92 124 162 204 252 304 362
#     4  11  24  41  64  90 124 161 204 251 304 362
#
# _framework density 28.296589000000001
#
# number of rings (size 3 to 8) (size 9 to 14) (size 15 to 20)
#    0.000    0.667    0.000    8.000    0.000    8.000 
#    0.000    0.000    0.000    0.000    0.000    0.000 
#    0.000    0.000    0.000    0.000    0.000    0.000 
#
# Total GULP energy -297418.514629 kJ/mol
# GULP energy per Si atom -12392.438110 kJ/mol
# Density = 2.823219 g / cm^3
# Si number density = 28.296589 Si / 1000 Ang^3
#
#
#
# Elastic Constant Matrix: (Units=GPa)
#
#
# Indices 1 2 3 4 5 6 
#
# 1 104.9199 18.3081 0.6061 0.0000 -3.1158 0.0000
# 2 18.3081 125.1803 -11.9406 0.0000 -10.0984 0.0000
# 3 0.6061 -11.9406 40.1306 0.0000 -16.4430 0.0000
# 4 0.0000 0.0000 0.0000 17.2567 0.0000 5.6440
# 5 -3.1158 -10.0984 -16.4430 0.0000 22.8508 0.0000
# 6 0.0000 0.0000 0.0000 5.6440 0.0000 19.4981
#
#
#
# Elastic Compliance Matrix: (Units=1/GPa)
#
#
# Indices 1 2 3 4 5 6 
#
# 1 0.009797 -0.001439 -0.000411 0.000000 0.000404 0.000000
# 2 -0.001439 0.009498 0.006364 0.000000 0.008580 0.000000
# 3 -0.000411 0.006364 0.039633 0.000000 0.031276 0.000000
# 4 0.000000 0.000000 0.000000 0.064008 0.000000 -0.018528
# 5 0.000404 0.008580 0.031276 0.000000 0.070115 0.000000
# 6 0.000000 0.000000 0.000000 -0.018528 0.000000 0.056650
#
#
# Mechanical properties :
#
#
# Convention : Reuss Voigt Hill
#
# Bulk Modulus (GPa) = 14.71557 31.57531 23.14544
# Shear Modulus (GPa) = 18.98791 29.47159 24.22975
#
# Velocity S-wave (km/s) = 2.59324 3.23077 2.92940
# Velocity P-wave (km/s) = 3.76541 5.01000 4.43161
#
# Compressibility (1/GPa) = 0.06795521
#
# Stress axis : x y z
#
# Youngs Moduli (GPa) = 102.07607 105.28337 25.23142
#
# Poissons Ratio (x) = 0.15154 0.01036
# Poissons Ratio (y) = 0.14692 -0.16056
# Poissons Ratio (z) = 0.04191 -0.66998
#
# Static dielectric constant tensor:
#      x y z
#    x 5.503260 0.000000 0.508740 
#    y 0.000000 5.616810 0.000000 
#    z 0.508740 0.000000 4.499510 
# 
# 
# High freq. dielectric constant tensor:
#      x y z
#    x 2.175060 0.000000 0.030760 
#    y 0.000000 2.169830 0.000000 
#    z 0.030760 0.000000 2.111490 
# 
# From -- ./inp_files/23771.got.cif
#   From: 2010.06.25/outbox.cif.g09.slc.cpg/sg13_12_cif.got.tgz:23771.got - 2010.06.28 04:50:58.
