data_PCOD8122629
_publ_section_title
;
Structure prediction by ZEFSAII (Michael W. Deem and Ramdas Pophale) SiO2 
 PCOD8122629
Probable space group: P 2/C
;
_chemical_formula_sum "Si O2"
_cell_formula_units_Z 22
_cell_length_a 15.854890
_cell_length_b 9.006619
_cell_length_c 8.641169
_cell_angle_alpha 90.000000
_cell_angle_beta 51.614612
_cell_angle_gamma 90.000000
_cell_volume 967.233894
_symmetry_space_group_name_H-M "P 2/C"
_symmetry_group_IT_number 13
_symmetry_cell_setting 'monoclinic'
loop_
_space_group_symop_operation_xyz
x,y,z
-x,y,1/2-z
-x,-y,-z
x,-y,1/2+z
loop_
_atom_site_type_symbol
_atom_site_label
_atom_site_fract_x
_atom_site_fract_y
_atom_site_fract_z
Si Si1 0.383764 0.294061 0.903119
Si Si2 0.194604 0.920667 0.716721
Si Si3 0.793756 0.792412 0.460881
Si Si4 0.899545 0.396060 0.603938
Si Si5 0.684328 0.539173 0.742160
Si Si6 0.000000 0.187665 0.250000
O O1 0.500000 0.212901 0.750000
O O2 0.361983 0.389965 0.775795
O O3 0.286136 0.182307 0.039269
O O4 0.395727 0.406660 0.033048
O O5 0.077111 0.909890 0.771542
O O6 0.237645 0.088328 0.637391
O O7 0.175103 0.884134 0.919584
O O8 0.888988 0.692623 0.278577
O O9 0.697128 0.676855 0.606552
O O10 0.799308 0.504671 0.689484
O O11 0.000000 0.500000 0.500000
O O12 0.916088 0.284647 0.443322
#
# Coordination Sequence:
#
# PCOD8122629 Si02
#       6
#     4   4   4   4   4   2
#     4  11  23  44  69  99 136 178 234 285 338 403
#     4  11  26  44  67 100 139 183 225 275 346 406
#     4  11  25  45  67  99 142 178 228 275 338 413
#     4  12  23  40  67  99 139 174 226 278 335 402
#     4  11  22  43  67 101 133 179 229 281 341 398
#     4  12  24  40  64  94 136 180 216 276 332 410
#
# _framework density 22.745273000000001
#
# number of rings (size 3 to 8) (size 9 to 14) (size 15 to 20)
#    0.000    0.727    3.636    4.909    0.000    6.545 
#    0.000    4.545    0.000    0.000    0.000    0.000 
#    0.000    0.000    0.000    0.000    0.000    0.000 
#
# Total GULP energy -272716.956349 kJ/mol
# GULP energy per Si atom -12396.225289 kJ/mol
# Density = 2.269350 g / cm^3
# Si number density = 22.745273 Si / 1000 Ang^3
#
#
#
# Elastic Constant Matrix: (Units=GPa)
#
#
# Indices 1 2 3 4 5 6 
#
# 1 63.6246 32.7639 42.5201 0.0000 -7.7363 0.0000
# 2 32.7639 94.3898 25.8138 0.0000 1.0224 0.0000
# 3 42.5201 25.8138 118.0278 0.0000 -2.4339 0.0000
# 4 0.0000 0.0000 0.0000 46.8318 0.0000 11.8284
# 5 -7.7363 1.0224 -2.4339 0.0000 30.9138 0.0000
# 6 0.0000 0.0000 0.0000 11.8284 0.0000 16.8563
#
#
#
# Elastic Compliance Matrix: (Units=1/GPa)
#
#
# Indices 1 2 3 4 5 6 
#
# 1 0.024760 -0.006649 -0.007345 0.000000 0.005838 0.000000
# 2 -0.006649 0.013064 -0.000506 0.000000 -0.002136 0.000000
# 3 -0.007345 -0.000506 0.011210 0.000000 -0.000939 0.000000
# 4 0.000000 0.000000 0.000000 0.025953 0.000000 -0.018212
# 5 0.005838 -0.002136 -0.000939 0.000000 0.033806 0.000000
# 6 0.000000 0.000000 0.000000 -0.018212 0.000000 0.072105
#
#
# Mechanical properties :
#
#
# Convention : Reuss Voigt Hill
#
# Bulk Modulus (GPa) = 49.91657 53.13753 51.52705
# Shear Modulus (GPa) = 23.08676 30.58333 26.83504
#
# Velocity S-wave (km/s) = 3.18938 3.67086 3.43856
# Velocity P-wave (km/s) = 5.96292 6.43270 6.20226
#
# Compressibility (1/GPa) = 0.02003343
#
# Stress axis : x y z
#
# Youngs Moduli (GPa) = 40.38815 76.54765 89.20572
#
# Poissons Ratio (x) = 0.50895 0.65524
# Poissons Ratio (y) = 0.26854 0.04513
# Poissons Ratio (z) = 0.29666 0.03873
#
# Static dielectric constant tensor:
#      x y z
#    x 3.818480 0.000000 0.220970 
#    y 0.000000 4.522230 0.000000 
#    z 0.220970 0.000000 4.183520 
# 
# 
# High freq. dielectric constant tensor:
#      x y z
#    x 1.862390 0.000000 0.012160 
#    y 0.000000 1.902720 0.000000 
#    z 0.012160 0.000000 1.922200 
# 
# From -- ./inp_files/21061.got.cif
#   From: 2010.06.25/outbox.cif.g09.slc.cpg/sg13_11_cif.got.tgz:21061.got - 2010.06.28 04:50:58.
