data_PCOD8122312
_publ_section_title
;
Structure prediction by ZEFSAII (Michael W. Deem and Ramdas Pophale) SiO2 
 PCOD8122312
Probable space group: P 2/C
;
_chemical_formula_sum "Si O2"
_cell_formula_units_Z 20
_cell_length_a 8.505590
_cell_length_b 4.870301
_cell_length_c 19.079930
_cell_angle_alpha 90.000000
_cell_angle_beta 85.826467
_cell_angle_gamma 90.000000
_cell_volume 788.286036
_symmetry_space_group_name_H-M "P 2/C"
_symmetry_group_IT_number 13
_symmetry_cell_setting 'monoclinic'
loop_
_space_group_symop_operation_xyz
x,y,z
-x,y,1/2-z
-x,-y,-z
x,-y,1/2+z
loop_
_atom_site_type_symbol
_atom_site_label
_atom_site_fract_x
_atom_site_fract_y
_atom_site_fract_z
Si Si1 0.187748 0.248674 0.068539
Si Si2 0.622928 0.429226 0.555878
Si Si3 0.161027 0.318021 0.781038
Si Si4 0.157755 0.178335 0.376004
Si Si5 0.667131 0.751272 0.361908
O O1 0.219391 0.554909 0.095977
O O2 0.003816 0.180430 0.075018
O O3 0.289119 0.057156 0.116313
O O4 0.245943 0.229357 0.984913
O O5 0.500000 0.500000 0.500000
O O6 0.701722 0.710251 0.580166
O O7 0.520885 0.290128 0.621108
O O8 0.142575 0.629685 0.807548
O O9 0.302838 0.291418 0.721432
O O10 0.000000 0.216253 0.750000
O O11 0.196363 0.130123 0.848429
#
# Coordination Sequence:
#
# PCOD8122312 Si02
#       5
#     4   4   4   4   4
#     4  11  21  42  70  98 133 177 229 282 338 411
#     4  10  26  46  65  99 142 181 226 283 347 413
#     4  12  23  43  71 102 138 173 237 289 342 414
#     4  12  24  42  73 103 130 184 233 284 347 412
#     4  11  23  42  68  97 138 181 217 285 351 403
#
# _framework density 25.371500000000001
#
# number of rings (size 3 to 8) (size 9 to 14) (size 15 to 20)
#    0.000    0.800    4.000    3.000    0.000    7.200 
#    0.000    9.000    0.000    0.000    0.000    0.000 
#    0.000    0.000    0.000    0.000    0.000    0.000 
#
# Total GULP energy -248134.917964 kJ/mol
# GULP energy per Si atom -12406.745898 kJ/mol
# Density = 2.531375 g / cm^3
# Si number density = 25.371500 Si / 1000 Ang^3
#
#
#
# Elastic Constant Matrix: (Units=GPa)
#
#
# Indices 1 2 3 4 5 6 
#
# 1 139.7820 6.8594 47.9623 0.0000 -34.4976 0.0000
# 2 6.8594 60.5760 -10.2265 0.0000 -10.5156 0.0000
# 3 47.9623 -10.2265 102.1085 0.0000 -49.6531 0.0000
# 4 0.0000 0.0000 0.0000 26.6602 0.0000 -3.8274
# 5 -34.4976 -10.5156 -49.6531 0.0000 59.0073 0.0000
# 6 0.0000 0.0000 0.0000 -3.8274 0.0000 33.4527
#
#
#
# Elastic Compliance Matrix: (Units=1/GPa)
#
#
# Indices 1 2 3 4 5 6 
#
# 1 0.008864 -0.001127 -0.003138 0.000000 0.002340 0.000000
# 2 -0.001127 0.019129 0.006402 0.000000 0.008137 0.000000
# 3 -0.003138 0.006402 0.019586 0.000000 0.015787 0.000000
# 4 0.000000 0.000000 0.000000 0.038135 0.000000 0.004363
# 5 0.002340 0.008137 0.015787 0.000000 0.033050 0.000000
# 6 0.000000 0.000000 0.000000 0.004363 0.000000 0.030392
#
#
# Mechanical properties :
#
#
# Convention : Reuss Voigt Hill
#
# Bulk Modulus (GPa) = 19.28545 43.51744 31.40144
# Shear Modulus (GPa) = 30.83244 41.01546 35.92395
#
# Velocity S-wave (km/s) = 3.48981 4.02505 3.76695
# Velocity P-wave (km/s) = 4.88427 6.22822 5.59673
#
# Compressibility (1/GPa) = 0.05185258
#
# Stress axis : x y z
#
# Youngs Moduli (GPa) = 112.81941 52.27584 51.05733
#
# Poissons Ratio (x) = 0.05893 0.16023
# Poissons Ratio (y) = 0.12718 -0.32689
# Poissons Ratio (z) = 0.35406 -0.33469
#
# Static dielectric constant tensor:
#      x y z
#    x 4.863410 0.000000 -0.686320 
#    y 0.000000 4.402240 0.000000 
#    z -0.686320 0.000000 4.902320 
# 
# 
# High freq. dielectric constant tensor:
#      x y z
#    x 2.021210 0.000000 -0.014560 
#    y 0.000000 2.010600 0.000000 
#    z -0.014560 0.000000 2.023320 
# 
# From -- ./inp_files/62383.got.cif
#   From: 2010.06.25/outbox.cif.g09.slc.cpg/sg13_32_cif.got.tgz:62383.got - 2010.06.28 04:50:58.
