data_PCOD8122866
_publ_section_title
;
Structure prediction by ZEFSAII (Michael W. Deem and Ramdas Pophale) SiO2 
 PCOD8122866
Probable space group: P 2/C
;
_chemical_formula_sum "Si O2"
_cell_formula_units_Z 18
_cell_length_a 6.986039
_cell_length_b 10.054119
_cell_length_c 11.823387
_cell_angle_alpha 90.000000
_cell_angle_beta 94.194678
_cell_angle_gamma 90.000000
_cell_volume 828.232019
_symmetry_space_group_name_H-M "P 2/C"
_symmetry_group_IT_number 13
_symmetry_cell_setting 'monoclinic'
loop_
_space_group_symop_operation_xyz
x,y,z
-x,y,1/2-z
-x,-y,-z
x,-y,1/2+z
loop_
_atom_site_type_symbol
_atom_site_label
_atom_site_fract_x
_atom_site_fract_y
_atom_site_fract_z
Si Si1 0.525175 0.284563 0.046732
Si Si2 0.643835 0.534715 0.350507
Si Si3 0.839165 0.163939 0.566700
Si Si4 0.000000 0.633049 0.250000
Si Si5 0.889384 0.866542 0.631887
O O1 0.406965 0.383363 0.122056
O O2 0.684126 0.206239 0.125167
O O3 0.635422 0.368773 0.956921
O O4 0.377304 0.178789 0.987990
O O5 0.500000 0.591003 0.250000
O O6 0.859517 0.535963 0.312486
O O7 0.877094 0.278305 0.659164
O O8 0.991176 0.177232 0.472369
O O9 0.854651 0.023976 0.630208
O O10 0.000000 0.825645 0.750000
#
# Coordination Sequence:
#
# PCOD8122866 Si02
#       5
#     4   4   4   2   4
#     4  11  25  45  66 104 139 183 234 287 343 424
#     4  11  25  43  69 100 139 184 235 282 350 409
#     4  11  24  44  72 104 138 184 233 291 356 415
#     4  12  22  46  72 104 140 188 234 292 346 430
#     4  11  25  44  70 105 143 180 233 291 355 415
#
# _framework density 21.733038000000001
#
# number of rings (size 3 to 8) (size 9 to 14) (size 15 to 20)
#    0.000    0.889    5.556    0.667    3.111    2.667 
#    0.000    0.000    0.000    0.000    0.000    0.000 
#    0.000    0.000    0.000    0.000    0.000    0.000 
#
# Total GULP energy -223324.466931 kJ/mol
# GULP energy per Si atom -12406.914829 kJ/mol
# Density = 2.168357 g / cm^3
# Si number density = 21.733038 Si / 1000 Ang^3
#
#
#
# Elastic Constant Matrix: (Units=GPa)
#
#
# Indices 1 2 3 4 5 6 
#
# 1 161.2108 58.4562 53.5396 0.0000 5.8188 0.0000
# 2 58.4562 73.3034 46.9129 0.0000 -8.0632 0.0000
# 3 53.5396 46.9129 100.9361 0.0000 11.4042 0.0000
# 4 0.0000 0.0000 0.0000 15.4263 0.0000 7.3404
# 5 5.8188 -8.0632 11.4042 0.0000 51.8855 0.0000
# 6 0.0000 0.0000 0.0000 7.3404 0.0000 37.0603
#
#
#
# Elastic Compliance Matrix: (Units=1/GPa)
#
#
# Indices 1 2 3 4 5 6 
#
# 1 0.009141 -0.006386 -0.001695 0.000000 -0.001645 0.000000
# 2 -0.006386 0.025307 -0.009127 0.000000 0.006655 0.000000
# 3 -0.001695 -0.009127 0.015574 0.000000 -0.004651 0.000000
# 4 0.000000 0.000000 0.000000 0.071569 0.000000 -0.014175
# 5 -0.001645 0.006655 -0.004651 0.000000 0.021514 0.000000
# 6 0.000000 0.000000 0.000000 -0.014175 0.000000 0.029791
#
#
# Mechanical properties :
#
#
# Convention : Reuss Voigt Hill
#
# Bulk Modulus (GPa) = 64.07403 72.58528 68.32966
# Shear Modulus (GPa) = 23.52786 32.64388 28.08587
#
# Velocity S-wave (km/s) = 3.29384 3.87982 3.59877
# Velocity P-wave (km/s) = 6.63416 7.31722 6.98405
#
# Compressibility (1/GPa) = 0.01560695
#
# Stress axis : x y z
#
# Youngs Moduli (GPa) = 109.39997 39.51403 64.21026
#
# Poissons Ratio (x) = 0.25232 0.10882
# Poissons Ratio (y) = 0.69859 0.58605
# Poissons Ratio (z) = 0.18541 0.36065
#
# Static dielectric constant tensor:
#      x y z
#    x 3.910150 0.000000 0.009260 
#    y 0.000000 3.788400 0.000000 
#    z 0.009260 0.000000 4.016780 
# 
# 
# High freq. dielectric constant tensor:
#      x y z
#    x 1.863760 0.000000 0.003180 
#    y 0.000000 1.851970 0.000000 
#    z 0.003180 0.000000 1.864630 
# 
# From -- ./inp_files/25713.got.cif
#   From: 2010.06.25/outbox.cif.g09.slc.cpg/sg13_13_cif.got.tgz:25713.got - 2010.06.28 04:50:58.
