data_PCOD8122318
_publ_section_title
;
Structure prediction by ZEFSAII (Michael W. Deem and Ramdas Pophale) SiO2 
 PCOD8122318
Probable space group: P 2/C
;
_chemical_formula_sum "Si O2"
_cell_formula_units_Z 32
_cell_length_a 13.529336
_cell_length_b 9.031281
_cell_length_c 21.705269
_cell_angle_alpha 90.000000
_cell_angle_beta 148.270065
_cell_angle_gamma 90.000000
_cell_volume 1394.785663
_symmetry_space_group_name_H-M "P 2/C"
_symmetry_group_IT_number 13
_symmetry_cell_setting 'monoclinic'
loop_
_space_group_symop_operation_xyz
x,y,z
-x,y,1/2-z
-x,-y,-z
x,-y,1/2+z
loop_
_atom_site_type_symbol
_atom_site_label
_atom_site_fract_x
_atom_site_fract_y
_atom_site_fract_z
Si Si1 0.906763 0.627567 0.092403
Si Si2 0.723336 0.163033 0.114223
Si Si3 0.355986 0.133292 0.990277
Si Si4 0.939946 0.302029 0.133337
Si Si5 0.091138 0.803130 0.592389
Si Si6 0.282132 0.462141 0.133745
Si Si7 0.432815 0.996460 0.783137
Si Si8 0.179798 0.248530 0.648311
O O1 0.969764 0.477544 0.160301
O O2 0.094725 0.713898 0.170252
O O3 0.791705 0.735698 0.076489
O O4 0.778581 0.576287 0.967519
O O5 0.533619 0.204811 0.049623
O O6 0.742053 0.255811 0.060266
O O7 0.895180 0.207003 0.248454
O O8 0.732718 0.988555 0.102383
O O9 0.414812 0.056450 0.086475
O O10 0.939220 0.252317 0.062148
O O11 0.238512 0.673141 0.655547
O O12 0.970099 0.854848 0.468598
O O13 0.226619 0.931594 0.689300
O O14 0.500000 0.496670 0.250000
O O15 0.176028 0.603942 0.104777
O O16 0.500000 0.953351 0.750000
O O17 0.385855 0.172936 0.763444
#
# Coordination Sequence:
#
# PCOD8122318 Si02
#       8
#     4   4   4   4   4   4   4   4
#     4  11  23  42  72  97 133 182 226 280 340 411
#     4  10  26  46  69  95 131 180 227 289 337 390
#     4  11  25  47  68  99 138 176 229 283 344 402
#     4  11  22  44  72  95 126 183 230 280 336 393
#     4  11  20  40  63  93 138 177 222 271 326 412
#     4  11  21  37  61 100 140 175 212 273 344 401
#     4  12  25  39  65 103 137 180 221 272 344 407
#     4  11  23  38  60 105 138 176 222 270 339 406
#
# _framework density 22.942592000000001
#
# number of rings (size 3 to 8) (size 9 to 14) (size 15 to 20)
#    0.000    1.000    3.750    4.125    3.500    1.500 
#    0.000    7.500    0.000    0.000    0.000    0.000 
#    0.000    0.000    0.000    0.000    0.000    0.000 
#
# Total GULP energy -396738.933254 kJ/mol
# GULP energy per Si atom -12398.091664 kJ/mol
# Density = 2.289037 g / cm^3
# Si number density = 22.942592 Si / 1000 Ang^3
#
#
#
# Elastic Constant Matrix: (Units=GPa)
#
#
# Indices 1 2 3 4 5 6 
#
# 1 160.1196 41.6665 13.7876 0.0000 13.0124 0.0000
# 2 41.6665 87.5937 24.2992 0.0000 -0.4715 0.0000
# 3 13.7876 24.2992 60.9859 0.0000 1.6967 0.0000
# 4 0.0000 0.0000 0.0000 29.5928 0.0000 0.2142
# 5 13.0124 -0.4715 1.6967 0.0000 20.8072 0.0000
# 6 0.0000 0.0000 0.0000 0.2142 0.0000 40.3498
#
#
#
# Elastic Compliance Matrix: (Units=1/GPa)
#
#
# Indices 1 2 3 4 5 6 
#
# 1 0.007584 -0.003592 -0.000150 0.000000 -0.004812 0.000000
# 2 -0.003592 0.014547 -0.005067 0.000000 0.002989 0.000000
# 3 -0.000150 -0.005067 0.018493 0.000000 -0.001529 0.000000
# 4 0.000000 0.000000 0.000000 0.033793 0.000000 -0.000179
# 5 -0.004812 0.002989 -0.001529 0.000000 0.051262 0.000000
# 6 0.000000 0.000000 0.000000 -0.000179 0.000000 0.024784
#
#
# Mechanical properties :
#
#
# Convention : Reuss Voigt Hill
#
# Bulk Modulus (GPa) = 43.46680 52.02288 47.74484
# Shear Modulus (GPa) = 28.44974 33.41304 30.93139
#
# Velocity S-wave (km/s) = 3.52524 3.82039 3.67578
# Velocity P-wave (km/s) = 5.96295 6.49500 6.23465
#
# Compressibility (1/GPa) = 0.02300606
#
# Stress axis : x y z
#
# Youngs Moduli (GPa) = 131.85702 68.74405 54.07597
#
# Poissons Ratio (x) = 0.24693 0.00808
# Poissons Ratio (y) = 0.47363 0.27401
# Poissons Ratio (z) = 0.01971 0.34833
#
# Static dielectric constant tensor:
#      x y z
#    x 4.569800 0.000000 0.068130 
#    y 0.000000 4.254490 0.000000 
#    z 0.068130 0.000000 3.766810 
# 
# 
# High freq. dielectric constant tensor:
#      x y z
#    x 1.919590 0.000000 0.006540 
#    y 0.000000 1.911580 0.000000 
#    z 0.006540 0.000000 1.881090 
# 
# From -- ./inp_files/87427.got.cif
#   From: 2010.06.25/outbox.cif.g09.slc.cpg/sg13_44_cif.got.tgz:87427.got - 2010.06.28 04:50:58.
