data_PCOD8122812
_publ_section_title
;
Structure prediction by ZEFSAII (Michael W. Deem and Ramdas Pophale) SiO2 
 PCOD8122812
Probable space group: P 2/C
;
_chemical_formula_sum "Si O2"
_cell_formula_units_Z 18
_cell_length_a 6.392752
_cell_length_b 10.433939
_cell_length_c 12.155391
_cell_angle_alpha 90.000000
_cell_angle_beta 86.561647
_cell_angle_gamma 90.000000
_cell_volume 809.324351
_symmetry_space_group_name_H-M "P 2/C"
_symmetry_group_IT_number 13
_symmetry_cell_setting 'monoclinic'
loop_
_space_group_symop_operation_xyz
x,y,z
-x,y,1/2-z
-x,-y,-z
x,-y,1/2+z
loop_
_atom_site_type_symbol
_atom_site_label
_atom_site_fract_x
_atom_site_fract_y
_atom_site_fract_z
Si Si1 0.788240 0.010403 0.078260
Si Si2 0.171766 0.651290 0.569003
Si Si3 0.483672 0.793213 0.046651
Si Si4 0.000000 0.153671 0.250000
Si Si5 0.118432 0.632232 0.134548
O O1 0.832196 0.059480 0.199578
O O2 0.671344 0.873967 0.098000
O O3 0.636247 0.113104 0.030019
O O4 0.000000 0.000000 0.000000
O O5 0.408978 0.677701 0.524266
O O6 0.110499 0.761936 0.654872
O O7 0.176935 0.517234 0.632400
O O8 0.014216 0.659024 0.470974
O O9 0.322957 0.723178 0.133915
O O10 0.000000 0.665697 0.250000
#
# Coordination Sequence:
#
# PCOD8122812 Si02
#       5
#     4   4   4   2   4
#     4  11  24  47  69 100 146 188 238 297 353 418
#     4  11  24  46  72 105 143 189 239 295 365 433
#     4  11  23  47  68 107 140 186 247 287 354 445
#     4  12  22  48  72 100 144 198 232 294 360 434
#     4  11  24  46  72 106 149 185 233 306 368 422
#
# _framework density 22.240774999999999
#
# number of rings (size 3 to 8) (size 9 to 14) (size 15 to 20)
#    0.000    0.889    5.556    0.667    0.000    1.778 
#   12.000    2.222    0.000    0.000    0.000    0.000 
#    0.000    0.000    0.000    0.000    0.000    0.000 
#
# Total GULP energy -223199.427585 kJ/mol
# GULP energy per Si atom -12399.968199 kJ/mol
# Density = 2.219015 g / cm^3
# Si number density = 22.240775 Si / 1000 Ang^3
#
#
#
# Elastic Constant Matrix: (Units=GPa)
#
#
# Indices 1 2 3 4 5 6 
#
# 1 128.6895 76.5312 55.2620 0.0000 -23.7304 0.0000
# 2 76.5312 123.1349 60.0986 0.0000 -5.5568 0.0000
# 3 55.2620 60.0986 131.6482 0.0000 -13.6016 0.0000
# 4 0.0000 0.0000 0.0000 42.2161 0.0000 -0.9828
# 5 -23.7304 -5.5568 -13.6016 0.0000 40.2594 0.0000
# 6 0.0000 0.0000 0.0000 -0.9828 0.0000 40.1559
#
#
#
# Elastic Compliance Matrix: (Units=1/GPa)
#
#
# Indices 1 2 3 4 5 6 
#
# 1 0.014430 -0.007782 -0.001800 0.000000 0.006823 0.000000
# 2 -0.007782 0.014648 -0.003818 0.000000 -0.003855 0.000000
# 3 -0.001800 -0.003818 0.010290 0.000000 0.001889 0.000000
# 4 0.000000 0.000000 0.000000 0.023701 0.000000 0.000580
# 5 0.006823 -0.003855 0.001889 0.000000 0.028967 0.000000
# 6 0.000000 0.000000 0.000000 0.000580 0.000000 0.024917
#
#
# Mechanical properties :
#
#
# Convention : Reuss Voigt Hill
#
# Bulk Modulus (GPa) = 79.57502 85.25067 82.41285
# Shear Modulus (GPa) = 33.79729 37.29836 35.54782
#
# Velocity S-wave (km/s) = 3.90245 4.09959 4.00223
# Velocity P-wave (km/s) = 7.49413 7.79890 7.64804
#
# Compressibility (1/GPa) = 0.01256676
#
# Stress axis : x y z
#
# Youngs Moduli (GPa) = 69.30192 68.27056 97.18497
#
# Poissons Ratio (x) = 0.53129 0.17489
# Poissons Ratio (y) = 0.53932 0.37109
# Poissons Ratio (z) = 0.12471 0.26068
#
# Static dielectric constant tensor:
#      x y z
#    x 4.269900 0.000000 0.065940 
#    y 0.000000 4.448110 0.000000 
#    z 0.065940 0.000000 4.125640 
# 
# 
# High freq. dielectric constant tensor:
#      x y z
#    x 1.882330 0.000000 -0.007150 
#    y 0.000000 1.901440 0.000000 
#    z -0.007150 0.000000 1.866350 
# 
# From -- ./inp_files/25670.got.cif
#   From: 2010.06.25/outbox.cif.g09.slc.cpg/sg13_13_cif.got.tgz:25670.got - 2010.06.28 04:50:58.
