data_PCOD8122120
_publ_section_title
;
Structure prediction by ZEFSAII (Michael W. Deem and Ramdas Pophale) SiO2 
 PCOD8122120
Probable space group: P 2/C
;
_chemical_formula_sum "Si O2"
_cell_formula_units_Z 18
_cell_length_a 8.913314
_cell_length_b 18.863143
_cell_length_c 9.041026
_cell_angle_alpha 90.000000
_cell_angle_beta 147.894271
_cell_angle_gamma 90.000000
_cell_volume 807.905544
_symmetry_space_group_name_H-M "P 2/C"
_symmetry_group_IT_number 13
_symmetry_cell_setting 'monoclinic'
loop_
_space_group_symop_operation_xyz
x,y,z
-x,y,1/2-z
-x,-y,-z
x,-y,1/2+z
loop_
_atom_site_type_symbol
_atom_site_label
_atom_site_fract_x
_atom_site_fract_y
_atom_site_fract_z
Si Si1 0.152329 0.320534 0.220335
Si Si2 0.303180 0.032500 0.218665
Si Si3 0.500000 0.516589 0.750000
Si Si4 0.208103 0.192710 0.063917
Si Si5 0.289358 0.406628 0.805316
O O1 0.110569 0.242502 0.116607
O O2 0.471996 0.345798 0.513839
O O3 0.000000 0.322258 0.250000
O O4 0.013826 0.373469 0.984849
O O5 0.500000 0.006825 0.250000
O O6 0.261000 0.116576 0.180776
O O7 0.500000 0.000000 0.500000
O O8 0.000000 0.000000 0.000000
O O9 0.318661 0.469509 0.710768
O O10 0.291233 0.564321 0.474852
O O11 0.500000 0.225664 0.250000
O O12 0.000000 0.187934 0.750000
#
# Coordination Sequence:
#
# PCOD8122120 Si02
#       5
#     4   4   2   4   4
#     4  12  25  44  65  98 134 173 224 281 336 405
#     4  11  23  43  70 104 141 180 229 283 339 410
#     4  10  24  44  66  94 130 172 222 286 352 404
#     4  11  25  45  69  99 136 181 226 274 334 412
#     4  11  25  42  66  95 129 170 225 281 341 407
#
# _framework density 22.279833
#
# number of rings (size 3 to 8) (size 9 to 14) (size 15 to 20)
#    0.000    0.889    2.222    4.667    4.667    7.111 
#    0.000    0.000    0.000    0.000    0.000    0.000 
#    0.000    0.000    0.000    0.000    0.000    0.000 
#
# Total GULP energy -223025.305803 kJ/mol
# GULP energy per Si atom -12390.294767 kJ/mol
# Density = 2.222912 g / cm^3
# Si number density = 22.279833 Si / 1000 Ang^3
#
#
#
# Elastic Constant Matrix: (Units=GPa)
#
#
# Indices 1 2 3 4 5 6 
#
# 1 113.3808 52.3200 43.2199 0.0000 -16.8168 0.0000
# 2 52.3200 102.5299 47.3466 0.0000 -23.4544 0.0000
# 3 43.2199 47.3466 136.0061 0.0000 -11.9900 0.0000
# 4 0.0000 0.0000 0.0000 19.9669 0.0000 -6.2152
# 5 -16.8168 -23.4544 -11.9900 0.0000 49.9959 0.0000
# 6 0.0000 0.0000 0.0000 -6.2152 0.0000 36.2347
#
#
#
# Elastic Compliance Matrix: (Units=1/GPa)
#
#
# Indices 1 2 3 4 5 6 
#
# 1 0.012046 -0.004937 -0.001999 0.000000 0.001257 0.000000
# 2 -0.004937 0.014770 -0.003176 0.000000 0.004507 0.000000
# 3 -0.001999 -0.003176 0.009095 0.000000 0.000019 0.000000
# 4 0.000000 0.000000 0.000000 0.052908 0.000000 0.009075
# 5 0.001257 0.004507 0.000019 0.000000 0.022543 0.000000
# 6 0.000000 0.000000 0.000000 0.009075 0.000000 0.029154
#
#
# Mechanical properties :
#
#
# Convention : Reuss Voigt Hill
#
# Bulk Modulus (GPa) = 63.73876 70.85442 67.29659
# Shear Modulus (GPa) = 30.12635 35.17484 32.65060
#
# Velocity S-wave (km/s) = 3.68119 3.97769 3.83231
# Velocity P-wave (km/s) = 6.83656 7.27785 7.06066
#
# Compressibility (1/GPa) = 0.01568904
#
# Stress axis : x y z
#
# Youngs Moduli (GPa) = 83.01429 67.70589 109.95126
#
# Poissons Ratio (x) = 0.33424 0.21976
# Poissons Ratio (y) = 0.40981 0.34916
# Poissons Ratio (z) = 0.16592 0.21501
#
# Static dielectric constant tensor:
#      x y z
#    x 4.160570 0.000000 -0.082950 
#    y 0.000000 3.979640 0.000000 
#    z -0.082950 0.000000 4.289240 
# 
# 
# High freq. dielectric constant tensor:
#      x y z
#    x 1.892060 0.000000 -0.004240 
#    y 0.000000 1.877320 0.000000 
#    z -0.004240 0.000000 1.897530 
# 
# From -- ./inp_files/13600.got.cif
#   From: 2010.06.25/outbox.cif.g09.slc.cpg/sg13_7_cif.got.tgz:13600.got - 2010.06.28 04:50:58.
