data_PCOD8122333
_publ_section_title
;
Structure prediction by ZEFSAII (Michael W. Deem and Ramdas Pophale) SiO2 
 PCOD8122333
Probable space group: P 2/C
;
_chemical_formula_sum "Si O2"
_cell_formula_units_Z 28
_cell_length_a 14.169901
_cell_length_b 12.308183
_cell_length_c 7.951859
_cell_angle_alpha 90.000000
_cell_angle_beta 64.209303
_cell_angle_gamma 90.000000
_cell_volume 1248.704906
_symmetry_space_group_name_H-M "P 2/C"
_symmetry_group_IT_number 13
_symmetry_cell_setting 'monoclinic'
loop_
_space_group_symop_operation_xyz
x,y,z
-x,y,1/2-z
-x,-y,-z
x,-y,1/2+z
loop_
_atom_site_type_symbol
_atom_site_label
_atom_site_fract_x
_atom_site_fract_y
_atom_site_fract_z
Si Si1 0.387705 0.737047 0.989373
Si Si2 0.457275 0.887195 0.468859
Si Si3 0.735520 0.172162 0.196701
Si Si4 0.792189 0.608239 0.804247
Si Si5 0.000000 0.281561 0.250000
Si Si6 0.966385 0.881615 0.470524
Si Si7 0.500000 0.542238 0.750000
Si Si8 0.687089 0.581111 0.218397
O O1 0.498231 0.787669 0.957115
O O2 0.310159 0.701887 0.200899
O O3 0.333568 0.829709 0.918558
O O4 0.409306 0.619148 0.894214
O O5 0.500000 0.869146 0.250000
O O6 0.330971 0.880157 0.595534
O O7 0.500000 0.000000 0.500000
O O8 0.764524 0.297361 0.196989
O O9 0.841150 0.106706 0.083335
O O10 0.783653 0.493893 0.711399
O O11 0.903089 0.635462 0.805911
O O12 0.701626 0.603437 0.011710
O O13 0.989526 0.207124 0.427901
O O14 0.000000 0.853763 0.250000
O O15 0.000000 0.000000 0.500000
O O16 0.431160 0.469605 0.672433
#
# Coordination Sequence:
#
# PCOD8122333 Si02
#       8
#     4   4   4   4   2   4   2   4
#     4  12  23  41  66  99 141 181 229 280 336 421
#     4  12  26  45  66 101 142 186 223 278 349 423
#     4  11  24  45  68 101 141 178 230 289 347 424
#     4  11  23  44  65  98 135 177 232 286 348 414
#     4  10  26  48  70 102 142 174 238 312 358 430
#     4  11  25  48  77 103 134 181 242 306 367 420
#     4  12  22  38  66  94 142 180 226 282 326 412
#     4  12  24  38  67 101 136 191 231 272 350 414
#
# _framework density 22.423231999999999
#
# number of rings (size 3 to 8) (size 9 to 14) (size 15 to 20)
#    0.000    0.571    5.000    2.143    5.000    2.857 
#    0.000    0.000    0.000    0.000    0.000    0.000 
#    0.000    0.000    0.000    0.000    0.000    0.000 
#
# Total GULP energy -346974.757137 kJ/mol
# GULP energy per Si atom -12391.955612 kJ/mol
# Density = 2.237220 g / cm^3
# Si number density = 22.423232 Si / 1000 Ang^3
#
#
#
# Elastic Constant Matrix: (Units=GPa)
#
#
# Indices 1 2 3 4 5 6 
#
# 1 134.4995 37.3452 46.8952 0.0000 -11.9000 0.0000
# 2 37.3452 75.3116 21.3913 0.0000 -9.8559 0.0000
# 3 46.8952 21.3913 116.8618 0.0000 -7.1940 0.0000
# 4 0.0000 0.0000 0.0000 26.8262 0.0000 -2.3612
# 5 -11.9000 -9.8559 -7.1940 0.0000 38.0949 0.0000
# 6 0.0000 0.0000 0.0000 -2.3612 0.0000 19.6810
#
#
#
# Elastic Compliance Matrix: (Units=1/GPa)
#
#
# Indices 1 2 3 4 5 6 
#
# 1 0.009686 -0.003725 -0.003114 0.000000 0.001474 0.000000
# 2 -0.003725 0.015830 -0.001237 0.000000 0.002698 0.000000
# 3 -0.003114 -0.001237 0.010071 0.000000 0.000609 0.000000
# 4 0.000000 0.000000 0.000000 0.037675 0.000000 0.004520
# 5 0.001474 0.002698 0.000609 0.000000 0.027524 0.000000
# 6 0.000000 0.000000 0.000000 0.004520 0.000000 0.051353
#
#
# Mechanical properties :
#
#
# Convention : Reuss Voigt Hill
#
# Bulk Modulus (GPa) = 51.45645 59.77069 55.61357
# Shear Modulus (GPa) = 28.60952 31.65651 30.13301
#
# Velocity S-wave (km/s) = 3.57583 3.76143 3.66981
# Velocity P-wave (km/s) = 6.32822 6.75115 6.54311
#
# Compressibility (1/GPa) = 0.01943391
#
# Stress axis : x y z
#
# Youngs Moduli (GPa) = 103.24688 63.17175 99.29912
#
# Poissons Ratio (x) = 0.23534 0.30922
# Poissons Ratio (y) = 0.38464 0.12279
# Poissons Ratio (z) = 0.32151 0.07811
#
# Static dielectric constant tensor:
#      x y z
#    x 4.251180 0.000000 0.184400 
#    y 0.000000 3.935290 0.000000 
#    z 0.184400 0.000000 4.438440 
# 
# 
# High freq. dielectric constant tensor:
#      x y z
#    x 1.881580 0.000000 0.009160 
#    y 0.000000 1.881990 0.000000 
#    z 0.009160 0.000000 1.890300 
# 
# From -- ./inp_files/18968.got.cif
#   From: 2010.06.25/outbox.cif.g09.slc.cpg/sg13_10_cif.got.tgz:18968.got - 2010.06.28 04:50:58.
