data_PCOD8122574
_publ_section_title
;
Structure prediction by ZEFSAII (Michael W. Deem and Ramdas Pophale) SiO2 
 PCOD8122574
Probable space group: P 2/C
;
_chemical_formula_sum "Si O2"
_cell_formula_units_Z 24
_cell_length_a 30.621157
_cell_length_b 10.119420
_cell_length_c 9.948818
_cell_angle_alpha 90.000000
_cell_angle_beta 25.498595
_cell_angle_gamma 90.000000
_cell_volume 1327.121624
_symmetry_space_group_name_H-M "P 2/C"
_symmetry_group_IT_number 13
_symmetry_cell_setting 'monoclinic'
loop_
_space_group_symop_operation_xyz
x,y,z
-x,y,1/2-z
-x,-y,-z
x,-y,1/2+z
loop_
_atom_site_type_symbol
_atom_site_label
_atom_site_fract_x
_atom_site_fract_y
_atom_site_fract_z
Si Si1 0.067287 0.523310 0.683532
Si Si2 0.805673 0.761052 0.070011
Si Si3 0.824136 0.742218 0.708496
Si Si4 0.607762 0.627457 0.609978
Si Si5 0.072072 0.000510 0.173682
Si Si6 0.381621 0.386287 0.724872
O O1 0.154400 0.626570 0.475515
O O2 0.115464 0.387716 0.499320
O O3 0.000000 0.583157 0.750000
O O4 0.000000 0.500000 0.000000
O O5 0.682991 0.752217 0.420549
O O6 0.842844 0.773292 0.813138
O O7 0.843166 0.886018 0.050129
O O8 0.868120 0.862913 0.501109
O O9 0.704956 0.722758 0.005506
O O10 0.636664 0.514545 0.634802
O O11 0.623955 0.568346 0.415271
O O12 0.491927 0.676769 0.951682
O O13 0.000000 0.030961 0.250000
O O14 0.000000 0.000000 0.500000
#
# Coordination Sequence:
#
# PCOD8122574 Si02
#       6
#     4   4   4   4   4   4
#     4  12  22  35  56  84 114 148 190 242 285 335
#     4  11  22  39  59  86 115 152 195 235 290 345
#     4  11  22  40  58  85 118 151 191 240 292 338
#     4   9  18  35  59  88 116 146 186 235 292 344
#     4  12  24  43  60  80 116 164 198 237 287 341
#     4   9  18  35  60  86 117 148 182 237 294 342
#
# _framework density 18.084250999999998
#
# number of rings (size 3 to 8) (size 9 to 14) (size 15 to 20)
#    0.000    1.333    5.000    2.000    0.000    0.000 
#    3.000    0.833    0.000    0.000    0.000    0.000 
#    0.000    0.000    0.000    0.000    0.000    0.000 
#
# Total GULP energy -297600.899334 kJ/mol
# GULP energy per Si atom -12400.037472 kJ/mol
# Density = 1.804309 g / cm^3
# Si number density = 18.084251 Si / 1000 Ang^3
#
#
#
# Elastic Constant Matrix: (Units=GPa)
#
#
# Indices 1 2 3 4 5 6 
#
# 1 108.1831 37.9387 51.2700 0.0000 -7.9876 0.0000
# 2 37.9387 94.7030 40.7223 0.0000 -13.2331 0.0000
# 3 51.2700 40.7223 109.2735 0.0000 -10.4150 0.0000
# 4 0.0000 0.0000 0.0000 28.1488 0.0000 -2.8657
# 5 -7.9876 -13.2331 -10.4150 0.0000 29.3958 0.0000
# 6 0.0000 0.0000 0.0000 -2.8657 0.0000 29.1725
#
#
#
# Elastic Compliance Matrix: (Units=1/GPa)
#
#
# Indices 1 2 3 4 5 6 
#
# 1 0.012557 -0.002925 -0.004762 0.000000 0.000408 0.000000
# 2 -0.002925 0.013762 -0.003355 0.000000 0.004212 0.000000
# 3 -0.004762 -0.003355 0.012801 0.000000 0.001731 0.000000
# 4 0.000000 0.000000 0.000000 0.035884 0.000000 0.003525
# 5 0.000408 0.004212 0.001731 0.000000 0.036639 0.000000
# 6 0.000000 0.000000 0.000000 0.003525 0.000000 0.034625
#
#
# Mechanical properties :
#
#
# Convention : Reuss Voigt Hill
#
# Bulk Modulus (GPa) = 58.70307 63.55794 61.13051
# Shear Modulus (GPa) = 28.73046 29.49200 29.11123
#
# Velocity S-wave (km/s) = 3.99017 4.04271 4.01653
# Velocity P-wave (km/s) = 7.33212 7.55070 7.44221
#
# Compressibility (1/GPa) = 0.01703488
#
# Stress axis : x y z
#
# Youngs Moduli (GPa) = 79.63946 72.66196 78.11909
#
# Poissons Ratio (x) = 0.21257 0.37203
# Poissons Ratio (y) = 0.23298 0.26207
# Poissons Ratio (z) = 0.37927 0.24376
#
# Static dielectric constant tensor:
#      x y z
#    x 3.532770 0.000000 -0.070910 
#    y 0.000000 3.150210 0.000000 
#    z -0.070910 0.000000 3.529640 
# 
# 
# High freq. dielectric constant tensor:
#      x y z
#    x 1.716870 0.000000 -0.005490 
#    y 0.000000 1.671700 0.000000 
#    z -0.005490 0.000000 1.714990 
# 
# From -- ./inp_files/24848.got.cif
#   From: 2010.06.25/outbox.cif.g09.slc.cpg/sg13_13_cif.got.tgz:24848.got - 2010.06.28 04:50:58.
