data_PCOD8122342
_publ_section_title
;
Structure prediction by ZEFSAII (Michael W. Deem and Ramdas Pophale) SiO2 
 PCOD8122342
Probable space group: P 2/C
;
_chemical_formula_sum "Si O2"
_cell_formula_units_Z 20
_cell_length_a 16.266105
_cell_length_b 11.970931
_cell_length_c 9.118706
_cell_angle_alpha 90.000000
_cell_angle_beta 33.065088
_cell_angle_gamma 90.000000
_cell_volume 968.751168
_symmetry_space_group_name_H-M "P 2/C"
_symmetry_group_IT_number 13
_symmetry_cell_setting 'monoclinic'
loop_
_space_group_symop_operation_xyz
x,y,z
-x,y,1/2-z
-x,-y,-z
x,-y,1/2+z
loop_
_atom_site_type_symbol
_atom_site_label
_atom_site_fract_x
_atom_site_fract_y
_atom_site_fract_z
Si Si1 0.601281 0.584338 0.435957
Si Si2 0.828896 0.129480 0.752207
Si Si3 0.782353 0.458380 0.401359
Si Si4 0.500000 0.211604 0.250000
Si Si5 0.000000 0.001127 0.250000
Si Si6 0.987710 0.336373 0.610049
O O1 0.500000 0.500000 0.500000
O O2 0.648483 0.527385 0.520467
O O3 0.522421 0.704808 0.577535
O O4 0.740487 0.601175 0.116955
O O5 0.899929 0.069980 0.787324
O O6 0.888047 0.257085 0.655074
O O7 0.647090 0.132436 0.043532
O O8 0.879861 0.072723 0.524022
O O9 0.912202 0.544438 0.247765
O O10 0.846101 0.358028 0.204764
O O11 0.000000 0.276800 0.750000
#
# Coordination Sequence:
#
# PCOD8122342 Si02
#       6
#     4   4   4   2   2   4
#     4  12  21  38  54  91 136 179 209 248 307 378
#     4  11  24  46  70  97 123 164 215 278 334 384
#     4  11  23  35  59  93 135 176 213 249 297 376
#     4  12  26  40  68  92 136 174 212 262 330 392
#     4  10  26  48  74  92 118 158 224 288 336 378
#     4  11  21  37  64  94 130 169 218 259 304 377
#
# _framework density 20.645136000000001
#
# number of rings (size 3 to 8) (size 9 to 14) (size 15 to 20)
#    0.000    0.800    7.000    0.000    2.800    0.800 
#    0.000    0.000    0.000    0.000    0.000    0.000 
#    0.000    0.000    0.000    0.000    0.000    0.000 
#
# Total GULP energy -247910.005702 kJ/mol
# GULP energy per Si atom -12395.500285 kJ/mol
# Density = 2.059815 g / cm^3
# Si number density = 20.645136 Si / 1000 Ang^3
#
#
#
# Elastic Constant Matrix: (Units=GPa)
#
#
# Indices 1 2 3 4 5 6 
#
# 1 88.9877 24.7152 49.3532 0.0000 2.5116 0.0000
# 2 24.7152 72.3306 64.1128 0.0000 0.6404 0.0000
# 3 49.3532 64.1128 147.2845 0.0000 8.9330 0.0000
# 4 0.0000 0.0000 0.0000 38.0398 0.0000 -6.8128
# 5 2.5116 0.6404 8.9330 0.0000 46.4027 0.0000
# 6 0.0000 0.0000 0.0000 -6.8128 0.0000 22.6853
#
#
#
# Elastic Compliance Matrix: (Units=1/GPa)
#
#
# Indices 1 2 3 4 5 6 
#
# 1 0.013848 -0.001002 -0.004209 0.000000 0.000074 0.000000
# 2 -0.001002 0.022701 -0.009643 0.000000 0.001597 0.000000
# 3 -0.004209 -0.009643 0.012522 0.000000 -0.002050 0.000000
# 4 0.000000 0.000000 0.000000 0.027783 0.000000 0.008344
# 5 0.000074 0.001597 -0.002050 0.000000 0.021919 0.000000
# 6 0.000000 0.000000 0.000000 0.008344 0.000000 0.046587
#
#
# Mechanical properties :
#
#
# Convention : Reuss Voigt Hill
#
# Bulk Modulus (GPa) = 51.64330 64.99613 58.31971
# Shear Modulus (GPa) = 27.54513 32.78699 30.16606
#
# Velocity S-wave (km/s) = 3.65666 3.98945 3.82667
# Velocity P-wave (km/s) = 6.54960 7.26442 6.91625
#
# Compressibility (1/GPa) = 0.01936360
#
# Stress axis : x y z
#
# Youngs Moduli (GPa) = 72.21363 44.05112 79.86174
#
# Poissons Ratio (x) = 0.04414 0.33610
# Poissons Ratio (y) = 0.07236 0.77009
# Poissons Ratio (z) = 0.30392 0.42478
#
# Static dielectric constant tensor:
#      x y z
#    x 3.739860 0.000000 0.369900 
#    y 0.000000 3.579160 0.000000 
#    z 0.369900 0.000000 4.775010 
# 
# 
# High freq. dielectric constant tensor:
#      x y z
#    x 1.805370 0.000000 0.006440 
#    y 0.000000 1.782590 0.000000 
#    z 0.006440 0.000000 1.830710 
# 
# From -- ./inp_files/15652.got.cif
#   From: 2010.06.25/outbox.cif.g09.slc.cpg/sg13_8_cif.got.tgz:15652.got - 2010.06.28 04:50:58.
