data_PCOD8122885
_publ_section_title
;
Structure prediction by ZEFSAII (Michael W. Deem and Ramdas Pophale) SiO2 
 PCOD8122885
Probable space group: P 2/C
;
_chemical_formula_sum "Si O2"
_cell_formula_units_Z 22
_cell_length_a 11.489203
_cell_length_b 11.215668
_cell_length_c 10.303179
_cell_angle_alpha 90.000000
_cell_angle_beta 45.078104
_cell_angle_gamma 90.000000
_cell_volume 940.075008
_symmetry_space_group_name_H-M "P 2/C"
_symmetry_group_IT_number 13
_symmetry_cell_setting 'monoclinic'
loop_
_space_group_symop_operation_xyz
x,y,z
-x,y,1/2-z
-x,-y,-z
x,-y,1/2+z
loop_
_atom_site_type_symbol
_atom_site_label
_atom_site_fract_x
_atom_site_fract_y
_atom_site_fract_z
Si Si1 0.132708 0.276141 0.756881
Si Si2 0.586855 0.106805 0.060134
Si Si3 0.075007 0.303628 0.325311
Si Si4 0.682016 0.511401 0.303300
Si Si5 0.340483 0.141716 0.037194
Si Si6 0.500000 0.346319 0.750000
O O1 0.268151 0.175453 0.627159
O O2 0.219269 0.403687 0.676453
O O3 0.000000 0.262362 0.750000
O O4 0.060574 0.269980 0.960144
O O5 0.500000 0.174265 0.250000
O O6 0.432805 0.092545 0.088586
O O7 0.657174 0.976905 0.055475
O O8 0.210875 0.390540 0.286828
O O9 0.156436 0.178033 0.221297
O O10 0.000000 0.358869 0.250000
O O11 0.500000 0.500000 0.500000
O O12 0.651280 0.572570 0.185939
O O13 0.425608 0.261563 0.918036
#
# Coordination Sequence:
#
# PCOD8122885 Si02
#       6
#     4   4   4   4   4   2
#     4  12  27  44  67 106 155 186 234 298 374 429
#     4  11  24  45  74 105 141 187 252 298 347 426
#     4  12  27  47  71 108 152 191 236 297 375 440
#     4  12  26  44  74 102 137 194 245 300 347 436
#     4  11  24  45  75 101 138 190 246 296 352 433
#     4  12  22  46  74 104 134 182 250 298 358 414
#
# _framework density 23.402388999999999
#
# number of rings (size 3 to 8) (size 9 to 14) (size 15 to 20)
#    0.000    0.364    4.545    3.273    2.545    1.455 
#    1.636    0.000    0.000    0.000    0.000    0.000 
#    0.000    0.000    0.000    0.000    0.000    0.000 
#
# Total GULP energy -272569.288435 kJ/mol
# GULP energy per Si atom -12389.513111 kJ/mol
# Density = 2.334912 g / cm^3
# Si number density = 23.402389 Si / 1000 Ang^3
#
#
#
# Elastic Constant Matrix: (Units=GPa)
#
#
# Indices 1 2 3 4 5 6 
#
# 1 85.5446 13.4052 33.0288 0.0000 4.7568 0.0000
# 2 13.4052 88.7410 52.2624 0.0000 -1.2345 0.0000
# 3 33.0288 52.2624 175.6354 0.0000 2.6734 0.0000
# 4 0.0000 0.0000 0.0000 23.8518 0.0000 -0.6990
# 5 4.7568 -1.2345 2.6734 0.0000 37.8311 0.0000
# 6 0.0000 0.0000 0.0000 -0.6990 0.0000 34.1856
#
#
#
# Elastic Compliance Matrix: (Units=1/GPa)
#
#
# Indices 1 2 3 4 5 6 
#
# 1 0.012714 -0.000662 -0.002171 0.000000 -0.001467 0.000000
# 2 -0.000662 0.013718 -0.003970 0.000000 0.000811 0.000000
# 3 -0.002171 -0.003970 0.007289 0.000000 -0.000372 0.000000
# 4 0.000000 0.000000 0.000000 0.041951 0.000000 0.000858
# 5 -0.001467 0.000811 -0.000372 0.000000 0.026670 0.000000
# 6 0.000000 0.000000 0.000000 0.000858 0.000000 0.029270
#
#
# Mechanical properties :
#
#
# Convention : Reuss Voigt Hill
#
# Bulk Modulus (GPa) = 49.71732 60.81266 55.26499
# Shear Modulus (GPa) = 32.91153 35.92200 34.41677
#
# Velocity S-wave (km/s) = 3.75418 3.92212 3.83907
# Velocity P-wave (km/s) = 6.33107 6.82296 6.58161
#
# Compressibility (1/GPa) = 0.02011371
#
# Stress axis : x y z
#
# Youngs Moduli (GPa) = 78.65642 72.89700 137.19515
#
# Poissons Ratio (x) = 0.04826 0.29792
# Poissons Ratio (y) = 0.05207 0.54464
# Poissons Ratio (z) = 0.17080 0.28939
#
# Static dielectric constant tensor:
#      x y z
#    x 4.617990 0.000000 0.017620 
#    y 0.000000 4.547750 0.000000 
#    z 0.017620 0.000000 4.471260 
# 
# 
# High freq. dielectric constant tensor:
#      x y z
#    x 1.928410 0.000000 -0.005190 
#    y 0.000000 1.925130 0.000000 
#    z -0.005190 0.000000 1.935830 
# 
# From -- ./inp_files/33624.got.cif
#   From: 2010.06.25/outbox.cif.g09.slc.cpg/sg13_17_cif.got.tgz:33624.got - 2010.06.28 04:50:58.
