data_PCOD8122990
_publ_section_title
;
Structure prediction by ZEFSAII (Michael W. Deem and Ramdas Pophale) SiO2 
 PCOD8122990
Probable space group: P 2/C
;
_chemical_formula_sum "Si O2"
_cell_formula_units_Z 28
_cell_length_a 14.357752
_cell_length_b 7.873660
_cell_length_c 11.810331
_cell_angle_alpha 90.000000
_cell_angle_beta 109.096351
_cell_angle_gamma 90.000000
_cell_volume 1261.662167
_symmetry_space_group_name_H-M "P 2/C"
_symmetry_group_IT_number 13
_symmetry_cell_setting 'monoclinic'
loop_
_space_group_symop_operation_xyz
x,y,z
-x,y,1/2-z
-x,-y,-z
x,-y,1/2+z
loop_
_atom_site_type_symbol
_atom_site_label
_atom_site_fract_x
_atom_site_fract_y
_atom_site_fract_z
Si Si1 0.296329 0.700364 0.771207
Si Si2 0.198573 0.230223 0.603262
Si Si3 0.897001 0.349981 0.157964
Si Si4 0.106050 0.731046 0.305514
Si Si5 0.756225 0.117109 0.458596
Si Si6 0.390745 0.644984 0.258919
Si Si7 0.391593 0.027894 0.917831
O O1 0.194530 0.691947 0.798078
O O2 0.270290 0.718523 0.627085
O O3 0.363984 0.532148 0.811949
O O4 0.356967 0.865776 0.832375
O O5 0.123223 0.274735 0.473653
O O6 0.158846 0.296685 0.706819
O O7 0.307114 0.317416 0.629520
O O8 0.204742 0.026559 0.611913
O O9 0.908616 0.549447 0.142605
O O10 0.000000 0.276191 0.250000
O O11 0.165405 0.849496 0.412757
O O12 0.000000 0.820215 0.250000
O O13 0.662714 0.041327 0.484635
O O14 0.500000 0.633963 0.250000
O O15 0.381406 0.798168 0.344039
O O16 0.500000 0.000000 0.000000
#
# Coordination Sequence:
#
# PCOD8122990 Si02
#       7
#     4   4   4   4   4   4   4
#     4  12  26  48  75 107 148 198 245 303 374 443
#     4  12  24  48  72 104 151 187 248 308 360 444
#     4  11  26  47  75 106 147 194 247 308 372 435
#     4  11  26  45  71 106 144 197 245 304 372 434
#     4  12  24  46  72 102 148 189 248 309 361 439
#     4  12  27  47  74 109 146 192 249 304 369 441
#     4  12  27  48  72 105 150 195 245 305 373 434
#
# _framework density 22.192945999999999
#
# number of rings (size 3 to 8) (size 9 to 14) (size 15 to 20)
#    0.000    0.286    5.714    1.714    4.000    2.857 
#    0.000    0.000    0.000    0.000    0.000    0.000 
#    0.000    0.000    0.000    0.000    0.000    0.000 
#
# Total GULP energy -347234.925343 kJ/mol
# GULP energy per Si atom -12401.247334 kJ/mol
# Density = 2.214243 g / cm^3
# Si number density = 22.192946 Si / 1000 Ang^3
#
#
#
# Elastic Constant Matrix: (Units=GPa)
#
#
# Indices 1 2 3 4 5 6 
#
# 1 118.3091 36.9752 44.5345 0.0000 28.8020 0.0000
# 2 36.9752 129.9239 35.6967 0.0000 2.3081 0.0000
# 3 44.5345 35.6967 108.1822 0.0000 17.5000 0.0000
# 4 0.0000 0.0000 0.0000 26.2584 0.0000 -5.4867
# 5 28.8020 2.3081 17.5000 0.0000 39.0052 0.0000
# 6 0.0000 0.0000 0.0000 -5.4867 0.0000 29.1291
#
#
#
# Elastic Compliance Matrix: (Units=1/GPa)
#
#
# Indices 1 2 3 4 5 6 
#
# 1 0.012188 -0.002519 -0.002970 0.000000 -0.007518 0.000000
# 2 -0.002519 0.009009 -0.002319 0.000000 0.002367 0.000000
# 3 -0.002970 -0.002319 0.011704 0.000000 -0.002921 0.000000
# 4 0.000000 0.000000 0.000000 0.039643 0.000000 0.007467
# 5 -0.007518 0.002367 -0.002921 0.000000 0.032360 0.000000
# 6 0.000000 0.000000 0.000000 0.007467 0.000000 0.035736
#
#
# Mechanical properties :
#
#
# Convention : Reuss Voigt Hill
#
# Bulk Modulus (GPa) = 57.85222 65.64757 61.74989
# Shear Modulus (GPa) = 30.86104 34.82577 32.84340
#
# Velocity S-wave (km/s) = 3.73309 3.96564 3.85112
# Velocity P-wave (km/s) = 6.68623 7.11428 6.90358
#
# Compressibility (1/GPa) = 0.01728542
#
# Stress axis : x y z
#
# Youngs Moduli (GPa) = 82.04823 111.00413 85.44237
#
# Poissons Ratio (x) = 0.27962 0.25376
# Poissons Ratio (y) = 0.20668 0.19810
# Poissons Ratio (z) = 0.24368 0.25737
#
# Static dielectric constant tensor:
#      x y z
#    x 4.298560 0.000000 0.061340 
#    y 0.000000 4.234360 0.000000 
#    z 0.061340 0.000000 4.186090 
# 
# 
# High freq. dielectric constant tensor:
#      x y z
#    x 1.878710 0.000000 0.011100 
#    y 0.000000 1.885680 0.000000 
#    z 0.011100 0.000000 1.881700 
# 
# From -- ./inp_files/36496.got.cif
#   From: 2010.06.25/outbox.cif.g09.slc.cpg/sg13_19_cif.got.tgz:36496.got - 2010.06.28 04:50:58.
