data_PCOD8122197
_publ_section_title
;
Structure prediction by ZEFSAII (Michael W. Deem and Ramdas Pophale) SiO2 
 PCOD8122197
Probable space group: P 2/C
;
_chemical_formula_sum "Si O2"
_cell_formula_units_Z 20
_cell_length_a 10.800123
_cell_length_b 10.015668
_cell_length_c 11.628825
_cell_angle_alpha 90.000000
_cell_angle_beta 38.907134
_cell_angle_gamma 90.000000
_cell_volume 790.033595
_symmetry_space_group_name_H-M "P 2/C"
_symmetry_group_IT_number 13
_symmetry_cell_setting 'monoclinic'
loop_
_space_group_symop_operation_xyz
x,y,z
-x,y,1/2-z
-x,-y,-z
x,-y,1/2+z
loop_
_atom_site_type_symbol
_atom_site_label
_atom_site_fract_x
_atom_site_fract_y
_atom_site_fract_z
Si Si1 0.804802 0.759420 0.706870
Si Si2 0.500000 0.388454 0.750000
Si Si3 0.712204 0.499789 0.899209
Si Si4 0.211667 0.749898 0.286473
Si Si5 0.219052 0.013674 0.626870
Si Si6 0.500000 0.863005 0.750000
O O1 0.830857 0.617957 0.751118
O O2 0.622872 0.766564 0.747888
O O3 0.010642 0.786308 0.495825
O O4 0.768283 0.864341 0.835247
O O5 0.673499 0.477330 0.563608
O O6 0.612383 0.296253 0.759040
O O7 0.824329 0.361308 0.788766
O O8 0.500000 0.500000 0.000000
O O9 0.292327 0.885710 0.172924
O O10 0.355303 0.034294 0.417986
O O11 0.000000 0.053984 0.750000
#
# Coordination Sequence:
#
# PCOD8122197 Si02
#       6
#     4   2   4   4   4   2
#     4  12  27  47  74 109 148 195 252 303 374 441
#     4  10  24  46  78 106 156 190 248 312 368 446
#     4  10  24  46  71 112 145 193 249 298 373 444
#     4  11  25  49  75 111 148 195 250 306 371 445
#     4  12  28  50  73 111 151 195 254 307 369 443
#     4  12  26  48  78 102 154 202 240 316 372 436
#
# _framework density 25.315380000000001
#
# number of rings (size 3 to 8) (size 9 to 14) (size 15 to 20)
#    0.000    0.800    2.000    4.200    2.800    8.800 
#    3.600    0.000    0.000    0.000    0.000    0.000 
#    0.000    0.000    0.000    0.000    0.000    0.000 
#
# Total GULP energy -248030.326071 kJ/mol
# GULP energy per Si atom -12401.516304 kJ/mol
# Density = 2.525776 g / cm^3
# Si number density = 25.315380 Si / 1000 Ang^3
#
#
#
# Elastic Constant Matrix: (Units=GPa)
#
#
# Indices 1 2 3 4 5 6 
#
# 1 78.2930 -11.8891 15.7574 0.0000 -1.0317 0.0000
# 2 -11.8891 86.6943 6.5704 0.0000 6.1784 0.0000
# 3 15.7574 6.5704 146.4937 0.0000 2.1734 0.0000
# 4 0.0000 0.0000 0.0000 31.1337 0.0000 -10.6852
# 5 -1.0317 6.1784 2.1734 0.0000 37.1116 0.0000
# 6 0.0000 0.0000 0.0000 -10.6852 0.0000 8.5859
#
#
#
# Elastic Compliance Matrix: (Units=1/GPa)
#
#
# Indices 1 2 3 4 5 6 
#
# 1 0.013377 0.001940 -0.001528 0.000000 0.000138 0.000000
# 2 0.001940 0.011991 -0.000718 0.000000 -0.001900 0.000000
# 3 -0.001528 -0.000718 0.007028 0.000000 -0.000334 0.000000
# 4 0.000000 0.000000 0.000000 0.056066 0.000000 0.069775
# 5 0.000138 -0.001900 -0.000334 0.000000 0.027286 0.000000
# 6 0.000000 0.000000 0.000000 0.069775 0.000000 0.203304
#
#
# Mechanical properties :
#
#
# Convention : Reuss Voigt Hill
#
# Bulk Modulus (GPa) = 31.46303 36.92869 34.19586
# Shear Modulus (GPa) = 15.13971 35.43573 25.28772
#
# Velocity S-wave (km/s) = 2.44815 3.74541 3.16398
# Velocity P-wave (km/s) = 4.52180 5.77263 5.18507
#
# Compressibility (1/GPa) = 0.03178333
#
# Stress axis : x y z
#
# Youngs Moduli (GPa) = 74.75787 83.39760 142.29283
#
# Poissons Ratio (x) = -0.16182 0.21741
# Poissons Ratio (y) = -0.14506 0.10221
# Poissons Ratio (z) = 0.11422 0.05991
#
# Static dielectric constant tensor:
#      x y z
#    x 4.638220 0.000000 0.376810 
#    y 0.000000 4.490270 0.000000 
#    z 0.376810 0.000000 5.253010 
# 
# 
# High freq. dielectric constant tensor:
#      x y z
#    x 2.003260 0.000000 0.004330 
#    y 0.000000 2.010590 0.000000 
#    z 0.004330 0.000000 2.035420 
# 
# From -- ./inp_files/32871.got.cif
#   From: 2010.06.25/outbox.cif.g09.slc.cpg/sg13_17_cif.got.tgz:32871.got - 2010.06.28 04:50:58.
