data_PCOD8122014
_publ_section_title
;
Structure prediction by ZEFSAII (Michael W. Deem and Ramdas Pophale) SiO2 
 PCOD8122014
Probable space group: P 2/C
;
_chemical_formula_sum "Si O2"
_cell_formula_units_Z 20
_cell_length_a 8.654886
_cell_length_b 15.734063
_cell_length_c 8.750612
_cell_angle_alpha 90.000000
_cell_angle_beta 131.682470
_cell_angle_gamma 90.000000
_cell_volume 889.957384
_symmetry_space_group_name_H-M "P 2/C"
_symmetry_group_IT_number 13
_symmetry_cell_setting 'monoclinic'
loop_
_space_group_symop_operation_xyz
x,y,z
-x,y,1/2-z
-x,-y,-z
x,-y,1/2+z
loop_
_atom_site_type_symbol
_atom_site_label
_atom_site_fract_x
_atom_site_fract_y
_atom_site_fract_z
Si Si1 0.000000 0.465318 0.250000
Si Si2 0.054447 0.911529 0.962201
Si Si3 0.500000 0.147024 0.750000
Si Si4 0.166645 0.745949 0.550045
Si Si5 0.828533 0.607037 0.344725
Si Si6 0.479348 0.724930 0.495834
O O1 0.143881 0.520996 0.233285
O O2 0.148659 0.408699 0.457416
O O3 0.000000 0.910724 0.750000
O O4 0.935688 0.834030 0.965551
O O5 0.299557 0.908642 0.150821
O O6 0.000000 0.000000 0.000000
O O7 0.444594 0.203119 0.567758
O O8 0.298346 0.763315 0.484139
O O9 0.993889 0.676781 0.400286
O O10 0.316723 0.701693 0.773728
O O11 0.602131 0.643490 0.153757
#
# Coordination Sequence:
#
# PCOD8122014 Si02
#       6
#     2   4   2   4   4   4
#     4  10  24  40  70 104 144 192 244 298 360 428
#     4  12  29  48  73 108 146 185 236 297 356 423
#     4  12  26  44  76 108 136 188 238 286 362 420
#     4  11  24  46  72 103 142 194 240 288 362 428
#     4  11  22  45  69 101 145 192 236 303 355 424
#     4  11  24  42  74 102 137 190 243 289 349 435
#
# _framework density 22.472985000000001
#
# number of rings (size 3 to 8) (size 9 to 14) (size 15 to 20)
#    0.000    0.800    6.000    0.000    7.000    2.400 
#    0.000    6.000    0.000    0.000    0.000    0.000 
#    0.000    0.000    0.000    0.000    0.000    0.000 
#
# Total GULP energy -248023.522526 kJ/mol
# GULP energy per Si atom -12401.176126 kJ/mol
# Density = 2.242184 g / cm^3
# Si number density = 22.472985 Si / 1000 Ang^3
#
#
#
# Elastic Constant Matrix: (Units=GPa)
#
#
# Indices 1 2 3 4 5 6 
#
# 1 59.9170 25.8596 31.1376 0.0000 -4.8829 0.0000
# 2 25.8596 98.4186 44.1389 0.0000 6.1839 0.0000
# 3 31.1376 44.1389 138.0222 0.0000 0.7939 0.0000
# 4 0.0000 0.0000 0.0000 33.6242 0.0000 -11.5733
# 5 -4.8829 6.1839 0.7939 0.0000 45.9362 0.0000
# 6 0.0000 0.0000 0.0000 -11.5733 0.0000 113.8626
#
#
#
# Elastic Compliance Matrix: (Units=1/GPa)
#
#
# Indices 1 2 3 4 5 6 
#
# 1 0.020386 -0.004040 -0.003323 0.000000 0.002768 0.000000
# 2 -0.004040 0.012771 -0.003161 0.000000 -0.002094 0.000000
# 3 -0.003323 -0.003161 0.009006 0.000000 -0.000083 0.000000
# 4 0.000000 0.000000 0.000000 0.030819 0.000000 0.003132
# 5 0.002768 -0.002094 -0.000083 0.000000 0.022347 0.000000
# 6 0.000000 0.000000 0.000000 0.003132 0.000000 0.009101
#
#
# Mechanical properties :
#
#
# Convention : Reuss Voigt Hill
#
# Bulk Modulus (GPa) = 47.35784 55.40332 51.38058
# Shear Modulus (GPa) = 37.73130 51.69938 44.71534
#
# Velocity S-wave (km/s) = 4.10196 4.80157 4.46549
# Velocity P-wave (km/s) = 6.59953 7.44627 7.03565
#
# Compressibility (1/GPa) = 0.02111583
#
# Stress axis : x y z
#
# Youngs Moduli (GPa) = 49.05353 78.30037 111.03550
#
# Poissons Ratio (x) = 0.31634 0.36896
# Poissons Ratio (y) = 0.19818 0.35095
# Poissons Ratio (z) = 0.16300 0.24749
#
# Static dielectric constant tensor:
#      x y z
#    x 4.072780 0.000000 -0.092200 
#    y 0.000000 3.946200 0.000000 
#    z -0.092200 0.000000 4.472620 
# 
# 
# High freq. dielectric constant tensor:
#      x y z
#    x 1.891290 0.000000 -0.010040 
#    y 0.000000 1.869650 0.000000 
#    z -0.010040 0.000000 1.913630 
# 
# From -- ./inp_files/13184.got.cif
#   From: 2010.06.25/outbox.cif.g09.slc.cpg/sg13_7_cif.got.tgz:13184.got - 2010.06.28 04:50:58.
