data_PCOD8122242
_publ_section_title
;
Structure prediction by ZEFSAII (Michael W. Deem and Ramdas Pophale) SiO2 
 PCOD8122242
Probable space group: P 2/C
;
_chemical_formula_sum "Si O2"
_cell_formula_units_Z 32
_cell_length_a 30.461699
_cell_length_b 8.840600
_cell_length_c 12.256909
_cell_angle_alpha 90.000000
_cell_angle_beta 25.949366
_cell_angle_gamma 90.000000
_cell_volume 1444.345187
_symmetry_space_group_name_H-M "P 2/C"
_symmetry_group_IT_number 13
_symmetry_cell_setting 'monoclinic'
loop_
_space_group_symop_operation_xyz
x,y,z
-x,y,1/2-z
-x,-y,-z
x,-y,1/2+z
loop_
_atom_site_type_symbol
_atom_site_label
_atom_site_fract_x
_atom_site_fract_y
_atom_site_fract_z
Si Si1 0.112794 0.293030 0.524970
Si Si2 0.765430 0.049199 0.368920
Si Si3 0.336130 0.296122 0.780469
Si Si4 0.760708 0.532085 0.374961
Si Si5 0.445922 0.691008 0.682423
Si Si6 0.197461 0.223185 0.559001
Si Si7 0.639119 0.899478 0.469366
Si Si8 0.413949 0.205663 0.017305
O O1 0.179441 0.444793 0.354041
O O2 0.115592 0.243785 0.646905
O O3 0.000000 0.338078 0.750000
O O4 0.143548 0.152215 0.378980
O O5 0.798900 0.947174 0.398964
O O6 0.727892 0.947768 0.352656
O O7 0.673839 0.158569 0.609787
O O8 0.444145 0.385055 0.550915
O O9 0.313261 0.231220 0.712549
O O10 0.252105 0.419172 0.993955
O O11 0.649415 0.582376 0.581967
O O12 0.821861 0.671457 0.291478
O O13 0.444667 0.780558 0.572726
O O14 0.450130 0.824247 0.762262
O O15 0.300675 0.270641 0.263725
O O16 0.591459 0.031909 0.505614
O O17 0.500000 0.287451 0.750000
#
# Coordination Sequence:
#
# PCOD8122242 Si02
#       8
#     4   4   4   4   4   4   4   4
#     4  11  26  47  73  97 122 167 219 277 345 397
#     4  11  21  42  68  94 132 161 216 276 323 388
#     4  11  22  36  59  91 130 180 215 259 308 380
#     4  10  25  43  62  89 134 172 215 265 318 392
#     4  11  23  38  56  91 135 174 224 257 311 381
#     4  11  23  44  66  96 134 169 212 275 330 380
#     4  12  20  35  59  94 128 171 214 263 310 376
#     4  11  21  34  58  92 130 178 209 255 316 378
#
# _framework density 22.155369
#
# number of rings (size 3 to 8) (size 9 to 14) (size 15 to 20)
#    0.000    1.000    5.000    2.250    3.500    2.500 
#    0.000    0.625    0.000    0.000    0.000    0.000 
#    0.000    0.000    0.000    0.000    0.000    0.000 
#
# Total GULP energy -396510.650404 kJ/mol
# GULP energy per Si atom -12390.957825 kJ/mol
# Density = 2.210494 g / cm^3
# Si number density = 22.155369 Si / 1000 Ang^3
#
#
#
# Elastic Constant Matrix: (Units=GPa)
#
#
# Indices 1 2 3 4 5 6 
#
# 1 76.4569 23.3897 28.9839 0.0000 0.2129 0.0000
# 2 23.3897 63.9790 24.8749 0.0000 -2.7477 0.0000
# 3 28.9839 24.8749 67.8388 0.0000 -0.8759 0.0000
# 4 0.0000 0.0000 0.0000 21.1117 0.0000 10.4479
# 5 0.2129 -2.7477 -0.8759 0.0000 27.7372 0.0000
# 6 0.0000 0.0000 0.0000 10.4479 0.0000 25.2213
#
#
#
# Elastic Compliance Matrix: (Units=1/GPa)
#
#
# Indices 1 2 3 4 5 6 
#
# 1 0.016378 -0.003840 -0.005598 0.000000 -0.000683 0.000000
# 2 -0.003840 0.019200 -0.005377 0.000000 0.001762 0.000000
# 3 -0.005598 -0.005377 0.019106 0.000000 0.000114 0.000000
# 4 0.000000 0.000000 0.000000 0.059582 0.000000 -0.024682
# 5 -0.000683 0.001762 0.000114 0.000000 0.036236 0.000000
# 6 0.000000 0.000000 0.000000 -0.024682 0.000000 0.049873
#
#
# Mechanical properties :
#
#
# Convention : Reuss Voigt Hill
#
# Bulk Modulus (GPa) = 39.91465 40.30799 40.11132
# Shear Modulus (GPa) = 20.97694 23.54911 22.26303
#
# Velocity S-wave (km/s) = 3.08037 3.26376 3.17339
# Velocity P-wave (km/s) = 5.54134 5.69523 5.61881
#
# Compressibility (1/GPa) = 0.02505346
#
# Stress axis : x y z
#
# Youngs Moduli (GPa) = 61.05670 52.08267 52.34066
#
# Poissons Ratio (x) = 0.20002 0.29301
# Poissons Ratio (y) = 0.23448 0.28142
# Poissons Ratio (z) = 0.34181 0.28004
#
# Static dielectric constant tensor:
#      x y z
#    x 3.883360 0.000000 0.332260 
#    y 0.000000 4.116740 0.000000 
#    z 0.332260 0.000000 3.943940 
# 
# 
# High freq. dielectric constant tensor:
#      x y z
#    x 1.865130 0.000000 0.028480 
#    y 0.000000 1.875010 0.000000 
#    z 0.028480 0.000000 1.844640 
# 
# From -- ./inp_files/42747.got.cif
#   From: 2010.06.25/outbox.cif.g09.slc.cpg/sg13_22_cif.got.tgz:42747.got - 2010.06.28 04:50:58.
