data_PCOD8122335
_publ_section_title
;
Structure prediction by ZEFSAII (Michael W. Deem and Ramdas Pophale) SiO2 
 PCOD8122335
Probable space group: P 2/C
;
_chemical_formula_sum "Si O2"
_cell_formula_units_Z 18
_cell_length_a 6.149217
_cell_length_b 6.974927
_cell_length_c 18.919040
_cell_angle_alpha 90.000000
_cell_angle_beta 100.122303
_cell_angle_gamma 90.000000
_cell_volume 798.813797
_symmetry_space_group_name_H-M "P 2/C"
_symmetry_group_IT_number 13
_symmetry_cell_setting 'monoclinic'
loop_
_space_group_symop_operation_xyz
x,y,z
-x,y,1/2-z
-x,-y,-z
x,-y,1/2+z
loop_
_atom_site_type_symbol
_atom_site_label
_atom_site_fract_x
_atom_site_fract_y
_atom_site_fract_z
Si Si1 0.941724 0.101380 0.570588
Si Si2 0.218194 0.228010 0.354814
Si Si3 0.397959 0.313353 0.024867
Si Si4 0.855551 0.510195 0.373331
Si Si5 0.500000 0.635696 0.750000
O O1 0.697349 0.188716 0.544975
O O2 0.113624 0.269410 0.601162
O O3 0.938489 0.954841 0.637371
O O4 0.000000 0.000000 0.500000
O O5 0.411533 0.202658 0.423104
O O6 0.330800 0.227407 0.283842
O O7 0.079623 0.426148 0.351570
O O8 0.192269 0.373125 0.062763
O O9 0.500000 0.500000 0.000000
O O10 0.643635 0.500857 0.309309
#
# Coordination Sequence:
#
# PCOD8122335 Si02
#       5
#     4   4   4   4   2
#     4  12  23  41  76 109 138 173 224 290 361 406
#     4  11  23  44  70  98 136 180 230 287 335 410
#     4  11  21  40  71 103 139 171 216 276 352 413
#     4  11  23  45  69  98 138 187 221 287 339 413
#     4  10  26  48  70  86 138 194 242 274 338 408
#
# _framework density 22.533411999999998
#
# number of rings (size 3 to 8) (size 9 to 14) (size 15 to 20)
#    0.000    0.889    4.444    3.333    0.000    0.000 
#    0.000    6.667    0.000    0.000    0.000    0.000 
#    0.000    0.000    0.000    0.000    0.000    0.000 
#
# Total GULP energy -223149.366105 kJ/mol
# GULP energy per Si atom -12397.187006 kJ/mol
# Density = 2.248213 g / cm^3
# Si number density = 22.533412 Si / 1000 Ang^3
#
#
#
# Elastic Constant Matrix: (Units=GPa)
#
#
# Indices 1 2 3 4 5 6 
#
# 1 91.7779 40.4519 36.0371 0.0000 -10.0434 0.0000
# 2 40.4519 130.7980 48.9615 0.0000 -3.3769 0.0000
# 3 36.0371 48.9615 98.5393 0.0000 -6.6824 0.0000
# 4 0.0000 0.0000 0.0000 26.4512 0.0000 -0.6091
# 5 -10.0434 -3.3769 -6.6824 0.0000 48.7007 0.0000
# 6 0.0000 0.0000 0.0000 -0.6091 0.0000 44.1519
#
#
#
# Elastic Compliance Matrix: (Units=1/GPa)
#
#
# Indices 1 2 3 4 5 6 
#
# 1 0.013768 -0.002914 -0.003440 0.000000 0.002165 0.000000
# 2 -0.002914 0.010009 -0.003938 0.000000 -0.000447 0.000000
# 3 -0.003440 -0.003938 0.013421 0.000000 0.000859 0.000000
# 4 0.000000 0.000000 0.000000 0.037818 0.000000 0.000522
# 5 0.002165 -0.000447 0.000859 0.000000 0.021067 0.000000
# 6 0.000000 0.000000 0.000000 0.000522 0.000000 0.022656
#
#
# Mechanical properties :
#
#
# Convention : Reuss Voigt Hill
#
# Bulk Modulus (GPa) = 60.19141 63.55735 61.87438
# Shear Modulus (GPa) = 34.51555 36.90507 35.71031
#
# Velocity S-wave (km/s) = 3.91800 4.05136 3.98524
# Velocity P-wave (km/s) = 6.87297 7.08179 6.97816
#
# Compressibility (1/GPa) = 0.01661367
#
# Stress axis : x y z
#
# Youngs Moduli (GPa) = 72.63115 99.90816 74.50878
#
# Poissons Ratio (x) = 0.29117 0.25633
# Poissons Ratio (y) = 0.21168 0.29340
# Poissons Ratio (z) = 0.24987 0.39342
#
# Static dielectric constant tensor:
#      x y z
#    x 3.964380 0.000000 -0.177380 
#    y 0.000000 3.697510 0.000000 
#    z -0.177380 0.000000 3.645170 
# 
# 
# High freq. dielectric constant tensor:
#      x y z
#    x 1.902950 0.000000 0.000010 
#    y 0.000000 1.876050 0.000000 
#    z 0.000010 0.000000 1.879020 
# 
# From -- ./inp_files/82970.got.cif
#   From: 2010.06.25/outbox.cif.g09.slc.cpg/sg13_42_cif.got.tgz:82970.got - 2010.06.28 04:50:58.
