data_PCOD8122130
_publ_section_title
;
Structure prediction by ZEFSAII (Michael W. Deem and Ramdas Pophale) SiO2 
 PCOD8122130
Probable space group: P 2/C
;
_chemical_formula_sum "Si O2"
_cell_formula_units_Z 28
_cell_length_a 9.209558
_cell_length_b 14.059057
_cell_length_c 11.087086
_cell_angle_alpha 90.000000
_cell_angle_beta 60.052161
_cell_angle_gamma 90.000000
_cell_volume 1243.858723
_symmetry_space_group_name_H-M "P 2/C"
_symmetry_group_IT_number 13
_symmetry_cell_setting 'monoclinic'
loop_
_space_group_symop_operation_xyz
x,y,z
-x,y,1/2-z
-x,-y,-z
x,-y,1/2+z
loop_
_atom_site_type_symbol
_atom_site_label
_atom_site_fract_x
_atom_site_fract_y
_atom_site_fract_z
Si Si1 0.415225 0.047228 0.921132
Si Si2 0.296003 0.185103 0.686092
Si Si3 0.000000 0.316545 0.250000
Si Si4 0.106669 0.170792 0.006272
Si Si5 0.550112 0.621160 0.359700
Si Si6 0.319875 0.424713 0.154130
Si Si7 0.246619 0.867117 0.938270
Si Si8 0.500000 0.288398 0.250000
O O1 0.562024 0.117023 0.811067
O O2 0.243499 0.105343 0.018007
O O3 0.358314 0.960129 0.857735
O O4 0.500000 0.000000 0.000000
O O5 0.163429 0.203191 0.848394
O O6 0.370902 0.285822 0.610220
O O7 0.219103 0.139150 0.595563
O O8 0.916981 0.257795 0.392729
O O9 0.863685 0.384992 0.246851
O O10 0.928691 0.118943 0.059360
O O11 0.500000 0.657758 0.250000
O O12 0.681161 0.533567 0.299721
O O13 0.379626 0.581216 0.490756
O O14 0.457710 0.358152 0.159036
O O15 0.338812 0.774695 0.848992
#
# Coordination Sequence:
#
# PCOD8122130 Si02
#       8
#     4   4   2   4   4   4   4   2
#     4  10  24  44  70 100 136 184 232 278 339 422
#     4  11  23  45  70  99 135 183 229 281 347 416
#     4  12  26  46  66 104 140 180 220 306 346 410
#     4  12  25  45  67  98 143 178 228 290 348 402
#     4  11  22  42  73  97 130 187 231 284 341 427
#     4  11  24  44  69 101 135 175 238 278 352 421
#     4  11  25  44  71  99 139 178 232 284 344 412
#     4  12  22  46  72  96 138 186 226 280 344 424
#
# _framework density 22.510596
#
# number of rings (size 3 to 8) (size 9 to 14) (size 15 to 20)
#    0.000    0.857    3.571    3.857    4.000    0.000 
#   10.286    1.429    0.000    0.000    0.000    0.000 
#    0.000    0.000    0.000    0.000    0.000    0.000 
#
# Total GULP energy -347053.012393 kJ/mol
# GULP energy per Si atom -12394.750443 kJ/mol
# Density = 2.245936 g / cm^3
# Si number density = 22.510596 Si / 1000 Ang^3
#
#
#
# Elastic Constant Matrix: (Units=GPa)
#
#
# Indices 1 2 3 4 5 6 
#
# 1 128.4002 37.6421 17.1417 0.0000 -14.5274 0.0000
# 2 37.6421 136.9956 17.2353 0.0000 -13.0254 0.0000
# 3 17.1417 17.2353 85.0761 0.0000 -1.7617 0.0000
# 4 0.0000 0.0000 0.0000 24.2059 0.0000 -4.8783
# 5 -14.5274 -13.0254 -1.7617 0.0000 28.2192 0.0000
# 6 0.0000 0.0000 0.0000 -4.8783 0.0000 32.3816
#
#
#
# Elastic Compliance Matrix: (Units=1/GPa)
#
#
# Indices 1 2 3 4 5 6 
#
# 1 0.008947 -0.001946 -0.001333 0.000000 0.003624 0.000000
# 2 -0.001946 0.008247 -0.001222 0.000000 0.002729 0.000000
# 3 -0.001333 -0.001222 0.012260 0.000000 -0.000485 0.000000
# 4 0.000000 0.000000 0.000000 0.042606 0.000000 0.006419
# 5 0.003624 0.002729 -0.000485 0.000000 0.038532 0.000000
# 6 0.000000 0.000000 0.000000 0.006419 0.000000 0.031849
#
#
# Mechanical properties :
#
#
# Convention : Reuss Voigt Hill
#
# Bulk Modulus (GPa) = 48.89631 54.94558 51.92094
# Shear Modulus (GPa) = 31.59335 35.52485 33.55910
#
# Velocity S-wave (km/s) = 3.75038 3.97689 3.86529
# Velocity P-wave (km/s) = 6.36572 6.74902 6.56017
#
# Compressibility (1/GPa) = 0.02045144
#
# Stress axis : x y z
#
# Youngs Moduli (GPa) = 111.77310 121.25035 81.56337
#
# Poissons Ratio (x) = 0.23594 0.10875
# Poissons Ratio (y) = 0.21750 0.09969
# Poissons Ratio (z) = 0.14904 0.14820
#
# Static dielectric constant tensor:
#      x y z
#    x 4.188280 0.000000 -0.022430 
#    y 0.000000 4.238070 0.000000 
#    z -0.022430 0.000000 3.920420 
# 
# 
# High freq. dielectric constant tensor:
#      x y z
#    x 1.888850 0.000000 0.007970 
#    y 0.000000 1.897360 0.000000 
#    z 0.007970 0.000000 1.885670 
# 
# From -- ./inp_files/30341.got.cif
#   From: 2010.06.25/outbox.cif.g09.slc.cpg/sg13_16_cif.got.tgz:30341.got - 2010.06.28 04:50:58.
