data_PCOD8122513
_publ_section_title
;
Structure prediction by ZEFSAII (Michael W. Deem and Ramdas Pophale) SiO2 
 PCOD8122513
Probable space group: P 2/C
;
_chemical_formula_sum "Si O2"
_cell_formula_units_Z 32
_cell_length_a 11.221780
_cell_length_b 18.200615
_cell_length_c 13.427180
_cell_angle_alpha 90.000000
_cell_angle_beta 146.694100
_cell_angle_gamma 90.000000
_cell_volume 1505.882522
_symmetry_space_group_name_H-M "P 2/C"
_symmetry_group_IT_number 13
_symmetry_cell_setting 'monoclinic'
loop_
_space_group_symop_operation_xyz
x,y,z
-x,y,1/2-z
-x,-y,-z
x,-y,1/2+z
loop_
_atom_site_type_symbol
_atom_site_label
_atom_site_fract_x
_atom_site_fract_y
_atom_site_fract_z
Si Si1 0.835982 0.330223 0.836701
Si Si2 0.817789 0.832428 0.700921
Si Si3 0.981036 0.085887 0.501643
Si Si4 0.702837 0.835777 0.963135
Si Si5 0.662580 0.830223 0.163299
Si Si6 0.477750 0.585886 0.498357
Si Si7 0.276568 0.664223 0.536865
Si Si8 0.084053 0.332428 0.200921
O O1 0.767596 0.250000 0.750000
O O2 0.628333 0.383023 0.676782
O O3 0.059560 0.360083 0.942814
O O4 0.879375 0.336382 0.984580
O O5 0.589784 0.836382 0.484579
O O6 0.832783 0.750000 0.750000
O O7 0.000000 0.855442 0.750000
O O8 0.835761 0.883378 0.810288
O O9 0.225231 0.116977 0.676782
O O10 0.889811 0.113924 0.544909
O O11 0.000000 0.000000 0.500000
O O12 0.500000 0.849524 0.750000
O O13 0.759995 0.750000 0.009995
O O14 0.673933 0.860083 0.057187
O O15 0.500000 0.500000 0.500000
O O16 0.299993 0.613924 0.455091
O O17 0.715185 0.616622 0.689712
O O18 0.500000 0.650477 0.750000
O O19 0.000000 0.355442 0.250000
#
# Coordination Sequence:
#
# PCOD8122513 Si02
#       8
#     4   4   4   4   4   4   4   4
#     4  12  23  43  77 104 134 189 256 297 356 439
#     4  11  24  46  69  97 142 193 242 290 350 449
#     4  12  27  45  67 110 149 182 233 311 376 416
#     4  11  21  41  76 105 138 180 241 307 358 427
#     4  12  23  43  77 104 134 189 256 297 356 439
#     4  12  27  45  67 110 149 182 233 311 376 416
#     4  11  21  41  76 105 138 180 241 307 358 427
#     4  11  24  46  69  97 142 193 242 290 350 449
#
# _framework density 21.249997
#
# number of rings (size 3 to 8) (size 9 to 14) (size 15 to 20)
#    0.000    0.500    7.500    0.750    0.000    4.000 
#    4.500    0.000    0.000    0.000    0.000    0.000 
#    0.000    0.000    0.000    0.000    0.000    0.000 
#
# Total GULP energy -396649.910515 kJ/mol
# GULP energy per Si atom -12395.309704 kJ/mol
# Density = 2.120163 g / cm^3
# Si number density = 21.249997 Si / 1000 Ang^3
#
#
#
# Elastic Constant Matrix: (Units=GPa)
#
#
# Indices 1 2 3 4 5 6 
#
# 1 98.0165 36.9216 29.4044 0.0000 0.2670 0.0000
# 2 36.9216 124.3275 38.4938 0.0000 -0.1016 0.0000
# 3 29.4044 38.4938 163.2060 0.0000 -4.4811 0.0000
# 4 0.0000 0.0000 0.0000 30.2995 0.0000 -0.7038
# 5 0.2670 -0.1016 -4.4811 0.0000 32.5479 0.0000
# 6 0.0000 0.0000 0.0000 -0.7038 0.0000 19.4093
#
#
#
# Elastic Compliance Matrix: (Units=1/GPa)
#
#
# Indices 1 2 3 4 5 6 
#
# 1 0.011779 -0.003062 -0.001408 0.000000 -0.000300 0.000000
# 2 -0.003062 0.009475 -0.001688 0.000000 -0.000178 0.000000
# 3 -0.001408 -0.001688 0.006805 0.000000 0.000943 0.000000
# 4 0.000000 0.000000 0.000000 0.033032 0.000000 0.001198
# 5 -0.000300 -0.000178 0.000943 0.000000 0.030856 0.000000
# 6 0.000000 0.000000 0.000000 0.001198 0.000000 0.051565
#
#
# Mechanical properties :
#
#
# Convention : Reuss Voigt Hill
#
# Bulk Modulus (GPa) = 63.52286 66.13217 64.82752
# Shear Modulus (GPa) = 31.04123 35.16669 33.10396
#
# Velocity S-wave (km/s) = 3.82614 4.07246 3.95122
# Velocity P-wave (km/s) = 7.03400 7.30081 7.16865
#
# Compressibility (1/GPa) = 0.01574236
#
# Stress axis : x y z
#
# Youngs Moduli (GPa) = 84.89571 105.53900 146.95176
#
# Poissons Ratio (x) = 0.32319 0.20693
# Poissons Ratio (y) = 0.25998 0.24805
# Poissons Ratio (z) = 0.11955 0.17815
#
# Static dielectric constant tensor:
#      x y z
#    x 3.803330 0.000000 0.016960 
#    y 0.000000 3.569640 0.000000 
#    z 0.016960 0.000000 3.540990 
# 
# 
# High freq. dielectric constant tensor:
#      x y z
#    x 1.825930 0.000000 -0.002550 
#    y 0.000000 1.799340 0.000000 
#    z -0.002550 0.000000 1.865420 
# 
# From -- ./inp_files/51659.got.cif
#   From: 2010.06.25/outbox.cif.g09.slc.cpg/sg13_26_cif.got.tgz:51659.got - 2010.06.28 04:50:58.
