data_PCOD8122280
_publ_section_title
;
Structure prediction by ZEFSAII (Michael W. Deem and Ramdas Pophale) SiO2 
 PCOD8122280
Probable space group: P 2/C
;
_chemical_formula_sum "Si O2"
_cell_formula_units_Z 26
_cell_length_a 11.829968
_cell_length_b 5.517464
_cell_length_c 20.930319
_cell_angle_alpha 90.000000
_cell_angle_beta 56.527244
_cell_angle_gamma 90.000000
_cell_volume 1139.572940
_symmetry_space_group_name_H-M "P 2/C"
_symmetry_group_IT_number 13
_symmetry_cell_setting 'monoclinic'
loop_
_space_group_symop_operation_xyz
x,y,z
-x,y,1/2-z
-x,-y,-z
x,-y,1/2+z
loop_
_atom_site_type_symbol
_atom_site_label
_atom_site_fract_x
_atom_site_fract_y
_atom_site_fract_z
Si Si1 0.500000 0.529498 0.750000
Si Si2 0.476402 0.621105 0.897940
Si Si3 0.774932 0.673385 0.439562
Si Si4 0.995545 0.352403 0.321917
Si Si5 0.768592 0.285517 0.715560
Si Si6 0.369061 0.110427 0.626691
Si Si7 0.989693 0.046486 0.576474
O O1 0.459755 0.677126 0.826906
O O2 0.630500 0.375970 0.727766
O O3 0.560874 0.376029 0.885060
O O4 0.538320 0.870842 0.906829
O O5 0.336474 0.564364 0.977664
O O6 0.848856 0.483916 0.369509
O O7 0.709875 0.883084 0.415768
O O8 0.892440 0.765249 0.448266
O O9 0.000000 0.227532 0.250000
O O10 0.129414 0.518125 0.286139
O O11 0.991946 0.177660 0.382853
O O12 0.734405 0.087354 0.781434
O O13 0.841505 0.153634 0.634499
O O14 0.000000 0.000000 0.500000
#
# Coordination Sequence:
#
# PCOD8122280 Si02
#       7
#     2   4   4   4   4   4   4
#     4  10  26  46  72 100 148 202 234 314 370 470
#     4  11  27  44  74 107 151 189 253 300 384 438
#     4  11  26  44  72 103 145 186 253 310 379 433
#     4  11  25  46  76 103 145 196 253 312 373 449
#     4  10  25  46  68 106 144 187 262 297 381 444
#     4  11  25  46  73 110 141 197 243 321 358 457
#     4  11  29  42  72 105 148 196 245 315 374 458
#
# _framework density 22.815564999999999
#
# number of rings (size 3 to 8) (size 9 to 14) (size 15 to 20)
#    0.000    1.231    1.538    0.923   15.077    4.923 
#    0.000    0.000    0.000    0.000    0.000    0.000 
#    0.000    0.000    0.000    0.000    0.000    0.000 
#
# Total GULP energy -322147.443330 kJ/mol
# GULP energy per Si atom -12390.286282 kJ/mol
# Density = 2.276364 g / cm^3
# Si number density = 22.815565 Si / 1000 Ang^3
#
#
#
# Elastic Constant Matrix: (Units=GPa)
#
#
# Indices 1 2 3 4 5 6 
#
# 1 98.2102 20.3578 75.8284 0.0000 -15.2339 0.0000
# 2 20.3578 86.0490 30.8941 0.0000 -2.8552 0.0000
# 3 75.8284 30.8941 181.5345 0.0000 14.3174 0.0000
# 4 0.0000 0.0000 0.0000 40.5522 0.0000 15.3605
# 5 -15.2339 -2.8552 14.3174 0.0000 37.8601 0.0000
# 6 0.0000 0.0000 0.0000 15.3605 0.0000 8.8398
#
#
#
# Elastic Compliance Matrix: (Units=1/GPa)
#
#
# Indices 1 2 3 4 5 6 
#
# 1 0.018504 -0.001017 -0.008388 0.000000 0.010541 0.000000
# 2 -0.001017 0.012551 -0.001808 0.000000 0.001221 0.000000
# 3 -0.008388 -0.001808 0.009892 0.000000 -0.007252 0.000000
# 4 0.000000 0.000000 0.000000 0.072146 0.000000 -0.125366
# 5 0.010541 0.001221 -0.007252 0.000000 0.033489 0.000000
# 6 0.000000 0.000000 0.000000 -0.125366 0.000000 0.330970
#
#
# Mechanical properties :
#
#
# Convention : Reuss Voigt Hill
#
# Bulk Modulus (GPa) = 53.98592 68.88382 61.43487
# Shear Modulus (GPa) = 9.87847 33.36464 21.62155
#
# Velocity S-wave (km/s) = 2.08305 3.82823 3.08176
# Velocity P-wave (km/s) = 5.43127 7.05674 6.29668
#
# Compressibility (1/GPa) = 0.01852335
#
# Stress axis : x y z
#
# Youngs Moduli (GPa) = 54.04195 79.67279 101.09403
#
# Poissons Ratio (x) = 0.08100 0.84794
# Poissons Ratio (y) = 0.05494 0.18275
# Poissons Ratio (z) = 0.45329 0.14402
#
# Static dielectric constant tensor:
#      x y z
#    x 4.247860 0.000000 0.062200 
#    y 0.000000 6.103420 0.000000 
#    z 0.062200 0.000000 4.781470 
# 
# 
# High freq. dielectric constant tensor:
#      x y z
#    x 1.910510 0.000000 -0.005190 
#    y 0.000000 1.879710 0.000000 
#    z -0.005190 0.000000 1.932300 
# 
# From -- ./inp_files/77420.got.cif
#   From: 2010.06.25/outbox.cif.g09.slc.cpg/sg13_39_cif.got.tgz:77420.got - 2010.06.28 04:50:58.
