data_PCOD8122250
_publ_section_title
;
Structure prediction by ZEFSAII (Michael W. Deem and Ramdas Pophale) SiO2 
 PCOD8122250
Probable space group: P 2/C
;
_chemical_formula_sum "Si O2"
_cell_formula_units_Z 22
_cell_length_a 21.311415
_cell_length_b 6.494863
_cell_length_c 13.214658
_cell_angle_alpha 90.000000
_cell_angle_beta 149.202795
_cell_angle_gamma 90.000000
_cell_volume 936.502597
_symmetry_space_group_name_H-M "P 2/C"
_symmetry_group_IT_number 13
_symmetry_cell_setting 'monoclinic'
loop_
_space_group_symop_operation_xyz
x,y,z
-x,y,1/2-z
-x,-y,-z
x,-y,1/2+z
loop_
_atom_site_type_symbol
_atom_site_label
_atom_site_fract_x
_atom_site_fract_y
_atom_site_fract_z
Si Si1 0.000000 0.757999 0.750000
Si Si2 0.866561 0.615684 0.981591
Si Si3 0.095086 0.865831 0.268864
Si Si4 0.605590 0.672906 0.535231
Si Si5 0.509447 0.250331 0.112998
Si Si6 0.330705 0.947329 0.490769
O O1 0.913682 0.615796 0.561375
O O2 0.920663 0.902682 0.712993
O O3 0.740606 0.590871 0.748496
O O4 0.845214 0.722913 0.061131
O O5 0.966511 0.756883 0.058412
O O6 0.186610 0.896043 0.301084
O O7 0.505805 0.492587 0.379730
O O8 0.551749 0.796733 0.557615
O O9 0.627801 0.813535 0.466404
O O10 0.603422 0.141470 0.319188
O O11 0.374175 0.158749 0.946621
#
# Coordination Sequence:
#
# PCOD8122250 Si02
#       6
#     2   4   4   4   4   4
#     4   8  18  36  62  96 128 174 202 260 336 380
#     4   9  19  38  64  95 131 168 212 264 325 390
#     4   9  19  38  64  96 129 167 213 266 329 380
#     4  11  23  44  68  95 132 172 222 270 324 395
#     4  10  25  44  62  96 132 174 219 270 326 385
#     4  11  23  43  66  94 132 170 221 274 324 382
#
# _framework density 23.491658999999999
#
# number of rings (size 3 to 8) (size 9 to 14) (size 15 to 20)
#    0.000    2.545    1.818    0.545    0.000    9.455 
#   13.091    1.818    0.000    0.000    0.000    0.000 
#    0.000    0.000    0.000    0.000    0.000    0.000 
#
# Total GULP energy -272537.400064 kJ/mol
# GULP energy per Si atom -12388.063639 kJ/mol
# Density = 2.343819 g / cm^3
# Si number density = 23.491659 Si / 1000 Ang^3
#
#
#
# Elastic Constant Matrix: (Units=GPa)
#
#
# Indices 1 2 3 4 5 6 
#
# 1 114.8239 22.1351 29.4289 0.0000 29.0027 0.0000
# 2 22.1351 114.4795 23.8171 0.0000 -5.2060 0.0000
# 3 29.4289 23.8171 74.1669 0.0000 6.4371 0.0000
# 4 0.0000 0.0000 0.0000 22.7193 0.0000 0.8517
# 5 29.0027 -5.2060 6.4371 0.0000 32.3334 0.0000
# 6 0.0000 0.0000 0.0000 0.8517 0.0000 25.9073
#
#
#
# Elastic Compliance Matrix: (Units=1/GPa)
#
#
# Indices 1 2 3 4 5 6 
#
# 1 0.012855 -0.002290 -0.003391 0.000000 -0.011224 0.000000
# 2 -0.002290 0.009917 -0.002638 0.000000 0.004176 0.000000
# 3 -0.003391 -0.002638 0.015720 0.000000 -0.000513 0.000000
# 4 0.000000 0.000000 0.000000 0.044070 0.000000 -0.001449
# 5 -0.011224 0.004176 -0.000513 0.000000 0.041770 0.000000
# 6 0.000000 0.000000 0.000000 -0.001449 0.000000 0.038647
#
#
# Mechanical properties :
#
#
# Convention : Reuss Voigt Hill
#
# Bulk Modulus (GPa) = 45.76119 50.47030 48.11574
# Shear Modulus (GPa) = 26.75197 31.39795 29.07496
#
# Velocity S-wave (km/s) = 3.37825 3.65986 3.52187
# Velocity P-wave (km/s) = 5.89396 6.27618 6.08807
#
# Compressibility (1/GPa) = 0.02185258
#
# Stress axis : x y z
#
# Youngs Moduli (GPa) = 77.79269 100.83840 63.61192
#
# Poissons Ratio (x) = 0.23097 0.21571
# Poissons Ratio (y) = 0.17818 0.16782
# Poissons Ratio (z) = 0.26379 0.26604
#
# Static dielectric constant tensor:
#      x y z
#    x 4.460710 0.000000 0.471440 
#    y 0.000000 4.388720 0.000000 
#    z 0.471440 0.000000 3.905380 
# 
# 
# High freq. dielectric constant tensor:
#      x y z
#    x 1.926080 0.000000 0.024480 
#    y 0.000000 1.942130 0.000000 
#    z 0.024480 0.000000 1.906210 
# 
# From -- ./inp_files/58292.got.cif
#   From: 2010.06.25/outbox.cif.g09.slc.cpg/sg13_30_cif.got.tgz:58292.got - 2010.06.28 04:50:58.
