data_PCOD8122745
_publ_section_title
;
Structure prediction by ZEFSAII (Michael W. Deem and Ramdas Pophale) SiO2 
 PCOD8122745
Probable space group: P 2/C
;
_chemical_formula_sum "Si O2"
_cell_formula_units_Z 24
_cell_length_a 23.810758
_cell_length_b 8.349338
_cell_length_c 17.229859
_cell_angle_alpha 90.000000
_cell_angle_beta 19.562853
_cell_angle_gamma 90.000000
_cell_volume 1146.952058
_symmetry_space_group_name_H-M "P 2/C"
_symmetry_group_IT_number 13
_symmetry_cell_setting 'monoclinic'
loop_
_space_group_symop_operation_xyz
x,y,z
-x,y,1/2-z
-x,-y,-z
x,-y,1/2+z
loop_
_atom_site_type_symbol
_atom_site_label
_atom_site_fract_x
_atom_site_fract_y
_atom_site_fract_z
Si Si1 0.830055 0.151816 0.012060
Si Si2 0.969609 0.357955 0.939806
Si Si3 0.507793 0.673829 0.526973
Si Si4 0.000000 0.571883 0.750000
Si Si5 0.500000 0.702050 0.250000
Si Si6 0.695881 0.188603 0.640277
Si Si7 0.733862 0.454953 0.859457
O O1 0.669199 0.266405 0.208067
O O2 0.791900 0.976117 0.031986
O O3 0.886691 0.182365 0.028430
O O4 0.000000 0.217010 0.750000
O O5 0.956892 0.470724 0.881466
O O6 0.161936 0.341106 0.717340
O O7 0.860616 0.436911 0.147404
O O8 0.500000 0.500000 0.500000
O O9 0.575396 0.790531 0.371745
O O10 0.629186 0.667283 0.442914
O O11 0.165082 0.676542 0.551005
O O12 0.412019 0.814675 0.299121
O O13 0.372694 0.583448 0.456289
#
# Coordination Sequence:
#
# PCOD8122745 Si02
#       7
#     4   4   4   2   2   4   4
#     4  12  26  44  67 100 141 183 229 284 358 422
#     4  11  23  43  68 101 137 178 231 292 334 422
#     4  12  23  46  73 102 133 188 242 287 346 420
#     4  12  20  42  72  96 132 184 236 278 342 414
#     4  12  24  42  68 104 136 180 230 300 338 410
#     4  12  25  45  69  98 143 183 229 284 363 419
#     4  11  24  39  71 107 131 171 245 288 343 399
#
# _framework density 20.925025000000002
#
# number of rings (size 3 to 8) (size 9 to 14) (size 15 to 20)
#    0.000    0.333    8.333    0.500    2.333    0.000 
#    3.000    0.833    0.000    0.000    0.000    0.000 
#    0.000    0.000    0.000    0.000    0.000    0.000 
#
# Total GULP energy -297360.392156 kJ/mol
# GULP energy per Si atom -12390.016340 kJ/mol
# Density = 2.087740 g / cm^3
# Si number density = 20.925025 Si / 1000 Ang^3
#
#
#
# Elastic Constant Matrix: (Units=GPa)
#
#
# Indices 1 2 3 4 5 6 
#
# 1 142.8091 49.8174 33.3041 0.0000 -34.3614 0.0000
# 2 49.8174 73.7300 22.3624 0.0000 -6.6211 0.0000
# 3 33.3041 22.3624 107.3212 0.0000 -4.1679 0.0000
# 4 0.0000 0.0000 0.0000 31.5914 0.0000 -8.8749
# 5 -34.3614 -6.6211 -4.1679 0.0000 43.0149 0.0000
# 6 0.0000 0.0000 0.0000 -8.8749 0.0000 31.6503
#
#
#
# Elastic Compliance Matrix: (Units=1/GPa)
#
#
# Indices 1 2 3 4 5 6 
#
# 1 0.011720 -0.006596 -0.001946 0.000000 0.008158 0.000000
# 2 -0.006596 0.018354 -0.001879 0.000000 -0.002626 0.000000
# 3 -0.001946 -0.001879 0.010280 0.000000 -0.000847 0.000000
# 4 0.000000 0.000000 0.000000 0.034361 0.000000 0.009635
# 5 0.008158 -0.002626 -0.000847 0.000000 0.029279 0.000000
# 6 0.000000 0.000000 0.000000 0.009635 0.000000 0.034297
#
#
# Mechanical properties :
#
#
# Convention : Reuss Voigt Hill
#
# Bulk Modulus (GPa) = 51.25112 59.42534 55.33823
# Shear Modulus (GPa) = 30.18638 35.80977 32.99807
#
# Velocity S-wave (km/s) = 3.80227 4.14132 3.97541
# Velocity P-wave (km/s) = 6.61984 7.16437 6.89748
#
# Compressibility (1/GPa) = 0.01951177
#
# Stress axis : x y z
#
# Youngs Moduli (GPa) = 85.32321 54.48382 97.27311
#
# Poissons Ratio (x) = 0.35939 0.18927
# Poissons Ratio (y) = 0.56281 0.18282
# Poissons Ratio (z) = 0.16602 0.10240
#
# Static dielectric constant tensor:
#      x y z
#    x 4.723530 0.000000 -0.288460 
#    y 0.000000 4.179630 0.000000 
#    z -0.288460 0.000000 4.099220 
# 
# 
# High freq. dielectric constant tensor:
#      x y z
#    x 1.829720 0.000000 -0.006410 
#    y 0.000000 1.792220 0.000000 
#    z -0.006410 0.000000 1.850460 
# 
# From -- ./inp_files/68136.got.cif
#   From: 2010.06.25/outbox.cif.g09.slc.cpg/sg13_35_cif.got.tgz:68136.got - 2010.06.28 04:50:58.
