data_PCOD8122780
_publ_section_title
;
Structure prediction by ZEFSAII (Michael W. Deem and Ramdas Pophale) SiO2 
 PCOD8122780
Probable space group: P 2/C
;
_chemical_formula_sum "Si O2"
_cell_formula_units_Z 28
_cell_length_a 16.369199
_cell_length_b 11.310670
_cell_length_c 9.367705
_cell_angle_alpha 90.000000
_cell_angle_beta 126.530243
_cell_angle_gamma 90.000000
_cell_volume 1393.663634
_symmetry_space_group_name_H-M "P 2/C"
_symmetry_group_IT_number 13
_symmetry_cell_setting 'monoclinic'
loop_
_space_group_symop_operation_xyz
x,y,z
-x,y,1/2-z
-x,-y,-z
x,-y,1/2+z
loop_
_atom_site_type_symbol
_atom_site_label
_atom_site_fract_x
_atom_site_fract_y
_atom_site_fract_z
Si Si1 0.099954 0.121891 0.933389
Si Si2 0.576689 0.007746 0.206077
Si Si3 0.380461 0.359336 0.930870
Si Si4 0.695921 0.236569 0.376588
Si Si5 0.695283 0.771600 0.398425
Si Si6 0.102099 0.874606 0.781621
Si Si7 0.394852 0.372049 0.452619
O O1 0.000000 0.170934 0.750000
O O2 0.127041 0.997443 0.887015
O O3 0.184704 0.216571 0.976347
O O4 0.088602 0.109647 0.095195
O O5 0.500000 0.033487 0.250000
O O6 0.647917 0.894041 0.295928
O O7 0.651845 0.117379 0.261163
O O8 0.500000 0.000000 0.000000
O O9 0.297616 0.320521 0.726005
O O10 0.370032 0.493970 0.973249
O O11 0.364339 0.269751 0.043689
O O12 0.492703 0.345512 0.985629
O O13 0.684703 0.343574 0.254628
O O14 0.805022 0.786817 0.586796
O O15 0.617547 0.714391 0.428167
O O16 0.000000 0.822728 0.750000
#
# Coordination Sequence:
#
# PCOD8122780 Si02
#       7
#     4   4   4   4   4   4   4
#     4  11  24  42  67  95 131 168 214 265 325 401
#     4  12  24  36  57  92 135 166 197 251 328 389
#     4  11  25  39  68  90 129 178 226 264 308 379
#     4  12  23  40  65  94 130 167 216 266 326 387
#     4  12  23  40  66  93 132 171 212 271 327 386
#     4  11  24  42  66  96 131 168 214 264 327 398
#     4  11  23  45  60  94 128 178 228 263 307 378
#
# _framework density 20.09093
#
# number of rings (size 3 to 8) (size 9 to 14) (size 15 to 20)
#    0.000    0.571    2.857    7.714    4.000    2.286 
#    0.000    0.000    0.000    5.143    0.000    0.000 
#    0.000    0.000    0.000    0.000    0.000    0.000 
#
# Total GULP energy -347104.353067 kJ/mol
# GULP energy per Si atom -12396.584038 kJ/mol
# Density = 2.004520 g / cm^3
# Si number density = 20.090930 Si / 1000 Ang^3
#
#
#
# Elastic Constant Matrix: (Units=GPa)
#
#
# Indices 1 2 3 4 5 6 
#
# 1 84.4393 57.3058 46.0827 0.0000 0.8062 0.0000
# 2 57.3058 85.9725 55.7299 0.0000 5.5618 0.0000
# 3 46.0827 55.7299 150.9430 0.0000 -2.8602 0.0000
# 4 0.0000 0.0000 0.0000 209.9475 0.0000 8.3674
# 5 0.8062 5.5618 -2.8602 0.0000 43.7218 0.0000
# 6 0.0000 0.0000 0.0000 8.3674 0.0000 23.0145
#
#
#
# Elastic Compliance Matrix: (Units=1/GPa)
#
#
# Indices 1 2 3 4 5 6 
#
# 1 0.022020 -0.013691 -0.001645 0.000000 0.001228 0.000000
# 2 -0.013691 0.024042 -0.004756 0.000000 -0.003117 0.000000
# 3 -0.001645 -0.004756 0.008906 0.000000 0.001218 0.000000
# 4 0.000000 0.000000 0.000000 0.004833 0.000000 -0.001757
# 5 0.001228 -0.003117 0.001218 0.000000 0.023325 0.000000
# 6 0.000000 0.000000 0.000000 -0.001757 0.000000 0.044090
#
#
# Mechanical properties :
#
#
# Convention : Reuss Voigt Hill
#
# Bulk Modulus (GPa) = 67.63438 71.06575 69.35007
# Shear Modulus (GPa) = 29.01435 66.15253 47.58344
#
# Velocity S-wave (km/s) = 3.80432 5.74439 4.87190
# Velocity P-wave (km/s) = 7.28247 8.91326 8.13881
#
# Compressibility (1/GPa) = 0.01478538
#
# Stress axis : x y z
#
# Youngs Moduli (GPa) = 45.41245 41.59356 112.28312
#
# Poissons Ratio (x) = 0.56947 0.18465
# Poissons Ratio (y) = 0.62176 0.53399
# Poissons Ratio (z) = 0.07468 0.19781
#
# Static dielectric constant tensor:
#      x y z
#    x 3.712660 0.000000 -0.038260 
#    y 0.000000 3.648360 0.000000 
#    z -0.038260 0.000000 3.997240 
# 
# 
# High freq. dielectric constant tensor:
#      x y z
#    x 1.782260 0.000000 -0.009810 
#    y 0.000000 1.771830 0.000000 
#    z -0.009810 0.000000 1.804900 
# 
# From -- ./inp_files/18830.got.cif
#   From: 2010.06.25/outbox.cif.g09.slc.cpg/sg13_10_cif.got.tgz:18830.got - 2010.06.28 04:50:58.
