data_PCOD8122429
_publ_section_title
;
Structure prediction by ZEFSAII (Michael W. Deem and Ramdas Pophale) SiO2 
 PCOD8122429
Probable space group: P 2/C
;
_chemical_formula_sum "Si O2"
_cell_formula_units_Z 22
_cell_length_a 12.112843
_cell_length_b 12.427995
_cell_length_c 14.430778
_cell_angle_alpha 90.000000
_cell_angle_beta 153.066717
_cell_angle_gamma 90.000000
_cell_volume 983.987845
_symmetry_space_group_name_H-M "P 2/C"
_symmetry_group_IT_number 13
_symmetry_cell_setting 'monoclinic'
loop_
_space_group_symop_operation_xyz
x,y,z
-x,y,1/2-z
-x,-y,-z
x,-y,1/2+z
loop_
_atom_site_type_symbol
_atom_site_label
_atom_site_fract_x
_atom_site_fract_y
_atom_site_fract_z
Si Si1 0.064685 0.854819 0.982570
Si Si2 0.266579 0.708124 0.291756
Si Si3 0.397629 0.571549 0.072277
Si Si4 0.000000 0.604501 0.250000
Si Si5 0.538777 0.099625 0.096094
Si Si6 0.500000 0.992724 0.750000
Si Si7 0.000000 0.256318 0.250000
O O1 0.943404 0.815186 0.796058
O O2 0.820614 0.905697 0.842834
O O3 0.158413 0.760733 0.118788
O O4 0.284310 0.934011 0.127499
O O5 0.401823 0.598734 0.357087
O O6 0.038718 0.677104 0.187440
O O7 0.447392 0.788900 0.482172
O O8 0.500000 0.550779 0.250000
O O9 0.232431 0.676133 0.953209
O O10 0.245891 0.465313 0.935214
O O11 0.397000 0.079169 0.087451
O O12 0.500000 0.000000 0.000000
#
# Coordination Sequence:
#
# PCOD8122429 Si02
#       7
#     4   4   4   2   4   2   2
#     4  12  24  45  73 102 145 193 240 295 350 427
#     4  12  26  48  72 107 146 190 240 295 366 426
#     4  11  23  47  73 103 136 184 243 296 366 428
#     4  11  30  44  75 106 142 185 234 312 363 432
#     4  12  27  45  70 107 148 190 240 291 346 427
#     4  12  26  44  70 106 144 198 238 288 352 420
#     4  11  20  40  73 106 128 183 238 296 349 424
#
# _framework density 22.357999
#
# number of rings (size 3 to 8) (size 9 to 14) (size 15 to 20)
#    0.000    0.364    5.455    3.273    2.545    2.182 
#    0.000    0.000    0.000    0.000    0.000    0.000 
#    0.000    0.000    0.000    0.000    0.000    0.000 
#
# Total GULP energy -272712.762670 kJ/mol
# GULP energy per Si atom -12396.034667 kJ/mol
# Density = 2.230711 g / cm^3
# Si number density = 22.357999 Si / 1000 Ang^3
#
#
#
# Elastic Constant Matrix: (Units=GPa)
#
#
# Indices 1 2 3 4 5 6 
#
# 1 162.5832 53.9485 41.7307 0.0000 -14.2620 0.0000
# 2 53.9485 78.5825 37.1528 0.0000 -1.7749 0.0000
# 3 41.7307 37.1528 102.0924 0.0000 -8.1030 0.0000
# 4 0.0000 0.0000 0.0000 3.5446 0.0000 4.4323
# 5 -14.2620 -1.7749 -8.1030 0.0000 46.2508 0.0000
# 6 0.0000 0.0000 0.0000 4.4323 0.0000 50.3716
#
#
#
# Elastic Compliance Matrix: (Units=1/GPa)
#
#
# Indices 1 2 3 4 5 6 
#
# 1 0.008371 -0.005026 -0.001423 0.000000 0.002139 0.000000
# 2 -0.005026 0.018395 -0.004773 0.000000 -0.001680 0.000000
# 3 -0.001423 -0.004773 0.012234 0.000000 0.001521 0.000000
# 4 0.000000 0.000000 0.000000 0.316993 0.000000 -0.027893
# 5 0.002139 -0.001680 0.001521 0.000000 0.022483 0.000000
# 6 0.000000 0.000000 0.000000 -0.027893 0.000000 0.022307
#
#
# Mechanical properties :
#
#
# Convention : Reuss Voigt Hill
#
# Bulk Modulus (GPa) = 60.39975 67.65801 64.02888
# Shear Modulus (GPa) = 11.66193 34.06181 22.86187
#
# Velocity S-wave (km/s) = 2.28633 3.90740 3.20118
# Velocity P-wave (km/s) = 5.83466 7.11927 6.50873
#
# Compressibility (1/GPa) = 0.01655636
#
# Stress axis : x y z
#
# Youngs Moduli (GPa) = 119.45535 54.36374 81.73653
#
# Poissons Ratio (x) = 0.27323 0.11631
# Poissons Ratio (y) = 0.60038 0.39013
# Poissons Ratio (z) = 0.16998 0.25948
#
# Static dielectric constant tensor:
#      x y z
#    x 5.153120 0.000000 0.006210 
#    y 0.000000 4.013640 0.000000 
#    z 0.006210 0.000000 4.116930 
# 
# 
# High freq. dielectric constant tensor:
#      x y z
#    x 1.904080 0.000000 -0.005590 
#    y 0.000000 1.876610 0.000000 
#    z -0.005590 0.000000 1.882760 
# 
# From -- ./inp_files/51131.got.cif
#   From: 2010.06.25/outbox.cif.g09.slc.cpg/sg13_26_cif.got.tgz:51131.got - 2010.06.28 04:50:58.
