data_PCOD8122346
_publ_section_title
;
Structure prediction by ZEFSAII (Michael W. Deem and Ramdas Pophale) SiO2 
 PCOD8122346
Probable space group: P 2/C
;
_chemical_formula_sum "Si O2"
_cell_formula_units_Z 20
_cell_length_a 15.835455
_cell_length_b 5.330891
_cell_length_c 16.735772
_cell_angle_alpha 90.000000
_cell_angle_beta 35.889225
_cell_angle_gamma 90.000000
_cell_volume 828.202884
_symmetry_space_group_name_H-M "P 2/C"
_symmetry_group_IT_number 13
_symmetry_cell_setting 'monoclinic'
loop_
_space_group_symop_operation_xyz
x,y,z
-x,y,1/2-z
-x,-y,-z
x,-y,1/2+z
loop_
_atom_site_type_symbol
_atom_site_label
_atom_site_fract_x
_atom_site_fract_y
_atom_site_fract_z
Si Si1 0.000000 0.315163 0.750000
Si Si2 0.328925 0.210077 0.759148
Si Si3 0.239201 0.439662 0.678028
Si Si4 0.500000 0.532157 0.750000
Si Si5 0.383062 0.926259 0.514465
Si Si6 0.744712 0.924014 0.535347
O O1 0.091266 0.485675 0.742298
O O2 0.097708 0.144619 0.617459
O O3 0.218516 0.367304 0.788106
O O4 0.443829 0.378839 0.717299
O O5 0.440724 0.051756 0.615367
O O6 0.237992 0.034812 0.888268
O O7 0.329022 0.696359 0.610207
O O8 0.315249 0.199451 0.580560
O O9 0.636050 0.691530 0.616598
O O10 0.328883 0.863986 0.464743
#
# Coordination Sequence:
#
# PCOD8122346 Si02
#       6
#     2   4   4   2   4   4
#     4  10  26  50  64 100 142 198 226 280 356 414
#     4  12  23  40  71 108 132 183 232 292 345 406
#     4  11  27  42  72  99 146 182 231 281 346 421
#     4  12  22  44  70 108 138 174 236 298 346 398
#     4  11  22  45  68 106 138 181 227 291 350 406
#     4  11  24  43  74  96 147 184 231 287 349 419
#
# _framework density 24.148669999999999
#
# number of rings (size 3 to 8) (size 9 to 14) (size 15 to 20)
#    0.000    0.800    4.000    3.600    2.800    4.000 
#    0.000    1.000    0.000    0.000    0.000    0.000 
#    0.000    0.000    0.000    0.000    0.000    0.000 
#
# Total GULP energy -247873.723874 kJ/mol
# GULP energy per Si atom -12393.686194 kJ/mol
# Density = 2.409371 g / cm^3
# Si number density = 24.148670 Si / 1000 Ang^3
#
#
#
# Elastic Constant Matrix: (Units=GPa)
#
#
# Indices 1 2 3 4 5 6 
#
# 1 127.3628 16.3166 5.8657 0.0000 -18.7601 0.0000
# 2 16.3166 101.6529 31.5321 0.0000 -6.7061 0.0000
# 3 5.8657 31.5321 129.2669 0.0000 -16.8874 0.0000
# 4 0.0000 0.0000 0.0000 -72.4795 0.0000 42.8128
# 5 -18.7601 -6.7061 -16.8874 0.0000 19.5338 0.0000
# 6 0.0000 0.0000 0.0000 42.8128 0.0000 -6.8475
#
#
#
# Elastic Compliance Matrix: (Units=1/GPa)
#
#
# Indices 1 2 3 4 5 6 
#
# 1 0.009361 -0.001220 0.001119 0.000000 0.009539 0.000000
# 2 -0.001220 0.010846 -0.002544 0.000000 0.000352 0.000000
# 3 0.001119 -0.002544 0.009393 0.000000 0.008322 0.000000
# 4 0.000000 0.000000 0.000000 0.005123 0.000000 0.032030
# 5 0.009539 0.000352 0.008322 0.000000 0.067670 0.000000
# 6 0.000000 0.000000 0.000000 0.032030 0.000000 0.054226
#
#
# Mechanical properties :
#
#
# Convention : Reuss Voigt Hill
#
# Bulk Modulus (GPa) = 41.13726 51.74570 46.44148
# Shear Modulus (GPa) = 29.40958 8.34590 18.87774
#
# Velocity S-wave (km/s) = 3.49356 1.86106 2.79898
# Velocity P-wave (km/s) = 5.77454 5.10809 5.45151
#
# Compressibility (1/GPa) = 0.02430886
#
# Stress axis : x y z
#
# Youngs Moduli (GPa) = 106.82064 92.20228 106.46315
#
# Poissons Ratio (x) = 0.11253 -0.11914
# Poissons Ratio (y) = 0.13037 0.27087
# Poissons Ratio (z) = -0.11954 0.23459
#
# Static dielectric constant tensor:
#      x y z
#    x 5.131420 0.000000 0.420000 
#    y 0.000000 4.166250 0.000000 
#    z 0.420000 0.000000 4.358850 
# 
# 
# High freq. dielectric constant tensor:
#      x y z
#    x 1.985740 0.000000 0.026520 
#    y 0.000000 1.952160 0.000000 
#    z 0.026520 0.000000 1.940990 
# 
# From -- ./inp_files/56434.got.cif
#   From: 2010.06.25/outbox.cif.g09.slc.cpg/sg13_29_cif.got.tgz:56434.got - 2010.06.28 04:50:58.
