data_PCOD8122253
_publ_section_title
;
Structure prediction by ZEFSAII (Michael W. Deem and Ramdas Pophale) SiO2 
 PCOD8122253
Probable space group: P 2/C
;
_chemical_formula_sum "Si O2"
_cell_formula_units_Z 20
_cell_length_a 12.007240
_cell_length_b 5.128652
_cell_length_c 29.430987
_cell_angle_alpha 90.000000
_cell_angle_beta 152.073055
_cell_angle_gamma 90.000000
_cell_volume 848.823685
_symmetry_space_group_name_H-M "P 2/C"
_symmetry_group_IT_number 13
_symmetry_cell_setting 'monoclinic'
loop_
_space_group_symop_operation_xyz
x,y,z
-x,y,1/2-z
-x,-y,-z
x,-y,1/2+z
loop_
_atom_site_type_symbol
_atom_site_label
_atom_site_fract_x
_atom_site_fract_y
_atom_site_fract_z
Si Si1 0.170432 0.561733 0.009569
Si Si2 0.131201 0.918960 0.104127
Si Si3 0.738350 0.031641 0.672637
Si Si4 0.552050 0.857598 0.197889
Si Si5 0.506311 0.461903 0.449374
O O1 0.999461 0.330622 0.968088
O O2 0.411404 0.602903 0.126810
O O3 0.239840 0.436854 0.984764
O O4 0.046341 0.839654 0.953572
O O5 0.340111 0.021200 0.145807
O O6 0.245123 0.799246 0.191402
O O7 0.691456 0.978303 0.709363
O O8 0.605439 0.294780 0.615324
O O9 0.000000 0.081116 0.750000
O O10 0.644805 0.795806 0.609999
O O11 0.500000 0.500000 0.500000
#
# Coordination Sequence:
#
# PCOD8122253 Si02
#       5
#     4   4   4   4   4
#     4  11  24  43  68  98 136 174 223 281 337 395
#     4  11  25  42  71  99 134 183 216 278 343 402
#     4  11  25  43  68  97 134 175 217 283 333 386
#     4  10  25  44  67 103 137 171 234 272 333 410
#     4  11  25  43  67  98 132 174 227 272 331 404
#
# _framework density 23.562017000000001
#
# number of rings (size 3 to 8) (size 9 to 14) (size 15 to 20)
#    0.000    1.200    0.000    4.800    5.600   11.200 
#    0.000    0.000    0.000    0.000    0.000    0.000 
#    0.000    0.000    0.000    0.000    0.000    0.000 
#
# Total GULP energy -247765.243653 kJ/mol
# GULP energy per Si atom -12388.262183 kJ/mol
# Density = 2.350839 g / cm^3
# Si number density = 23.562017 Si / 1000 Ang^3
#
#
#
# Elastic Constant Matrix: (Units=GPa)
#
#
# Indices 1 2 3 4 5 6 
#
# 1 116.7465 -11.3602 32.0664 -0.0001 1.3031 0.0000
# 2 -11.3602 86.2092 22.8312 0.0000 8.0088 0.0000
# 3 32.0664 22.8312 109.3163 0.0006 -3.8060 0.0001
# 4 -0.0001 0.0000 0.0006 7.4604 0.0001 -3.0149
# 5 1.3031 8.0088 -3.8060 0.0001 47.2576 0.0000
# 6 0.0000 0.0000 0.0001 -3.0149 0.0000 34.5849
#
#
#
# Elastic Compliance Matrix: (Units=1/GPa)
#
#
# Indices 1 2 3 4 5 6 
#
# 1 0.009716 0.002254 -0.003353 0.000000 -0.000920 0.000000
# 2 0.002254 0.013055 -0.003477 0.000000 -0.002555 0.000000
# 3 -0.003353 -0.003477 0.010912 -0.000001 0.001560 0.000000
# 4 0.000000 0.000000 -0.000001 0.138936 -0.000001 0.012112
# 5 -0.000920 -0.002555 0.001560 -0.000001 0.021745 0.000000
# 6 0.000000 0.000000 0.000000 0.012112 0.000000 0.029970
#
#
# Mechanical properties :
#
#
# Convention : Reuss Voigt Hill
#
# Bulk Modulus (GPa) = 40.76447 44.37185 42.56816
# Shear Modulus (GPa) = 20.69007 35.77621 28.23314
#
# Velocity S-wave (km/s) = 2.96651 3.90087 3.46533
# Velocity P-wave (km/s) = 5.39185 6.25795 5.84097
#
# Compressibility (1/GPa) = 0.02453117
#
# Stress axis : x y z
#
# Youngs Moduli (GPa) = 102.92264 76.60068 91.64491
#
# Poissons Ratio (x) = -0.17264 0.30727
# Poissons Ratio (y) = -0.23196 0.31861
# Poissons Ratio (z) = 0.34508 0.26631
#
# Static dielectric constant tensor:
#      x y z
#    x 6.457300 0.000000 -0.064090 
#    y 0.000000 4.015340 0.000000 
#    z -0.064090 0.000000 4.423150 
# 
# 
# High freq. dielectric constant tensor:
#      x y z
#    x 1.971870 0.000000 0.006130 
#    y 0.000000 1.920720 0.000000 
#    z 0.006130 0.000000 1.924030 
# 
# From -- ./inp_files/96460.got.cif
#   From: 2010.06.25/outbox.cif.g09.slc.cpg/sg13_49_cif.got.tgz:96460.got - 2010.06.28 04:50:58.
