data_PCOD8122781
_publ_section_title
;
Structure prediction by ZEFSAII (Michael W. Deem and Ramdas Pophale) SiO2 
 PCOD8122781
Probable space group: P 2/C
;
_chemical_formula_sum "Si O2"
_cell_formula_units_Z 30
_cell_length_a 27.779738
_cell_length_b 6.685576
_cell_length_c 9.727292
_cell_angle_alpha 90.000000
_cell_angle_beta 53.938525
_cell_angle_gamma 90.000000
_cell_volume 1460.419564
_symmetry_space_group_name_H-M "P 2/C"
_symmetry_group_IT_number 13
_symmetry_cell_setting 'monoclinic'
loop_
_space_group_symop_operation_xyz
x,y,z
-x,y,1/2-z
-x,-y,-z
x,-y,1/2+z
loop_
_atom_site_type_symbol
_atom_site_label
_atom_site_fract_x
_atom_site_fract_y
_atom_site_fract_z
Si Si1 0.350953 0.288306 0.847674
Si Si2 0.500000 0.647336 0.750000
Si Si3 0.843007 0.944927 0.083414
Si Si4 0.436920 0.077443 0.157019
Si Si5 0.126730 0.446606 0.796585
Si Si6 0.214032 0.789968 0.597982
Si Si7 0.930482 0.286419 0.884170
Si Si8 0.601519 0.574767 0.955087
O O1 0.359557 0.428702 0.702747
O O2 0.395591 0.102715 0.772018
O O3 0.284013 0.213949 0.959142
O O4 0.364438 0.419697 0.958410
O O5 0.551418 0.779833 0.732690
O O6 0.534006 0.508582 0.582731
O O7 0.857684 0.748870 0.144348
O O8 0.797708 0.081164 0.245804
O O9 0.814346 0.894813 0.986079
O O10 0.903383 0.066274 0.951569
O O11 0.402878 0.201962 0.097356
O O12 0.500000 0.000000 0.000000
O O13 0.187413 0.567923 0.663211
O O14 0.096680 0.393927 0.703012
O O15 0.081405 0.581236 0.960638
O O16 0.000000 0.256160 0.750000
#
# Coordination Sequence:
#
# PCOD8122781 Si02
#       8
#     4   2   4   4   4   4   4   4
#     4  12  29  44  70 103 131 178 227 279 334 403
#     4  12  22  46  68  96 136 176 206 278 342 414
#     4  11  24  46  70  99 139 181 226 278 339 393
#     4  12  24  44  69  96 136 171 219 271 345 404
#     4  11  23  45  67 100 137 185 226 278 339 394
#     4  11  27  45  71  97 136 180 230 279 333 402
#     4  11  24  42  70 105 138 180 231 281 336 401
#     4  12  26  46  66 102 133 169 223 275 338 403
#
# _framework density 20.542041999999999
#
# number of rings (size 3 to 8) (size 9 to 14) (size 15 to 20)
#    0.000    0.533    5.333    2.400    3.733    2.133 
#    0.000    0.000    0.000    0.000    0.000    0.000 
#    0.000    0.000    0.000    0.000    0.000    0.000 
#
# Total GULP energy -372190.465324 kJ/mol
# GULP energy per Si atom -12406.348844 kJ/mol
# Density = 2.049529 g / cm^3
# Si number density = 20.542042 Si / 1000 Ang^3
#
#
#
# Elastic Constant Matrix: (Units=GPa)
#
#
# Indices 1 2 3 4 5 6 
#
# 1 73.4870 42.5595 44.4202 0.0000 -16.5314 0.0000
# 2 42.5595 115.9903 46.5360 0.0000 -1.5778 0.0000
# 3 44.4202 46.5360 112.8464 0.0000 -3.8046 0.0000
# 4 0.0000 0.0000 0.0000 38.8604 0.0000 8.3218
# 5 -16.5314 -1.5778 -3.8046 0.0000 46.1360 0.0000
# 6 0.0000 0.0000 0.0000 8.3218 0.0000 22.3883
#
#
#
# Elastic Compliance Matrix: (Units=1/GPa)
#
#
# Indices 1 2 3 4 5 6 
#
# 1 0.022212 -0.005562 -0.006205 0.000000 0.007257 0.000000
# 2 -0.005562 0.011723 -0.002706 0.000000 -0.001815 0.000000
# 3 -0.006205 -0.002706 0.012377 0.000000 -0.001295 0.000000
# 4 0.000000 0.000000 0.000000 0.027959 0.000000 -0.010392
# 5 0.007257 -0.001815 -0.001295 0.000000 0.024107 0.000000
# 6 0.000000 0.000000 0.000000 -0.010392 0.000000 0.048529
#
#
# Mechanical properties :
#
#
# Convention : Reuss Voigt Hill
#
# Bulk Modulus (GPa) = 57.58620 63.26169 60.42394
# Shear Modulus (GPa) = 27.52668 32.73081 30.12875
#
# Velocity S-wave (km/s) = 3.66460 3.99602 3.83389
# Velocity P-wave (km/s) = 6.78232 7.22177 7.00549
#
# Compressibility (1/GPa) = 0.01736527
#
# Stress axis : x y z
#
# Youngs Moduli (GPa) = 45.01987 85.30002 80.79784
#
# Poissons Ratio (x) = 0.47443 0.50137
# Poissons Ratio (y) = 0.25040 0.21867
# Poissons Ratio (z) = 0.27936 0.23085
#
# Static dielectric constant tensor:
#      x y z
#    x 3.473060 0.000000 0.107150 
#    y 0.000000 3.983740 0.000000 
#    z 0.107150 0.000000 3.970130 
# 
# 
# High freq. dielectric constant tensor:
#      x y z
#    x 1.796960 0.000000 0.012040 
#    y 0.000000 1.821050 0.000000 
#    z 0.012040 0.000000 1.822650 
# 
# From -- ./inp_files/24779.got.cif
#   From: 2010.06.25/outbox.cif.g09.slc.cpg/sg13_13_cif.got.tgz:24779.got - 2010.06.28 04:50:58.
