data_PCOD8122879
_publ_section_title
;
Structure prediction by ZEFSAII (Michael W. Deem and Ramdas Pophale) SiO2 
 PCOD8122879
Probable space group: P 2/C
;
_chemical_formula_sum "Si O2"
_cell_formula_units_Z 20
_cell_length_a 8.649728
_cell_length_b 12.384564
_cell_length_c 8.672335
_cell_angle_alpha 90.000000
_cell_angle_beta 72.049248
_cell_angle_gamma 90.000000
_cell_volume 883.785062
_symmetry_space_group_name_H-M "P 2/C"
_symmetry_group_IT_number 13
_symmetry_cell_setting 'monoclinic'
loop_
_space_group_symop_operation_xyz
x,y,z
-x,y,1/2-z
-x,-y,-z
x,-y,1/2+z
loop_
_atom_site_type_symbol
_atom_site_label
_atom_site_fract_x
_atom_site_fract_y
_atom_site_fract_z
Si Si1 0.317965 0.614805 0.371641
Si Si2 0.667720 0.831139 0.273839
Si Si3 0.330462 0.769668 0.881191
Si Si4 0.121279 0.964012 0.834882
Si Si5 0.816156 0.417586 0.257217
O O1 0.500000 0.599582 0.250000
O O2 0.258849 0.738020 0.359653
O O3 0.201456 0.534513 0.314404
O O4 0.305196 0.594208 0.559160
O O5 0.500000 0.874461 0.250000
O O6 0.638737 0.773113 0.446128
O O7 0.789705 0.930045 0.259420
O O8 0.500000 0.751062 0.750000
O O9 0.218606 0.669678 0.866112
O O10 0.256139 0.881822 0.848091
O O11 0.000000 0.908988 0.750000
O O12 0.000000 0.000000 0.000000
O O13 0.000000 0.400756 0.250000
#
# Coordination Sequence:
#
# PCOD8122879 Si02
#       5
#     4   4   4   4   4
#     4  11  24  45  71 100 142 185 231 277 342 415
#     4  11  26  45  70 100 136 182 231 280 336 410
#     4  12  26  45  71  99 139 183 230 279 342 414
#     4  12  27  45  70 102 139 179 225 287 345 403
#     4  12  26  44  72 107 141 181 228 289 343 407
#
# _framework density 22.629936000000001
#
# number of rings (size 3 to 8) (size 9 to 14) (size 15 to 20)
#    0.000    0.400    2.000    6.600    8.400    2.400 
#    0.000    0.000    0.000    0.000    0.000    0.000 
#    0.000    0.000    0.000    0.000    0.000    0.000 
#
# Total GULP energy -248044.188120 kJ/mol
# GULP energy per Si atom -12402.209406 kJ/mol
# Density = 2.257843 g / cm^3
# Si number density = 22.629936 Si / 1000 Ang^3
#
#
#
# Elastic Constant Matrix: (Units=GPa)
#
#
# Indices 1 2 3 4 5 6 
#
# 1 118.7840 26.0346 15.3963 0.0000 12.9591 0.0000
# 2 26.0346 92.8771 -9.9981 0.0000 2.7579 0.0000
# 3 15.3963 -9.9981 98.4924 0.0000 12.0768 0.0000
# 4 0.0000 0.0000 0.0000 31.7752 0.0000 14.7812
# 5 12.9591 2.7579 12.0768 0.0000 38.7782 0.0000
# 6 0.0000 0.0000 0.0000 14.7812 0.0000 29.6071
#
#
#
# Elastic Compliance Matrix: (Units=1/GPa)
#
#
# Indices 1 2 3 4 5 6 
#
# 1 0.009482 -0.002739 -0.001451 0.000000 -0.002522 0.000000
# 2 -0.002739 0.011728 0.001673 0.000000 -0.000440 0.000000
# 3 -0.001451 0.001673 0.010922 0.000000 -0.003035 0.000000
# 4 0.000000 0.000000 0.000000 0.040991 0.000000 -0.020465
# 5 -0.002522 -0.000440 -0.003035 0.000000 0.027607 0.000000
# 6 0.000000 0.000000 0.000000 -0.020465 0.000000 0.043993
#
#
# Mechanical properties :
#
#
# Convention : Reuss Voigt Hill
#
# Bulk Modulus (GPa) = 36.90516 41.44657 39.17586
# Shear Modulus (GPa) = 31.48806 38.61348 35.05077
#
# Velocity S-wave (km/s) = 3.73424 4.13522 3.93983
# Velocity P-wave (km/s) = 5.91069 6.41520 6.16810
#
# Compressibility (1/GPa) = 0.02709649
#
# Stress axis : x y z
#
# Youngs Moduli (GPa) = 105.45997 85.26686 91.55932
#
# Poissons Ratio (x) = 0.23357 0.13286
# Poissons Ratio (y) = 0.28889 -0.15314
# Poissons Ratio (z) = 0.15303 -0.14262
#
# Static dielectric constant tensor:
#      x y z
#    x 4.022010 0.000000 0.052150 
#    y 0.000000 4.093020 0.000000 
#    z 0.052150 0.000000 4.225430 
# 
# 
# High freq. dielectric constant tensor:
#      x y z
#    x 1.900070 0.000000 0.010720 
#    y 0.000000 1.902640 0.000000 
#    z 0.010720 0.000000 1.905330 
# 
# From -- ./inp_files/11664.got.cif
#   From: 2010.06.25/outbox.cif.g09.slc.cpg/sg13_6_cif.got.tgz:11664.got - 2010.06.28 04:50:58.
