data_PCOD8122707
_publ_section_title
;
Structure prediction by ZEFSAII (Michael W. Deem and Ramdas Pophale) SiO2 
 PCOD8122707
Probable space group: P 2/C
;
_chemical_formula_sum "Si O2"
_cell_formula_units_Z 20
_cell_length_a 12.201172
_cell_length_b 8.163987
_cell_length_c 9.196818
_cell_angle_alpha 90.000000
_cell_angle_beta 75.134649
_cell_angle_gamma 90.000000
_cell_volume 885.436486
_symmetry_space_group_name_H-M "P 2/C"
_symmetry_group_IT_number 13
_symmetry_cell_setting 'monoclinic'
loop_
_space_group_symop_operation_xyz
x,y,z
-x,y,1/2-z
-x,-y,-z
x,-y,1/2+z
loop_
_atom_site_type_symbol
_atom_site_label
_atom_site_fract_x
_atom_site_fract_y
_atom_site_fract_z
Si Si1 0.573419 0.399056 0.862356
Si Si2 0.257727 0.820459 0.071964
Si Si3 0.089068 0.690973 0.346852
Si Si4 0.786824 0.384859 0.195444
Si Si5 0.889408 0.866150 0.872905
O O1 0.500000 0.341800 0.750000
O O2 0.612470 0.230295 0.933107
O O3 0.672065 0.522644 0.775725
O O4 0.500000 0.500000 0.000000
O O5 0.205547 0.739464 0.232238
O O6 0.216163 0.007910 0.079064
O O7 0.226946 0.743172 0.928649
O O8 0.112126 0.505809 0.394439
O O9 0.060736 0.814885 0.487097
O O10 0.000000 0.706391 0.250000
O O11 0.835354 0.293890 0.320047
O O12 0.000000 0.937734 0.750000
#
# Coordination Sequence:
#
# PCOD8122707 Si02
#       5
#     4   4   4   4   4
#     4  11  23  46  77 102 134 180 233 298 344 404
#     4  11  24  42  66 100 137 182 226 282 357 414
#     4  11  23  41  68  97 135 186 236 283 341 412
#     4  11  24  43  70 102 137 182 241 287 338 422
#     4  12  26  44  68 101 147 186 227 289 353 420
#
# _framework density 22.587730000000001
#
# number of rings (size 3 to 8) (size 9 to 14) (size 15 to 20)
#    0.000    0.800    2.000    6.000    2.800    4.800 
#    0.000    4.000    0.000    0.000    0.000    0.000 
#    0.000    0.000    0.000    0.000    0.000    0.000 
#
# Total GULP energy -247815.837732 kJ/mol
# GULP energy per Si atom -12390.791887 kJ/mol
# Density = 2.253632 g / cm^3
# Si number density = 22.587730 Si / 1000 Ang^3
#
#
#
# Elastic Constant Matrix: (Units=GPa)
#
#
# Indices 1 2 3 4 5 6 
#
# 1 124.3407 63.7212 53.8096 0.0000 23.8010 0.0000
# 2 63.7212 115.0512 35.0904 0.0000 4.3910 0.0000
# 3 53.8096 35.0904 124.6328 0.0000 16.7831 0.0000
# 4 0.0000 0.0000 0.0000 38.2143 0.0000 5.7330
# 5 23.8010 4.3910 16.7831 0.0000 44.7562 0.0000
# 6 0.0000 0.0000 0.0000 5.7330 0.0000 34.5631
#
#
#
# Elastic Compliance Matrix: (Units=1/GPa)
#
#
# Indices 1 2 3 4 5 6 
#
# 1 0.013868 -0.006422 -0.003445 0.000000 -0.005453 0.000000
# 2 -0.006422 0.012482 -0.001092 0.000000 0.002600 0.000000
# 3 -0.003445 -0.001092 0.010066 0.000000 -0.001835 0.000000
# 4 0.000000 0.000000 0.000000 0.026836 0.000000 -0.004451
# 5 -0.005453 0.002600 -0.001835 0.000000 0.025676 0.000000
# 6 0.000000 0.000000 0.000000 -0.004451 0.000000 0.029671
#
#
# Mechanical properties :
#
#
# Convention : Reuss Voigt Hill
#
# Bulk Modulus (GPa) = 68.97423 74.36301 71.66862
# Shear Modulus (GPa) = 34.39966 37.60030 35.99998
#
# Velocity S-wave (km/s) = 3.90671 4.08442 3.99655
# Velocity P-wave (km/s) = 7.13809 7.43213 7.28660
#
# Compressibility (1/GPa) = 0.01449817
#
# Stress axis : x y z
#
# Youngs Moduli (GPa) = 72.10698 80.11255 99.34897
#
# Poissons Ratio (x) = 0.51449 0.34227
# Poissons Ratio (y) = 0.46308 0.10847
# Poissons Ratio (z) = 0.24842 0.08747
#
# Static dielectric constant tensor:
#      x y z
#    x 3.831030 0.000000 0.298440 
#    y 0.000000 4.253000 0.000000 
#    z 0.298440 0.000000 4.153020 
# 
# 
# High freq. dielectric constant tensor:
#      x y z
#    x 1.891020 0.000000 0.011730 
#    y 0.000000 1.886910 0.000000 
#    z 0.011730 0.000000 1.908940 
# 
# From -- ./inp_files/14836.got.cif
#   From: 2010.06.25/outbox.cif.g09.slc.cpg/sg13_8_cif.got.tgz:14836.got - 2010.06.28 04:50:58.
