data_PCOD8122948
_publ_section_title
;
Structure prediction by ZEFSAII (Michael W. Deem and Ramdas Pophale) SiO2 
 PCOD8122948
Probable space group: P 2/C
;
_chemical_formula_sum "Si O2"
_cell_formula_units_Z 18
_cell_length_a 20.037473
_cell_length_b 8.440707
_cell_length_c 15.688192
_cell_angle_alpha 90.000000
_cell_angle_beta 18.869780
_cell_angle_gamma 90.000000
_cell_volume 858.142392
_symmetry_space_group_name_H-M "P 2/C"
_symmetry_group_IT_number 13
_symmetry_cell_setting 'monoclinic'
loop_
_space_group_symop_operation_xyz
x,y,z
-x,y,1/2-z
-x,-y,-z
x,-y,1/2+z
loop_
_atom_site_type_symbol
_atom_site_label
_atom_site_fract_x
_atom_site_fract_y
_atom_site_fract_z
Si Si1 0.226124 0.620554 0.007656
Si Si2 0.713988 0.845726 0.856656
Si Si3 0.504582 0.680188 0.523996
Si Si4 0.500000 0.641726 0.250000
Si Si5 0.826753 0.800528 0.252388
O O1 0.228489 0.722731 0.090755
O O2 0.000000 0.571574 0.250000
O O3 0.334601 0.720646 0.801845
O O4 0.361912 0.462803 0.853621
O O5 0.535574 0.805961 0.003389
O O6 0.929519 0.795160 0.554374
O O7 0.722618 0.027189 0.874271
O O8 0.665281 0.746376 0.999649
O O9 0.500000 0.500000 0.500000
O O10 0.731856 0.702518 0.288581
#
# Coordination Sequence:
#
# PCOD8122948 Si02
#       5
#     4   4   4   2   4
#     4  12  24  42  69  98 130 175 222 272 329 390
#     4  11  26  44  66 100 133 175 220 273 331 397
#     4  12  23  43  69  98 131 174 220 271 327 396
#     4  12  26  42  68  98 132 172 224 278 322 392
#     4  11  25  46  67  95 138 175 216 274 335 392
#
# _framework density 20.975539000000001
#
# number of rings (size 3 to 8) (size 9 to 14) (size 15 to 20)
#    0.000    0.444    6.667    0.667    6.222    1.778 
#    0.000    1.111    0.000    0.000    0.000    0.000 
#    0.000    0.000    0.000    0.000    0.000    0.000 
#
# Total GULP energy -223248.167243 kJ/mol
# GULP energy per Si atom -12402.675958 kJ/mol
# Density = 2.092780 g / cm^3
# Si number density = 20.975539 Si / 1000 Ang^3
#
#
#
# Elastic Constant Matrix: (Units=GPa)
#
#
# Indices 1 2 3 4 5 6 
#
# 1 119.2762 45.1445 22.3566 0.0000 -10.1638 0.0000
# 2 45.1445 116.9834 35.1736 0.0000 5.8403 0.0000
# 3 22.3566 35.1736 61.1899 0.0000 9.4027 0.0000
# 4 0.0000 0.0000 0.0000 35.0743 0.0000 1.4533
# 5 -10.1638 5.8403 9.4027 0.0000 43.2554 0.0000
# 6 0.0000 0.0000 0.0000 1.4533 0.0000 15.1541
#
#
#
# Elastic Compliance Matrix: (Units=1/GPa)
#
#
# Indices 1 2 3 4 5 6 
#
# 1 0.010437 -0.003499 -0.002329 0.000000 0.003431 0.000000
# 2 -0.003499 0.011508 -0.005143 0.000000 -0.001258 0.000000
# 3 -0.002329 -0.005143 0.020823 0.000000 -0.004379 0.000000
# 4 0.000000 0.000000 0.000000 0.028625 0.000000 -0.002745
# 5 0.003431 -0.001258 -0.004379 0.000000 0.025047 0.000000
# 6 0.000000 0.000000 0.000000 -0.002745 0.000000 0.066252
#
#
# Mechanical properties :
#
#
# Convention : Reuss Voigt Hill
#
# Bulk Modulus (GPa) = 48.01929 55.86656 51.94292
# Shear Modulus (GPa) = 26.09933 31.68173 28.89053
#
# Velocity S-wave (km/s) = 3.53125 3.89062 3.71528
# Velocity P-wave (km/s) = 6.29039 6.84650 6.57433
#
# Compressibility (1/GPa) = 0.02082497
#
# Stress axis : x y z
#
# Youngs Moduli (GPa) = 95.81212 86.89906 48.02345
#
# Poissons Ratio (x) = 0.30403 0.11187
# Poissons Ratio (y) = 0.33521 0.24700
# Poissons Ratio (z) = 0.22319 0.44695
#
# Static dielectric constant tensor:
#      x y z
#    x 3.977940 0.000000 -0.019630 
#    y 0.000000 3.706040 0.000000 
#    z -0.019630 0.000000 3.888870 
# 
# 
# High freq. dielectric constant tensor:
#      x y z
#    x 1.840230 0.000000 0.002630 
#    y 0.000000 1.817910 0.000000 
#    z 0.002630 0.000000 1.829120 
# 
# From -- ./inp_files/56998.got.cif
#   From: 2010.06.25/outbox.cif.g09.slc.cpg/sg13_29_cif.got.tgz:56998.got - 2010.06.28 04:50:58.
