data_PCOD8122501
_publ_section_title
;
Structure prediction by ZEFSAII (Michael W. Deem and Ramdas Pophale) SiO2 
 PCOD8122501
Probable space group: P 2/C
;
_chemical_formula_sum "Si O2"
_cell_formula_units_Z 20
_cell_length_a 6.723408
_cell_length_b 9.437364
_cell_length_c 15.107621
_cell_angle_alpha 90.000000
_cell_angle_beta 94.069122
_cell_angle_gamma 90.000000
_cell_volume 956.180955
_symmetry_space_group_name_H-M "P 2/C"
_symmetry_group_IT_number 13
_symmetry_cell_setting 'monoclinic'
loop_
_space_group_symop_operation_xyz
x,y,z
-x,y,1/2-z
-x,-y,-z
x,-y,1/2+z
loop_
_atom_site_type_symbol
_atom_site_label
_atom_site_fract_x
_atom_site_fract_y
_atom_site_fract_z
Si Si1 0.457591 0.848509 0.037494
Si Si2 0.291034 0.033802 0.705223
Si Si3 0.000000 0.201298 0.250000
Si Si4 0.000000 0.748821 0.250000
Si Si5 0.843759 0.664891 0.572283
Si Si6 0.842200 0.657206 0.067865
O O1 0.312434 0.881634 0.114456
O O2 0.656856 0.763944 0.070750
O O3 0.342373 0.760789 0.959877
O O4 0.500000 0.000000 0.000000
O O5 0.500000 0.982035 0.750000
O O6 0.194003 0.151296 0.765334
O O7 0.152047 0.894978 0.697234
O O8 0.108852 0.301517 0.324061
O O9 0.012786 0.658947 0.340800
O O10 0.768026 0.504120 0.558927
O O11 0.033037 0.697354 0.515604
#
# Coordination Sequence:
#
# PCOD8122501 Si02
#       6
#     4   4   2   2   4   4
#     4  12  24  40  68  97 132 169 214 271 324 380
#     4  11  22  39  64  98 128 163 218 266 321 385
#     4  11  25  42  66  94 132 170 216 274 324 376
#     4  11  21  40  68  92 128 168 212 266 316 382
#     4  11  25  44  64  96 133 171 218 266 323 388
#     4  11  24  43  68  96 130 174 216 264 326 387
#
# _framework density 20.916540999999999
#
# number of rings (size 3 to 8) (size 9 to 14) (size 15 to 20)
#    0.000    0.800    4.000    3.600    2.800    1.600 
#    0.000    0.000    4.400    0.000    0.000    0.000 
#    0.000    0.000    0.000    0.000    0.000    0.000 
#
# Total GULP energy -247960.043214 kJ/mol
# GULP energy per Si atom -12398.002161 kJ/mol
# Density = 2.086893 g / cm^3
# Si number density = 20.916541 Si / 1000 Ang^3
#
#
#
# Elastic Constant Matrix: (Units=GPa)
#
#
# Indices 1 2 3 4 5 6 
#
# 1 92.7754 51.3868 31.8245 0.0000 5.1264 0.0000
# 2 51.3868 125.9931 39.4783 0.0000 4.9446 0.0000
# 3 31.8245 39.4783 129.0878 0.0000 9.0682 0.0000
# 4 0.0000 0.0000 0.0000 34.1174 0.0000 0.5620
# 5 5.1264 4.9446 9.0682 0.0000 37.1091 0.0000
# 6 0.0000 0.0000 0.0000 0.5620 0.0000 34.7777
#
#
#
# Elastic Compliance Matrix: (Units=1/GPa)
#
#
# Indices 1 2 3 4 5 6 
#
# 1 0.014372 -0.005239 -0.001883 0.000000 -0.000827 0.000000
# 2 -0.005239 0.010698 -0.001964 0.000000 -0.000222 0.000000
# 3 -0.001883 -0.001964 0.008928 0.000000 -0.001660 0.000000
# 4 0.000000 0.000000 0.000000 0.029318 0.000000 -0.000474
# 5 -0.000827 -0.000222 -0.001660 0.000000 0.027497 0.000000
# 6 0.000000 0.000000 0.000000 -0.000474 0.000000 0.028762
#
#
# Mechanical properties :
#
#
# Convention : Reuss Voigt Hill
#
# Bulk Modulus (GPa) = 63.19013 65.91506 64.55259
# Shear Modulus (GPa) = 34.95912 36.21195 35.58553
#
# Velocity S-wave (km/s) = 4.09267 4.16535 4.12917
# Velocity P-wave (km/s) = 7.25323 7.39698 7.32546
#
# Compressibility (1/GPa) = 0.01582526
#
# Stress axis : x y z
#
# Youngs Moduli (GPa) = 69.57829 93.47458 112.00419
#
# Poissons Ratio (x) = 0.48975 0.21088
# Poissons Ratio (y) = 0.36455 0.22003
# Poissons Ratio (z) = 0.13100 0.18363
#
# Static dielectric constant tensor:
#      x y z
#    x 3.629790 0.000000 -0.014700 
#    y 0.000000 3.745520 0.000000 
#    z -0.014700 0.000000 3.589910 
# 
# 
# High freq. dielectric constant tensor:
#      x y z
#    x 1.817030 0.000000 -0.002210 
#    y 0.000000 1.825200 0.000000 
#    z -0.002210 0.000000 1.828550 
# 
# From -- ./inp_files/60615.got.cif
#   From: 2010.06.25/outbox.cif.g09.slc.cpg/sg13_31_cif.got.tgz:60615.got - 2010.06.28 04:50:58.
