data_PCOD8122355
_publ_section_title
;
Structure prediction by ZEFSAII (Michael W. Deem and Ramdas Pophale) SiO2 
 PCOD8122355
Probable space group: P 2/C
;
_chemical_formula_sum "Si O2"
_cell_formula_units_Z 22
_cell_length_a 27.675322
_cell_length_b 5.400002
_cell_length_c 16.915414
_cell_angle_alpha 90.000000
_cell_angle_beta 160.359351
_cell_angle_gamma 90.000000
_cell_volume 849.695617
_symmetry_space_group_name_H-M "P 2/C"
_symmetry_group_IT_number 13
_symmetry_cell_setting 'monoclinic'
loop_
_space_group_symop_operation_xyz
x,y,z
-x,y,1/2-z
-x,-y,-z
x,-y,1/2+z
loop_
_atom_site_type_symbol
_atom_site_label
_atom_site_fract_x
_atom_site_fract_y
_atom_site_fract_z
Si Si1 0.260829 0.231741 0.062745
Si Si2 0.378983 0.330841 0.400934
Si Si3 0.833746 0.542100 0.231931
Si Si4 0.384608 0.837874 0.133419
Si Si5 0.221889 0.173573 0.706905
Si Si6 0.000000 0.991536 0.750000
O O1 0.197120 0.445735 0.909272
O O2 0.389911 0.309933 0.321323
O O3 0.130144 0.152723 0.917218
O O4 0.315203 0.031450 0.084921
O O5 0.532736 0.358803 0.681123
O O6 0.288909 0.575309 0.277252
O O7 0.312474 0.071772 0.330877
O O8 0.792893 0.787025 0.220536
O O9 0.000000 0.500000 0.500000
O O10 0.734016 0.307878 0.103344
O O11 0.500000 0.958697 0.250000
O O12 0.065136 0.165970 0.423248
#
# Coordination Sequence:
#
# PCOD8122355 Si02
#       6
#     4   4   4   4   4   2
#     4  11  28  48  80 112 160 211 267 331 395 476
#     4  11  27  49  81 113 155 203 270 324 400 464
#     4  12  29  45  78 115 162 211 268 323 401 476
#     4  12  26  50  77 118 156 213 262 335 397 478
#     4  11  26  49  78 115 155 212 258 331 390 477
#     4  10  26  50  80 110 162 210 266 326 402 474
#
# _framework density 25.891625000000001
#
# number of rings (size 3 to 8) (size 9 to 14) (size 15 to 20)
#    0.000    0.727    1.818    2.727   15.273    3.636 
#    0.000    0.000    0.000    0.000    0.000    0.000 
#    0.000    0.000    0.000    0.000    0.000    0.000 
#
# Total GULP energy -272673.721128 kJ/mol
# GULP energy per Si atom -12394.260051 kJ/mol
# Density = 2.583269 g / cm^3
# Si number density = 25.891625 Si / 1000 Ang^3
#
#
#
# Elastic Constant Matrix: (Units=GPa)
#
#
# Indices 1 2 3 4 5 6 
#
# 1 127.7252 6.8019 22.8538 0.0000 -16.9444 0.0000
# 2 6.8019 91.6978 7.4531 0.0000 -1.5979 0.0000
# 3 22.8538 7.4531 133.0587 0.0000 -21.7464 0.0000
# 4 0.0000 0.0000 0.0000 24.8542 0.0000 -19.0069
# 5 -16.9444 -1.5979 -21.7464 0.0000 54.7843 0.0000
# 6 0.0000 0.0000 0.0000 -19.0069 0.0000 17.1972
#
#
#
# Elastic Compliance Matrix: (Units=1/GPa)
#
#
# Indices 1 2 3 4 5 6 
#
# 1 0.008328 -0.000495 -0.001052 0.000000 0.002144 0.000000
# 2 -0.000495 0.010985 -0.000538 0.000000 -0.000046 0.000000
# 3 -0.001052 -0.000538 0.008203 0.000000 0.002915 0.000000
# 4 0.000000 0.000000 0.000000 0.259933 0.000000 0.287287
# 5 0.002144 -0.000046 0.002915 0.000000 0.020072 0.000000
# 6 0.000000 0.000000 0.000000 0.287287 0.000000 0.375668
#
#
# Mechanical properties :
#
#
# Convention : Reuss Voigt Hill
#
# Bulk Modulus (GPa) = 42.83411 47.41103 45.12257
# Shear Modulus (GPa) = 7.19277 40.39200 23.79238
#
# Velocity S-wave (km/s) = 1.66855 3.95402 3.03466
# Velocity P-wave (km/s) = 4.50462 6.26073 5.45382
#
# Compressibility (1/GPa) = 0.02334588
#
# Stress axis : x y z
#
# Youngs Moduli (GPa) = 120.07167 91.03320 121.91036
#
# Poissons Ratio (x) = 0.04505 0.12830
# Poissons Ratio (y) = 0.05942 0.06557
# Poissons Ratio (z) = 0.12636 0.04896
#
# Static dielectric constant tensor:
#      x y z
#    x 5.511590 0.000000 -0.910020 
#    y 0.000000 4.478950 0.000000 
#    z -0.910020 0.000000 5.614950 
# 
# 
# High freq. dielectric constant tensor:
#      x y z
#    x 2.055870 0.000000 -0.025870 
#    y 0.000000 2.025910 0.000000 
#    z -0.025870 0.000000 2.059090 
# 
# From -- ./inp_files/72169.got.cif
#   From: 2010.06.25/outbox.cif.g09.slc.cpg/sg13_37_cif.got.tgz:72169.got - 2010.06.28 04:50:58.
