data_PCOD8122119
_publ_section_title
;
Structure prediction by ZEFSAII (Michael W. Deem and Ramdas Pophale) SiO2 
 PCOD8122119
Probable space group: P 2/C
;
_chemical_formula_sum "Si O2"
_cell_formula_units_Z 26
_cell_length_a 4.918043
_cell_length_b 11.515126
_cell_length_c 18.789124
_cell_angle_alpha 90.000000
_cell_angle_beta 107.999367
_cell_angle_gamma 90.000000
_cell_volume 1011.988164
_symmetry_space_group_name_H-M "P 2/C"
_symmetry_group_IT_number 13
_symmetry_cell_setting 'monoclinic'
loop_
_space_group_symop_operation_xyz
x,y,z
-x,y,1/2-z
-x,-y,-z
x,-y,1/2+z
loop_
_atom_site_type_symbol
_atom_site_label
_atom_site_fract_x
_atom_site_fract_y
_atom_site_fract_z
Si Si1 0.243769 0.618276 0.815147
Si Si2 0.421840 0.175377 0.117068
Si Si3 0.500000 0.584165 0.250000
Si Si4 0.971247 0.967266 0.665219
Si Si5 0.953519 0.881576 0.037904
Si Si6 0.321834 0.675365 0.095872
Si Si7 0.780788 0.537654 0.063665
O O1 0.531656 0.696290 0.845447
O O2 0.297988 0.498716 0.779045
O O3 0.128839 0.575579 0.882789
O O4 0.000000 0.687180 0.750000
O O5 0.264119 0.088111 0.158339
O O6 0.742443 0.131904 0.132021
O O7 0.285668 0.187460 0.026969
O O8 0.314512 0.664662 0.181506
O O9 0.000000 0.002524 0.750000
O O10 0.876250 0.082440 0.612987
O O11 0.241338 0.804627 0.064178
O O12 0.000000 0.000000 0.000000
O O13 0.643551 0.647159 0.096377
O O14 0.067425 0.585674 0.046740
O O15 0.500000 0.500000 0.000000
#
# Coordination Sequence:
#
# PCOD8122119 Si02
#       7
#     4   4   2   4   4   4   4
#     4  11  23  41  69 101 143 180 227 288 350 422
#     4  11  25  42  73 102 145 182 235 294 367 421
#     4  10  24  44  66 104 138 182 226 286 350 422
#     4  11  25  46  68 106 139 184 242 296 358 423
#     4  10  25  50  72 103 143 191 240 300 354 423
#     4  11  24  45  69  98 140 182 236 283 351 416
#     4  11  24  42  68 103 140 182 233 281 352 427
#
# _framework density 25.692
#
# number of rings (size 3 to 8) (size 9 to 14) (size 15 to 20)
#    0.000    1.231    1.538    2.769    4.308    8.615 
#   11.077    0.000    0.000    0.000    0.000    0.000 
#    0.000    0.000    0.000    0.000    0.000    0.000 
#
# Total GULP energy -322174.237640 kJ/mol
# GULP energy per Si atom -12391.316832 kJ/mol
# Density = 2.563352 g / cm^3
# Si number density = 25.692000 Si / 1000 Ang^3
#
#
#
# Elastic Constant Matrix: (Units=GPa)
#
#
# Indices 1 2 3 4 5 6 
#
# 1 66.3313 -0.8466 -6.3694 0.0000 14.7718 0.0000
# 2 -0.8466 85.1903 42.2880 0.0000 16.4862 0.0000
# 3 -6.3694 42.2880 152.2141 0.0000 21.1727 0.0000
# 4 0.0000 0.0000 0.0000 52.6269 0.0000 24.4459
# 5 14.7718 16.4862 21.1727 0.0000 36.5480 0.0000
# 6 0.0000 0.0000 0.0000 24.4459 0.0000 57.1042
#
#
#
# Elastic Compliance Matrix: (Units=1/GPa)
#
#
# Indices 1 2 3 4 5 6 
#
# 1 0.017083 0.000979 0.001593 0.000000 -0.008269 0.000000
# 2 0.000979 0.014322 -0.003246 0.000000 -0.004976 0.000000
# 3 0.001593 -0.003246 0.008075 0.000000 -0.003857 0.000000
# 4 0.000000 0.000000 0.000000 0.023718 0.000000 -0.010154
# 5 -0.008269 -0.004976 -0.003857 0.000000 0.035183 0.000000
# 6 0.000000 0.000000 0.000000 -0.010154 0.000000 0.021859
#
#
# Mechanical properties :
#
#
# Convention : Reuss Voigt Hill
#
# Bulk Modulus (GPa) = 26.22437 41.54219 33.88328
# Shear Modulus (GPa) = 37.23083 47.16672 42.19878
#
# Velocity S-wave (km/s) = 3.81086 4.28933 4.05716
# Velocity P-wave (km/s) = 5.43994 6.38244 5.92995
#
# Compressibility (1/GPa) = 0.03813247
#
# Stress axis : x y z
#
# Youngs Moduli (GPa) = 58.53853 69.82082 123.84372
#
# Poissons Ratio (x) = -0.06837 -0.19728
# Poissons Ratio (y) = -0.05732 0.40199
# Poissons Ratio (z) = -0.09325 0.22663
#
# Static dielectric constant tensor:
#      x y z
#    x 5.388680 0.000000 0.209060 
#    y 0.000000 4.685620 0.000000 
#    z 0.209060 0.000000 5.652000 
# 
# 
# High freq. dielectric constant tensor:
#      x y z
#    x 2.013400 0.000000 0.008000 
#    y 0.000000 2.013670 0.000000 
#    z 0.008000 0.000000 2.048090 
# 
# From -- ./inp_files/73711.got.cif
#   From: 2010.06.25/outbox.cif.g09.slc.cpg/sg13_37_cif.got.tgz:73711.got - 2010.06.28 04:50:58.
