data_PCOD8122988
_publ_section_title
;
Structure prediction by ZEFSAII (Michael W. Deem and Ramdas Pophale) SiO2 
 PCOD8122988
Probable space group: P 2/C
;
_chemical_formula_sum "Si O2"
_cell_formula_units_Z 16
_cell_length_a 8.017841
_cell_length_b 9.469339
_cell_length_c 10.145635
_cell_angle_alpha 90.000000
_cell_angle_beta 60.544671
_cell_angle_gamma 90.000000
_cell_volume 670.725025
_symmetry_space_group_name_H-M "P 2/C"
_symmetry_group_IT_number 13
_symmetry_cell_setting 'monoclinic'
loop_
_space_group_symop_operation_xyz
x,y,z
-x,y,1/2-z
-x,-y,-z
x,-y,1/2+z
loop_
_atom_site_type_symbol
_atom_site_label
_atom_site_fract_x
_atom_site_fract_y
_atom_site_fract_z
Si Si1 0.308242 0.099502 0.880530
Si Si2 0.278906 0.590558 0.807069
Si Si3 0.034362 0.680055 0.377795
Si Si4 0.782712 0.123755 0.300792
O O1 0.500000 0.173500 0.750000
O O2 0.130093 0.206164 0.937142
O O3 0.278505 0.956186 0.808886
O O4 0.334254 0.067315 0.025779
O O5 0.500000 0.557795 0.750000
O O6 0.174223 0.451381 0.794507
O O7 0.261533 0.710704 0.702224
O O8 0.169372 0.636523 0.982670
O O9 0.000000 0.753955 0.250000
O O10 0.000000 0.093327 0.250000
#
# Coordination Sequence:
#
# PCOD8122988 Si02
#       4
#     4   4   4   4
#     4  12  27  45  72 105 140 184 233 283 345 411
#     4  11  26  46  71 101 139 184 229 286 346 411
#     4  11  26  45  71 101 141 182 230 285 347 410
#     4  12  25  47  71 101 143 184 229 288 342 409
#
# _framework density 23.854780999999999
#
# number of rings (size 3 to 8) (size 9 to 14) (size 15 to 20)
#    0.000    0.500    2.500    4.500   10.500    1.000 
#    0.000    0.000    0.000    0.000    0.000    0.000 
#    0.000    0.000    0.000    0.000    0.000    0.000 
#
# Total GULP energy -198464.820514 kJ/mol
# GULP energy per Si atom -12404.051282 kJ/mol
# Density = 2.380049 g / cm^3
# Si number density = 23.854781 Si / 1000 Ang^3
#
#
#
# Elastic Constant Matrix: (Units=GPa)
#
#
# Indices 1 2 3 4 5 6 
#
# 1 89.8393 20.7225 54.5569 0.0000 -13.9777 0.0000
# 2 20.7225 101.9285 27.6585 0.0000 10.9379 0.0000
# 3 54.5569 27.6585 140.4010 0.0000 0.7022 0.0000
# 4 0.0000 0.0000 0.0000 27.6130 0.0000 1.8434
# 5 -13.9777 10.9379 0.7022 0.0000 58.0256 0.0000
# 6 0.0000 0.0000 0.0000 1.8434 0.0000 30.0292
#
#
#
# Elastic Compliance Matrix: (Units=1/GPa)
#
#
# Indices 1 2 3 4 5 6 
#
# 1 0.015760 -0.002107 -0.005730 0.000000 0.004263 0.000000
# 2 -0.002107 0.010867 -0.001309 0.000000 -0.002540 0.000000
# 3 -0.005730 -0.001309 0.009613 0.000000 -0.001250 0.000000
# 4 0.000000 0.000000 0.000000 0.036364 0.000000 -0.002232
# 5 0.004263 -0.002540 -0.001250 0.000000 0.018755 0.000000
# 6 0.000000 0.000000 0.000000 -0.002232 0.000000 0.033438
#
#
# Mechanical properties :
#
#
# Convention : Reuss Voigt Hill
#
# Bulk Modulus (GPa) = 55.71792 59.78271 57.75032
# Shear Modulus (GPa) = 33.54084 38.41563 35.97823
#
# Velocity S-wave (km/s) = 3.75379 4.01733 3.88779
# Velocity P-wave (km/s) = 6.49583 6.82891 6.66445
#
# Compressibility (1/GPa) = 0.01794755
#
# Stress axis : x y z
#
# Youngs Moduli (GPa) = 63.45180 92.02190 104.02198
#
# Poissons Ratio (x) = 0.19385 0.59608
# Poissons Ratio (y) = 0.13367 0.13621
# Poissons Ratio (z) = 0.36360 0.12050
#
# Static dielectric constant tensor:
#      x y z
#    x 4.400440 0.000000 -0.074160 
#    y 0.000000 4.135370 0.000000 
#    z -0.074160 0.000000 4.396880 
# 
# 
# High freq. dielectric constant tensor:
#      x y z
#    x 1.950130 0.000000 -0.003900 
#    y 0.000000 1.940510 0.000000 
#    z -0.003900 0.000000 1.960980 
# 
# From -- ./inp_files/11482.got.cif
#   From: 2010.06.25/outbox.cif.g09.slc.cpg/sg13_6_cif.got.tgz:11482.got - 2010.06.28 04:50:58.
