data_PCOD8122225
_publ_section_title
;
Structure prediction by ZEFSAII (Michael W. Deem and Ramdas Pophale) SiO2 
 PCOD8122225
Probable space group: P 2/C
;
_chemical_formula_sum "Si O2"
_cell_formula_units_Z 16
_cell_length_a 7.180835
_cell_length_b 7.540462
_cell_length_c 19.655813
_cell_angle_alpha 90.000000
_cell_angle_beta 36.817770
_cell_angle_gamma 90.000000
_cell_volume 637.804881
_symmetry_space_group_name_H-M "P 2/C"
_symmetry_group_IT_number 13
_symmetry_cell_setting 'monoclinic'
loop_
_space_group_symop_operation_xyz
x,y,z
-x,y,1/2-z
-x,-y,-z
x,-y,1/2+z
loop_
_atom_site_type_symbol
_atom_site_label
_atom_site_fract_x
_atom_site_fract_y
_atom_site_fract_z
Si Si1 0.734384 0.142604 0.276598
Si Si2 0.290368 0.177091 0.866559
Si Si3 0.313212 0.283466 0.506233
Si Si4 0.827159 0.682205 0.954631
O O1 0.547897 0.293013 0.373271
O O2 0.000000 0.065874 0.250000
O O3 0.871473 0.227107 0.167483
O O4 0.481592 0.995880 0.330764
O O5 0.500000 0.284402 0.750000
O O6 0.958975 0.134922 0.925312
O O7 0.187863 0.292708 0.960440
O O8 0.151692 0.472985 0.565252
O O9 0.511970 0.233828 0.514937
#
# Coordination Sequence:
#
# PCOD8122225 Si02
#       4
#     4   4   4   4
#     4  10  25  45  72 105 141 185 236 293 349 418
#     4  12  28  41  69 106 142 187 232 280 355 420
#     4  10  24  48  74 102 136 189 232 295 352 406
#     4  10  25  48  73 102 144 176 242 292 345 416
#
# _framework density 25.086044000000001
#
# number of rings (size 3 to 8) (size 9 to 14) (size 15 to 20)
#    0.000    1.500    0.000    1.500   14.000    2.000 
#    0.000    0.000    0.000    0.000    0.000    0.000 
#    0.000    0.000    0.000    0.000    0.000    0.000 
#
# Total GULP energy -198310.158181 kJ/mol
# GULP energy per Si atom -12394.384886 kJ/mol
# Density = 2.502895 g / cm^3
# Si number density = 25.086044 Si / 1000 Ang^3
#
#
#
# Elastic Constant Matrix: (Units=GPa)
#
#
# Indices 1 2 3 4 5 6 
#
# 1 123.9538 20.7564 48.7842 0.0000 -21.2755 0.0000
# 2 20.7564 55.6019 11.3126 0.0000 -23.1751 0.0000
# 3 48.7842 11.3126 138.0465 0.0000 2.6990 0.0000
# 4 0.0000 0.0000 0.0000 28.9871 0.0000 -5.5071
# 5 -21.2755 -23.1751 2.6990 0.0000 51.7431 0.0000
# 6 0.0000 0.0000 0.0000 -5.5071 0.0000 23.6482
#
#
#
# Elastic Compliance Matrix: (Units=1/GPa)
#
#
# Indices 1 2 3 4 5 6 
#
# 1 0.010402 -0.001580 -0.003620 0.000000 0.003758 0.000000
# 2 -0.001580 0.022923 -0.001510 0.000000 0.009696 0.000000
# 3 -0.003620 -0.001510 0.008698 0.000000 -0.002618 0.000000
# 4 0.000000 0.000000 0.000000 0.036095 0.000000 0.008406
# 5 0.003758 0.009696 -0.002618 0.000000 0.025351 0.000000
# 6 0.000000 0.000000 0.000000 0.008406 0.000000 0.044244
#
#
# Mechanical properties :
#
#
# Convention : Reuss Voigt Hill
#
# Bulk Modulus (GPa) = 34.96027 53.25649 44.10838
# Shear Modulus (GPa) = 29.29677 36.65897 32.97787
#
# Velocity S-wave (km/s) = 3.42109 3.82688 3.62966
# Velocity P-wave (km/s) = 5.43797 6.38767 5.93186
#
# Compressibility (1/GPa) = 0.02860390
#
# Stress axis : x y z
#
# Youngs Moduli (GPa) = 96.13695 43.62342 114.96801
#
# Poissons Ratio (x) = 0.06893 0.41617
# Poissons Ratio (y) = 0.15191 0.17357
# Poissons Ratio (z) = 0.34800 0.06586
#
# Static dielectric constant tensor:
#      x y z
#    x 5.123700 0.000000 0.032680 
#    y 0.000000 3.910390 0.000000 
#    z 0.032680 0.000000 5.057360 
# 
# 
# High freq. dielectric constant tensor:
#      x y z
#    x 2.028130 0.000000 -0.003880 
#    y 0.000000 1.962050 0.000000 
#    z -0.003880 0.000000 2.018260 
# 
# From -- ./inp_files/31995.got.cif
#   From: 2010.06.25/outbox.cif.g09.slc.cpg/sg13_16_cif.got.tgz:31995.got - 2010.06.28 04:50:58.
