data_PCOD8122605
_publ_section_title
;
Structure prediction by ZEFSAII (Michael W. Deem and Ramdas Pophale) SiO2 
 PCOD8122605
Probable space group: P 2/C
;
_chemical_formula_sum "Si O2"
_cell_formula_units_Z 24
_cell_length_a 12.256750
_cell_length_b 10.115232
_cell_length_c 19.104800
_cell_angle_alpha 90.000000
_cell_angle_beta 152.093118
_cell_angle_gamma 90.000000
_cell_volume 1108.594951
_symmetry_space_group_name_H-M "P 2/C"
_symmetry_group_IT_number 13
_symmetry_cell_setting 'monoclinic'
loop_
_space_group_symop_operation_xyz
x,y,z
-x,y,1/2-z
-x,-y,-z
x,-y,1/2+z
loop_
_atom_site_type_symbol
_atom_site_label
_atom_site_fract_x
_atom_site_fract_y
_atom_site_fract_z
Si Si1 0.815337 0.903068 0.092758
Si Si2 0.723064 0.504000 0.321243
Si Si3 0.389691 0.741599 0.836999
Si Si4 0.736741 0.181676 0.087954
Si Si5 0.442740 0.219694 0.797318
Si Si6 0.887405 0.990310 0.861257
O O1 0.000000 0.833160 0.250000
O O2 0.922234 0.982405 0.088872
O O3 0.693800 0.022233 0.068306
O O4 0.648239 0.792972 0.963713
O O5 0.500000 0.489988 0.250000
O O6 0.669507 0.399765 0.229555
O O7 0.714250 0.650502 0.285306
O O8 0.000000 0.500000 0.500000
O O9 0.401213 0.743828 0.928062
O O10 0.201039 0.842209 0.699279
O O11 0.000000 0.220611 0.250000
O O12 0.669406 0.242108 0.974042
O O13 0.500000 0.184402 0.750000
O O14 0.316653 0.096620 0.762079
O O15 0.000000 0.000000 0.000000
#
# Coordination Sequence:
#
# PCOD8122605 Si02
#       6
#     4   4   4   4   4   4
#     4  11  22  41  65 104 143 180 226 311 369 427
#     4  11  29  51  74 103 154 197 246 309 369 432
#     4  12  25  43  72 104 141 189 242 304 369 435
#     4  11  22  42  71 105 143 186 237 299 372 441
#     4  11  25  45  70  99 141 192 241 298 362 437
#     4  12  24  37  69 103 137 179 246 296 364 440
#
# _framework density 21.649025000000002
#
# number of rings (size 3 to 8) (size 9 to 14) (size 15 to 20)
#    0.000    0.667    5.000    3.500    9.333    0.667 
#    0.000    0.833    0.000    0.000    0.000    0.000 
#    0.000    0.000    0.000    0.000    0.000    0.000 
#
# Total GULP energy -297359.490763 kJ/mol
# GULP energy per Si atom -12389.978782 kJ/mol
# Density = 2.159975 g / cm^3
# Si number density = 21.649025 Si / 1000 Ang^3
#
#
#
# Elastic Constant Matrix: (Units=GPa)
#
#
# Indices 1 2 3 4 5 6 
#
# 1 90.9473 26.5109 39.6182 0.0000 -10.3628 0.0000
# 2 26.5109 69.6630 6.5767 0.0000 1.3308 0.0000
# 3 39.6182 6.5767 143.6893 0.0000 -11.1277 0.0000
# 4 0.0000 0.0000 0.0000 42.2407 0.0000 -7.1856
# 5 -10.3628 1.3308 -11.1277 0.0000 43.7583 0.0000
# 6 0.0000 0.0000 0.0000 -7.1856 0.0000 17.8936
#
#
#
# Elastic Compliance Matrix: (Units=1/GPa)
#
#
# Indices 1 2 3 4 5 6 
#
# 1 0.014336 -0.005175 -0.003510 0.000000 0.002660 0.000000
# 2 -0.005175 0.016302 0.000558 0.000000 -0.001579 0.000000
# 3 -0.003510 0.000558 0.007993 0.000000 0.001185 0.000000
# 4 0.000000 0.000000 0.000000 0.025410 0.000000 0.010204
# 5 0.002660 -0.001579 0.001185 0.000000 0.023832 0.000000
# 6 0.000000 0.000000 0.000000 0.010204 0.000000 0.059984
#
#
# Mechanical properties :
#
#
# Convention : Reuss Voigt Hill
#
# Bulk Modulus (GPa) = 44.68688 49.96792 47.32740
# Shear Modulus (GPa) = 29.14285 36.21809 32.68047
#
# Velocity S-wave (km/s) = 3.67297 4.09463 3.88952
# Velocity P-wave (km/s) = 6.21884 6.74431 6.48690
#
# Compressibility (1/GPa) = 0.02237793
#
# Stress axis : x y z
#
# Youngs Moduli (GPa) = 69.75467 61.34322 125.10352
#
# Poissons Ratio (x) = 0.31746 0.43910
# Poissons Ratio (y) = 0.36099 -0.06986
# Poissons Ratio (z) = 0.24483 -0.03426
#
# Static dielectric constant tensor:
#      x y z
#    x 4.160570 0.000000 0.148060 
#    y 0.000000 3.851190 0.000000 
#    z 0.148060 0.000000 4.217490 
# 
# 
# High freq. dielectric constant tensor:
#      x y z
#    x 1.852890 0.000000 -0.002580 
#    y 0.000000 1.827050 0.000000 
#    z -0.002580 0.000000 1.875140 
# 
# From -- ./inp_files/66700.got.cif
#   From: 2010.06.25/outbox.cif.g09.slc.cpg/sg13_34_cif.got.tgz:66700.got - 2010.06.28 04:50:58.
