data_PCOD8122910
_publ_section_title
;
Structure prediction by ZEFSAII (Michael W. Deem and Ramdas Pophale) SiO2 
 PCOD8122910
Probable space group: P 2/C
;
_chemical_formula_sum "Si O2"
_cell_formula_units_Z 24
_cell_length_a 9.212143
_cell_length_b 10.176227
_cell_length_c 22.976748
_cell_angle_alpha 90.000000
_cell_angle_beta 27.297087
_cell_angle_gamma 90.000000
_cell_volume 987.811805
_symmetry_space_group_name_H-M "P 2/C"
_symmetry_group_IT_number 13
_symmetry_cell_setting 'monoclinic'
loop_
_space_group_symop_operation_xyz
x,y,z
-x,y,1/2-z
-x,-y,-z
x,-y,1/2+z
loop_
_atom_site_type_symbol
_atom_site_label
_atom_site_fract_x
_atom_site_fract_y
_atom_site_fract_z
Si Si1 0.676402 0.561912 0.590380
Si Si2 0.606362 0.307725 0.777499
Si Si3 0.675322 0.225255 0.504125
Si Si4 0.364316 0.958990 0.627220
Si Si5 0.612060 0.824544 0.769150
Si Si6 0.319772 0.698017 0.028478
O O1 0.396752 0.465804 0.711595
O O2 0.632258 0.706187 0.631749
O O3 0.671968 0.577506 0.521019
O O4 0.000000 0.500000 0.500000
O O5 0.500000 0.269900 0.750000
O O6 0.372952 0.248583 0.909783
O O7 0.958254 0.253890 0.663142
O O8 0.466199 0.331341 0.540726
O O9 0.039109 0.238529 0.356938
O O10 0.570650 0.075550 0.525828
O O11 0.426235 0.946468 0.673996
O O12 0.451184 0.816575 0.571778
O O13 0.000000 0.993378 0.750000
O O14 0.500000 0.891774 0.750000
#
# Coordination Sequence:
#
# PCOD8122910 Si02
#       6
#     4   4   4   4   4   4
#     4  11  24  48  76 100 147 199 239 309 374 439
#     4  12  26  44  71 106 147 192 244 306 373 437
#     4  12  27  46  75 110 149 191 251 313 369 450
#     4  11  24  48  76 102 153 196 237 317 380 440
#     4  11  26  45  74 109 144 197 256 300 379 448
#     4  11  25  47  74 107 142 197 252 296 379 449
#
# _framework density 24.296126000000001
#
# number of rings (size 3 to 8) (size 9 to 14) (size 15 to 20)
#    0.000    0.667    3.333    3.500    7.000    2.000 
#    3.000    0.000    0.000    0.000    0.000    0.000 
#    0.000    0.000    0.000    0.000    0.000    0.000 
#
# Total GULP energy -297508.505453 kJ/mol
# GULP energy per Si atom -12396.187727 kJ/mol
# Density = 2.424083 g / cm^3
# Si number density = 24.296126 Si / 1000 Ang^3
#
#
#
# Elastic Constant Matrix: (Units=GPa)
#
#
# Indices 1 2 3 4 5 6 
#
# 1 170.3071 33.8854 38.9403 0.0000 -1.9925 0.0000
# 2 33.8854 55.7938 5.4820 0.0000 -5.6535 0.0000
# 3 38.9403 5.4820 103.7946 0.0000 -12.2173 0.0000
# 4 0.0000 0.0000 0.0000 39.2960 0.0000 7.8440
# 5 -1.9925 -5.6535 -12.2173 0.0000 41.6625 0.0000
# 6 0.0000 0.0000 0.0000 7.8440 0.0000 35.9006
#
#
#
# Elastic Compliance Matrix: (Units=1/GPa)
#
#
# Indices 1 2 3 4 5 6 
#
# 1 0.007316 -0.004286 -0.002636 0.000000 -0.001005 0.000000
# 2 -0.004286 0.020732 0.000849 0.000000 0.002857 0.000000
# 3 -0.002636 0.000849 0.010956 0.000000 0.003202 0.000000
# 4 0.000000 0.000000 0.000000 0.026608 0.000000 -0.005814
# 5 -0.001005 0.002857 0.003202 0.000000 0.025281 0.000000
# 6 0.000000 0.000000 0.000000 -0.005814 0.000000 0.029125
#
#
# Mechanical properties :
#
#
# Convention : Reuss Voigt Hill
#
# Bulk Modulus (GPa) = 37.23398 54.05678 45.64538
# Shear Modulus (GPa) = 35.43187 40.14432 37.78809
#
# Velocity S-wave (km/s) = 3.82296 4.06925 3.94802
# Velocity P-wave (km/s) = 5.90297 6.66152 6.29368
#
# Compressibility (1/GPa) = 0.02685719
#
# Stress axis : x y z
#
# Youngs Moduli (GPa) = 136.69550 48.23438 91.27798
#
# Poissons Ratio (x) = 0.20672 0.24065
# Poissons Ratio (y) = 0.58584 -0.07751
# Poissons Ratio (z) = 0.36039 -0.04096
#
# Static dielectric constant tensor:
#      x y z
#    x 5.044080 0.000000 0.327260 
#    y 0.000000 4.204490 0.000000 
#    z 0.327260 0.000000 4.381980 
# 
# 
# High freq. dielectric constant tensor:
#      x y z
#    x 1.989920 0.000000 0.012960 
#    y 0.000000 1.944050 0.000000 
#    z 0.012960 0.000000 1.970440 
# 
# From -- ./inp_files/85178.got.cif
#   From: 2010.06.25/outbox.cif.g09.slc.cpg/sg13_43_cif.got.tgz:85178.got - 2010.06.28 04:50:58.
