data_PCOD8122735
_publ_section_title
;
Structure prediction by ZEFSAII (Michael W. Deem and Ramdas Pophale) SiO2 
 PCOD8122735
Probable space group: P 2/C
;
_chemical_formula_sum "Si O2"
_cell_formula_units_Z 16
_cell_length_a 8.085314
_cell_length_b 18.469806
_cell_length_c 9.100796
_cell_angle_alpha 90.000000
_cell_angle_beta 146.765505
_cell_angle_gamma 90.000000
_cell_volume 744.855755
_symmetry_space_group_name_H-M "P 2/C"
_symmetry_group_IT_number 13
_symmetry_cell_setting 'monoclinic'
loop_
_space_group_symop_operation_xyz
x,y,z
-x,y,1/2-z
-x,-y,-z
x,-y,1/2+z
loop_
_atom_site_type_symbol
_atom_site_label
_atom_site_fract_x
_atom_site_fract_y
_atom_site_fract_z
Si Si1 0.842237 0.939059 0.977985
Si Si2 0.339252 0.560233 0.475591
Si Si3 0.244086 0.282544 0.807225
Si Si4 0.132059 0.795967 0.692556
O O1 0.500000 0.962969 0.750000
O O2 0.869348 0.863536 0.915585
O O3 0.000000 0.929774 0.250000
O O4 0.000000 0.000000 0.000000
O O5 0.500000 0.500000 0.500000
O O6 0.346204 0.634158 0.387597
O O7 0.000000 0.533624 0.250000
O O8 0.500000 0.573683 0.750000
O O9 0.000000 0.265173 0.750000
O O10 0.085972 0.266925 0.533316
O O11 0.527814 0.231060 0.040818
O O12 0.000000 0.820564 0.750000
#
# Coordination Sequence:
#
# PCOD8122735 Si02
#       4
#     4   4   4   4
#     4  12  26  45  69  95 130 170 210 259 314 375
#     4  11  24  42  65  93 128 168 212 262 318 380
#     4  11  23  43  66  92 127 170 212 259 318 378
#     4  12  25  42  66  98 128 164 213 264 314 373
#
# _framework density 21.48067
#
# number of rings (size 3 to 8) (size 9 to 14) (size 15 to 20)
#    0.000    0.500    0.000   10.500    0.000    5.000 
#    0.000    0.000    0.000    0.000    0.000    0.000 
#    0.000    0.000    0.000    0.000    0.000    0.000 
#
# Total GULP energy -198523.088453 kJ/mol
# GULP energy per Si atom -12407.693028 kJ/mol
# Density = 2.143178 g / cm^3
# Si number density = 21.480670 Si / 1000 Ang^3
#
#
#
# Elastic Constant Matrix: (Units=GPa)
#
#
# Indices 1 2 3 4 5 6 
#
# 1 146.3606 79.6960 71.0805 0.0000 7.2261 0.0000
# 2 79.6960 78.0414 17.2283 0.0000 20.0666 0.0000
# 3 71.0805 17.2283 146.8453 0.0000 17.4505 0.0000
# 4 0.0000 0.0000 0.0000 48.2171 0.0000 -88.9533
# 5 7.2261 20.0666 17.4505 0.0000 39.9668 0.0000
# 6 0.0000 0.0000 0.0000 -88.9533 0.0000 231.9894
#
#
#
# Elastic Compliance Matrix: (Units=1/GPa)
#
#
# Indices 1 2 3 4 5 6 
#
# 1 0.028414 -0.030304 -0.012020 0.000000 0.015326 0.000000
# 2 -0.030304 0.047145 0.011918 0.000000 -0.023395 0.000000
# 3 -0.012020 0.011918 0.012322 0.000000 -0.009191 0.000000
# 4 0.000000 0.000000 0.000000 0.070876 0.000000 0.027176
# 5 0.015326 -0.023395 -0.009191 0.000000 0.038009 0.000000
# 6 0.000000 0.000000 0.000000 0.027176 0.000000 0.014731
#
#
# Mechanical properties :
#
#
# Convention : Reuss Voigt Hill
#
# Bulk Modulus (GPa) = 36.94291 78.58411 57.76351
# Shear Modulus (GPa) = 17.77257 77.58416 47.67837
#
# Velocity S-wave (km/s) = 2.87953 6.01636 4.71637
# Velocity P-wave (km/s) = 5.31894 9.21548 7.52384
#
# Compressibility (1/GPa) = 0.02706879
#
# Stress axis : x y z
#
# Youngs Moduli (GPa) = 35.19345 21.21124 81.15511
#
# Poissons Ratio (x) = 0.64279 0.97548
# Poissons Ratio (y) = 1.06650 -0.96718
# Poissons Ratio (z) = 0.42302 -0.25279
#
# Static dielectric constant tensor:
#      x y z
#    x 4.490120 0.000000 0.375500 
#    y 0.000000 4.178360 0.000000 
#    z 0.375500 0.000000 4.501000 
# 
# 
# High freq. dielectric constant tensor:
#      x y z
#    x 1.852600 0.000000 0.005360 
#    y 0.000000 1.851450 0.000000 
#    z 0.005360 0.000000 1.870000 
# 
# From -- ./inp_files/9284.got.cif
#   From: 2010.06.25/outbox.cif.g09.slc.cpg/sg13_5_cif.got.tgz:9284.got - 2010.06.28 04:50:58.
