data_PCOD8122137
_publ_section_title
;
Structure prediction by ZEFSAII (Michael W. Deem and Ramdas Pophale) SiO2 
 PCOD8122137
Probable space group: P 2/C
;
_chemical_formula_sum "Si O2"
_cell_formula_units_Z 12
_cell_length_a 6.197875
_cell_length_b 7.241599
_cell_length_c 17.733973
_cell_angle_alpha 90.000000
_cell_angle_beta 147.107205
_cell_angle_gamma 90.000000
_cell_volume 432.253214
_symmetry_space_group_name_H-M "P 2/C"
_symmetry_group_IT_number 13
_symmetry_cell_setting 'monoclinic'
loop_
_space_group_symop_operation_xyz
x,y,z
-x,y,1/2-z
-x,-y,-z
x,-y,1/2+z
loop_
_atom_site_type_symbol
_atom_site_label
_atom_site_fract_x
_atom_site_fract_y
_atom_site_fract_z
Si Si1 0.578696 0.913144 0.857673
Si Si2 0.678998 0.307430 0.714290
Si Si3 0.738045 0.424835 0.498859
O O1 0.500000 0.835515 0.750000
O O2 0.495302 0.747563 0.891650
O O3 0.289356 0.087380 0.783707
O O4 0.000000 0.000000 0.000000
O O5 0.257039 0.403619 0.561675
O O6 0.000000 0.391354 0.750000
O O7 0.821639 0.360222 0.841946
O O8 0.500000 0.500000 0.500000
#
# Coordination Sequence:
#
# PCOD8122137 Si02
#       3
#     4   4   4
#     4  12  26  46  71 108 149 193 243 308 368 428
#     4  10  24  44  71 103 143 194 248 294 365 441
#     4  10  24  45  70 103 142 194 243 297 360 440
#
# _framework density 27.761506000000001
#
# number of rings (size 3 to 8) (size 9 to 14) (size 15 to 20)
#    0.000    1.333    3.333    0.000    4.667   12.000 
#    0.000    0.000    0.000    0.000    0.000    0.000 
#    0.000    0.000    0.000    0.000    0.000    0.000 
#
# Total GULP energy -148772.433133 kJ/mol
# GULP energy per Si atom -12397.702761 kJ/mol
# Density = 2.769832 g / cm^3
# Si number density = 27.761506 Si / 1000 Ang^3
#
#
#
# Elastic Constant Matrix: (Units=GPa)
#
#
# Indices 1 2 3 4 5 6 
#
# 1 85.2963 61.8939 81.1563 0.0000 -38.8119 0.0000
# 2 61.8939 218.7660 88.6098 0.0000 -46.4370 0.0000
# 3 81.1563 88.6098 224.7343 0.0000 -52.0232 0.0000
# 4 0.0000 0.0000 0.0000 70.6571 0.0000 -16.5061
# 5 -38.8119 -46.4370 -52.0232 0.0000 47.5527 0.0000
# 6 0.0000 0.0000 0.0000 -16.5061 0.0000 47.7180
#
#
#
# Elastic Compliance Matrix: (Units=1/GPa)
#
#
# Indices 1 2 3 4 5 6 
#
# 1 0.023105 -0.002140 -0.004845 0.000000 0.011467 0.000000
# 2 -0.002140 0.006262 -0.000917 0.000000 0.003365 0.000000
# 3 -0.004845 -0.000917 0.007283 0.000000 0.003117 0.000000
# 4 0.000000 0.000000 0.000000 0.015397 0.000000 0.005326
# 5 0.011467 0.003365 0.003117 0.000000 0.037085 0.000000
# 6 0.000000 0.000000 0.000000 0.005326 0.000000 0.022799
#
#
# Mechanical properties :
#
#
# Convention : Reuss Voigt Hill
#
# Bulk Modulus (GPa) = 47.97512 110.23517 79.10515
# Shear Modulus (GPa) = 37.12395 52.99466 45.05931
#
# Velocity S-wave (km/s) = 3.66080 4.37387 4.03312
# Velocity P-wave (km/s) = 5.93189 8.08095 7.08834
#
# Compressibility (1/GPa) = 0.02084414
#
# Stress axis : x y z
#
# Youngs Moduli (GPa) = 43.28119 159.68075 137.31310
#
# Poissons Ratio (x) = 0.34175 0.66532
# Poissons Ratio (y) = 0.09263 0.12596
# Poissons Ratio (z) = 0.20971 0.14648
#
# Static dielectric constant tensor:
#      x y z
#    x 4.687920 0.000000 -0.084120 
#    y 0.000000 5.788520 0.000000 
#    z -0.084120 0.000000 6.155300 
# 
# 
# High freq. dielectric constant tensor:
#      x y z
#    x 2.157590 0.000000 -0.019950 
#    y 0.000000 2.123740 0.000000 
#    z -0.019950 0.000000 2.164840 
# 
# From -- ./inp_files/10599.got.cif
#   From: 2010.06.25/outbox.cif.g09.slc.cpg/sg13_6_cif.got.tgz:10599.got - 2010.06.28 04:50:58.
