data_PCOD8122683
_publ_section_title
;
Structure prediction by ZEFSAII (Michael W. Deem and Ramdas Pophale) SiO2 
 PCOD8122683
Probable space group: P 2/C
;
_chemical_formula_sum "Si O2"
_cell_formula_units_Z 32
_cell_length_a 8.741083
_cell_length_b 10.872444
_cell_length_c 14.844704
_cell_angle_alpha 90.000000
_cell_angle_beta 87.253773
_cell_angle_gamma 90.000000
_cell_volume 1409.174939
_symmetry_space_group_name_H-M "P 2/C"
_symmetry_group_IT_number 13
_symmetry_cell_setting 'monoclinic'
loop_
_space_group_symop_operation_xyz
x,y,z
-x,y,1/2-z
-x,-y,-z
x,-y,1/2+z
loop_
_atom_site_type_symbol
_atom_site_label
_atom_site_fract_x
_atom_site_fract_y
_atom_site_fract_z
Si Si1 0.349823 0.324480 0.018544
Si Si2 0.162037 0.929082 0.888796
Si Si3 0.325256 0.952706 0.223443
Si Si4 0.334950 0.686355 0.900506
Si Si5 0.630741 0.430053 0.675422
Si Si6 0.189409 0.918963 0.563792
Si Si7 0.156556 0.285051 0.715837
Si Si8 0.147573 0.451483 0.548626
O O1 0.492920 0.283621 0.074191
O O2 0.237588 0.207885 0.014412
O O3 0.258797 0.434848 0.069545
O O4 0.411592 0.374284 0.920864
O O5 0.257002 0.806632 0.860402
O O6 0.980384 0.906405 0.889965
O O7 0.213479 0.026046 0.811697
O O8 0.202801 0.975547 0.987882
O O9 0.500000 0.954785 0.250000
O O10 0.279867 0.818756 0.184682
O O11 0.302362 0.050180 0.143558
O O12 0.340484 0.576233 0.827886
O O13 0.232432 0.648860 0.987017
O O14 0.500000 0.396392 0.750000
O O15 0.785322 0.365111 0.701885
O O16 0.108665 0.380545 0.640030
O O17 0.000000 0.218094 0.750000
O O18 0.000000 0.500000 0.500000
#
# Coordination Sequence:
#
# PCOD8122683 Si02
#       8
#     4   4   4   4   4   4   4   4
#     4  11  23  41  66  96 132 176 223 276 340 410
#     4  11  25  45  70  99 133 181 231 282 343 411
#     4  12  27  45  69 100 135 180 233 287 347 417
#     4  11  23  40  64  93 129 171 219 273 337 403
#     4  11  23  41  65  97 133 171 219 275 337 402
#     4  11  25  46  69  96 137 180 227 285 344 409
#     4  12  24  40  65  95 129 169 218 277 335 397
#     4  11  23  42  64  93 130 174 222 273 340 414
#
# _framework density 22.708323
#
# number of rings (size 3 to 8) (size 9 to 14) (size 15 to 20)
#    0.000    0.750    0.000    9.000    0.000    9.500 
#    0.000    1.250    0.000    0.000    0.000    0.000 
#    0.000    0.000    0.000    0.000    0.000    0.000 
#
# Total GULP energy -396894.489773 kJ/mol
# GULP energy per Si atom -12402.952805 kJ/mol
# Density = 2.265664 g / cm^3
# Si number density = 22.708323 Si / 1000 Ang^3
#
#
#
# Elastic Constant Matrix: (Units=GPa)
#
#
# Indices 1 2 3 4 5 6 
#
# 1 125.0097 52.2979 34.8840 0.0000 1.3707 0.0000
# 2 52.2979 122.8184 38.4920 0.0000 1.3203 0.0000
# 3 34.8840 38.4920 80.4823 0.0000 3.0730 0.0000
# 4 0.0000 0.0000 0.0000 30.9563 0.0000 3.9445
# 5 1.3707 1.3203 3.0730 0.0000 35.7566 0.0000
# 6 0.0000 0.0000 0.0000 3.9445 0.0000 41.4056
#
#
#
# Elastic Compliance Matrix: (Units=1/GPa)
#
#
# Indices 1 2 3 4 5 6 
#
# 1 0.010231 -0.003490 -0.002764 0.000000 -0.000026 0.000000
# 2 -0.003490 0.010768 -0.003639 0.000000 0.000049 0.000000
# 3 -0.002764 -0.003639 0.015405 0.000000 -0.001084 0.000000
# 4 0.000000 0.000000 0.000000 0.032700 0.000000 -0.003115
# 5 -0.000026 0.000049 -0.001084 0.000000 0.028059 0.000000
# 6 0.000000 0.000000 0.000000 -0.003115 0.000000 0.024448
#
#
# Mechanical properties :
#
#
# Convention : Reuss Voigt Hill
#
# Bulk Modulus (GPa) = 60.17841 64.40648 62.29244
# Shear Modulus (GPa) = 34.02783 35.13282 34.58032
#
# Velocity S-wave (km/s) = 3.87521 3.93763 3.90655
# Velocity P-wave (km/s) = 6.82504 7.00695 6.91659
#
# Compressibility (1/GPa) = 0.01661726
#
# Stress axis : x y z
#
# Youngs Moduli (GPa) = 97.74147 92.86606 64.91302
#
# Poissons Ratio (x) = 0.32409 0.17945
# Poissons Ratio (y) = 0.34111 0.23624
# Poissons Ratio (z) = 0.27020 0.33797
#
# Static dielectric constant tensor:
#      x y z
#    x 4.611480 0.000000 -0.243840 
#    y 0.000000 4.094260 0.000000 
#    z -0.243840 0.000000 4.077990 
# 
# 
# High freq. dielectric constant tensor:
#      x y z
#    x 1.909940 0.000000 -0.000130 
#    y 0.000000 1.904670 0.000000 
#    z -0.000130 0.000000 1.890350 
# 
# From -- ./inp_files/47263.got.cif
#   From: 2010.06.25/outbox.cif.g09.slc.cpg/sg13_24_cif.got.tgz:47263.got - 2010.06.28 04:50:58.
