data_PCOD8122365
_publ_section_title
;
Structure prediction by ZEFSAII (Michael W. Deem and Ramdas Pophale) SiO2 
 PCOD8122365
Probable space group: P 2/C
;
_chemical_formula_sum "Si O2"
_cell_formula_units_Z 22
_cell_length_a 5.014669
_cell_length_b 16.310458
_cell_length_c 11.714210
_cell_angle_alpha 90.000000
_cell_angle_beta 80.891360
_cell_angle_gamma 90.000000
_cell_volume 946.041383
_symmetry_space_group_name_H-M "P 2/C"
_symmetry_group_IT_number 13
_symmetry_cell_setting 'monoclinic'
loop_
_space_group_symop_operation_xyz
x,y,z
-x,y,1/2-z
-x,-y,-z
x,-y,1/2+z
loop_
_atom_site_type_symbol
_atom_site_label
_atom_site_fract_x
_atom_site_fract_y
_atom_site_fract_z
Si Si1 0.374370 0.701041 0.589353
Si Si2 0.000000 0.450032 0.750000
Si Si3 0.000000 0.200788 0.750000
Si Si4 0.079151 0.682954 0.057935
Si Si5 0.279097 0.017529 0.421413
Si Si6 0.500000 0.560876 0.750000
Si Si7 0.500000 0.890266 0.250000
Si Si8 0.500000 0.839860 0.750000
O O1 0.621300 0.718214 0.486429
O O2 0.468388 0.617836 0.642690
O O3 0.327829 0.778902 0.678518
O O4 0.092567 0.678448 0.547222
O O5 0.101019 0.399220 0.632477
O O6 0.239609 0.504697 0.783360
O O7 0.912508 0.252765 0.645842
O O8 0.278384 0.157940 0.690844
O O9 0.313377 0.102794 0.346266
O O10 0.500000 0.000000 0.500000
O O11 0.291670 0.943508 0.334475
O O12 0.000000 0.000000 0.500000
#
# Coordination Sequence:
#
# PCOD8122365 Si02
#       8
#     4   2   2   4   4   2   2   2
#     4  11  25  44  69 101 135 186 231 276 350 410
#     4  11  24  44  66 101 144 172 228 297 326 410
#     4  11  24  42  66  99 134 176 232 291 338 412
#     4  11  25  42  68 100 135 183 230 278 352 405
#     4  11  26  45  71 100 135 182 227 281 354 401
#     4  11  24  42  68  99 140 180 230 285 338 408
#     4  11  24  42  66 101 132 172 236 285 330 422
#     4  10  28  48  70 104 144 176 234 296 330 416
#
# _framework density 23.254798999999998
#
# number of rings (size 3 to 8) (size 9 to 14) (size 15 to 20)
#    0.000    1.091    0.000    4.364    7.636   13.091 
#    0.000    0.000    0.000    0.000    0.000    0.000 
#    0.000    0.000    0.000    0.000    0.000    0.000 
#
# Total GULP energy -272548.836751 kJ/mol
# GULP energy per Si atom -12388.583489 kJ/mol
# Density = 2.320187 g / cm^3
# Si number density = 23.254799 Si / 1000 Ang^3
#
#
#
# Elastic Constant Matrix: (Units=GPa)
#
#
# Indices 1 2 3 4 5 6 
#
# 1 140.0185 43.2893 32.9820 0.0000 -2.9489 0.0000
# 2 43.2893 131.2084 51.2135 0.0000 0.9581 0.0000
# 3 32.9820 51.2135 110.3023 0.0000 -2.0611 0.0000
# 4 0.0000 0.0000 0.0000 150.7629 0.0000 -39.4177
# 5 -2.9489 0.9581 -2.0611 0.0000 48.9197 0.0000
# 6 0.0000 0.0000 0.0000 -39.4177 0.0000 33.8724
#
#
#
# Elastic Compliance Matrix: (Units=1/GPa)
#
#
# Indices 1 2 3 4 5 6 
#
# 1 0.008149 -0.002131 -0.001439 0.000000 0.000472 0.000000
# 2 -0.002131 0.009872 -0.003956 0.000000 -0.000488 0.000000
# 3 -0.001439 -0.003956 0.011342 0.000000 0.000469 0.000000
# 4 0.000000 0.000000 0.000000 0.009534 0.000000 0.011094
# 5 0.000472 -0.000488 0.000469 0.000000 0.020499 0.000000
# 6 0.000000 0.000000 0.000000 0.011094 0.000000 0.042433
#
#
# Mechanical properties :
#
#
# Convention : Reuss Voigt Hill
#
# Bulk Modulus (GPa) = 69.86628 70.72210 70.29419
# Shear Modulus (GPa) = 41.10144 63.64729 52.37437
#
# Velocity S-wave (km/s) = 4.20865 5.23726 4.75088
# Velocity P-wave (km/s) = 7.32981 8.18839 7.77097
#
# Compressibility (1/GPa) = 0.01431306
#
# Stress axis : x y z
#
# Youngs Moduli (GPa) = 122.70719 101.29720 88.17136
#
# Poissons Ratio (x) = 0.21583 0.12686
# Poissons Ratio (y) = 0.26144 0.34877
# Poissons Ratio (z) = 0.17654 0.40069
#
# Static dielectric constant tensor:
#      x y z
#    x 3.738890 0.000000 -0.071240 
#    y 0.000000 4.496330 0.000000 
#    z -0.071240 0.000000 4.248020 
# 
# 
# High freq. dielectric constant tensor:
#      x y z
#    x 1.920830 0.000000 0.000720 
#    y 0.000000 1.931820 0.000000 
#    z 0.000720 0.000000 1.932270 
# 
# From -- ./inp_files/26246.got.cif
#   From: 2010.06.25/outbox.cif.g09.slc.cpg/sg13_14_cif.got.tgz:26246.got - 2010.06.28 04:50:58.
