data_PCOD8122452
_publ_section_title
;
Structure prediction by ZEFSAII (Michael W. Deem and Ramdas Pophale) SiO2 
 PCOD8122452
Probable space group: P 2/C
;
_chemical_formula_sum "Si O2"
_cell_formula_units_Z 20
_cell_length_a 6.873229
_cell_length_b 5.225757
_cell_length_c 23.730485
_cell_angle_alpha 90.000000
_cell_angle_beta 94.218798
_cell_angle_gamma 90.000000
_cell_volume 850.037872
_symmetry_space_group_name_H-M "P 2/C"
_symmetry_group_IT_number 13
_symmetry_cell_setting 'monoclinic'
loop_
_space_group_symop_operation_xyz
x,y,z
-x,y,1/2-z
-x,-y,-z
x,-y,1/2+z
loop_
_atom_site_type_symbol
_atom_site_label
_atom_site_fract_x
_atom_site_fract_y
_atom_site_fract_z
Si Si1 0.302070 0.139817 0.515350
Si Si2 0.886880 0.080671 0.803167
Si Si3 0.011398 0.909574 0.919448
Si Si4 0.359983 0.580738 0.695784
Si Si5 0.631952 0.361740 0.425958
O O1 0.225824 0.158536 0.448739
O O2 0.417877 0.388059 0.539288
O O3 0.433316 0.881773 0.534520
O O4 0.098785 0.128171 0.546259
O O5 0.756728 0.831893 0.787657
O O6 0.000000 0.160520 0.750000
O O7 0.038287 0.011738 0.856412
O O8 0.764423 0.326761 0.819153
O O9 0.863986 0.665358 0.917318
O O10 0.500000 0.510090 0.750000
O O11 0.470923 0.637993 0.638096
#
# Coordination Sequence:
#
# PCOD8122452 Si02
#       5
#     4   4   4   4   4
#     4   9  15  24  45  69 102 119 159 212 264 282
#     4  11  22  36  52  79 111 137 168 215 264 309
#     4   8  17  25  46  69 102 124 160 205 265 293
#     4  11  21  36  54  76 104 142 181 210 248 308
#     4   9  15  27  42  71  96 120 160 215 250 283
#
# _framework density 23.528364
#
# number of rings (size 3 to 8) (size 9 to 14) (size 15 to 20)
#    1.200    1.200    2.000    1.800    0.000    0.000 
#    0.000    0.000    0.000    0.000    0.000    8.400 
#    0.000    0.000    0.000    0.000    0.000    0.000 
#
# Total GULP energy -247844.760457 kJ/mol
# GULP energy per Si atom -12392.238023 kJ/mol
# Density = 2.347481 g / cm^3
# Si number density = 23.528364 Si / 1000 Ang^3
#
#
#
# Elastic Constant Matrix: (Units=GPa)
#
#
# Indices 1 2 3 4 5 6 
#
# 1 37.7411 12.6745 40.9036 0.0000 10.4188 0.0000
# 2 12.6745 151.0998 55.9474 0.0000 5.9911 0.0000
# 3 40.9036 55.9474 202.0971 0.0000 24.7822 0.0000
# 4 0.0000 0.0000 0.0000 33.3347 0.0000 2.9636
# 5 10.4188 5.9911 24.7822 0.0000 31.5017 0.0000
# 6 0.0000 0.0000 0.0000 2.9636 0.0000 14.9971
#
#
#
# Elastic Compliance Matrix: (Units=1/GPa)
#
#
# Indices 1 2 3 4 5 6 
#
# 1 0.035187 -0.000393 -0.006192 0.000000 -0.006691 0.000000
# 2 -0.000393 0.007380 -0.002000 0.000000 0.000300 0.000000
# 3 -0.006192 -0.002000 0.007147 0.000000 -0.003194 0.000000
# 4 0.000000 0.000000 0.000000 0.030535 0.000000 -0.006034
# 5 -0.006691 0.000300 -0.003194 0.000000 0.036413 0.000000
# 6 0.000000 0.000000 0.000000 -0.006034 0.000000 0.067872
#
#
# Mechanical properties :
#
#
# Convention : Reuss Voigt Hill
#
# Bulk Modulus (GPa) = 30.72974 67.77656 49.25315
# Shear Modulus (GPa) = 23.52361 34.72754 29.12557
#
# Velocity S-wave (km/s) = 3.16539 3.84602 3.52219
# Velocity P-wave (km/s) = 5.14283 6.97075 6.12536
#
# Compressibility (1/GPa) = 0.03254176
#
# Stress axis : x y z
#
# Youngs Moduli (GPa) = 28.41978 135.50424 139.92344
#
# Poissons Ratio (x) = 0.05331 0.86643
# Poissons Ratio (y) = 0.01118 0.27987
# Poissons Ratio (z) = 0.17598 0.27103
#
# Static dielectric constant tensor:
#      x y z
#    x 3.977270 0.000000 0.021590 
#    y 0.000000 4.079740 0.000000 
#    z 0.021590 0.000000 4.433720 
# 
# 
# High freq. dielectric constant tensor:
#      x y z
#    x 1.899620 0.000000 -0.003450 
#    y 0.000000 1.936080 0.000000 
#    z -0.003450 0.000000 1.959200 
# 
# From -- ./inp_files/84020.got.cif
#   From: 2010.06.25/outbox.cif.g09.slc.cpg/sg13_43_cif.got.tgz:84020.got - 2010.06.28 04:50:58.
