data_PCOD8122157
_publ_section_title
;
Structure prediction by ZEFSAII (Michael W. Deem and Ramdas Pophale) SiO2 
 PCOD8122157
Probable space group: P 2/C
;
_chemical_formula_sum "Si O2"
_cell_formula_units_Z 24
_cell_length_a 20.887966
_cell_length_b 10.652645
_cell_length_c 13.750475
_cell_angle_alpha 90.000000
_cell_angle_beta 158.260051
_cell_angle_gamma 90.000000
_cell_volume 1133.276369
_symmetry_space_group_name_H-M "P 2/C"
_symmetry_group_IT_number 13
_symmetry_cell_setting 'monoclinic'
loop_
_space_group_symop_operation_xyz
x,y,z
-x,y,1/2-z
-x,-y,-z
x,-y,1/2+z
loop_
_atom_site_type_symbol
_atom_site_label
_atom_site_fract_x
_atom_site_fract_y
_atom_site_fract_z
Si Si1 0.061641 0.367360 0.547462
Si Si2 0.941476 0.040977 0.775869
Si Si3 0.183660 0.154650 0.261132
Si Si4 0.000000 0.567445 0.750000
Si Si5 0.329764 0.749977 0.550626
Si Si6 0.373939 0.513129 0.730770
Si Si7 0.500000 0.685840 0.250000
O O1 0.253748 0.335158 0.854810
O O2 0.000000 0.500000 0.500000
O O3 0.942854 0.269303 0.433194
O O4 0.044322 0.349739 0.407125
O O5 0.806511 0.155538 0.594220
O O6 0.000000 0.018140 0.750000
O O7 0.842283 0.916496 0.672865
O O8 0.123250 0.058540 0.091058
O O9 0.371193 0.216546 0.515235
O O10 0.828844 0.485292 0.526898
O O11 0.404713 0.651730 0.734038
O O12 0.500000 0.823434 0.750000
O O13 0.407852 0.401193 0.700773
O O14 0.500000 0.500000 0.000000
#
# Coordination Sequence:
#
# PCOD8122157 Si02
#       7
#     4   4   4   2   4   4   2
#     4  11  22  42  66  97 135 174 216 272 352 403
#     4  10  25  45  72  95 129 179 235 269 329 404
#     4  10  24  45  68  96 136 173 219 283 335 398
#     4  12  24  38  66  96 134 184 220 272 348 410
#     4  11  23  42  65  94 139 174 220 283 329 398
#     4  12  27  39  66 103 139 176 230 278 348 413
#     4  12  24  46  68  96 142 172 216 290 350 402
#
# _framework density 21.177534999999999
#
# number of rings (size 3 to 8) (size 9 to 14) (size 15 to 20)
#    0.000    1.000    4.167    1.000    8.167    0.000 
#    0.000    0.833    0.000    0.000    0.000    0.000 
#    0.000    0.000    0.000    0.000    0.000    0.000 
#
# Total GULP energy -297413.537011 kJ/mol
# GULP energy per Si atom -12392.230709 kJ/mol
# Density = 2.112933 g / cm^3
# Si number density = 21.177535 Si / 1000 Ang^3
#
#
#
# Elastic Constant Matrix: (Units=GPa)
#
#
# Indices 1 2 3 4 5 6 
#
# 1 110.6046 19.1638 41.5212 0.0000 -7.4162 0.0000
# 2 19.1638 92.1027 27.0636 0.0000 3.8720 0.0000
# 3 41.5212 27.0636 119.3690 0.0000 8.6077 0.0000
# 4 0.0000 0.0000 0.0000 21.2577 0.0000 -9.7589
# 5 -7.4162 3.8720 8.6077 0.0000 40.0031 0.0000
# 6 0.0000 0.0000 0.0000 -9.7589 0.0000 15.2535
#
#
#
# Elastic Compliance Matrix: (Units=1/GPa)
#
#
# Indices 1 2 3 4 5 6 
#
# 1 0.010848 -0.001296 -0.003691 0.000000 0.002931 0.000000
# 2 -0.001296 0.011800 -0.002158 0.000000 -0.000918 0.000000
# 3 -0.003691 -0.002158 0.010345 0.000000 -0.002701 0.000000
# 4 0.000000 0.000000 0.000000 0.066604 0.000000 0.042612
# 5 0.002931 -0.000918 -0.002701 0.000000 0.026212 0.000000
# 6 0.000000 0.000000 0.000000 0.042612 0.000000 0.092821
#
#
# Mechanical properties :
#
#
# Convention : Reuss Voigt Hill
#
# Bulk Modulus (GPa) = 53.46730 55.28593 54.37662
# Shear Modulus (GPa) = 20.90703 30.92471 25.91587
#
# Velocity S-wave (km/s) = 3.14543 3.82548 3.50200
# Velocity P-wave (km/s) = 6.20432 6.75833 6.48724
#
# Compressibility (1/GPa) = 0.01870302
#
# Stress axis : x y z
#
# Youngs Moduli (GPa) = 92.18479 84.74675 96.66177
#
# Poissons Ratio (x) = 0.10981 0.35676
# Poissons Ratio (y) = 0.11945 0.20863
# Poissons Ratio (z) = 0.34024 0.18292
#
# Static dielectric constant tensor:
#      x y z
#    x 3.647260 0.000000 0.174240 
#    y 0.000000 3.946360 0.000000 
#    z 0.174240 0.000000 3.691350 
# 
# 
# High freq. dielectric constant tensor:
#      x y z
#    x 1.821710 0.000000 -0.005390 
#    y 0.000000 1.824260 0.000000 
#    z -0.005390 0.000000 1.849270 
# 
# From -- ./inp_files/57740.got.cif
#   From: 2010.06.25/outbox.cif.g09.slc.cpg/sg13_29_cif.got.tgz:57740.got - 2010.06.28 04:50:58.
