data_PCOD8122005
_publ_section_title
;
Structure prediction by ZEFSAII (Michael W. Deem and Ramdas Pophale) SiO2 
 PCOD8122005
Probable space group: P 2/C
;
_chemical_formula_sum "Si O2"
_cell_formula_units_Z 28
_cell_length_a 18.125239
_cell_length_b 9.404543
_cell_length_c 8.964297
_cell_angle_alpha 90.000000
_cell_angle_beta 128.824997
_cell_angle_gamma 90.000000
_cell_volume 1190.449836
_symmetry_space_group_name_H-M "P 2/C"
_symmetry_group_IT_number 13
_symmetry_cell_setting 'monoclinic'
loop_
_space_group_symop_operation_xyz
x,y,z
-x,y,1/2-z
-x,-y,-z
x,-y,1/2+z
loop_
_atom_site_type_symbol
_atom_site_label
_atom_site_fract_x
_atom_site_fract_y
_atom_site_fract_z
Si Si1 0.707417 0.615847 0.575925
Si Si2 0.000000 0.484296 0.750000
Si Si3 0.000000 0.012563 0.250000
Si Si4 0.407638 0.872432 0.712805
Si Si5 0.699488 0.933302 0.628709
Si Si6 0.408570 0.556606 0.795904
Si Si7 0.126250 0.896329 0.161526
Si Si8 0.872989 0.590856 0.341662
O O1 0.713286 0.784977 0.557763
O O2 0.678635 0.584173 0.707736
O O3 0.624649 0.563028 0.361432
O O4 0.807173 0.534994 0.691984
O O5 0.914547 0.570777 0.561234
O O6 0.958341 0.390099 0.831412
O O7 0.918275 0.921062 0.230295
O O8 0.043388 0.112547 0.433377
O O9 0.500000 0.942899 0.750000
O O10 0.383320 0.920056 0.851483
O O11 0.424248 0.703036 0.725864
O O12 0.322024 0.935331 0.508848
O O13 0.803855 0.980086 0.812821
O O14 0.500000 0.500000 0.000000
O O15 0.180163 0.743079 0.228079
#
# Coordination Sequence:
#
# PCOD8122005 Si02
#       8
#     4   2   2   4   4   4   4   4
#     4  11  25  42  64  96 131 167 212 267 322 383
#     4  10  24  40  64  98 128 164 218 270 316 376
#     4  10  24  40  64  94 130 170 218 270 318 380
#     4  11  24  44  68  95 128 170 214 265 326 385
#     4  11  26  42  64  97 132 167 215 266 320 388
#     4  11  24  44  69  96 128 168 215 266 324 387
#     4  11  23  42  65  94 129 172 216 263 321 383
#     4  11  23  42  67  94 129 171 215 265 321 382
#
# _framework density 23.520520000000001
#
# number of rings (size 3 to 8) (size 9 to 14) (size 15 to 20)
#    0.000    1.143    0.000    5.143    0.000   17.143 
#    0.000    0.000    0.000    0.000    0.000    0.000 
#    0.000    0.000    0.000    0.000    0.000    0.000 
#
# Total GULP energy -346921.466263 kJ/mol
# GULP energy per Si atom -12390.052367 kJ/mol
# Density = 2.346699 g / cm^3
# Si number density = 23.520520 Si / 1000 Ang^3
#
#
#
# Elastic Constant Matrix: (Units=GPa)
#
#
# Indices 1 2 3 4 5 6 
#
# 1 106.6334 40.5634 23.1271 0.0000 -4.6524 0.0000
# 2 40.5634 163.1863 63.5750 0.0000 6.0457 0.0000
# 3 23.1271 63.5750 130.7432 0.0000 0.5147 0.0000
# 4 0.0000 0.0000 0.0000 34.9474 0.0000 1.2322
# 5 -4.6524 6.0457 0.5147 0.0000 34.3769 0.0000
# 6 0.0000 0.0000 0.0000 1.2322 0.0000 14.6201
#
#
#
# Elastic Compliance Matrix: (Units=1/GPa)
#
#
# Indices 1 2 3 4 5 6 
#
# 1 0.010529 -0.002415 -0.000695 0.000000 0.001860 0.000000
# 2 -0.002415 0.008170 -0.003539 0.000000 -0.001711 0.000000
# 3 -0.000695 -0.003539 0.009491 0.000000 0.000386 0.000000
# 4 0.000000 0.000000 0.000000 0.028700 0.000000 -0.002419
# 5 0.001860 -0.001711 0.000386 0.000000 0.029636 0.000000
# 6 0.000000 0.000000 0.000000 -0.002419 0.000000 0.068603
#
#
# Mechanical properties :
#
#
# Convention : Reuss Voigt Hill
#
# Bulk Modulus (GPa) = 67.15454 72.78820 69.97137
# Shear Modulus (GPa) = 28.83650 35.00870 31.92260
#
# Velocity S-wave (km/s) = 3.50525 3.86221 3.68805
# Velocity P-wave (km/s) = 6.70789 7.13461 6.92454
#
# Compressibility (1/GPa) = 0.01489103
#
# Stress axis : x y z
#
# Youngs Moduli (GPa) = 94.97937 122.39283 105.36384
#
# Poissons Ratio (x) = 0.29559 0.07326
# Poissons Ratio (y) = 0.22939 0.37288
# Poissons Ratio (z) = 0.06604 0.43315
#
# Static dielectric constant tensor:
#      x y z
#    x 4.334780 0.000000 -0.102490 
#    y 0.000000 4.099560 0.000000 
#    z -0.102490 0.000000 4.092290 
# 
# 
# High freq. dielectric constant tensor:
#      x y z
#    x 1.944430 0.000000 -0.007320 
#    y 0.000000 1.923940 0.000000 
#    z -0.007320 0.000000 1.929600 
# 
# From -- ./inp_files/23024.got.cif
#   From: 2010.06.25/outbox.cif.g09.slc.cpg/sg13_12_cif.got.tgz:23024.got - 2010.06.28 04:50:58.
