data_PCOD8122787
_publ_section_title
;
Structure prediction by ZEFSAII (Michael W. Deem and Ramdas Pophale) SiO2 
 PCOD8122787
Probable space group: P 2/C
;
_chemical_formula_sum "Si O2"
_cell_formula_units_Z 20
_cell_length_a 19.704893
_cell_length_b 5.745898
_cell_length_c 13.678473
_cell_angle_alpha 90.000000
_cell_angle_beta 33.673112
_cell_angle_gamma 90.000000
_cell_volume 858.687394
_symmetry_space_group_name_H-M "P 2/C"
_symmetry_group_IT_number 13
_symmetry_cell_setting 'monoclinic'
loop_
_space_group_symop_operation_xyz
x,y,z
-x,y,1/2-z
-x,-y,-z
x,-y,1/2+z
loop_
_atom_site_type_symbol
_atom_site_label
_atom_site_fract_x
_atom_site_fract_y
_atom_site_fract_z
Si Si1 0.064824 0.048130 0.023449
Si Si2 0.751796 0.384612 0.789506
Si Si3 0.160884 0.685130 0.651373
Si Si4 0.361312 0.072975 0.419533
Si Si5 0.767471 0.666274 0.594468
O O1 0.963545 0.171001 0.212792
O O2 0.181550 0.205039 0.861286
O O3 0.113496 0.819818 0.020699
O O4 0.000000 0.000000 0.000000
O O5 0.848951 0.502616 0.747506
O O6 0.699635 0.578615 0.775728
O O7 0.649130 0.257708 0.978289
O O8 0.181762 0.556255 0.524571
O O9 0.274120 0.854284 0.541750
O O10 0.500000 0.983072 0.250000
O O11 0.328990 0.193126 0.355119
#
# Coordination Sequence:
#
# PCOD8122787 Si02
#       5
#     4   4   4   4   4
#     4  12  23  45  71 103 147 180 223 288 348 421
#     4  11  23  45  70 103 140 182 227 285 354 413
#     4  11  25  44  70 105 144 182 229 283 349 417
#     4  11  26  48  69  98 141 185 241 293 336 410
#     4  11  26  43  70 107 137 186 232 284 355 413
#
# _framework density 23.291360000000001
#
# number of rings (size 3 to 8) (size 9 to 14) (size 15 to 20)
#    0.000    0.800    4.000    1.800    0.000    8.800 
#    0.000    7.000    0.000    0.000    0.000    0.000 
#    0.000    0.000    0.000    0.000    0.000    0.000 
#
# Total GULP energy -247977.857532 kJ/mol
# GULP energy per Si atom -12398.892877 kJ/mol
# Density = 2.323835 g / cm^3
# Si number density = 23.291360 Si / 1000 Ang^3
#
#
#
# Elastic Constant Matrix: (Units=GPa)
#
#
# Indices 1 2 3 4 5 6 
#
# 1 111.8305 29.3911 31.8530 0.0000 21.1502 0.0000
# 2 29.3911 88.9417 26.2798 0.0000 12.4122 0.0000
# 3 31.8530 26.2798 84.9817 0.0000 -4.4047 0.0000
# 4 0.0000 0.0000 0.0000 32.4715 0.0000 15.8041
# 5 21.1502 12.4122 -4.4047 0.0000 30.9920 0.0000
# 6 0.0000 0.0000 0.0000 15.8041 0.0000 28.5335
#
#
#
# Elastic Compliance Matrix: (Units=1/GPa)
#
#
# Indices 1 2 3 4 5 6 
#
# 1 0.012221 -0.001528 -0.004542 0.000000 -0.008374 0.000000
# 2 -0.001528 0.013587 -0.003886 0.000000 -0.004951 0.000000
# 3 -0.004542 -0.003886 0.015023 0.000000 0.006791 0.000000
# 4 0.000000 0.000000 0.000000 0.042162 0.000000 -0.023353
# 5 -0.008374 -0.004951 0.006791 0.000000 0.040929 0.000000
# 6 0.000000 0.000000 0.000000 -0.023353 0.000000 0.047981
#
#
# Mechanical properties :
#
#
# Convention : Reuss Voigt Hill
#
# Bulk Modulus (GPa) = 47.80068 51.20019 49.50044
# Shear Modulus (GPa) = 25.15221 31.61471 28.38346
#
# Velocity S-wave (km/s) = 3.28974 3.68823 3.49467
# Velocity P-wave (km/s) = 5.91585 6.33779 6.13045
#
# Compressibility (1/GPa) = 0.02092020
#
# Stress axis : x y z
#
# Youngs Moduli (GPa) = 81.82519 73.59818 66.56264
#
# Poissons Ratio (x) = 0.11244 0.30235
# Poissons Ratio (y) = 0.12501 0.25864
# Poissons Ratio (z) = 0.37168 0.28598
#
# Static dielectric constant tensor:
#      x y z
#    x 3.772200 0.000000 0.698000 
#    y 0.000000 4.675540 0.000000 
#    z 0.698000 0.000000 3.666090 
# 
# 
# High freq. dielectric constant tensor:
#      x y z
#    x 1.939580 0.000000 0.034320 
#    y 0.000000 1.937180 0.000000 
#    z 0.034320 0.000000 1.889890 
# 
# From -- ./inp_files/56377.got.cif
#   From: 2010.06.25/outbox.cif.g09.slc.cpg/sg13_29_cif.got.tgz:56377.got - 2010.06.28 04:50:58.
