data_PCOD8122103
_publ_section_title
;
Structure prediction by ZEFSAII (Michael W. Deem and Ramdas Pophale) SiO2 
 PCOD8122103
Probable space group: P 2/C
;
_chemical_formula_sum "Si O2"
_cell_formula_units_Z 28
_cell_length_a 8.247482
_cell_length_b 13.968037
_cell_length_c 11.710558
_cell_angle_alpha 90.000000
_cell_angle_beta 121.451955
_cell_angle_gamma 90.000000
_cell_volume 1150.861564
_symmetry_space_group_name_H-M "P 2/C"
_symmetry_group_IT_number 13
_symmetry_cell_setting 'monoclinic'
loop_
_space_group_symop_operation_xyz
x,y,z
-x,y,1/2-z
-x,-y,-z
x,-y,1/2+z
loop_
_atom_site_type_symbol
_atom_site_label
_atom_site_fract_x
_atom_site_fract_y
_atom_site_fract_z
Si Si1 0.774810 0.303321 0.134431
Si Si2 0.631435 0.227624 0.486561
Si Si3 0.307887 0.957698 0.608888
Si Si4 0.239164 0.576876 0.086108
Si Si5 0.171680 0.625243 0.601259
Si Si6 0.690995 0.241365 0.768831
Si Si7 0.078373 0.137024 0.469127
O O1 0.880899 0.347260 0.285722
O O2 0.580358 0.262553 0.111205
O O3 0.718580 0.388770 0.027583
O O4 0.892571 0.215954 0.119141
O O5 0.634638 0.114748 0.468879
O O6 0.753490 0.281670 0.435525
O O7 0.712681 0.240160 0.642096
O O8 0.500000 0.980093 0.750000
O O9 0.133759 0.908132 0.617250
O O10 0.232813 0.052224 0.517609
O O11 0.309565 0.467947 0.138696
O O12 0.337785 0.647090 0.211853
O O13 0.016309 0.589906 0.030547
O O14 0.500000 0.189968 0.750000
O O15 0.877209 0.191772 0.894015
#
# Coordination Sequence:
#
# PCOD8122103 Si02
#       7
#     4   4   4   4   4   4   4
#     4  11  23  45  71  99 145 189 233 295 366 422
#     4  12  25  42  71 105 139 182 239 306 350 421
#     4  11  25  46  76 113 140 180 243 293 351 430
#     4  10  24  43  68  95 139 195 240 294 360 421
#     4  11  25  42  65 106 138 184 249 300 356 425
#     4  11  22  46  70  98 141 190 237 288 359 436
#     4  10  24  49  75 104 144 193 228 289 368 423
#
# _framework density 24.329599000000002
#
# number of rings (size 3 to 8) (size 9 to 14) (size 15 to 20)
#    0.000    1.143    2.857    3.857    2.000    5.714 
#    2.571    0.000    3.143    0.000    0.000    0.000 
#    0.000    0.000    0.000    0.000    0.000    0.000 
#
# Total GULP energy -347007.870546 kJ/mol
# GULP energy per Si atom -12393.138234 kJ/mol
# Density = 2.427422 g / cm^3
# Si number density = 24.329599 Si / 1000 Ang^3
#
#
#
# Elastic Constant Matrix: (Units=GPa)
#
#
# Indices 1 2 3 4 5 6 
#
# 1 76.9441 19.1296 38.1152 0.0000 -0.9733 0.0000
# 2 19.1296 172.9378 54.0819 0.0000 -10.8028 0.0000
# 3 38.1152 54.0819 133.8800 0.0000 -11.9010 0.0000
# 4 0.0000 0.0000 0.0000 23.6131 0.0000 2.9632
# 5 -0.9733 -10.8028 -11.9010 0.0000 51.4942 0.0000
# 6 0.0000 0.0000 0.0000 2.9632 0.0000 25.6080
#
#
#
# Elastic Compliance Matrix: (Units=1/GPa)
#
#
# Indices 1 2 3 4 5 6 
#
# 1 0.015181 -0.000406 -0.004227 0.000000 -0.000775 0.000000
# 2 -0.000406 0.006661 -0.002503 0.000000 0.000811 0.000000
# 3 -0.004227 -0.002503 0.009832 0.000000 0.001667 0.000000
# 4 0.000000 0.000000 0.000000 0.042973 0.000000 -0.004973
# 5 -0.000775 0.000811 0.001667 0.000000 0.019961 0.000000
# 6 0.000000 0.000000 0.000000 -0.004973 0.000000 0.039626
#
#
# Mechanical properties :
#
#
# Convention : Reuss Voigt Hill
#
# Bulk Modulus (GPa) = 57.46293 67.37948 62.42120
# Shear Modulus (GPa) = 32.40301 38.30540 35.35420
#
# Velocity S-wave (km/s) = 3.65339 3.97222 3.81614
# Velocity P-wave (km/s) = 6.43942 6.98517 6.71784
#
# Compressibility (1/GPa) = 0.01740252
#
# Stress axis : x y z
#
# Youngs Moduli (GPa) = 65.86974 150.13346 101.70723
#
# Poissons Ratio (x) = 0.06093 0.42993
# Poissons Ratio (y) = 0.02673 0.25457
# Poissons Ratio (z) = 0.27844 0.37579
#
# Static dielectric constant tensor:
#      x y z
#    x 4.452170 0.000000 0.298090 
#    y 0.000000 4.828470 0.000000 
#    z 0.298090 0.000000 4.277910 
# 
# 
# High freq. dielectric constant tensor:
#      x y z
#    x 1.969510 0.000000 0.022350 
#    y 0.000000 1.982930 0.000000 
#    z 0.022350 0.000000 1.963860 
# 
# From -- ./inp_files/30509.got.cif
#   From: 2010.06.25/outbox.cif.g09.slc.cpg/sg13_16_cif.got.tgz:30509.got - 2010.06.28 04:50:58.
