data_PCOD8122435
_publ_section_title
;
Structure prediction by ZEFSAII (Michael W. Deem and Ramdas Pophale) SiO2 
 PCOD8122435
Probable space group: P 2/C
;
_chemical_formula_sum "Si O2"
_cell_formula_units_Z 32
_cell_length_a 14.792374
_cell_length_b 13.249321
_cell_length_c 9.126061
_cell_angle_alpha 90.000000
_cell_angle_beta 57.446053
_cell_angle_gamma 90.000000
_cell_volume 1507.590125
_symmetry_space_group_name_H-M "P 2/C"
_symmetry_group_IT_number 13
_symmetry_cell_setting 'monoclinic'
loop_
_space_group_symop_operation_xyz
x,y,z
-x,y,1/2-z
-x,-y,-z
x,-y,1/2+z
loop_
_atom_site_type_symbol
_atom_site_label
_atom_site_fract_x
_atom_site_fract_y
_atom_site_fract_z
Si Si1 0.246483 0.606969 0.337665
Si Si2 0.899003 0.251450 0.941990
Si Si3 0.574450 0.288792 0.308587
Si Si4 0.012813 0.389751 0.064025
Si Si5 0.617631 0.952520 0.433059
Si Si6 0.571961 0.751648 0.316790
Si Si7 0.732366 0.414796 0.004536
Si Si8 0.283270 0.893683 0.847852
O O1 0.129391 0.656159 0.421796
O O2 0.331958 0.684173 0.332465
O O3 0.221014 0.517279 0.472573
O O4 0.295560 0.567679 0.141217
O O5 0.000000 0.231531 0.750000
O O6 0.817088 0.324460 0.930038
O O7 0.839484 0.142663 0.016239
O O8 0.930099 0.308052 0.067378
O O9 0.500000 0.237976 0.250000
O O10 0.504562 0.316395 0.512123
O O11 0.627550 0.388607 0.192341
O O12 0.661075 0.204303 0.272502
O O13 0.000000 0.398357 0.250000
O O14 0.000000 0.500000 0.000000
O O15 0.624525 0.841322 0.361017
O O16 0.650161 0.940161 0.573757
O O17 0.500000 0.000000 0.500000
O O18 0.711764 0.019979 0.279642
O O19 0.500000 0.796629 0.250000
#
# Coordination Sequence:
#
# PCOD8122435 Si02
#       8
#     4   4   4   4   4   4   4   4
#     4  12  25  41  62  98 130 174 225 276 336 396
#     4  11  23  45  70  96 130 178 223 279 341 396
#     4  11  20  42  60  89 130 180 214 259 339 396
#     4  12  24  43  71  99 133 176 230 282 330 396
#     4  12  22  44  69 100 129 171 222 275 332 410
#     4  12  26  40  64  96 136 172 222 281 331 405
#     4  11  24  38  64  92 134 175 221 270 328 411
#     4  11  24  41  72  99 132 171 222 279 343 404
#
# _framework density 21.225928
#
# number of rings (size 3 to 8) (size 9 to 14) (size 15 to 20)
#    0.000    0.500    6.250    3.000    1.750    2.000 
#    0.000    0.625    0.000    0.000    0.000    0.000 
#    0.000    0.000    0.000    0.000    0.000    0.000 
#
# Total GULP energy -396675.591965 kJ/mol
# GULP energy per Si atom -12396.112249 kJ/mol
# Density = 2.117762 g / cm^3
# Si number density = 21.225928 Si / 1000 Ang^3
#
#
#
# Elastic Constant Matrix: (Units=GPa)
#
#
# Indices 1 2 3 4 5 6 
#
# 1 80.9473 30.1008 33.4497 0.0000 -6.0238 0.0000
# 2 30.1008 66.2366 33.5859 0.0000 -8.3310 0.0000
# 3 33.4497 33.5859 90.1954 0.0000 -8.7686 0.0000
# 4 0.0000 0.0000 0.0000 31.5764 0.0000 -2.2562
# 5 -6.0238 -8.3310 -8.7686 0.0000 44.8690 0.0000
# 6 0.0000 0.0000 0.0000 -2.2562 0.0000 31.4713
#
#
#
# Elastic Compliance Matrix: (Units=1/GPa)
#
#
# Indices 1 2 3 4 5 6 
#
# 1 0.015944 -0.005198 -0.003938 0.000000 0.000406 0.000000
# 2 -0.005198 0.020510 -0.005512 0.000000 0.002033 0.000000
# 3 -0.003938 -0.005512 0.014729 0.000000 0.001326 0.000000
# 4 0.000000 0.000000 0.000000 0.031832 0.000000 0.002282
# 5 0.000406 0.002033 0.001326 0.000000 0.022978 0.000000
# 6 0.000000 0.000000 0.000000 0.002282 0.000000 0.031939
#
#
# Mechanical properties :
#
#
# Convention : Reuss Voigt Hill
#
# Bulk Modulus (GPa) = 45.68833 47.96133 46.82483
# Shear Modulus (GPa) = 28.64939 30.93287 29.79113
#
# Velocity S-wave (km/s) = 3.67786 3.82162 3.75043
# Velocity P-wave (km/s) = 6.29341 6.48982 6.39237
#
# Compressibility (1/GPa) = 0.02188743
#
# Stress axis : x y z
#
# Youngs Moduli (GPa) = 62.71927 48.75633 67.89357
#
# Poissons Ratio (x) = 0.25343 0.26737
# Poissons Ratio (y) = 0.32600 0.37423
# Poissons Ratio (z) = 0.24699 0.26875
#
# Static dielectric constant tensor:
#      x y z
#    x 3.960920 0.000000 -0.113300 
#    y 0.000000 3.681540 0.000000 
#    z -0.113300 0.000000 4.043300 
# 
# 
# High freq. dielectric constant tensor:
#      x y z
#    x 1.829830 0.000000 -0.000300 
#    y 0.000000 1.808040 0.000000 
#    z -0.000300 0.000000 1.842130 
# 
# From -- ./inp_files/19629.got.cif
#   From: 2010.06.25/outbox.cif.g09.slc.cpg/sg13_10_cif.got.tgz:19629.got - 2010.06.28 04:50:58.
