data_PCOD8122012
_publ_section_title
;
Structure prediction by ZEFSAII (Michael W. Deem and Ramdas Pophale) SiO2 
 PCOD8122012
Probable space group: P 2/C
;
_chemical_formula_sum "Si O2"
_cell_formula_units_Z 20
_cell_length_a 11.063949
_cell_length_b 9.320196
_cell_length_c 8.213450
_cell_angle_alpha 90.000000
_cell_angle_beta 79.720495
_cell_angle_gamma 90.000000
_cell_volume 833.361413
_symmetry_space_group_name_H-M "P 2/C"
_symmetry_group_IT_number 13
_symmetry_cell_setting 'monoclinic'
loop_
_space_group_symop_operation_xyz
x,y,z
-x,y,1/2-z
-x,-y,-z
x,-y,1/2+z
loop_
_atom_site_type_symbol
_atom_site_label
_atom_site_fract_x
_atom_site_fract_y
_atom_site_fract_z
Si Si1 0.759070 0.049704 0.717132
Si Si2 0.500000 0.841350 0.250000
Si Si3 0.000000 0.528367 0.750000
Si Si4 0.924752 0.300629 0.546316
Si Si5 0.200910 0.211228 0.476926
Si Si6 0.451981 0.651154 0.945350
O O1 0.617933 0.059208 0.697228
O O2 0.840779 0.163972 0.595010
O O3 0.800811 0.883941 0.687817
O O4 0.771914 0.084172 0.902266
O O5 0.506059 0.755100 0.418808
O O6 0.099812 0.434027 0.825919
O O7 0.090467 0.635491 0.629769
O O8 0.069085 0.274971 0.545226
O O9 0.303519 0.336318 0.463541
O O10 0.500000 0.685490 0.750000
O O11 0.500000 0.500000 0.000000
#
# Coordination Sequence:
#
# PCOD8122012 Si02
#       6
#     4   2   2   4   4   4
#     4  11  25  45  68  97 140 177 234 287 347 413
#     4  10  26  46  66 104 136 184 232 292 340 422
#     4  10  24  40  68  98 136 180 224 280 362 406
#     4  11  23  45  66 102 135 179 229 293 343 421
#     4  11  26  42  72 100 134 184 231 285 353 418
#     4  11  25  45  70 101 138 182 230 289 349 419
#
# _framework density 23.999192000000001
#
# number of rings (size 3 to 8) (size 9 to 14) (size 15 to 20)
#    0.000    1.200    3.000    0.600    7.000    6.400 
#    0.000    0.000    0.000    0.000    0.000    0.000 
#    0.000    0.000    0.000    0.000    0.000    0.000 
#
# Total GULP energy -247762.685400 kJ/mol
# GULP energy per Si atom -12388.134270 kJ/mol
# Density = 2.394457 g / cm^3
# Si number density = 23.999192 Si / 1000 Ang^3
#
#
#
# Elastic Constant Matrix: (Units=GPa)
#
#
# Indices 1 2 3 4 5 6 
#
# 1 138.4296 24.4113 15.5900 0.0000 -17.2217 0.0000
# 2 24.4113 71.8497 9.3809 0.0000 -1.7192 0.0000
# 3 15.5900 9.3809 116.1682 0.0000 -3.3337 0.0000
# 4 0.0000 0.0000 0.0000 39.3384 0.0000 -3.3983
# 5 -17.2217 -1.7192 -3.3337 0.0000 26.0313 0.0000
# 6 0.0000 0.0000 0.0000 -3.3983 0.0000 27.9090
#
#
#
# Elastic Compliance Matrix: (Units=1/GPa)
#
#
# Indices 1 2 3 4 5 6 
#
# 1 0.008436 -0.002639 -0.000767 0.000000 0.005309 0.000000
# 2 -0.002639 0.014908 -0.000875 0.000000 -0.000873 0.000000
# 3 -0.000767 -0.000875 0.008798 0.000000 0.000562 0.000000
# 4 0.000000 0.000000 0.000000 0.025691 0.000000 0.003128
# 5 0.005309 -0.000873 0.000562 0.000000 0.041942 0.000000
# 6 0.000000 0.000000 0.000000 0.003128 0.000000 0.036212
#
#
# Mechanical properties :
#
#
# Convention : Reuss Voigt Hill
#
# Bulk Modulus (GPa) = 42.40736 47.24575 44.82655
# Shear Modulus (GPa) = 32.80688 37.12675 34.96682
#
# Velocity S-wave (km/s) = 3.70131 3.93746 3.82121
# Velocity P-wave (km/s) = 5.99791 6.35614 6.17962
#
# Compressibility (1/GPa) = 0.02358081
#
# Stress axis : x y z
#
# Youngs Moduli (GPa) = 118.53880 67.07854 113.66402
#
# Poissons Ratio (x) = 0.17703 0.08714
# Poissons Ratio (y) = 0.31283 0.09943
# Poissons Ratio (z) = 0.09088 0.05868
#
# Static dielectric constant tensor:
#      x y z
#    x 4.194930 0.000000 0.025880 
#    y 0.000000 4.240400 0.000000 
#    z 0.025880 0.000000 4.810760 
# 
# 
# High freq. dielectric constant tensor:
#      x y z
#    x 1.938380 0.000000 0.003190 
#    y 0.000000 1.953830 0.000000 
#    z 0.003190 0.000000 1.979250 
# 
# From -- ./inp_files/14877.got.cif
#   From: 2010.06.25/outbox.cif.g09.slc.cpg/sg13_8_cif.got.tgz:14877.got - 2010.06.28 04:50:58.
