data_PCOD8122282
_publ_section_title
;
Structure prediction by ZEFSAII (Michael W. Deem and Ramdas Pophale) SiO2 
 PCOD8122282
Probable space group: P 2/C
;
_chemical_formula_sum "Si O2"
_cell_formula_units_Z 26
_cell_length_a 15.405519
_cell_length_b 6.680250
_cell_length_c 19.982934
_cell_angle_alpha 90.000000
_cell_angle_beta 32.344467
_cell_angle_gamma 90.000000
_cell_volume 1100.243308
_symmetry_space_group_name_H-M "P 2/C"
_symmetry_group_IT_number 13
_symmetry_cell_setting 'monoclinic'
loop_
_space_group_symop_operation_xyz
x,y,z
-x,y,1/2-z
-x,-y,-z
x,-y,1/2+z
loop_
_atom_site_type_symbol
_atom_site_label
_atom_site_fract_x
_atom_site_fract_y
_atom_site_fract_z
Si Si1 0.008023 0.314884 0.123245
Si Si2 0.320099 0.502199 0.882120
Si Si3 0.561525 0.089982 0.890064
Si Si4 0.189601 0.312194 0.700274
Si Si5 0.000000 0.987751 0.750000
Si Si6 0.570933 0.488464 0.549334
Si Si7 0.291927 0.735483 0.771639
O O1 0.954602 0.532548 0.187903
O O2 0.040626 0.155724 0.160805
O O3 0.879466 0.232073 0.153187
O O4 0.175665 0.339571 0.972561
O O5 0.500000 0.409394 0.750000
O O6 0.327953 0.577578 0.953663
O O7 0.275952 0.685430 0.860934
O O8 0.737762 0.196460 0.783237
O O9 0.425701 0.246141 0.952725
O O10 0.589275 0.924881 0.814856
O O11 0.500000 0.000000 0.000000
O O12 0.344348 0.434646 0.572343
O O13 0.143195 0.139721 0.677029
O O14 0.382012 0.552228 0.675665
#
# Coordination Sequence:
#
# PCOD8122282 Si02
#       7
#     4   4   4   4   2   4   4
#     4  12  24  45  70 100 148 191 243 308 370 430
#     4  10  25  46  69  94 137 196 243 296 356 431
#     4  12  23  40  73 109 142 184 242 300 372 442
#     4  12  24  42  70 110 144 183 238 300 375 438
#     4  12  26  40  70 110 146 188 242 306 368 440
#     4  11  23  44  71 105 147 190 235 299 371 438
#     4  11  23  45  69 102 144 192 242 297 362 442
#
# _framework density 23.631138
#
# number of rings (size 3 to 8) (size 9 to 14) (size 15 to 20)
#    0.000    0.615    4.615    4.154    2.154    0.000 
#    0.000   13.846    0.000    0.000    0.000    0.000 
#    0.000    0.000    0.000    0.000    0.000    0.000 
#
# Total GULP energy -322232.537554 kJ/mol
# GULP energy per Si atom -12393.559137 kJ/mol
# Density = 2.357735 g / cm^3
# Si number density = 23.631138 Si / 1000 Ang^3
#
#
#
# Elastic Constant Matrix: (Units=GPa)
#
#
# Indices 1 2 3 4 5 6 
#
# 1 110.7250 43.8781 21.7070 0.0000 3.9189 0.0000
# 2 43.8781 141.9022 36.6536 0.0000 9.1372 0.0000
# 3 21.7070 36.6536 91.7482 0.0000 -9.8108 0.0000
# 4 0.0000 0.0000 0.0000 38.6549 0.0000 -3.4886
# 5 3.9189 9.1372 -9.8108 0.0000 34.4479 0.0000
# 6 0.0000 0.0000 0.0000 -3.4886 0.0000 31.7372
#
#
#
# Elastic Compliance Matrix: (Units=1/GPa)
#
#
# Indices 1 2 3 4 5 6 
#
# 1 0.010457 -0.002805 -0.001445 0.000000 -0.000857 0.000000
# 2 -0.002805 0.008939 -0.003225 0.000000 -0.002970 0.000000
# 3 -0.001445 -0.003225 0.013036 0.000000 0.004732 0.000000
# 4 0.000000 0.000000 0.000000 0.026129 0.000000 0.002872
# 5 -0.000857 -0.002970 0.004732 0.000000 0.031263 0.000000
# 6 0.000000 0.000000 0.000000 0.002872 0.000000 0.031824
#
#
# Mechanical properties :
#
#
# Convention : Reuss Voigt Hill
#
# Bulk Modulus (GPa) = 57.20472 60.98362 59.09417
# Shear Modulus (GPa) = 35.10641 37.11044 36.10842
#
# Velocity S-wave (km/s) = 3.85853 3.96713 3.91321
# Velocity P-wave (km/s) = 6.64160 6.84446 6.74380
#
# Compressibility (1/GPa) = 0.01748108
#
# Stress axis : x y z
#
# Youngs Moduli (GPa) = 95.63414 111.87305 76.71210
#
# Poissons Ratio (x) = 0.31379 0.11085
# Poissons Ratio (y) = 0.26824 0.24740
# Poissons Ratio (z) = 0.13820 0.36080
#
# Static dielectric constant tensor:
#      x y z
#    x 4.345550 0.000000 -0.119800 
#    y 0.000000 4.328590 0.000000 
#    z -0.119800 0.000000 4.204130 
# 
# 
# High freq. dielectric constant tensor:
#      x y z
#    x 1.946920 0.000000 -0.013190 
#    y 0.000000 1.929620 0.000000 
#    z -0.013190 0.000000 1.922410 
# 
# From -- ./inp_files/87703.got.cif
#   From: 2010.06.25/outbox.cif.g09.slc.cpg/sg13_44_cif.got.tgz:87703.got - 2010.06.28 04:50:58.
