data_PCOD8122664
_publ_section_title
;
Structure prediction by ZEFSAII (Michael W. Deem and Ramdas Pophale) SiO2 
 PCOD8122664
Probable space group: P 2/C
;
_chemical_formula_sum "Si O2"
_cell_formula_units_Z 32
_cell_length_a 9.247798
_cell_length_b 20.387663
_cell_length_c 12.821382
_cell_angle_alpha 90.000000
_cell_angle_beta 136.160139
_cell_angle_gamma 90.000000
_cell_volume 1674.369913
_symmetry_space_group_name_H-M "P 2/C"
_symmetry_group_IT_number 13
_symmetry_cell_setting 'monoclinic'
loop_
_space_group_symop_operation_xyz
x,y,z
-x,y,1/2-z
-x,-y,-z
x,-y,1/2+z
loop_
_atom_site_type_symbol
_atom_site_label
_atom_site_fract_x
_atom_site_fract_y
_atom_site_fract_z
Si Si1 0.084681 0.323891 0.178069
Si Si2 0.420752 0.564203 0.825137
Si Si3 0.077852 0.796497 0.176041
Si Si4 0.229522 0.435797 0.825137
Si Si5 0.722952 0.942641 0.822538
Si Si6 0.728544 0.676109 0.321931
Si Si7 0.077876 0.057359 0.677462
Si Si8 0.274230 0.796497 0.676041
O O1 0.258071 0.376957 0.241360
O O2 0.194363 0.252950 0.223478
O O3 0.000000 0.332560 0.250000
O O4 0.892222 0.332847 1.000000
O O5 0.500000 0.551209 0.750000
O O6 0.304179 0.500000 0.804179
O O7 0.616782 0.582065 1.000000
O O8 0.252592 0.747050 0.223478
O O9 0.178148 0.869586 0.225183
O O10 0.000000 0.776308 0.250000
O O11 0.872646 0.792826 1.000000
O O12 0.224649 0.376957 0.741360
O O13 0.000000 0.448791 0.750000
O O14 0.500000 0.958346 0.750000
O O15 0.727782 0.869586 0.774817
O O16 0.756507 1.000000 0.756507
O O17 0.886969 0.947932 1.000000
O O18 0.500000 0.667440 0.250000
O O19 0.000000 0.041654 0.750000
O O20 0.500000 0.776308 0.750000
#
# Coordination Sequence:
#
# PCOD8122664 Si02
#       8
#     4   4   4   4   4   4   4   4
#     4  11  23  38  57  82 113 146 183 227 274 325
#     4  11  24  41  62  87 115 147 183 224 270 321
#     4   9  19  35  54  77 105 140 180 222 269 321
#     4  11  24  41  62  87 115 147 183 224 270 321
#     4   9  18  33  52  75 105 139 177 221 268 320
#     4  11  23  38  57  82 113 146 183 227 274 325
#     4   9  18  33  52  75 105 139 177 221 268 320
#     4   9  19  35  54  77 105 140 180 222 269 321
#
# _framework density 19.111668000000002
#
# number of rings (size 3 to 8) (size 9 to 14) (size 15 to 20)
#    0.000    2.000    0.000    3.000    0.000    9.500 
#    0.000    0.000    0.000    0.000    0.000    0.000 
#    0.000    0.000    0.000    0.000    0.000    0.000 
#
# Total GULP energy -396788.972754 kJ/mol
# GULP energy per Si atom -12399.655399 kJ/mol
# Density = 1.906817 g / cm^3
# Si number density = 19.111668 Si / 1000 Ang^3
#
#
#
# Elastic Constant Matrix: (Units=GPa)
#
#
# Indices 1 2 3 4 5 6 
#
# 1 130.1430 72.6157 53.7411 0.0000 -0.3370 0.0000
# 2 72.6157 122.7220 51.6101 0.0000 -1.5231 0.0000
# 3 53.7411 51.6101 72.1399 0.0000 -3.8685 0.0000
# 4 0.0000 0.0000 0.0000 -292.5257 0.0000 -24.3387
# 5 -0.3370 -1.5231 -3.8685 0.0000 35.6200 0.0000
# 6 0.0000 0.0000 0.0000 -24.3387 0.0000 42.8699
#
#
#
# Elastic Compliance Matrix: (Units=1/GPa)
#
#
# Indices 1 2 3 4 5 6 
#
# 1 0.013092 -0.005203 -0.006072 0.000000 -0.000758 0.000000
# 2 -0.005203 0.013729 -0.005952 0.000000 -0.000109 0.000000
# 3 -0.006072 -0.005952 0.022759 0.000000 0.002160 0.000000
# 4 0.000000 0.000000 0.000000 -0.003264 0.000000 -0.001853
# 5 -0.000758 -0.000109 0.002160 0.000000 0.028297 0.000000
# 6 0.000000 0.000000 0.000000 -0.001853 0.000000 0.022274
#
#
# Mechanical properties :
#
#
# Convention : Reuss Voigt Hill
#
# Bulk Modulus (GPa) = 66.10483 75.65984 70.88233
# Shear Modulus (GPa) = 36.66214 -33.00463 1.82876
#
# Velocity S-wave (km/s) = 4.38461 -4.16015 0.97926
# Velocity P-wave (km/s) = 7.76510 4.07412 6.20062
#
# Compressibility (1/GPa) = 0.01512749
#
# Stress axis : x y z
#
# Youngs Moduli (GPa) = 76.38242 72.84069 43.93916
#
# Poissons Ratio (x) = 0.37897 0.26678
# Poissons Ratio (y) = 0.39740 0.26151
# Poissons Ratio (z) = 0.46376 0.43352
#
# Static dielectric constant tensor:
#      x y z
#    x 6.315640 0.000000 -0.197900 
#    y 0.000000 4.041140 0.000000 
#    z -0.197900 0.000000 3.585240 
# 
# 
# High freq. dielectric constant tensor:
#      x y z
#    x 1.744340 0.000000 0.000180 
#    y 0.000000 1.762250 0.000000 
#    z 0.000180 0.000000 1.746860 
# 
# From -- ./inp_files/30818.got.cif
#   From: 2010.06.25/outbox.cif.g09.slc.cpg/sg13_16_cif.got.tgz:30818.got - 2010.06.28 04:50:58.
