data_PCOD8122713
_publ_section_title
;
Structure prediction by ZEFSAII (Michael W. Deem and Ramdas Pophale) SiO2 
 PCOD8122713
Probable space group: P 2/C
;
_chemical_formula_sum "Si O2"
_cell_formula_units_Z 26
_cell_length_a 8.301041
_cell_length_b 14.550812
_cell_length_c 15.346927
_cell_angle_alpha 90.000000
_cell_angle_beta 42.275261
_cell_angle_gamma 90.000000
_cell_volume 1246.976261
_symmetry_space_group_name_H-M "P 2/C"
_symmetry_group_IT_number 13
_symmetry_cell_setting 'monoclinic'
loop_
_space_group_symop_operation_xyz
x,y,z
-x,y,1/2-z
-x,-y,-z
x,-y,1/2+z
loop_
_atom_site_type_symbol
_atom_site_label
_atom_site_fract_x
_atom_site_fract_y
_atom_site_fract_z
Si Si1 0.630293 0.802091 0.854765
Si Si2 0.860894 0.105816 0.968934
Si Si3 0.993609 0.093950 0.107978
Si Si4 0.986406 0.608128 0.500905
Si Si5 0.500000 0.682367 0.750000
Si Si6 0.860288 0.729087 0.215737
Si Si7 0.312454 0.262906 0.983975
O O1 0.839003 0.876446 0.754248
O O2 0.633349 0.743584 0.766747
O O3 0.382611 0.853933 0.973693
O O4 0.687955 0.732649 0.910717
O O5 0.073400 0.175526 0.858307
O O6 0.833650 0.094363 0.084031
O O7 0.909902 0.006942 0.907395
O O8 0.216143 0.161363 0.999588
O O9 0.069225 0.643829 0.373640
O O10 0.141819 0.657176 0.514507
O O11 0.000000 0.500000 0.500000
O O12 0.703627 0.624029 0.622180
O O13 0.576287 0.725614 0.340297
O O14 0.000000 0.717883 0.250000
#
# Coordination Sequence:
#
# PCOD8122713 Si02
#       7
#     4   4   4   4   2   4   4
#     4  12  21  45  69  97 143 188 239 286 351 409
#     4  11  23  42  65 100 141 197 232 288 346 405
#     4  11  24  39  67 102 141 191 244 285 341 410
#     4  12  28  49  73 106 135 176 228 299 367 434
#     4  12  22  48  72  96 138 184 224 296 348 420
#     4  12  24  48  69  99 140 185 229 287 356 421
#     4  12  25  43  72 100 137 183 232 290 348 426
#
# _framework density 20.850439000000001
#
# number of rings (size 3 to 8) (size 9 to 14) (size 15 to 20)
#    0.000    0.308    7.692    0.923    4.308    1.846 
#    2.769    1.538    0.000    0.000    0.000    0.000 
#    0.000    0.000    0.000    0.000    0.000    0.000 
#
# Total GULP energy -322435.848551 kJ/mol
# GULP energy per Si atom -12401.378790 kJ/mol
# Density = 2.080298 g / cm^3
# Si number density = 20.850439 Si / 1000 Ang^3
#
#
#
# Elastic Constant Matrix: (Units=GPa)
#
#
# Indices 1 2 3 4 5 6 
#
# 1 76.9798 22.5547 20.3965 0.0000 3.9583 0.0000
# 2 22.5547 151.5757 42.9534 0.0000 -1.2308 0.0000
# 3 20.3965 42.9534 132.0629 0.0000 -15.9987 0.0000
# 4 0.0000 0.0000 0.0000 10.3701 0.0000 -2.2586
# 5 3.9583 -1.2308 -15.9987 0.0000 46.1827 0.0000
# 6 0.0000 0.0000 0.0000 -2.2586 0.0000 22.1816
#
#
#
# Elastic Compliance Matrix: (Units=1/GPa)
#
#
# Indices 1 2 3 4 5 6 
#
# 1 0.014049 -0.001571 -0.001889 0.000000 -0.001900 0.000000
# 2 -0.001571 0.007462 -0.002238 0.000000 -0.000442 0.000000
# 3 -0.001889 -0.002238 0.008981 0.000000 0.003214 0.000000
# 4 0.000000 0.000000 0.000000 0.098618 0.000000 0.010041
# 5 -0.001900 -0.000442 0.003214 0.000000 0.022917 0.000000
# 6 0.000000 0.000000 0.000000 0.010041 0.000000 0.046105
#
#
# Mechanical properties :
#
#
# Convention : Reuss Voigt Hill
#
# Bulk Modulus (GPa) = 52.36592 59.15863 55.76228
# Shear Modulus (GPa) = 23.15966 34.06113 28.61039
#
# Velocity S-wave (km/s) = 3.33641 4.04616 3.70830
# Velocity P-wave (km/s) = 6.32548 7.08964 6.71843
#
# Compressibility (1/GPa) = 0.01909639
#
# Stress axis : x y z
#
# Youngs Moduli (GPa) = 71.18016 134.01885 111.34510
#
# Poissons Ratio (x) = 0.21049 0.21035
# Poissons Ratio (y) = 0.11179 0.24917
# Poissons Ratio (z) = 0.13447 0.29991
#
# Static dielectric constant tensor:
#      x y z
#    x 4.010240 0.000000 -0.020510 
#    y 0.000000 3.689440 0.000000 
#    z -0.020510 0.000000 2.979320 
# 
# 
# High freq. dielectric constant tensor:
#      x y z
#    x 1.831640 0.000000 -0.001610 
#    y 0.000000 1.797530 0.000000 
#    z -0.001610 0.000000 1.831360 
# 
# From -- ./inp_files/47865.got.cif
#   From: 2010.06.25/outbox.cif.g09.slc.cpg/sg13_24_cif.got.tgz:47865.got - 2010.06.28 04:50:58.
