data_PCOD8122477
_publ_section_title
;
Structure prediction by ZEFSAII (Michael W. Deem and Ramdas Pophale) SiO2 
 PCOD8122477
Probable space group: P 2/C
;
_chemical_formula_sum "Si O2"
_cell_formula_units_Z 32
_cell_length_a 14.150019
_cell_length_b 13.779750
_cell_length_c 20.638379
_cell_angle_alpha 90.000000
_cell_angle_beta 19.375885
_cell_angle_gamma 90.000000
_cell_volume 1335.067893
_symmetry_space_group_name_H-M "P 2/C"
_symmetry_group_IT_number 13
_symmetry_cell_setting 'monoclinic'
loop_
_space_group_symop_operation_xyz
x,y,z
-x,y,1/2-z
-x,-y,-z
x,-y,1/2+z
loop_
_atom_site_type_symbol
_atom_site_label
_atom_site_fract_x
_atom_site_fract_y
_atom_site_fract_z
Si Si1 0.104911 0.264787 0.811548
Si Si2 0.877279 0.074239 0.762383
Si Si3 0.162854 0.528583 0.213296
Si Si4 0.336942 0.921362 0.685193
Si Si5 0.770812 0.605413 0.041859
Si Si6 0.289023 0.246987 0.024420
Si Si7 0.513295 0.922312 0.313033
Si Si8 0.006815 0.226188 0.478927
O O1 0.970862 0.174087 0.858420
O O2 0.098866 0.359948 0.771062
O O3 0.435826 0.236881 0.608693
O O4 0.919146 0.274712 0.998695
O O5 0.000000 0.034641 0.750000
O O6 0.914258 0.989754 0.683361
O O7 0.544017 0.101008 0.990922
O O8 0.000000 0.505908 0.250000
O O9 0.022469 0.468510 0.362963
O O10 0.500000 0.500000 0.000000
O O11 0.252092 0.821435 0.775905
O O12 0.504799 0.985113 0.629563
O O13 0.500000 0.551077 0.250000
O O14 0.664781 0.653684 0.044127
O O15 0.866938 0.689838 0.027783
O O16 0.000000 0.254931 0.250000
O O17 0.261473 0.154278 0.993722
O O18 0.500000 0.963693 0.250000
O O19 0.804746 0.862166 0.130789
#
# Coordination Sequence:
#
# PCOD8122477 Si02
#       8
#     4   4   4   4   4   4   4   4
#     4  11  24  48  67 102 146 187 240 302 377 457
#     4  11  26  44  64  96 144 191 246 297 359 446
#     4  12  29  52  82 115 153 201 255 318 392 473
#     4  11  26  42  66 104 138 195 246 296 365 444
#     4  12  23  46  75 112 144 188 254 321 386 450
#     4  11  21  38  71 105 141 186 241 309 373 432
#     4  11  21  39  64 101 142 184 242 297 365 431
#     4  11  23  42  70 100 145 189 239 308 371 440
#
# _framework density 23.968817999999999
#
# number of rings (size 3 to 8) (size 9 to 14) (size 15 to 20)
#    0.000    0.750    6.250    2.625    5.250    1.000 
#    0.000    0.000    0.000    0.000    0.000    0.000 
#    0.000    0.000    0.000    0.000    0.000    0.000 
#
# Total GULP energy -396518.976464 kJ/mol
# GULP energy per Si atom -12391.218014 kJ/mol
# Density = 2.391426 g / cm^3
# Si number density = 23.968818 Si / 1000 Ang^3
#
#
#
# Elastic Constant Matrix: (Units=GPa)
#
#
# Indices 1 2 3 4 5 6 
#
# 1 107.9035 22.6696 21.0038 0.0000 13.5216 0.0000
# 2 22.6696 84.2478 30.2084 0.0000 8.4255 0.0000
# 3 21.0038 30.2084 127.6885 0.0000 21.5129 0.0000
# 4 0.0000 0.0000 0.0000 32.5962 0.0000 10.9402
# 5 13.5216 8.4255 21.5129 0.0000 29.2144 0.0000
# 6 0.0000 0.0000 0.0000 10.9402 0.0000 24.5869
#
#
#
# Elastic Compliance Matrix: (Units=1/GPa)
#
#
# Indices 1 2 3 4 5 6 
#
# 1 0.010304 -0.002204 -0.000545 0.000000 -0.003733 0.000000
# 2 -0.002204 0.013515 -0.002683 0.000000 -0.000902 0.000000
# 3 -0.000545 -0.002683 0.009570 0.000000 -0.006022 0.000000
# 4 0.000000 0.000000 0.000000 0.036064 0.000000 -0.016047
# 5 -0.003733 -0.000902 -0.006022 0.000000 0.040652 0.000000
# 6 0.000000 0.000000 0.000000 -0.016047 0.000000 0.047812
#
#
# Mechanical properties :
#
#
# Convention : Reuss Voigt Hill
#
# Bulk Modulus (GPa) = 44.39226 51.95594 48.17410
# Shear Modulus (GPa) = 28.36232 33.67669 31.01950
#
# Velocity S-wave (km/s) = 3.44365 3.75243 3.60135
# Velocity P-wave (km/s) = 5.86282 6.36379 6.11843
#
# Compressibility (1/GPa) = 0.02252645
#
# Stress axis : x y z
#
# Youngs Moduli (GPa) = 97.04623 73.99178 104.48924
#
# Poissons Ratio (x) = 0.16309 0.05691
# Poissons Ratio (y) = 0.21390 0.28033
# Poissons Ratio (z) = 0.05286 0.19851
#
# Static dielectric constant tensor:
#      x y z
#    x 4.479600 0.000000 0.416530 
#    y 0.000000 4.319140 0.000000 
#    z 0.416530 0.000000 4.609770 
# 
# 
# High freq. dielectric constant tensor:
#      x y z
#    x 1.954100 0.000000 0.026230 
#    y 0.000000 1.941800 0.000000 
#    z 0.026230 0.000000 1.948480 
# 
# From -- ./inp_files/80359.got.cif
#   From: 2010.06.25/outbox.cif.g09.slc.cpg/sg13_41_cif.got.tgz:80359.got - 2010.06.28 04:50:58.
