data_PCOD8122755
_publ_section_title
;
Structure prediction by ZEFSAII (Michael W. Deem and Ramdas Pophale) SiO2 
 PCOD8122755
Probable space group: P 2/C
;
_chemical_formula_sum "Si O2"
_cell_formula_units_Z 28
_cell_length_a 8.890329
_cell_length_b 8.246325
_cell_length_c 26.385477
_cell_angle_alpha 90.000000
_cell_angle_beta 138.784382
_cell_angle_gamma 90.000000
_cell_volume 1274.556623
_symmetry_space_group_name_H-M "P 2/C"
_symmetry_group_IT_number 13
_symmetry_cell_setting 'monoclinic'
loop_
_space_group_symop_operation_xyz
x,y,z
-x,y,1/2-z
-x,-y,-z
x,-y,1/2+z
loop_
_atom_site_type_symbol
_atom_site_label
_atom_site_fract_x
_atom_site_fract_y
_atom_site_fract_z
Si Si1 0.000000 0.366642 0.250000
Si Si2 0.648582 0.041173 0.486414
Si Si3 0.621854 0.685042 0.484185
Si Si4 0.115832 0.226111 0.627494
Si Si5 0.500000 0.993480 0.750000
Si Si6 0.256236 0.470784 0.581822
Si Si7 0.163661 0.458815 0.886020
Si Si8 0.459900 0.216465 0.339322
O O1 0.864424 0.483306 0.177961
O O2 0.809088 0.258921 0.229710
O O3 0.508854 0.132335 0.406515
O O4 0.883256 0.138480 0.551255
O O5 0.500000 0.000000 0.500000
O O6 0.705678 0.857902 0.483929
O O7 0.598142 0.566302 0.430946
O O8 0.802875 0.617916 0.570698
O O9 0.370046 0.672754 0.445772
O O10 0.257092 0.315310 0.618902
O O11 0.063284 0.367989 0.654163
O O12 0.272754 0.099331 0.695758
O O13 0.489596 0.897939 0.694994
O O14 0.377033 0.631849 0.633236
O O15 0.000000 0.500000 0.500000
#
# Coordination Sequence:
#
# PCOD8122755 Si02
#       8
#     2   4   4   4   2   4   4   4
#     4  12  28  44  76 100 150 188 246 298 362 436
#     4  12  25  46  78 110 145 188 249 311 361 430
#     4  11  23  43  76 105 138 181 249 303 352 430
#     4  12  28  49  73 106 148 196 241 303 370 441
#     4  12  34  48  68 112 160 194 234 300 394 444
#     4  12  24  46  77 105 140 187 251 301 353 439
#     4  11  24  45  70 106 138 193 245 290 358 438
#     4  12  29  50  72 112 147 198 243 304 375 440
#
# _framework density 21.968423999999999
#
# number of rings (size 3 to 8) (size 9 to 14) (size 15 to 20)
#    0.000    0.286    5.714    1.714   10.000    2.286 
#    0.000    0.000    0.000    0.000    0.000    0.000 
#    0.000    0.000    0.000    0.000    0.000    0.000 
#
# Total GULP energy -347084.278525 kJ/mol
# GULP energy per Si atom -12395.867090 kJ/mol
# Density = 2.191842 g / cm^3
# Si number density = 21.968424 Si / 1000 Ang^3
#
#
#
# Elastic Constant Matrix: (Units=GPa)
#
#
# Indices 1 2 3 4 5 6 
#
# 1 99.6357 32.9338 53.1974 0.0000 -1.0691 0.0000
# 2 32.9338 115.7932 68.0435 0.0000 2.5850 0.0000
# 3 53.1974 68.0435 95.0802 0.0000 0.8901 0.0000
# 4 0.0000 0.0000 0.0000 37.6367 0.0000 14.3060
# 5 -1.0691 2.5850 0.8901 0.0000 42.7065 0.0000
# 6 0.0000 0.0000 0.0000 14.3060 0.0000 51.5371
#
#
#
# Elastic Compliance Matrix: (Units=1/GPa)
#
#
# Indices 1 2 3 4 5 6 
#
# 1 0.014403 0.001089 -0.008842 0.000000 0.000479 0.000000
# 2 0.001089 0.015006 -0.011342 0.000000 -0.000645 0.000000
# 3 -0.008842 -0.011342 0.023581 0.000000 -0.000026 0.000000
# 4 0.000000 0.000000 0.000000 0.029704 0.000000 -0.008245
# 5 0.000479 -0.000645 -0.000026 0.000000 0.023467 0.000000
# 6 0.000000 0.000000 0.000000 -0.008245 0.000000 0.021692
#
#
# Mechanical properties :
#
#
# Convention : Reuss Voigt Hill
#
# Bulk Modulus (GPa) = 67.56877 68.76207 68.16542
# Shear Modulus (GPa) = 29.24380 36.79833 33.02107
#
# Velocity S-wave (km/s) = 3.65248 4.09718 3.88121
# Velocity P-wave (km/s) = 6.97220 7.33150 7.15410
#
# Compressibility (1/GPa) = 0.01479974
#
# Stress axis : x y z
#
# Youngs Moduli (GPa) = 69.43129 66.64187 42.40632
#
# Poissons Ratio (x) = -0.07255 0.37495
# Poissons Ratio (y) = -0.07559 0.48096
# Poissons Ratio (z) = 0.61391 0.75583
#
# Static dielectric constant tensor:
#      x y z
#    x 1.571230 0.000000 -0.866770 
#    y 0.000000 4.520280 0.000000 
#    z -0.866770 0.000000 3.583140 
# 
# 
# High freq. dielectric constant tensor:
#      x y z
#    x 1.878140 0.000000 0.000750 
#    y 0.000000 1.879290 0.000000 
#    z 0.000750 0.000000 1.858610 
# 
# From -- ./inp_files/91347.got.cif
#   From: 2010.06.25/outbox.cif.g09.slc.cpg/sg13_46_cif.got.tgz:91347.got - 2010.06.28 04:50:58.
