data_PCOD8122127
_publ_section_title
;
Structure prediction by ZEFSAII (Michael W. Deem and Ramdas Pophale) SiO2 
 PCOD8122127
Probable space group: P 2/C
;
_chemical_formula_sum "Si O2"
_cell_formula_units_Z 24
_cell_length_a 21.936098
_cell_length_b 5.367594
_cell_length_c 9.257892
_cell_angle_alpha 90.000000
_cell_angle_beta 62.712339
_cell_angle_gamma 90.000000
_cell_volume 968.755404
_symmetry_space_group_name_H-M "P 2/C"
_symmetry_group_IT_number 13
_symmetry_cell_setting 'monoclinic'
loop_
_space_group_symop_operation_xyz
x,y,z
-x,y,1/2-z
-x,-y,-z
x,-y,1/2+z
loop_
_atom_site_type_symbol
_atom_site_label
_atom_site_fract_x
_atom_site_fract_y
_atom_site_fract_z
Si Si1 0.500000 0.978236 0.250000
Si Si2 0.766102 0.598402 0.993033
Si Si3 0.000000 0.379012 0.250000
Si Si4 0.320974 0.338434 0.182139
Si Si5 0.591569 0.161107 0.901682
Si Si6 0.888007 0.307771 0.779008
Si Si7 0.124321 0.069356 0.986135
O O1 0.452898 0.149797 0.403783
O O2 0.455133 0.805678 0.191098
O O3 0.709917 0.709842 0.944311
O O4 0.823283 0.484545 0.824005
O O5 0.802336 0.815590 0.046856
O O6 0.735312 0.383865 0.131401
O O7 0.960148 0.553198 0.177171
O O8 0.941515 0.223686 0.391192
O O9 0.364601 0.092116 0.169833
O O10 0.363930 0.592824 0.131989
O O11 0.880633 0.068800 0.682050
O O12 0.883349 0.210792 0.949635
#
# Coordination Sequence:
#
# PCOD8122127 Si02
#       7
#     2   4   2   4   4   4   4
#     4  10  24  48  72 108 144 184 240 294 352 420
#     4  11  26  41  66  97 144 181 242 294 364 427
#     4  10  24  44  68  96 134 170 250 288 374 424
#     4  12  26  45  70 107 144 194 238 294 356 436
#     4  11  26  44  74 104 144 189 236 294 354 419
#     4  11  25  43  67  98 133 187 229 308 357 434
#     4  11  25  43  67  98 133 187 229 308 357 434
#
# _framework density 24.774056999999999
#
# number of rings (size 3 to 8) (size 9 to 14) (size 15 to 20)
#    0.000    1.000    1.667    3.000    7.000    8.000 
#    0.000    0.000    0.000    0.000    0.000    0.000 
#    0.000    0.000    0.000    0.000    0.000    0.000 
#
# Total GULP energy -297501.572488 kJ/mol
# GULP energy per Si atom -12395.898854 kJ/mol
# Density = 2.471767 g / cm^3
# Si number density = 24.774057 Si / 1000 Ang^3
#
#
#
# Elastic Constant Matrix: (Units=GPa)
#
#
# Indices 1 2 3 4 5 6 
#
# 1 132.3167 37.5389 43.0410 0.0000 -12.5138 0.0000
# 2 37.5389 77.9475 -9.8541 0.0000 -15.3076 0.0000
# 3 43.0410 -9.8541 78.9731 0.0000 6.2469 0.0000
# 4 0.0000 0.0000 0.0000 22.5805 0.0000 4.7981
# 5 -12.5138 -15.3076 6.2469 0.0000 30.1690 0.0000
# 6 0.0000 0.0000 0.0000 4.7981 0.0000 13.7481
#
#
#
# Elastic Compliance Matrix: (Units=1/GPa)
#
#
# Indices 1 2 3 4 5 6 
#
# 1 0.012106 -0.006108 -0.007637 0.000000 0.003504 0.000000
# 2 -0.006108 0.017448 0.005089 0.000000 0.005266 0.000000
# 3 -0.007637 0.005089 0.017798 0.000000 -0.004271 0.000000
# 4 0.000000 0.000000 0.000000 0.047833 0.000000 -0.016694
# 5 0.003504 0.005266 -0.004271 0.000000 0.038156 0.000000
# 6 0.000000 0.000000 0.000000 -0.016694 0.000000 0.078563
#
#
# Mechanical properties :
#
#
# Convention : Reuss Voigt Hill
#
# Bulk Modulus (GPa) = 33.28796 47.85431 40.57113
# Shear Modulus (GPa) = 20.90048 27.86695 24.38371
#
# Velocity S-wave (km/s) = 2.90771 3.35751 3.14067
# Velocity P-wave (km/s) = 4.97381 5.86419 5.43726
#
# Compressibility (1/GPa) = 0.03004089
#
# Stress axis : x y z
#
# Youngs Moduli (GPa) = 82.60360 57.31309 56.18702
#
# Poissons Ratio (x) = 0.35004 0.42911
# Poissons Ratio (y) = 0.50451 -0.28595
# Poissons Ratio (z) = 0.63085 -0.29168
#
# Static dielectric constant tensor:
#      x y z
#    x 4.830720 0.000000 -0.075810 
#    y 0.000000 4.140100 0.000000 
#    z -0.075810 0.000000 4.666080 
# 
# 
# High freq. dielectric constant tensor:
#      x y z
#    x 2.008110 0.000000 -0.001410 
#    y 0.000000 1.969250 0.000000 
#    z -0.001410 0.000000 1.993990 
# 
# From -- ./inp_files/23744.got.cif
#   From: 2010.06.25/outbox.cif.g09.slc.cpg/sg13_12_cif.got.tgz:23744.got - 2010.06.28 04:50:58.
