data_PCOD8122369
_publ_section_title
;
Structure prediction by ZEFSAII (Michael W. Deem and Ramdas Pophale) SiO2 
 PCOD8122369
Probable space group: P 2/C
;
_chemical_formula_sum "Si O2"
_cell_formula_units_Z 24
_cell_length_a 22.379184
_cell_length_b 10.299731
_cell_length_c 16.539906
_cell_angle_alpha 90.000000
_cell_angle_beta 21.605372
_cell_angle_gamma 90.000000
_cell_volume 1403.785594
_symmetry_space_group_name_H-M "P 2/C"
_symmetry_group_IT_number 13
_symmetry_cell_setting 'monoclinic'
loop_
_space_group_symop_operation_xyz
x,y,z
-x,y,1/2-z
-x,-y,-z
x,-y,1/2+z
loop_
_atom_site_type_symbol
_atom_site_label
_atom_site_fract_x
_atom_site_fract_y
_atom_site_fract_z
Si Si1 0.677306 0.024711 0.054713
Si Si2 0.320258 0.281967 0.950198
Si Si3 0.979133 0.120594 0.583795
Si Si4 0.983232 0.369996 0.071288
Si Si5 0.840773 0.013370 0.004264
Si Si6 0.158201 0.727797 0.496511
O O1 0.500000 0.066659 0.250000
O O2 0.711406 0.871714 0.997262
O O3 0.803700 0.111180 0.846071
O O4 0.694479 0.057824 0.129047
O O5 0.500000 0.323342 0.750000
O O6 0.193393 0.360339 0.165197
O O7 0.299639 0.319221 0.880546
O O8 0.992606 0.254780 0.521692
O O9 0.125680 0.114283 0.465611
O O10 0.000000 0.000000 0.500000
O O11 0.124320 0.366679 0.962988
O O12 0.000000 0.500000 0.000000
O O13 0.000000 0.000729 0.750000
O O14 0.801230 0.870617 0.090452
O O15 0.000000 0.737658 0.750000
#
# Coordination Sequence:
#
# PCOD8122369 Si02
#       6
#     4   4   4   4   4   4
#     4   9  17  31  52  78 101 128 166 206 250 298
#     4   9  17  33  55  74  96 132 172 202 241 304
#     4  11  17  31  52  74 100 125 163 210 252 280
#     4  11  21  33  50  78 101 132 170 206 244 291
#     4   8  14  27  49  72  96 132 163 198 248 300
#     4   8  14  29  50  70  96 130 168 196 241 304
#
# _framework density 17.096627000000002
#
# number of rings (size 3 to 8) (size 9 to 14) (size 15 to 20)
#    0.000    2.667    3.333    2.000    0.000    0.000 
#    0.000   11.667    0.000    0.000    0.000    0.000 
#    0.000    0.000    0.000    0.000    0.000    0.000 
#
# Total GULP energy -297381.959898 kJ/mol
# GULP energy per Si atom -12390.914996 kJ/mol
# Density = 1.705771 g / cm^3
# Si number density = 17.096627 Si / 1000 Ang^3
#
#
#
# Elastic Constant Matrix: (Units=GPa)
#
#
# Indices 1 2 3 4 5 6 
#
# 1 173.7993 64.5946 60.1189 0.0000 -23.6297 0.0000
# 2 64.5946 88.7362 30.5563 0.0000 5.0844 0.0000
# 3 60.1189 30.5563 64.9955 0.0000 -16.3396 0.0000
# 4 0.0000 0.0000 0.0000 15.4382 0.0000 8.2067
# 5 -23.6297 5.0844 -16.3396 0.0000 32.0634 0.0000
# 6 0.0000 0.0000 0.0000 8.2067 0.0000 26.5886
#
#
#
# Elastic Compliance Matrix: (Units=1/GPa)
#
#
# Indices 1 2 3 4 5 6 
#
# 1 0.010870 -0.006379 -0.005491 0.000000 0.006224 0.000000
# 2 -0.006379 0.018333 -0.005312 0.000000 -0.010315 0.000000
# 3 -0.005491 -0.005312 0.025412 0.000000 0.009746 0.000000
# 4 0.000000 0.000000 0.000000 0.077488 0.000000 -0.023917
# 5 0.006224 -0.010315 0.009746 0.000000 0.042377 0.000000
# 6 0.000000 0.000000 0.000000 -0.023917 0.000000 0.044992
#
#
# Mechanical properties :
#
#
# Convention : Reuss Voigt Hill
#
# Bulk Modulus (GPa) = 49.37815 70.89673 60.13744
# Shear Modulus (GPa) = 19.18751 26.30213 22.74482
#
# Velocity S-wave (km/s) = 3.35371 3.92655 3.65138
# Velocity P-wave (km/s) = 6.62880 7.88133 7.28204
#
# Compressibility (1/GPa) = 0.02025187
#
# Stress axis : x y z
#
# Youngs Moduli (GPa) = 91.99586 54.54733 39.35150
#
# Poissons Ratio (x) = 0.34793 0.21608
# Poissons Ratio (y) = 0.58680 0.20903
# Poissons Ratio (z) = 0.50515 0.28975
#
# Static dielectric constant tensor:
#      x y z
#    x 4.047100 0.000000 -0.338380 
#    y 0.000000 2.631950 0.000000 
#    z -0.338380 0.000000 2.983580 
# 
# 
# High freq. dielectric constant tensor:
#      x y z
#    x 1.687810 0.000000 -0.009840 
#    y 0.000000 1.612480 0.000000 
#    z -0.009840 0.000000 1.627830 
# 
# From -- ./inp_files/63366.got.cif
#   From: 2010.06.25/outbox.cif.g09.slc.cpg/sg13_32_cif.got.tgz:63366.got - 2010.06.28 04:50:58.
