data_PCOD8122009
_publ_section_title
;
Structure prediction by ZEFSAII (Michael W. Deem and Ramdas Pophale) SiO2 
 PCOD8122009
Probable space group: P 2/C
;
_chemical_formula_sum "Si O2"
_cell_formula_units_Z 20
_cell_length_a 22.547076
_cell_length_b 4.749073
_cell_length_c 7.980618
_cell_angle_alpha 90.000000
_cell_angle_beta 48.704589
_cell_angle_gamma 90.000000
_cell_volume 642.035155
_symmetry_space_group_name_H-M "P 2/C"
_symmetry_group_IT_number 13
_symmetry_cell_setting 'monoclinic'
loop_
_space_group_symop_operation_xyz
x,y,z
-x,y,1/2-z
-x,-y,-z
x,-y,1/2+z
loop_
_atom_site_type_symbol
_atom_site_label
_atom_site_fract_x
_atom_site_fract_y
_atom_site_fract_z
Si Si1 0.707284 0.698001 0.083999
Si Si2 0.801909 0.864635 0.604625
Si Si3 0.904897 0.224209 0.625046
Si Si4 0.000000 0.656985 0.250000
Si Si5 0.500000 0.566305 0.250000
Si Si6 0.601328 0.793054 0.781151
O O1 0.679955 0.384446 0.192754
O O2 0.757102 0.844936 0.139434
O O3 0.627191 0.885964 0.200521
O O4 0.752124 0.674659 0.823502
O O5 0.827201 0.697301 0.386513
O O6 0.883099 0.950982 0.554500
O O7 0.973513 0.162368 0.636140
O O8 0.927125 0.463049 0.450734
O O9 0.469549 0.775367 0.452276
O O10 0.427873 0.360583 0.333233
#
# Coordination Sequence:
#
# PCOD8122009 Si02
#       6
#     4   4   4   2   2   4
#     4  11  24  43  68  98 140 184 236 296 360 427
#     4  10  24  41  66  99 136 184 238 298 358 432
#     4  10  24  43  65  99 133 179 236 290 360 426
#     4  10  24  44  70  98 140 188 236 298 360 436
#     4  10  24  40  66  96 136 180 236 294 352 428
#     4  11  24  42  65  98 135 183 234 292 358 423
#
# _framework density 31.150945
#
# number of rings (size 3 to 8) (size 9 to 14) (size 15 to 20)
#    0.000    1.600    0.000    2.400    0.000   20.000 
#    0.000    0.000    0.000    0.000    0.000    0.000 
#    0.000    0.000    0.000    0.000    0.000    0.000 
#
# Total GULP energy -248077.207469 kJ/mol
# GULP energy per Si atom -12403.860373 kJ/mol
# Density = 3.108004 g / cm^3
# Si number density = 31.150945 Si / 1000 Ang^3
#
#
#
# Elastic Constant Matrix: (Units=GPa)
#
#
# Indices 1 2 3 4 5 6 
#
# 1 101.6814 0.8306 13.1526 0.0000 9.0185 0.0000
# 2 0.8306 115.6990 56.5279 0.0000 13.8235 0.0000
# 3 13.1526 56.5279 188.9239 0.0000 5.3024 0.0000
# 4 0.0000 0.0000 0.0000 56.4049 0.0000 7.0160
# 5 9.0185 13.8235 5.3024 0.0000 50.5612 0.0000
# 6 0.0000 0.0000 0.0000 7.0160 0.0000 41.9054
#
#
#
# Elastic Compliance Matrix: (Units=1/GPa)
#
#
# Indices 1 2 3 4 5 6 
#
# 1 0.010101 0.000549 -0.000815 0.000000 -0.001866 0.000000
# 2 0.000549 0.010467 -0.003096 0.000000 -0.002635 0.000000
# 3 -0.000815 -0.003096 0.006267 0.000000 0.000335 0.000000
# 4 0.000000 0.000000 0.000000 0.018106 0.000000 -0.003031
# 5 -0.001866 -0.002635 0.000335 0.000000 0.020796 0.000000
# 6 0.000000 0.000000 0.000000 -0.003031 0.000000 0.024371
#
#
# Mechanical properties :
#
#
# Convention : Reuss Voigt Hill
#
# Bulk Modulus (GPa) = 49.72676 60.81406 55.27041
# Shear Modulus (GPa) = 48.29266 52.16052 50.22659
#
# Velocity S-wave (km/s) = 3.94163 4.09644 4.01978
# Velocity P-wave (km/s) = 6.05913 6.47604 6.27105
#
# Compressibility (1/GPa) = 0.02010989
#
# Stress axis : x y z
#
# Youngs Moduli (GPa) = 98.99910 95.54209 159.57043
#
# Poissons Ratio (x) = -0.05242 0.13005
# Poissons Ratio (y) = -0.05432 0.49402
# Poissons Ratio (z) = 0.08068 0.29579
#
# Static dielectric constant tensor:
#      x y z
#    x 6.208100 0.000000 -0.250450 
#    y 0.000000 5.064140 0.000000 
#    z -0.250450 0.000000 5.928940 
# 
# 
# High freq. dielectric constant tensor:
#      x y z
#    x 2.312160 0.000000 -0.012620 
#    y 0.000000 2.259690 0.000000 
#    z -0.012620 0.000000 2.303900 
# 
# From -- ./inp_files/20526.got.cif
#   From: 2010.06.25/outbox.cif.g09.slc.cpg/sg13_11_cif.got.tgz:20526.got - 2010.06.28 04:50:58.
