data_PCOD8122105
_publ_section_title
;
Structure prediction by ZEFSAII (Michael W. Deem and Ramdas Pophale) SiO2 
 PCOD8122105
Probable space group: P 2/C
;
_chemical_formula_sum "Si O2"
_cell_formula_units_Z 24
_cell_length_a 23.142980
_cell_length_b 5.240206
_cell_length_c 22.795773
_cell_angle_alpha 90.000000
_cell_angle_beta 22.174128
_cell_angle_gamma 90.000000
_cell_volume 1043.397871
_symmetry_space_group_name_H-M "P 2/C"
_symmetry_group_IT_number 13
_symmetry_cell_setting 'monoclinic'
loop_
_space_group_symop_operation_xyz
x,y,z
-x,y,1/2-z
-x,-y,-z
x,-y,1/2+z
loop_
_atom_site_type_symbol
_atom_site_label
_atom_site_fract_x
_atom_site_fract_y
_atom_site_fract_z
Si Si1 0.300360 0.225382 0.822667
Si Si2 0.860950 0.278543 0.980459
Si Si3 0.208542 0.272285 0.663868
Si Si4 0.164254 0.043916 0.102178
Si Si5 0.397833 0.248709 0.601168
Si Si6 0.415364 0.397417 0.883396
O O1 0.304353 0.243581 0.748959
O O2 0.472480 0.202751 0.686752
O O3 0.245981 0.498281 0.897482
O O4 0.188980 0.990786 0.942871
O O5 0.033753 0.370801 0.832618
O O6 0.840569 0.223687 0.929751
O O7 0.271317 0.239192 0.669505
O O8 0.326536 0.438263 0.514605
O O9 0.195828 0.003573 0.641532
O O10 0.000000 0.183781 0.250000
O O11 0.296693 0.230048 0.955564
O O12 0.500000 0.500000 0.500000
O O13 0.500000 0.000000 0.500000
O O14 0.500000 0.551395 0.750000
#
# Coordination Sequence:
#
# PCOD8122105 Si02
#       6
#     4   4   4   4   4   4
#     4  12  26  47  73 109 142 194 247 305 356 441
#     4  11  27  48  73 107 152 187 246 304 371 438
#     4  11  27  45  74 104 148 200 240 301 380 438
#     4  10  24  43  69 106 146 194 236 305 370 445
#     4  12  26  48  75 108 150 190 247 308 363 435
#     4  12  24  41  76 105 145 188 252 302 376 439
#
# _framework density 23.001771999999999
#
# number of rings (size 3 to 8) (size 9 to 14) (size 15 to 20)
#    0.000    0.667    3.333    3.000    7.000    2.667 
#    0.000    0.000    0.000    0.000    0.000    0.000 
#    0.000    0.000    0.000    0.000    0.000    0.000 
#
# Total GULP energy -297460.159028 kJ/mol
# GULP energy per Si atom -12394.173293 kJ/mol
# Density = 2.294942 g / cm^3
# Si number density = 23.001772 Si / 1000 Ang^3
#
#
#
# Elastic Constant Matrix: (Units=GPa)
#
#
# Indices 1 2 3 4 5 6 
#
# 1 159.7874 29.1304 64.3219 0.0000 0.4407 0.0000
# 2 29.1304 102.9642 43.2832 0.0000 0.7348 0.0000
# 3 64.3219 43.2832 142.2481 0.0000 0.6681 0.0000
# 4 0.0000 0.0000 0.0000 40.0231 0.0000 4.2356
# 5 0.4407 0.7348 0.6681 0.0000 37.8616 0.0000
# 6 0.0000 0.0000 0.0000 4.2356 0.0000 18.6905
#
#
#
# Elastic Compliance Matrix: (Units=1/GPa)
#
#
# Indices 1 2 3 4 5 6 
#
# 1 0.007711 -0.000821 -0.003237 0.000000 -0.000017 0.000000
# 2 -0.000821 0.011225 -0.003044 0.000000 -0.000155 0.000000
# 3 -0.003237 -0.003044 0.009420 0.000000 -0.000069 0.000000
# 4 0.000000 0.000000 0.000000 0.025600 0.000000 -0.005801
# 5 -0.000017 -0.000155 -0.000069 0.000000 0.026416 0.000000
# 6 0.000000 0.000000 0.000000 -0.005801 0.000000 0.054818
#
#
# Mechanical properties :
#
#
# Convention : Reuss Voigt Hill
#
# Bulk Modulus (GPa) = 70.65488 75.38561 73.02024
# Shear Modulus (GPa) = 32.44432 37.19931 34.82182
#
# Velocity S-wave (km/s) = 3.75976 4.02585 3.89508
# Velocity P-wave (km/s) = 7.04496 7.37936 7.21410
#
# Compressibility (1/GPa) = 0.01415330
#
# Stress axis : x y z
#
# Youngs Moduli (GPa) = 129.68456 89.08775 106.15586
#
# Poissons Ratio (x) = 0.07312 0.34362
# Poissons Ratio (y) = 0.10644 0.32310
# Poissons Ratio (z) = 0.41978 0.27115
#
# Static dielectric constant tensor:
#      x y z
#    x 4.823630 0.000000 -0.202820 
#    y 0.000000 3.943860 0.000000 
#    z -0.202820 0.000000 4.590110 
# 
# 
# High freq. dielectric constant tensor:
#      x y z
#    x 1.917830 0.000000 0.000030 
#    y 0.000000 1.895030 0.000000 
#    z 0.000030 0.000000 1.933500 
# 
# From -- ./inp_files/88676.got.cif
#   From: 2010.06.25/outbox.cif.g09.slc.cpg/sg13_45_cif.got.tgz:88676.got - 2010.06.28 04:50:58.
