data_PCOD8122245
_publ_section_title
;
Structure prediction by ZEFSAII (Michael W. Deem and Ramdas Pophale) SiO2 
 PCOD8122245
Probable space group: P 2/C
;
_chemical_formula_sum "Si O2"
_cell_formula_units_Z 22
_cell_length_a 6.611549
_cell_length_b 7.946867
_cell_length_c 21.547878
_cell_angle_alpha 90.000000
_cell_angle_beta 117.065639
_cell_angle_gamma 90.000000
_cell_volume 1008.162854
_symmetry_space_group_name_H-M "P 2/C"
_symmetry_group_IT_number 13
_symmetry_cell_setting 'monoclinic'
loop_
_space_group_symop_operation_xyz
x,y,z
-x,y,1/2-z
-x,-y,-z
x,-y,1/2+z
loop_
_atom_site_type_symbol
_atom_site_label
_atom_site_fract_x
_atom_site_fract_y
_atom_site_fract_z
Si Si1 0.475177 0.401709 0.060562
Si Si2 0.650945 0.435380 0.827291
Si Si3 0.000000 0.057998 0.250000
Si Si4 0.977939 0.311979 0.140242
Si Si5 0.515156 0.940642 0.185449
Si Si6 0.831464 0.869896 0.946273
O O1 0.402396 0.508513 0.110196
O O2 0.286140 0.257219 0.020960
O O3 0.712986 0.326791 0.114991
O O4 0.500000 0.500000 0.000000
O O5 0.500000 0.511760 0.750000
O O6 0.900791 0.503722 0.842242
O O7 0.617533 0.235773 0.824621
O O8 0.928036 0.179776 0.296435
O O9 0.783640 0.936428 0.204037
O O10 0.013724 0.235875 0.077763
O O11 0.500000 0.032386 0.250000
O O12 0.382377 0.044543 0.116038
O O13 0.000000 0.000000 0.000000
#
# Coordination Sequence:
#
# PCOD8122245 Si02
#       6
#     4   4   2   4   4   4
#     4  11  26  44  66 100 135 181 232 278 349 423
#     4  10  25  43  68  97 136 173 224 280 349 408
#     4  12  22  42  76 100 134 172 244 284 350 412
#     4  11  24  42  70  95 132 182 219 288 343 418
#     4  11  24  44  68 103 134 176 230 290 345 414
#     4  11  26  43  68  97 136 182 225 284 348 412
#
# _framework density 21.821871999999999
#
# number of rings (size 3 to 8) (size 9 to 14) (size 15 to 20)
#    0.000    1.091    3.636    1.091    7.636    6.545 
#    0.000    0.000    0.000    0.000    0.000    0.000 
#    0.000    0.000    0.000    0.000    0.000    0.000 
#
# Total GULP energy -272576.317927 kJ/mol
# GULP energy per Si atom -12389.832633 kJ/mol
# Density = 2.177220 g / cm^3
# Si number density = 21.821872 Si / 1000 Ang^3
#
#
#
# Elastic Constant Matrix: (Units=GPa)
#
#
# Indices 1 2 3 4 5 6 
#
# 1 101.8971 34.2722 26.5794 0.0000 -2.0050 0.0000
# 2 34.2722 94.4249 30.8875 0.0000 -5.9230 0.0000
# 3 26.5794 30.8875 112.4027 0.0000 -10.5687 0.0000
# 4 0.0000 0.0000 0.0000 27.9038 0.0000 9.2870
# 5 -2.0050 -5.9230 -10.5687 0.0000 32.0765 0.0000
# 6 0.0000 0.0000 0.0000 9.2870 0.0000 39.5886
#
#
#
# Elastic Compliance Matrix: (Units=1/GPa)
#
#
# Indices 1 2 3 4 5 6 
#
# 1 0.011483 -0.003622 -0.001770 0.000000 -0.000534 0.000000
# 2 -0.003622 0.012819 -0.002543 0.000000 0.001303 0.000000
# 3 -0.001770 -0.002543 0.010278 0.000000 0.002806 0.000000
# 4 0.000000 0.000000 0.000000 0.038872 0.000000 -0.009119
# 5 -0.000534 0.001303 0.002806 0.000000 0.032307 0.000000
# 6 0.000000 0.000000 0.000000 -0.009119 0.000000 0.027399
#
#
# Mechanical properties :
#
#
# Convention : Reuss Voigt Hill
#
# Bulk Modulus (GPa) = 53.45323 54.68920 54.07122
# Shear Modulus (GPa) = 32.20254 34.37951 33.29103
#
# Velocity S-wave (km/s) = 3.84565 3.97351 3.91011
# Velocity P-wave (km/s) = 6.65336 6.79469 6.72439
#
# Compressibility (1/GPa) = 0.01870794
#
# Stress axis : x y z
#
# Youngs Moduli (GPa) = 87.08190 78.00963 97.29548
#
# Poissons Ratio (x) = 0.28259 0.17224
# Poissons Ratio (y) = 0.31545 0.24747
# Poissons Ratio (z) = 0.15416 0.19842
#
# Static dielectric constant tensor:
#      x y z
#    x 4.094040 0.000000 0.023550 
#    y 0.000000 3.950070 0.000000 
#    z 0.023550 0.000000 4.022330 
# 
# 
# High freq. dielectric constant tensor:
#      x y z
#    x 1.871710 0.000000 0.000510 
#    y 0.000000 1.853270 0.000000 
#    z 0.000510 0.000000 1.862590 
# 
# From -- ./inp_files/73138.got.cif
#   From: 2010.06.25/outbox.cif.g09.slc.cpg/sg13_37_cif.got.tgz:73138.got - 2010.06.28 04:50:58.
