data_PCOD8122865
_publ_section_title
;
Structure prediction by ZEFSAII (Michael W. Deem and Ramdas Pophale) SiO2 
 PCOD8122865
Probable space group: P 2/C
;
_chemical_formula_sum "Si O2"
_cell_formula_units_Z 22
_cell_length_a 5.342852
_cell_length_b 12.912530
_cell_length_c 13.814630
_cell_angle_alpha 90.000000
_cell_angle_beta 84.468356
_cell_angle_gamma 90.000000
_cell_volume 948.629357
_symmetry_space_group_name_H-M "P 2/C"
_symmetry_group_IT_number 13
_symmetry_cell_setting 'monoclinic'
loop_
_space_group_symop_operation_xyz
x,y,z
-x,y,1/2-z
-x,-y,-z
x,-y,1/2+z
loop_
_atom_site_type_symbol
_atom_site_label
_atom_site_fract_x
_atom_site_fract_y
_atom_site_fract_z
Si Si1 0.547314 0.912122 0.134342
Si Si2 0.913618 0.690731 0.549153
Si Si3 0.415630 0.427547 0.089615
Si Si4 0.884960 0.272302 0.652354
Si Si5 0.799825 0.912591 0.524296
Si Si6 0.500000 0.428905 0.750000
O O1 0.500000 0.904191 0.250000
O O2 0.772900 0.830786 0.104705
O O3 0.597952 0.031084 0.102049
O O4 0.313988 0.875717 0.075728
O O5 0.170762 0.641636 0.579307
O O6 0.916463 0.679162 0.431213
O O7 0.662459 0.641600 0.603521
O O8 0.907260 0.812803 0.576335
O O9 0.341653 0.497513 0.184377
O O10 0.500000 0.500000 0.000000
O O11 0.675878 0.358790 0.677116
O O12 0.000000 0.239420 0.750000
O O13 0.000000 0.000000 0.500000
#
# Coordination Sequence:
#
# PCOD8122865 Si02
#       6
#     4   4   4   4   4   2
#     4  11  24  44  71 111 146 184 242 308 368 429
#     4  12  26  48  73 102 150 192 237 295 373 433
#     4  12  27  48  71 104 144 195 237 304 364 429
#     4  12  24  41  78 109 138 182 244 313 364 425
#     4  11  25  44  74 104 145 193 239 292 366 454
#     4  12  28  44  74 108 140 188 254 300 362 436
#
# _framework density 23.191357
#
# number of rings (size 3 to 8) (size 9 to 14) (size 15 to 20)
#    0.000    0.364    4.545    3.818    5.091    0.000 
#    1.636    1.818    0.000    0.000    0.000    0.000 
#    0.000    0.000    0.000    0.000    0.000    0.000 
#
# Total GULP energy -272740.919727 kJ/mol
# GULP energy per Si atom -12397.314533 kJ/mol
# Density = 2.313857 g / cm^3
# Si number density = 23.191357 Si / 1000 Ang^3
#
#
#
# Elastic Constant Matrix: (Units=GPa)
#
#
# Indices 1 2 3 4 5 6 
#
# 1 114.5109 47.5582 7.7337 0.0000 28.8385 0.0000
# 2 47.5582 156.4740 26.5828 0.0000 20.0691 0.0000
# 3 7.7337 26.5828 79.1492 0.0000 18.7511 0.0000
# 4 0.0000 0.0000 0.0000 36.8436 0.0000 8.5445
# 5 28.8385 20.0691 18.7511 0.0000 40.0319 0.0000
# 6 0.0000 0.0000 0.0000 8.5445 0.0000 48.5123
#
#
#
# Elastic Compliance Matrix: (Units=1/GPa)
#
#
# Indices 1 2 3 4 5 6 
#
# 1 0.011780 -0.002859 0.001665 0.000000 -0.007833 0.000000
# 2 -0.002859 0.007725 -0.002121 0.000000 -0.000820 0.000000
# 3 0.001665 -0.002121 0.014866 0.000000 -0.007099 0.000000
# 4 0.000000 0.000000 0.000000 0.028298 0.000000 -0.004984
# 5 -0.007833 -0.000820 -0.007099 0.000000 0.034359 0.000000
# 6 0.000000 0.000000 0.000000 -0.004984 0.000000 0.021491
#
#
# Mechanical properties :
#
#
# Convention : Reuss Voigt Hill
#
# Bulk Modulus (GPa) = 36.04680 57.09815 46.57248
# Shear Modulus (GPa) = 37.20338 42.96153 40.08246
#
# Velocity S-wave (km/s) = 4.00958 4.30871 4.16184
# Velocity P-wave (km/s) = 6.08380 7.03045 6.57419
#
# Compressibility (1/GPa) = 0.02774172
#
# Stress axis : x y z
#
# Youngs Moduli (GPa) = 84.88767 129.44681 67.26800
#
# Poissons Ratio (x) = 0.37004 -0.11198
# Poissons Ratio (y) = 0.24266 0.14267
# Poissons Ratio (z) = -0.14132 0.27455
#
# Static dielectric constant tensor:
#      x y z
#    x 4.174210 0.000000 -0.094830 
#    y 0.000000 4.916770 0.000000 
#    z -0.094830 0.000000 4.193500 
# 
# 
# High freq. dielectric constant tensor:
#      x y z
#    x 1.922190 0.000000 -0.001830 
#    y 0.000000 1.936530 0.000000 
#    z -0.001830 0.000000 1.903020 
# 
# From -- ./inp_files/43772.got.cif
#   From: 2010.06.25/outbox.cif.g09.slc.cpg/sg13_22_cif.got.tgz:43772.got - 2010.06.28 04:50:58.
