data_PCOD8122773
_publ_section_title
;
Structure prediction by ZEFSAII (Michael W. Deem and Ramdas Pophale) SiO2 
 PCOD8122773
Probable space group: P 2/C
;
_chemical_formula_sum "Si O2"
_cell_formula_units_Z 20
_cell_length_a 23.748143
_cell_length_b 7.504683
_cell_length_c 16.981234
_cell_angle_alpha 90.000000
_cell_angle_beta 163.260840
_cell_angle_gamma 90.000000
_cell_volume 871.658775
_symmetry_space_group_name_H-M "P 2/C"
_symmetry_group_IT_number 13
_symmetry_cell_setting 'monoclinic'
loop_
_space_group_symop_operation_xyz
x,y,z
-x,y,1/2-z
-x,-y,-z
x,-y,1/2+z
loop_
_atom_site_type_symbol
_atom_site_label
_atom_site_fract_x
_atom_site_fract_y
_atom_site_fract_z
Si Si1 0.616266 0.331739 0.050848
Si Si2 0.217043 0.200565 0.063517
Si Si3 0.555214 0.310757 0.404931
Si Si4 0.200362 0.174750 0.487696
Si Si5 0.201931 0.039759 0.311748
O O1 0.721075 0.282746 0.271279
O O2 0.695098 0.211823 0.086145
O O3 0.672024 0.539542 0.111065
O O4 0.379694 0.311636 0.736672
O O5 0.357836 0.262439 0.183782
O O6 0.233481 0.986767 0.093718
O O7 0.000000 0.263227 0.750000
O O8 0.500000 0.409972 0.250000
O O9 0.670709 0.133398 0.536604
O O10 0.177090 0.081937 0.370734
O O11 0.000000 0.271077 0.250000
O O12 0.000000 0.000000 0.000000
#
# Coordination Sequence:
#
# PCOD8122773 Si02
#       5
#     4   4   4   4   4
#     4  12  26  46  73 105 138 187 237 286 355 421
#     4  11  24  46  71 101 144 186 231 292 354 414
#     4  12  25  46  72 100 146 181 231 294 350 415
#     4  11  23  44  74 104 142 188 234 289 352 418
#     4  12  25  46  73 102 142 188 234 290 351 414
#
# _framework density 22.944759000000001
#
# number of rings (size 3 to 8) (size 9 to 14) (size 15 to 20)
#    0.000    0.400    4.000    5.400    2.800    1.600 
#    3.600    0.000    0.000    0.000    0.000    0.000 
#    0.000    0.000    0.000    0.000    0.000    0.000 
#
# Total GULP energy -247962.113934 kJ/mol
# GULP energy per Si atom -12398.105697 kJ/mol
# Density = 2.289254 g / cm^3
# Si number density = 22.944759 Si / 1000 Ang^3
#
#
#
# Elastic Constant Matrix: (Units=GPa)
#
#
# Indices 1 2 3 4 5 6 
#
# 1 120.6082 37.3116 41.5591 0.0000 8.9663 0.0000
# 2 37.3116 85.3121 37.4397 0.0000 19.2770 0.0000
# 3 41.5591 37.4397 111.7244 0.0000 3.0567 0.0000
# 4 0.0000 0.0000 0.0000 -22.4360 0.0000 -25.8989
# 5 8.9663 19.2770 3.0567 0.0000 40.0030 0.0000
# 6 0.0000 0.0000 0.0000 -25.8989 0.0000 15.6425
#
#
#
# Elastic Compliance Matrix: (Units=1/GPa)
#
#
# Indices 1 2 3 4 5 6 
#
# 1 0.010254 -0.003152 -0.002742 0.000000 -0.000570 0.000000
# 2 -0.003152 0.016492 -0.004165 0.000000 -0.006923 0.000000
# 3 -0.002742 -0.004165 0.011318 0.000000 0.001757 0.000000
# 4 0.000000 0.000000 0.000000 -0.015310 0.000000 -0.025349
# 5 -0.000570 -0.006923 0.001757 0.000000 0.028328 0.000000
# 6 0.000000 0.000000 0.000000 -0.025349 0.000000 0.021959
#
#
# Mechanical properties :
#
#
# Convention : Reuss Voigt Hill
#
# Bulk Modulus (GPa) = 55.72361 61.14063 58.43212
# Shear Modulus (GPa) = 50.43297 20.06417 35.24857
#
# Velocity S-wave (km/s) = 4.69339 2.96033 3.92374
# Velocity P-wave (km/s) = 7.32866 6.19592 6.78597
#
# Compressibility (1/GPa) = 0.01794571
#
# Stress axis : x y z
#
# Youngs Moduli (GPa) = 97.52478 60.63442 88.35334
#
# Poissons Ratio (x) = 0.19114 0.24228
# Poissons Ratio (y) = 0.30744 0.36796
# Poissons Ratio (z) = 0.26743 0.25252
#
# Static dielectric constant tensor:
#      x y z
#    x 4.560350 0.000000 0.123360 
#    y 0.000000 3.855570 0.000000 
#    z 0.123360 0.000000 4.459870 
# 
# 
# High freq. dielectric constant tensor:
#      x y z
#    x 1.930110 0.000000 0.003340 
#    y 0.000000 1.904460 0.000000 
#    z 0.003340 0.000000 1.908840 
# 
# From -- ./inp_files/57398.got.cif
#   From: 2010.06.25/outbox.cif.g09.slc.cpg/sg13_29_cif.got.tgz:57398.got - 2010.06.28 04:50:58.
