data_PCOD8122975
_publ_section_title
;
Structure prediction by ZEFSAII (Michael W. Deem and Ramdas Pophale) SiO2 
 PCOD8122975
Probable space group: P 2/C
;
_chemical_formula_sum "Si O2"
_cell_formula_units_Z 18
_cell_length_a 11.081008
_cell_length_b 6.435216
_cell_length_c 20.129079
_cell_angle_alpha 90.000000
_cell_angle_beta 148.950788
_cell_angle_gamma 90.000000
_cell_volume 740.330846
_symmetry_space_group_name_H-M "P 2/C"
_symmetry_group_IT_number 13
_symmetry_cell_setting 'monoclinic'
loop_
_space_group_symop_operation_xyz
x,y,z
-x,y,1/2-z
-x,-y,-z
x,-y,1/2+z
loop_
_atom_site_type_symbol
_atom_site_label
_atom_site_fract_x
_atom_site_fract_y
_atom_site_fract_z
Si Si1 0.266739 0.802330 0.173367
Si Si2 0.623204 0.100179 0.494299
Si Si3 0.272513 0.445290 0.280023
Si Si4 0.000000 0.308913 0.750000
Si Si5 0.063533 0.152002 0.441947
O O1 0.500000 0.894839 0.250000
O O2 0.335245 0.599503 0.248930
O O3 0.090875 0.754703 0.028865
O O4 0.139260 0.976018 0.157367
O O5 0.482175 0.285289 0.392563
O O6 0.882744 0.173324 0.637102
O O7 0.500000 0.000000 0.500000
O O8 0.683372 0.925905 0.467019
O O9 0.217830 0.563884 0.322460
O O10 0.027594 0.334579 0.147871
#
# Coordination Sequence:
#
# PCOD8122975 Si02
#       5
#     4   4   4   2   4
#     4  11  26  44  74 104 145 190 247 295 365 435
#     4  12  26  46  79 105 148 196 240 300 371 430
#     4  12  26  45  73 106 143 190 242 303 361 435
#     4  12  26  46  70 108 144 188 246 298 356 432
#     4  11  25  49  71 105 148 191 240 305 363 432
#
# _framework density 24.313455000000001
#
# number of rings (size 3 to 8) (size 9 to 14) (size 15 to 20)
#    0.000    0.444    2.222    5.333    6.222    4.444 
#    0.000    0.000    0.000    0.000    0.000    0.000 
#    0.000    0.000    0.000    0.000    0.000    0.000 
#
# Total GULP energy -223215.789739 kJ/mol
# GULP energy per Si atom -12400.877208 kJ/mol
# Density = 2.425812 g / cm^3
# Si number density = 24.313455 Si / 1000 Ang^3
#
#
#
# Elastic Constant Matrix: (Units=GPa)
#
#
# Indices 1 2 3 4 5 6 
#
# 1 140.2597 45.0681 16.4721 0.0000 10.8977 0.0000
# 2 45.0681 77.3601 24.2100 0.0000 -8.2043 0.0000
# 3 16.4721 24.2100 73.3632 0.0000 -5.5156 0.0000
# 4 0.0000 0.0000 0.0000 53.8407 0.0000 -2.4205
# 5 10.8977 -8.2043 -5.5156 0.0000 44.7235 0.0000
# 6 0.0000 0.0000 0.0000 -2.4205 0.0000 46.7999
#
#
#
# Elastic Compliance Matrix: (Units=1/GPa)
#
#
# Indices 1 2 3 4 5 6 
#
# 1 0.009240 -0.005586 -0.000482 0.000000 -0.003336 0.000000
# 2 -0.005586 0.017986 -0.004371 0.000000 0.004121 0.000000
# 3 -0.000482 -0.004371 0.015272 0.000000 0.001199 0.000000
# 4 0.000000 0.000000 0.000000 0.018617 0.000000 0.000963
# 5 -0.003336 0.004121 0.001199 0.000000 0.024076 0.000000
# 6 0.000000 0.000000 0.000000 0.000963 0.000000 0.021417
#
#
# Mechanical properties :
#
#
# Convention : Reuss Voigt Hill
#
# Bulk Modulus (GPa) = 46.25542 51.38702 48.82122
# Shear Modulus (GPa) = 37.12126 42.75501 39.93813
#
# Velocity S-wave (km/s) = 3.91164 4.19799 4.05734
# Velocity P-wave (km/s) = 6.28229 6.68420 6.48636
#
# Compressibility (1/GPa) = 0.02161909
#
# Stress axis : x y z
#
# Youngs Moduli (GPa) = 108.22115 55.59887 65.48047
#
# Poissons Ratio (x) = 0.31058 0.03157
# Poissons Ratio (y) = 0.60453 0.28624
# Poissons Ratio (z) = 0.05217 0.24304
#
# Static dielectric constant tensor:
#      x y z
#    x 4.275380 0.000000 -0.158100 
#    y 0.000000 4.327800 0.000000 
#    z -0.158100 0.000000 4.342310 
# 
# 
# High freq. dielectric constant tensor:
#      x y z
#    x 1.980250 0.000000 -0.009110 
#    y 0.000000 1.955130 0.000000 
#    z -0.009110 0.000000 1.979320 
# 
# From -- ./inp_files/41373.got.cif
#   From: 2010.06.25/outbox.cif.g09.slc.cpg/sg13_21_cif.got.tgz:41373.got - 2010.06.28 04:50:58.
