data_PCOD8122744
_publ_section_title
;
Structure prediction by ZEFSAII (Michael W. Deem and Ramdas Pophale) SiO2 
 PCOD8122744
Probable space group: P 2/C
;
_chemical_formula_sum "Si O2"
_cell_formula_units_Z 28
_cell_length_a 13.689021
_cell_length_b 11.247673
_cell_length_c 9.558352
_cell_angle_alpha 90.000000
_cell_angle_beta 57.808806
_cell_angle_gamma 90.000000
_cell_volume 1245.459563
_symmetry_space_group_name_H-M "P 2/C"
_symmetry_group_IT_number 13
_symmetry_cell_setting 'monoclinic'
loop_
_space_group_symop_operation_xyz
x,y,z
-x,y,1/2-z
-x,-y,-z
x,-y,1/2+z
loop_
_atom_site_type_symbol
_atom_site_label
_atom_site_fract_x
_atom_site_fract_y
_atom_site_fract_z
Si Si1 0.630764 0.260182 0.099886
Si Si2 0.582494 0.480662 0.564965
Si Si3 0.963187 0.389841 0.436138
Si Si4 0.255661 0.275863 0.001206
Si Si5 0.008851 0.825446 0.404654
Si Si6 0.275247 0.877285 0.235018
Si Si7 0.216158 0.133448 0.298958
O O1 0.500000 0.240201 0.250000
O O2 0.652736 0.398403 0.043997
O O3 0.719068 0.229856 0.155320
O O4 0.657499 0.177927 0.946573
O O5 0.500000 0.440074 0.750000
O O6 0.500000 0.500000 0.500000
O O7 0.664098 0.367695 0.475820
O O8 0.827841 0.357549 0.531858
O O9 0.000000 0.409741 0.250000
O O10 0.000000 0.500000 0.500000
O O11 0.025996 0.283527 0.468149
O O12 0.319989 0.188709 0.841617
O O13 0.193084 0.192310 0.163790
O O14 0.903665 0.911902 0.534094
O O15 0.000000 0.789030 0.250000
O O16 0.136391 0.872022 0.332372
O O17 0.300022 0.018497 0.220864
#
# Coordination Sequence:
#
# PCOD8122744 Si02
#       7
#     4   4   4   4   4   4   4
#     4  11  25  45  71 100 133 180 236 288 355 409
#     4  11  24  45  72  98 130 177 229 286 342 415
#     4  11  24  40  62 101 142 180 221 282 351 409
#     4  11  25  41  70 101 138 177 228 289 346 417
#     4  11  23  43  68 100 136 188 233 280 343 424
#     4  11  25  44  69 103 141 183 234 283 352 412
#     4  12  24  45  69 102 140 187 229 287 344 419
#
# _framework density 22.481662
#
# number of rings (size 3 to 8) (size 9 to 14) (size 15 to 20)
#    0.000    0.857    2.857    4.286    2.000    4.000 
#    0.000    2.857    0.000    0.000    0.000    0.000 
#    0.000    0.000    0.000    0.000    0.000    0.000 
#
# Total GULP energy -347026.841862 kJ/mol
# GULP energy per Si atom -12393.815781 kJ/mol
# Density = 2.243049 g / cm^3
# Si number density = 22.481662 Si / 1000 Ang^3
#
#
#
# Elastic Constant Matrix: (Units=GPa)
#
#
# Indices 1 2 3 4 5 6 
#
# 1 80.4688 33.2919 27.6943 0.0000 13.4917 0.0000
# 2 33.2919 134.9582 47.7159 0.0000 10.1779 0.0000
# 3 27.6943 47.7159 152.8328 0.0000 15.0695 0.0000
# 4 0.0000 0.0000 0.0000 31.6767 0.0000 1.9624
# 5 13.4917 10.1779 15.0695 0.0000 45.8053 0.0000
# 6 0.0000 0.0000 0.0000 1.9624 0.0000 22.9305
#
#
#
# Elastic Compliance Matrix: (Units=1/GPa)
#
#
# Indices 1 2 3 4 5 6 
#
# 1 0.014645 -0.002860 -0.001445 0.000000 -0.003203 0.000000
# 2 -0.002860 0.008935 -0.002231 0.000000 -0.000409 0.000000
# 3 -0.001445 -0.002231 0.007659 0.000000 -0.001598 0.000000
# 4 0.000000 0.000000 0.000000 0.031737 0.000000 -0.002716
# 5 -0.003203 -0.000409 -0.001598 0.000000 0.023392 0.000000
# 6 0.000000 0.000000 0.000000 -0.002716 0.000000 0.043842
#
#
# Mechanical properties :
#
#
# Convention : Reuss Voigt Hill
#
# Bulk Modulus (GPa) = 55.04644 65.07377 60.06010
# Shear Modulus (GPa) = 33.48117 37.38636 35.43377
#
# Velocity S-wave (km/s) = 3.86329 4.08238 3.97434
# Velocity P-wave (km/s) = 6.66620 7.15746 6.91619
#
# Compressibility (1/GPa) = 0.01816648
#
# Stress axis : x y z
#
# Youngs Moduli (GPa) = 68.28378 111.92099 130.56427
#
# Poissons Ratio (x) = 0.32012 0.18866
# Poissons Ratio (y) = 0.19531 0.29128
# Poissons Ratio (z) = 0.09867 0.24969
#
# Static dielectric constant tensor:
#      x y z
#    x 4.056780 0.000000 0.040760 
#    y 0.000000 4.284850 0.000000 
#    z 0.040760 0.000000 4.287070 
# 
# 
# High freq. dielectric constant tensor:
#      x y z
#    x 1.877430 0.000000 0.013810 
#    y 0.000000 1.892170 0.000000 
#    z 0.013810 0.000000 1.899730 
# 
# From -- ./inp_files/18911.got.cif
#   From: 2010.06.25/outbox.cif.g09.slc.cpg/sg13_10_cif.got.tgz:18911.got - 2010.06.28 04:50:58.
