data_PCOD8122261
_publ_section_title
;
Structure prediction by ZEFSAII (Michael W. Deem and Ramdas Pophale) SiO2 
 PCOD8122261
Probable space group: P 2/C
;
_chemical_formula_sum "Si O2"
_cell_formula_units_Z 22
_cell_length_a 8.054889
_cell_length_b 5.006596
_cell_length_c 23.823835
_cell_angle_alpha 90.000000
_cell_angle_beta 111.643715
_cell_angle_gamma 90.000000
_cell_volume 893.019620
_symmetry_space_group_name_H-M "P 2/C"
_symmetry_group_IT_number 13
_symmetry_cell_setting 'monoclinic'
loop_
_space_group_symop_operation_xyz
x,y,z
-x,y,1/2-z
-x,-y,-z
x,-y,1/2+z
loop_
_atom_site_type_symbol
_atom_site_label
_atom_site_fract_x
_atom_site_fract_y
_atom_site_fract_z
Si Si1 0.868561 0.674277 0.563805
Si Si2 0.000000 0.671947 0.250000
Si Si3 0.203283 0.179460 0.878549
Si Si4 0.244676 0.118846 0.121506
Si Si5 0.571959 0.852563 0.454557
Si Si6 0.301805 0.390251 0.703264
O O1 0.907297 0.384356 0.595709
O O2 0.735279 0.655918 0.493206
O O3 0.056744 0.800001 0.570062
O O4 0.785544 0.876590 0.599011
O O5 0.121576 0.847834 0.306537
O O6 0.151445 0.517823 0.231349
O O7 0.405283 0.304230 0.905284
O O8 0.330737 0.364081 0.165380
O O9 0.367645 0.063996 0.083946
O O10 0.223685 0.868440 0.161160
O O11 0.500000 0.000000 0.500000
O O12 0.500000 0.317176 0.750000
#
# Coordination Sequence:
#
# PCOD8122261 Si02
#       6
#     4   2   4   4   4   4
#     4  11  22  45  68 103 140 187 235 298 363 436
#     4  12  24  48  74 102 146 194 244 298 370 434
#     4  11  24  42  69 104 140 186 247 289 364 436
#     4  12  24  48  68 107 145 186 248 303 373 438
#     4  10  25  44  73 104 144 190 241 304 369 441
#     4  12  28  46  73 106 148 194 245 307 365 447
#
# _framework density 24.635515000000002
#
# number of rings (size 3 to 8) (size 9 to 14) (size 15 to 20)
#    0.000    0.727    3.636    2.727    0.000   11.636 
#    0.000    6.364    0.000    0.000    0.000    0.000 
#    0.000    0.000    0.000    0.000    0.000    0.000 
#
# Total GULP energy -272613.519351 kJ/mol
# GULP energy per Si atom -12391.523607 kJ/mol
# Density = 2.457944 g / cm^3
# Si number density = 24.635515 Si / 1000 Ang^3
#
#
#
# Elastic Constant Matrix: (Units=GPa)
#
#
# Indices 1 2 3 4 5 6 
#
# 1 139.2554 12.0570 60.2515 0.0000 -2.4560 0.0000
# 2 12.0570 75.9646 18.6484 0.0000 9.4627 0.0000
# 3 60.2515 18.6484 138.3018 0.0000 23.8286 0.0000
# 4 0.0000 0.0000 0.0000 22.2093 0.0000 2.4535
# 5 -2.4560 9.4627 23.8286 0.0000 44.3762 0.0000
# 6 0.0000 0.0000 0.0000 2.4535 0.0000 24.3753
#
#
#
# Elastic Compliance Matrix: (Units=1/GPa)
#
#
# Indices 1 2 3 4 5 6 
#
# 1 0.009223 -0.000754 -0.004443 0.000000 0.003057 0.000000
# 2 -0.000754 0.013859 -0.001128 0.000000 -0.002391 0.000000
# 3 -0.004443 -0.001128 0.010269 0.000000 -0.005520 0.000000
# 4 0.000000 0.000000 0.000000 0.045532 0.000000 -0.004583
# 5 0.003057 -0.002391 -0.005520 0.000000 0.026177 0.000000
# 6 0.000000 0.000000 0.000000 -0.004583 0.000000 0.041486
#
#
# Mechanical properties :
#
#
# Convention : Reuss Voigt Hill
#
# Bulk Modulus (GPa) = 48.30860 59.49284 53.90072
# Shear Modulus (GPa) = 30.10297 35.69649 32.89973
#
# Velocity S-wave (km/s) = 3.49941 3.81068 3.65836
# Velocity P-wave (km/s) = 5.99831 6.60026 6.30647
#
# Compressibility (1/GPa) = 0.02070025
#
# Stress axis : x y z
#
# Youngs Moduli (GPa) = 108.43034 72.15784 97.37849
#
# Poissons Ratio (x) = 0.05440 0.43264
# Poissons Ratio (y) = 0.08175 0.10987
# Poissons Ratio (z) = 0.48174 0.08141
#
# Static dielectric constant tensor:
#      x y z
#    x 4.694240 0.000000 0.547620 
#    y 0.000000 4.409370 0.000000 
#    z 0.547620 0.000000 4.895970 
# 
# 
# High freq. dielectric constant tensor:
#      x y z
#    x 2.000400 0.000000 0.025120 
#    y 0.000000 1.951780 0.000000 
#    z 0.025120 0.000000 1.992450 
# 
# From -- ./inp_files/84183.got.cif
#   From: 2010.06.25/outbox.cif.g09.slc.cpg/sg13_43_cif.got.tgz:84183.got - 2010.06.28 04:50:58.
