data_PCOD8122015
_publ_section_title
;
Structure prediction by ZEFSAII (Michael W. Deem and Ramdas Pophale) SiO2 
 PCOD8122015
Probable space group: P 2/C
;
_chemical_formula_sum "Si O2"
_cell_formula_units_Z 20
_cell_length_a 14.419830
_cell_length_b 6.356639
_cell_length_c 9.824520
_cell_angle_alpha 90.000000
_cell_angle_beta 100.209860
_cell_angle_gamma 90.000000
_cell_volume 886.271937
_symmetry_space_group_name_H-M "P 2/C"
_symmetry_group_IT_number 13
_symmetry_cell_setting 'monoclinic'
loop_
_space_group_symop_operation_xyz
x,y,z
-x,y,1/2-z
-x,-y,-z
x,-y,1/2+z
loop_
_atom_site_type_symbol
_atom_site_label
_atom_site_fract_x
_atom_site_fract_y
_atom_site_fract_z
Si Si1 0.855252 0.354928 0.365669
Si Si2 0.000000 0.918409 0.750000
Si Si3 0.583750 0.389492 0.943511
Si Si4 0.657121 0.296582 0.235014
Si Si5 0.098534 0.675743 0.322833
Si Si6 0.500000 0.967057 0.250000
O O1 0.948726 0.222495 0.349865
O O2 0.759913 0.221070 0.315032
O O3 0.835750 0.575503 0.278343
O O4 0.866607 0.415880 0.525598
O O5 0.084387 0.070507 0.829823
O O6 0.619298 0.518506 0.822678
O O7 0.543997 0.167278 0.883435
O O8 0.500000 0.500000 0.000000
O O9 0.666024 0.367227 0.078684
O O10 0.585107 0.104482 0.214070
O O11 0.000000 0.570831 0.250000
#
# Coordination Sequence:
#
# PCOD8122015 Si02
#       6
#     4   2   4   4   4   2
#     4  12  24  45  65 103 132 172 226 275 326 397
#     4  10  24  40  70  92 134 174 222 272 332 390
#     4  12  23  48  68  95 139 179 219 279 341 394
#     4  12  27  41  72 101 134 178 228 278 332 398
#     4  10  24  42  72  89 136 178 214 270 343 385
#     4  12  24  44  74  94 136 178 228 268 338 400
#
# _framework density 22.566438999999999
#
# number of rings (size 3 to 8) (size 9 to 14) (size 15 to 20)
#    0.600    0.000    5.000    3.000    0.000    3.200 
#    0.000    0.000    0.000    0.000    0.000    0.000 
#    0.000    0.000    0.000    0.000    0.000    0.000 
#
# Total GULP energy -247774.318063 kJ/mol
# GULP energy per Si atom -12388.715903 kJ/mol
# Density = 2.251508 g / cm^3
# Si number density = 22.566439 Si / 1000 Ang^3
#
#
#
# Elastic Constant Matrix: (Units=GPa)
#
#
# Indices 1 2 3 4 5 6 
#
# 1 70.3668 19.9009 29.4887 0.0000 19.0118 0.0000
# 2 19.9009 99.9268 41.6085 0.0000 1.5372 0.0000
# 3 29.4887 41.6085 195.0343 0.0000 27.5881 0.0000
# 4 0.0000 0.0000 0.0000 19.6792 0.0000 11.0935
# 5 19.0118 1.5372 27.5881 0.0000 29.5152 0.0000
# 6 0.0000 0.0000 0.0000 11.0935 0.0000 17.0547
#
#
#
# Elastic Compliance Matrix: (Units=1/GPa)
#
#
# Indices 1 2 3 4 5 6 
#
# 1 0.018373 -0.003281 -0.000493 0.000000 -0.011203 0.000000
# 2 -0.003281 0.011659 -0.002540 0.000000 0.003881 0.000000
# 3 -0.000493 -0.002540 0.006546 0.000000 -0.005668 0.000000
# 4 0.000000 0.000000 0.000000 0.080236 0.000000 -0.052191
# 5 -0.011203 0.003881 -0.005668 0.000000 0.046193 0.000000
# 6 0.000000 0.000000 0.000000 -0.052191 0.000000 0.092584
#
#
# Mechanical properties :
#
#
# Convention : Reuss Voigt Hill
#
# Bulk Modulus (GPa) = 41.75748 60.81378 51.28563
# Shear Modulus (GPa) = 18.10270 31.53845 24.82057
#
# Velocity S-wave (km/s) = 2.83538 3.74248 3.32006
# Velocity P-wave (km/s) = 5.40958 6.75886 6.12151
#
# Compressibility (1/GPa) = 0.02394781
#
# Stress axis : x y z
#
# Youngs Moduli (GPa) = 54.42858 85.77228 152.77541
#
# Poissons Ratio (x) = 0.28144 0.07536
# Poissons Ratio (y) = 0.17860 0.38806
# Poissons Ratio (z) = 0.02685 0.21787
#
# Static dielectric constant tensor:
#      x y z
#    x 5.604990 0.000000 2.175440 
#    y 0.000000 4.123770 0.000000 
#    z 2.175440 0.000000 7.296980 
# 
# 
# High freq. dielectric constant tensor:
#      x y z
#    x 1.881600 0.000000 0.005010 
#    y 0.000000 1.881930 0.000000 
#    z 0.005010 0.000000 1.902390 
# 
# From -- ./inp_files/20557.got.cif
#   From: 2010.06.25/outbox.cif.g09.slc.cpg/sg13_11_cif.got.tgz:20557.got - 2010.06.28 04:50:58.
