data_PCOD8122911
_publ_section_title
;
Structure prediction by ZEFSAII (Michael W. Deem and Ramdas Pophale) SiO2 
 PCOD8122911
Probable space group: P 2/C
;
_chemical_formula_sum "Si O2"
_cell_formula_units_Z 22
_cell_length_a 15.664455
_cell_length_b 6.549660
_cell_length_c 8.770319
_cell_angle_alpha 90.000000
_cell_angle_beta 107.498140
_cell_angle_gamma 90.000000
_cell_volume 858.170106
_symmetry_space_group_name_H-M "P 2/C"
_symmetry_group_IT_number 13
_symmetry_cell_setting 'monoclinic'
loop_
_space_group_symop_operation_xyz
x,y,z
-x,y,1/2-z
-x,-y,-z
x,-y,1/2+z
loop_
_atom_site_type_symbol
_atom_site_label
_atom_site_fract_x
_atom_site_fract_y
_atom_site_fract_z
Si Si1 0.500000 0.897812 0.250000
Si Si2 0.542342 0.735723 0.574754
Si Si3 0.644102 0.608177 0.893643
Si Si4 0.792763 0.107272 0.382523
Si Si5 0.936581 0.393965 0.584350
Si Si6 0.784942 0.714793 0.550593
O O1 0.442433 0.045023 0.331115
O O2 0.558199 0.757653 0.399147
O O3 0.611920 0.585514 0.698298
O O4 0.558406 0.351722 0.456791
O O5 0.713345 0.796357 0.942161
O O6 0.692422 0.402421 0.971790
O O7 0.887085 0.204851 0.480603
O O8 0.774463 0.147967 0.195145
O O9 0.799572 0.865245 0.414745
O O10 0.866620 0.559040 0.612931
O O11 0.000000 0.304933 0.750000
O O12 0.000000 0.500000 0.500000
#
# Coordination Sequence:
#
# PCOD8122911 Si02
#       6
#     2   4   4   4   4   4
#     4   8  16  32  66 112 142 182 262 304 362 424
#     4   9  18  40  70 104 144 198 246 309 357 423
#     4   9  22  45  70 101 145 187 243 296 356 419
#     4  11  26  44  70 107 144 190 229 294 357 420
#     4  11  24  48  78 108 146 180 233 289 352 439
#     4  11  26  46  71 108 146 187 236 290 360 426
#
# _framework density 25.635945
#
# number of rings (size 3 to 8) (size 9 to 14) (size 15 to 20)
#    0.000    2.182    1.818    0.000    2.545    8.727 
#    0.000   12.727    0.000    4.364    0.000    2.545 
#    0.000    0.000    0.000    0.000    0.000    0.000 
#
# Total GULP energy -272748.515250 kJ/mol
# GULP energy per Si atom -12397.659784 kJ/mol
# Density = 2.557760 g / cm^3
# Si number density = 25.635945 Si / 1000 Ang^3
#
#
#
# Elastic Constant Matrix: (Units=GPa)
#
#
# Indices 1 2 3 4 5 6 
#
# 1 117.3879 27.8480 36.4083 0.0000 21.0902 0.0000
# 2 27.8480 107.2442 59.4309 0.0000 17.2719 0.0000
# 3 36.4083 59.4309 216.4805 0.0000 17.0133 0.0000
# 4 0.0000 0.0000 0.0000 49.4758 0.0000 1.4367
# 5 21.0902 17.2719 17.0133 0.0000 42.0643 0.0000
# 6 0.0000 0.0000 0.0000 1.4367 0.0000 22.5204
#
#
#
# Elastic Compliance Matrix: (Units=1/GPa)
#
#
# Indices 1 2 3 4 5 6 
#
# 1 0.009863 -0.001384 -0.000966 0.000000 -0.003986 0.000000
# 2 -0.001384 0.011685 -0.002740 0.000000 -0.002996 0.000000
# 3 -0.000966 -0.002740 0.005585 0.000000 -0.000650 0.000000
# 4 0.000000 0.000000 0.000000 0.020249 0.000000 -0.001292
# 5 -0.003986 -0.002996 -0.000650 0.000000 0.027265 0.000000
# 6 0.000000 0.000000 0.000000 -0.001292 0.000000 0.044487
#
#
# Mechanical properties :
#
#
# Convention : Reuss Voigt Hill
#
# Bulk Modulus (GPa) = 58.98320 76.49857 67.74088
# Shear Modulus (GPa) = 37.04734 43.97378 40.51056
#
# Velocity S-wave (km/s) = 3.80561 4.14613 3.97952
# Velocity P-wave (km/s) = 6.50909 7.26813 6.89905
#
# Compressibility (1/GPa) = 0.01695398
#
# Stress axis : x y z
#
# Youngs Moduli (GPa) = 101.39192 85.58307 179.05376
#
# Poissons Ratio (x) = 0.11845 0.17288
# Poissons Ratio (y) = 0.14033 0.49053
# Poissons Ratio (z) = 0.09789 0.23446
#
# Static dielectric constant tensor:
#      x y z
#    x 4.529530 0.000000 -0.048830 
#    y 0.000000 4.864490 0.000000 
#    z -0.048830 0.000000 4.615390 
# 
# 
# High freq. dielectric constant tensor:
#      x y z
#    x 2.020260 0.000000 0.011030 
#    y 0.000000 2.029420 0.000000 
#    z 0.011030 0.000000 2.040970 
# 
# From -- ./inp_files/22298.got.cif
#   From: 2010.06.25/outbox.cif.g09.slc.cpg/sg13_12_cif.got.tgz:22298.got - 2010.06.28 04:50:58.
