data_PCOD8122880
_publ_section_title
;
Structure prediction by ZEFSAII (Michael W. Deem and Ramdas Pophale) SiO2 
 PCOD8122880
Probable space group: P 2/C
;
_chemical_formula_sum "Si O2"
_cell_formula_units_Z 18
_cell_length_a 15.288183
_cell_length_b 6.901151
_cell_length_c 14.579062
_cell_angle_alpha 90.000000
_cell_angle_beta 152.136047
_cell_angle_gamma 90.000000
_cell_volume 718.904605
_symmetry_space_group_name_H-M "P 2/C"
_symmetry_group_IT_number 13
_symmetry_cell_setting 'monoclinic'
loop_
_space_group_symop_operation_xyz
x,y,z
-x,y,1/2-z
-x,-y,-z
x,-y,1/2+z
loop_
_atom_site_type_symbol
_atom_site_label
_atom_site_fract_x
_atom_site_fract_y
_atom_site_fract_z
Si Si1 0.795261 0.944275 0.894039
Si Si2 0.259083 0.530117 0.932859
Si Si3 0.146877 0.284122 0.666399
Si Si4 0.000000 0.148247 0.250000
Si Si5 0.671442 0.552732 0.800123
O O1 0.872782 0.020742 0.063775
O O2 0.722143 0.119370 0.761492
O O3 0.944927 0.812992 0.977787
O O4 0.630063 0.784753 0.753885
O O5 0.195486 0.344798 0.814731
O O6 0.134564 0.724365 0.806765
O O7 0.230658 0.475968 0.011950
O O8 0.477812 0.566532 0.111042
O O9 0.174297 0.477472 0.630085
#
# Coordination Sequence:
#
# PCOD8122880 Si02
#       5
#     4   4   4   2   4
#     4  11  25  42  74 100 137 178 242 283 342 420
#     4  11  25  44  73  94 149 183 224 289 356 404
#     4  11  24  45  71 104 135 185 231 287 349 421
#     4  12  24  48  72 108 138 194 230 286 352 426
#     4  11  24  49  65 105 139 185 227 294 347 412
#
# _framework density 25.038093
#
# number of rings (size 3 to 8) (size 9 to 14) (size 15 to 20)
#    0.000    0.889    2.222    4.000    6.222    0.889 
#   12.000    0.000    0.000    0.000    0.000    0.000 
#    0.000    0.000    0.000    0.000    0.000    0.000 
#
# Total GULP energy -223014.437332 kJ/mol
# GULP energy per Si atom -12389.690963 kJ/mol
# Density = 2.498111 g / cm^3
# Si number density = 25.038093 Si / 1000 Ang^3
#
#
#
# Elastic Constant Matrix: (Units=GPa)
#
#
# Indices 1 2 3 4 5 6 
#
# 1 100.2856 36.4398 39.6237 0.0000 2.9699 0.0000
# 2 36.4398 149.1050 39.8278 0.0000 3.8793 0.0000
# 3 39.6237 39.8278 61.2087 0.0000 -0.5431 0.0000
# 4 0.0000 0.0000 0.0000 30.9034 0.0000 -1.1240
# 5 2.9699 3.8793 -0.5431 0.0000 14.4933 0.0000
# 6 0.0000 0.0000 0.0000 -1.1240 0.0000 24.9102
#
#
#
# Elastic Compliance Matrix: (Units=1/GPa)
#
#
# Indices 1 2 3 4 5 6 
#
# 1 0.013679 -0.001087 -0.008173 0.000000 -0.002819 0.000000
# 2 -0.001087 0.008286 -0.004708 0.000000 -0.002172 0.000000
# 3 -0.008173 -0.004708 0.024726 0.000000 0.003861 0.000000
# 4 0.000000 0.000000 0.000000 0.032412 0.000000 0.001463
# 5 -0.002819 -0.002172 0.003861 0.000000 0.070301 0.000000
# 6 0.000000 0.000000 0.000000 0.001463 0.000000 0.040210
#
#
# Mechanical properties :
#
#
# Convention : Reuss Voigt Hill
#
# Bulk Modulus (GPa) = 53.31489 60.26468 56.78978
# Shear Modulus (GPa) = 22.34121 27.04190 24.69155
#
# Velocity S-wave (km/s) = 2.99036 3.28995 3.14372
# Velocity P-wave (km/s) = 5.76739 6.20912 5.99232
#
# Compressibility (1/GPa) = 0.01875649
#
# Stress axis : x y z
#
# Youngs Moduli (GPa) = 73.10417 120.68273 40.44325
#
# Poissons Ratio (x) = 0.13113 0.33055
# Poissons Ratio (y) = 0.07943 0.19039
# Poissons Ratio (z) = 0.59750 0.56813
#
# Static dielectric constant tensor:
#      x y z
#    x 4.652490 0.000000 -0.028210 
#    y 0.000000 5.202730 0.000000 
#    z -0.028210 0.000000 4.068680 
# 
# 
# High freq. dielectric constant tensor:
#      x y z
#    x 2.011670 0.000000 -0.005950 
#    y 0.000000 2.015620 0.000000 
#    z -0.005950 0.000000 1.964340 
# 
# From -- ./inp_files/69204.got.cif
#   From: 2010.06.25/outbox.cif.g09.slc.cpg/sg13_35_cif.got.tgz:69204.got - 2010.06.28 04:50:58.
