data_PCOD8122968
_publ_section_title
;
Structure prediction by ZEFSAII (Michael W. Deem and Ramdas Pophale) SiO2 
 PCOD8122968
Probable space group: P 2/C
;
_chemical_formula_sum "Si O2"
_cell_formula_units_Z 22
_cell_length_a 25.908818
_cell_length_b 6.678838
_cell_length_c 11.496077
_cell_angle_alpha 90.000000
_cell_angle_beta 152.234406
_cell_angle_gamma 90.000000
_cell_volume 926.721582
_symmetry_space_group_name_H-M "P 2/C"
_symmetry_group_IT_number 13
_symmetry_cell_setting 'monoclinic'
loop_
_space_group_symop_operation_xyz
x,y,z
-x,y,1/2-z
-x,-y,-z
x,-y,1/2+z
loop_
_atom_site_type_symbol
_atom_site_label
_atom_site_fract_x
_atom_site_fract_y
_atom_site_fract_z
Si Si1 0.703421 0.354362 0.252521
Si Si2 0.843399 0.369776 0.179327
Si Si3 0.941443 0.704365 0.518277
Si Si4 0.422285 0.161266 0.285124
Si Si5 0.772675 0.946336 0.708403
Si Si6 0.500000 0.441186 0.250000
O O1 0.783193 0.541038 0.444622
O O2 0.650302 0.272783 0.264157
O O3 0.774915 0.180268 0.332685
O O4 0.609439 0.422054 0.974085
O O5 0.853185 0.542991 0.296414
O O6 0.771668 0.193415 0.092145
O O7 0.962794 0.273780 0.387837
O O8 0.000000 0.620402 0.750000
O O9 0.880684 0.913082 0.424192
O O10 0.498860 0.315484 0.367112
O O11 0.500000 0.000000 0.500000
O O12 0.341525 0.067991 0.026566
#
# Coordination Sequence:
#
# PCOD8122968 Si02
#       6
#     4   4   4   4   4   2
#     4  12  25  45  76 105 145 193 240 300 366 430
#     4  11  25  48  70 104 148 192 238 298 361 427
#     4  11  26  44  73 104 145 190 240 296 358 432
#     4  12  25  45  70 106 145 187 241 304 364 430
#     4  12  26  44  72 107 140 188 243 295 360 433
#     4  12  26  46  74 106 146 190 246 304 362 436
#
# _framework density 23.739598999999998
#
# number of rings (size 3 to 8) (size 9 to 14) (size 15 to 20)
#    0.000    0.364    1.818    6.545    5.091    3.636 
#    0.000    0.000    0.000    0.000    0.000    0.000 
#    0.000    0.000    0.000    0.000    0.000    0.000 
#
# Total GULP energy -272974.385131 kJ/mol
# GULP energy per Si atom -12407.926597 kJ/mol
# Density = 2.368557 g / cm^3
# Si number density = 23.739599 Si / 1000 Ang^3
#
#
#
# Elastic Constant Matrix: (Units=GPa)
#
#
# Indices 1 2 3 4 5 6 
#
# 1 100.2643 45.9571 10.9681 0.0000 2.2051 0.0000
# 2 45.9571 91.3077 34.7288 0.0000 8.9825 0.0000
# 3 10.9681 34.7288 123.2552 0.0000 0.0262 0.0000
# 4 0.0000 0.0000 0.0000 48.5413 0.0000 -1.2355
# 5 2.2051 8.9825 0.0262 0.0000 36.7425 0.0000
# 6 0.0000 0.0000 0.0000 -1.2355 0.0000 54.7847
#
#
#
# Elastic Compliance Matrix: (Units=1/GPa)
#
#
# Indices 1 2 3 4 5 6 
#
# 1 0.013060 -0.006968 0.000801 0.000000 0.000919 0.000000
# 2 -0.006968 0.016324 -0.003979 0.000000 -0.003570 0.000000
# 3 0.000801 -0.003979 0.009163 0.000000 0.000918 0.000000
# 4 0.000000 0.000000 0.000000 0.020613 0.000000 0.000465
# 5 0.000919 -0.003570 0.000918 0.000000 0.028033 0.000000
# 6 0.000000 0.000000 0.000000 0.000465 0.000000 0.018264
#
#
# Mechanical properties :
#
#
# Convention : Reuss Voigt Hill
#
# Bulk Modulus (GPa) = 54.78082 55.34836 55.06459
# Shear Modulus (GPa) = 37.92683 42.89192 40.40938
#
# Velocity S-wave (km/s) = 4.00136 4.25522 4.13024
# Velocity P-wave (km/s) = 6.66886 6.89260 6.78165
#
# Compressibility (1/GPa) = 0.01825456
#
# Stress axis : x y z
#
# Youngs Moduli (GPa) = 76.57072 61.26054 109.13721
#
# Poissons Ratio (x) = 0.42689 -0.08743
# Poissons Ratio (y) = 0.53358 0.43421
# Poissons Ratio (z) = -0.06134 0.24373
#
# Static dielectric constant tensor:
#      x y z
#    x 4.251770 0.000000 0.130410 
#    y 0.000000 4.330380 0.000000 
#    z 0.130410 0.000000 4.219640 
# 
# 
# High freq. dielectric constant tensor:
#      x y z
#    x 1.953300 0.000000 0.004300 
#    y 0.000000 1.942970 0.000000 
#    z 0.004300 0.000000 1.942750 
# 
# From -- ./inp_files/42575.got.cif
#   From: 2010.06.25/outbox.cif.g09.slc.cpg/sg13_22_cif.got.tgz:42575.got - 2010.06.28 04:50:58.
