data_PCOD8122420
_publ_section_title
;
Structure prediction by ZEFSAII (Michael W. Deem and Ramdas Pophale) SiO2 
 PCOD8122420
Probable space group: P 2/C
;
_chemical_formula_sum "Si O2"
_cell_formula_units_Z 24
_cell_length_a 10.526129
_cell_length_b 7.688808
_cell_length_c 18.285076
_cell_angle_alpha 90.000000
_cell_angle_beta 56.591987
_cell_angle_gamma 90.000000
_cell_volume 1235.354947
_symmetry_space_group_name_H-M "P 2/C"
_symmetry_group_IT_number 13
_symmetry_cell_setting 'monoclinic'
loop_
_space_group_symop_operation_xyz
x,y,z
-x,y,1/2-z
-x,-y,-z
x,-y,1/2+z
loop_
_atom_site_type_symbol
_atom_site_label
_atom_site_fract_x
_atom_site_fract_y
_atom_site_fract_z
Si Si1 0.175482 0.000884 0.278571
Si Si2 0.369113 0.158951 0.837132
Si Si3 0.652584 0.299848 0.501938
Si Si4 0.637199 0.316311 0.991316
Si Si5 0.831494 0.987411 0.383336
Si Si6 0.466782 0.796787 0.683995
O O1 0.229572 0.872269 0.325755
O O2 0.178469 0.916509 0.196597
O O3 0.000903 0.044550 0.353262
O O4 0.284164 0.170868 0.239152
O O5 0.500000 0.261185 0.750000
O O6 0.444576 0.981116 0.843289
O O7 0.310474 0.267445 0.924638
O O8 0.471006 0.285833 0.544807
O O9 0.713265 0.492965 0.463061
O O10 0.731700 0.159548 0.424880
O O11 0.767981 0.169981 0.953697
O O12 0.527657 0.314812 0.097275
O O13 0.500000 0.696891 0.750000
#
# Coordination Sequence:
#
# PCOD8122420 Si02
#       6
#     4   4   4   4   4   4
#     4   9  20  35  61  81 111 156 185 225 296 336
#     4   9  18  35  58  84 109 147 190 231 280 336
#     4  11  22  34  60  85 112 146 190 235 279 333
#     4  11  21  36  59  87 109 147 195 230 276 338
#     4  11  20  38  60  81 115 151 184 236 285 335
#     4   9  17  35  59  81 108 146 189 228 275 333
#
# _framework density 19.427613999999998
#
# number of rings (size 3 to 8) (size 9 to 14) (size 15 to 20)
#    0.000    2.333    3.333    2.500    0.000    1.333 
#    0.000    4.167    7.333    0.000    0.000    0.000 
#    0.000    0.000    0.000    0.000    0.000    0.000 
#
# Total GULP energy -297423.279249 kJ/mol
# GULP energy per Si atom -12392.636635 kJ/mol
# Density = 1.938340 g / cm^3
# Si number density = 19.427614 Si / 1000 Ang^3
#
#
#
# Elastic Constant Matrix: (Units=GPa)
#
#
# Indices 1 2 3 4 5 6 
#
# 1 101.2201 33.9502 35.5271 0.0000 5.7660 0.0000
# 2 33.9502 103.9480 38.4790 0.0000 -12.7867 0.0000
# 3 35.5271 38.4790 83.8468 0.0000 10.2621 0.0000
# 4 0.0000 0.0000 0.0000 12.3928 0.0000 6.4396
# 5 5.7660 -12.7867 10.2621 0.0000 35.7675 0.0000
# 6 0.0000 0.0000 0.0000 6.4396 0.0000 11.4321
#
#
#
# Elastic Compliance Matrix: (Units=1/GPa)
#
#
# Indices 1 2 3 4 5 6 
#
# 1 0.012232 -0.002902 -0.003610 0.000000 -0.001974 0.000000
# 2 -0.002902 0.013605 -0.005873 0.000000 0.007016 0.000000
# 3 -0.003610 -0.005873 0.016932 0.000000 -0.006375 0.000000
# 4 0.000000 0.000000 0.000000 0.114084 0.000000 -0.064263
# 5 -0.001974 0.007016 -0.006375 0.000000 0.032614 0.000000
# 6 0.000000 0.000000 0.000000 -0.064263 0.000000 0.123672
#
#
# Mechanical properties :
#
#
# Convention : Reuss Voigt Hill
#
# Bulk Modulus (GPa) = 55.55544 56.10306 55.82925
# Shear Modulus (GPa) = 14.53880 23.98905 19.26393
#
# Velocity S-wave (km/s) = 2.73858 3.51777 3.15234
# Velocity P-wave (km/s) = 6.21755 6.74094 6.48453
#
# Compressibility (1/GPa) = 0.01800004
#
# Stress axis : x y z
#
# Youngs Moduli (GPa) = 81.75210 73.50244 59.06148
#
# Poissons Ratio (x) = 0.21328 0.21320
# Poissons Ratio (y) = 0.23721 0.34686
# Poissons Ratio (z) = 0.29511 0.43167
#
# Static dielectric constant tensor:
#      x y z
#    x 3.612360 0.000000 0.173070 
#    y 0.000000 3.143250 0.000000 
#    z 0.173070 0.000000 3.679850 
# 
# 
# High freq. dielectric constant tensor:
#      x y z
#    x 1.753530 0.000000 0.017440 
#    y 0.000000 1.716290 0.000000 
#    z 0.017440 0.000000 1.760380 
# 
# From -- ./inp_files/65903.got.cif
#   From: 2010.06.25/outbox.cif.g09.slc.cpg/sg13_33_cif.got.tgz:65903.got - 2010.06.28 04:50:58.
