data_PCOD8122569
_publ_section_title
;
Structure prediction by ZEFSAII (Michael W. Deem and Ramdas Pophale) SiO2 
 PCOD8122569
Probable space group: P 2/C
;
_chemical_formula_sum "Si O2"
_cell_formula_units_Z 28
_cell_length_a 21.040563
_cell_length_b 9.425752
_cell_length_c 15.856864
_cell_angle_alpha 90.000000
_cell_angle_beta 153.252769
_cell_angle_gamma 90.000000
_cell_volume 1415.326154
_symmetry_space_group_name_H-M "P 2/C"
_symmetry_group_IT_number 13
_symmetry_cell_setting 'monoclinic'
loop_
_space_group_symop_operation_xyz
x,y,z
-x,y,1/2-z
-x,-y,-z
x,-y,1/2+z
loop_
_atom_site_type_symbol
_atom_site_label
_atom_site_fract_x
_atom_site_fract_y
_atom_site_fract_z
Si Si1 0.704660 0.763334 0.550336
Si Si2 0.599239 0.178545 0.750653
Si Si3 0.141951 0.963284 0.213189
Si Si4 0.130471 0.245993 0.843186
Si Si5 0.851189 0.520354 0.277860
Si Si6 0.332280 0.264364 0.851810
Si Si7 0.425253 0.851870 0.751933
O O1 0.546625 0.746744 0.396821
O O2 0.710372 0.787745 0.456485
O O3 0.799680 0.630637 0.685499
O O4 0.765117 0.898382 0.669295
O O5 0.651854 0.255106 0.729206
O O6 0.588665 0.008791 0.725178
O O7 0.107943 0.897996 0.264145
O O8 0.224996 0.855442 0.253366
O O9 0.000000 0.000000 0.000000
O O10 0.136726 0.379978 0.789138
O O11 0.000000 0.268939 0.750000
O O12 0.276160 0.228913 0.067721
O O13 0.735519 0.583577 0.205665
O O14 0.000000 0.500000 0.500000
O O15 0.481875 0.245047 0.076033
O O16 0.500000 0.867739 0.750000
#
# Coordination Sequence:
#
# PCOD8122569 Si02
#       7
#     4   4   4   4   4   4   4
#     4  11  22  41  65  90 135 173 212 275 331 385
#     4  11  22  39  67 104 128 158 224 288 326 381
#     4  11  22  38  62  95 126 173 219 269 333 381
#     4  11  25  43  68  97 130 175 218 269 333 391
#     4  11  26  47  61  90 137 180 220 267 327 398
#     4  11  24  40  69  96 129 177 221 275 328 390
#     4  12  19  43  70 101 135 164 220 281 331 390
#
# _framework density 19.783425999999999
#
# number of rings (size 3 to 8) (size 9 to 14) (size 15 to 20)
#    0.000    0.857    7.143    2.143    2.000    5.143 
#    0.000    2.143    0.000    0.000    0.000    0.000 
#    0.000    0.000    0.000    0.000    0.000    0.000 
#
# Total GULP energy -347303.127366 kJ/mol
# GULP energy per Si atom -12403.683120 kJ/mol
# Density = 1.973840 g / cm^3
# Si number density = 19.783426 Si / 1000 Ang^3
#
#
#
# Elastic Constant Matrix: (Units=GPa)
#
#
# Indices 1 2 3 4 5 6 
#
# 1 151.0692 59.6671 81.9617 0.0000 13.1236 0.0000
# 2 59.6671 148.5130 102.4531 0.0000 24.2537 0.0000
# 3 81.9617 102.4531 237.6913 0.0000 30.5834 0.0000
# 4 0.0000 0.0000 0.0000 38.3765 0.0000 -0.8275
# 5 13.1236 24.2537 30.5834 0.0000 34.5637 0.0000
# 6 0.0000 0.0000 0.0000 -0.8275 0.0000 10.3754
#
#
#
# Elastic Compliance Matrix: (Units=1/GPa)
#
#
# Indices 1 2 3 4 5 6 
#
# 1 0.008538 -0.001991 -0.002086 0.000000 0.000001 0.000000
# 2 -0.001991 0.010430 -0.003345 0.000000 -0.003602 0.000000
# 3 -0.002086 -0.003345 0.006731 0.000000 -0.002816 0.000000
# 4 0.000000 0.000000 0.000000 0.026103 0.000000 0.002082
# 5 0.000001 -0.003602 -0.002816 0.000000 0.033951 0.000000
# 6 0.000000 0.000000 0.000000 0.002082 0.000000 0.096548
#
#
# Mechanical properties :
#
#
# Convention : Reuss Voigt Hill
#
# Bulk Modulus (GPa) = 92.14186 113.93746 103.03966
# Shear Modulus (GPa) = 24.90512 36.20923 30.55718
#
# Velocity S-wave (km/s) = 3.55193 4.28282 3.93438
# Velocity P-wave (km/s) = 7.96856 9.06500 8.53441
#
# Compressibility (1/GPa) = 0.01085283
#
# Stress axis : x y z
#
# Youngs Moduli (GPa) = 117.13014 95.88105 148.57408
#
# Poissons Ratio (x) = 0.19094 0.30989
# Poissons Ratio (y) = 0.23325 0.49703
# Poissons Ratio (z) = 0.24430 0.32075
#
# Static dielectric constant tensor:
#      x y z
#    x 3.640330 0.000000 0.013080 
#    y 0.000000 3.594680 0.000000 
#    z 0.013080 0.000000 3.980280 
# 
# 
# High freq. dielectric constant tensor:
#      x y z
#    x 1.765660 0.000000 -0.003050 
#    y 0.000000 1.769580 0.000000 
#    z -0.003050 0.000000 1.789930 
# 
# From -- ./inp_files/57518.got.cif
#   From: 2010.06.25/outbox.cif.g09.slc.cpg/sg13_29_cif.got.tgz:57518.got - 2010.06.28 04:50:58.
