data_PCOD8122358
_publ_section_title
;
Structure prediction by ZEFSAII (Michael W. Deem and Ramdas Pophale) SiO2 
 PCOD8122358
Probable space group: P 2/C
;
_chemical_formula_sum "Si O2"
_cell_formula_units_Z 28
_cell_length_a 14.244848
_cell_length_b 11.055523
_cell_length_c 9.308183
_cell_angle_alpha 90.000000
_cell_angle_beta 57.398478
_cell_angle_gamma 90.000000
_cell_volume 1234.923392
_symmetry_space_group_name_H-M "P 2/C"
_symmetry_group_IT_number 13
_symmetry_cell_setting 'monoclinic'
loop_
_space_group_symop_operation_xyz
x,y,z
-x,y,1/2-z
-x,-y,-z
x,-y,1/2+z
loop_
_atom_site_type_symbol
_atom_site_label
_atom_site_fract_x
_atom_site_fract_y
_atom_site_fract_z
Si Si1 0.860288 0.716047 0.164684
Si Si2 0.229054 0.542452 0.469283
Si Si3 0.697252 0.875483 0.481576
Si Si4 0.000000 0.544988 0.250000
Si Si5 0.271455 0.894850 0.727149
Si Si6 0.337306 0.629573 0.670541
Si Si7 0.023124 0.889435 0.884190
Si Si8 0.500000 0.703357 0.750000
O O1 0.800200 0.801936 0.328822
O O2 0.943381 0.624976 0.174563
O O3 0.761137 0.650618 0.155287
O O4 0.939051 0.782679 0.988088
O O5 0.098392 0.542046 0.614712
O O6 0.311271 0.561771 0.540285
O O7 0.253968 0.416552 0.365676
O O8 0.735620 0.932280 0.600596
O O9 0.591780 0.789396 0.597575
O O10 0.672636 0.992218 0.402060
O O11 0.341162 0.773465 0.642961
O O12 0.150590 0.849613 0.779564
O O13 0.456307 0.614268 0.656096
O O14 0.000000 0.943341 0.750000
O O15 0.000000 0.000000 0.000000
#
# Coordination Sequence:
#
# PCOD8122358 Si02
#       8
#     4   4   4   2   4   4   4   2
#     4  12  25  41  70 103 150 187 238 285 357 432
#     4  12  26  45  69 105 144 190 243 287 351 435
#     4  11  25  46  73 104 142 181 240 303 365 429
#     4  12  24  42  66 104 144 198 220 292 350 434
#     4  11  24  43  70 103 145 182 231 293 358 437
#     4  11  26  47  72  99 141 186 243 306 353 419
#     4  12  24  37  63 101 141 185 223 274 351 432
#     4  10  26  52  78 104 138 186 244 318 374 416
#
# _framework density 22.673473999999999
#
# number of rings (size 3 to 8) (size 9 to 14) (size 15 to 20)
#    0.000    0.571    2.857    5.571    6.000    2.857 
#    0.000    0.000    0.000    0.000    0.000    0.000 
#    0.000    0.000    0.000    0.000    0.000    0.000 
#
# Total GULP energy -346868.145845 kJ/mol
# GULP energy per Si atom -12388.148066 kJ/mol
# Density = 2.262187 g / cm^3
# Si number density = 22.673474 Si / 1000 Ang^3
#
#
#
# Elastic Constant Matrix: (Units=GPa)
#
#
# Indices 1 2 3 4 5 6 
#
# 1 137.1925 22.6098 42.3981 0.0000 33.0382 0.0000
# 2 22.6098 77.5434 23.9601 0.0000 22.6142 0.0000
# 3 42.3981 23.9601 95.9228 0.0000 30.5484 0.0000
# 4 0.0000 0.0000 0.0000 45.9796 0.0000 -4.4688
# 5 33.0382 22.6142 30.5484 0.0000 51.8627 0.0000
# 6 0.0000 0.0000 0.0000 -4.4688 0.0000 43.7799
#
#
#
# Elastic Compliance Matrix: (Units=1/GPa)
#
#
# Indices 1 2 3 4 5 6 
#
# 1 0.009174 -0.000703 -0.002604 0.000000 -0.004004 0.000000
# 2 -0.000703 0.015153 -0.001862 0.000000 -0.005063 0.000000
# 3 -0.002604 -0.001862 0.013853 0.000000 -0.005689 0.000000
# 4 0.000000 0.000000 0.000000 0.021967 0.000000 0.002242
# 5 -0.004004 -0.005063 -0.005689 0.000000 0.027391 0.000000
# 6 0.000000 0.000000 0.000000 0.002242 0.000000 0.023070
#
#
# Mechanical properties :
#
#
# Convention : Reuss Voigt Hill
#
# Bulk Modulus (GPa) = 35.91743 54.28831 45.10287
# Shear Modulus (GPa) = 38.39496 43.10384 40.74940
#
# Velocity S-wave (km/s) = 4.11954 4.36486 4.24397
# Velocity P-wave (km/s) = 6.20508 7.02838 6.62952
#
# Compressibility (1/GPa) = 0.02784164
#
# Stress axis : x y z
#
# Youngs Moduli (GPa) = 109.00613 65.99491 72.18666
#
# Poissons Ratio (x) = 0.04637 0.18800
# Poissons Ratio (y) = 0.07658 0.13441
# Poissons Ratio (z) = 0.28389 0.12288
#
# Static dielectric constant tensor:
#      x y z
#    x 4.671840 0.000000 0.291840 
#    y 0.000000 3.906130 0.000000 
#    z 0.291840 0.000000 4.081920 
# 
# 
# High freq. dielectric constant tensor:
#      x y z
#    x 1.901050 0.000000 0.021550 
#    y 0.000000 1.898810 0.000000 
#    z 0.021550 0.000000 1.895480 
# 
# From -- ./inp_files/18715.got.cif
#   From: 2010.06.25/outbox.cif.g09.slc.cpg/sg13_10_cif.got.tgz:18715.got - 2010.06.28 04:50:58.
