data_PCOD8122775
_publ_section_title
;
Structure prediction by ZEFSAII (Michael W. Deem and Ramdas Pophale) SiO2 
 PCOD8122775
Probable space group: P 2/C
;
_chemical_formula_sum "Si O2"
_cell_formula_units_Z 28
_cell_length_a 20.611236
_cell_length_b 5.724186
_cell_length_c 17.821298
_cell_angle_alpha 90.000000
_cell_angle_beta 34.511949
_cell_angle_gamma 90.000000
_cell_volume 1191.288326
_symmetry_space_group_name_H-M "P 2/C"
_symmetry_group_IT_number 13
_symmetry_cell_setting 'monoclinic'
loop_
_space_group_symop_operation_xyz
x,y,z
-x,y,1/2-z
-x,-y,-z
x,-y,1/2+z
loop_
_atom_site_type_symbol
_atom_site_label
_atom_site_fract_x
_atom_site_fract_y
_atom_site_fract_z
Si Si1 0.171919 0.279438 0.958359
Si Si2 0.547925 0.613711 0.128188
Si Si3 0.317169 0.994054 0.927707
Si Si4 0.253641 0.698271 0.118937
Si Si5 0.755088 0.959553 0.747001
Si Si6 0.061477 0.394535 0.368529
Si Si7 0.347604 0.350089 0.266255
O O1 0.222207 0.535879 0.893048
O O2 0.232680 0.192369 0.976343
O O3 0.192427 0.099688 0.871960
O O4 0.035380 0.306850 0.097606
O O5 0.500000 0.488328 0.250000
O O6 0.439455 0.565924 0.176208
O O7 0.581311 0.879631 0.119936
O O8 0.655977 0.503956 0.984327
O O9 0.371560 0.836923 0.809792
O O10 0.238096 0.840475 0.057111
O O11 0.132479 0.596570 0.259502
O O12 0.302332 0.866474 0.138110
O O13 0.857279 0.820770 0.689455
O O14 0.655731 0.785855 0.810476
O O15 0.000000 0.500000 0.500000
#
# Coordination Sequence:
#
# PCOD8122775 Si02
#       7
#     4   4   4   4   4   4   4
#     4  11  23  44  76 105 142 194 244 292 369 438
#     4  12  25  46  74 100 146 193 238 302 366 442
#     4  11  25  44  72 107 144 193 244 298 375 434
#     4  12  26  45  70 110 144 187 252 303 367 435
#     4  11  24  44  75 110 140 190 245 300 365 433
#     4  12  24  47  76 102 149 193 241 303 363 441
#     4  11  24  45  76 106 140 193 244 298 367 438
#
# _framework density 23.503964
#
# number of rings (size 3 to 8) (size 9 to 14) (size 15 to 20)
#    0.000    0.571    5.714    1.286    2.000    0.571 
#    0.000   15.714    0.000    0.000    0.000    0.000 
#    0.000    0.000    0.000    0.000    0.000    0.000 
#
# Total GULP energy -347025.905669 kJ/mol
# GULP energy per Si atom -12393.782345 kJ/mol
# Density = 2.345047 g / cm^3
# Si number density = 23.503964 Si / 1000 Ang^3
#
#
#
# Elastic Constant Matrix: (Units=GPa)
#
#
# Indices 1 2 3 4 5 6 
#
# 1 80.6517 39.9646 16.1547 0.0000 -21.0345 0.0000
# 2 39.9646 103.8129 18.5745 0.0000 -10.3135 0.0000
# 3 16.1547 18.5745 97.9095 0.0000 -6.1483 0.0000
# 4 0.0000 0.0000 0.0000 36.4005 0.0000 9.2869
# 5 -21.0345 -10.3135 -6.1483 0.0000 29.2836 0.0000
# 6 0.0000 0.0000 0.0000 9.2869 0.0000 42.5017
#
#
#
# Elastic Compliance Matrix: (Units=1/GPa)
#
#
# Indices 1 2 3 4 5 6 
#
# 1 0.018340 -0.005755 -0.001251 0.000000 0.010884 0.000000
# 2 -0.005755 0.012074 -0.001351 0.000000 -0.000165 0.000000
# 3 -0.001251 -0.001351 0.010731 0.000000 0.000879 0.000000
# 4 0.000000 0.000000 0.000000 0.029094 0.000000 -0.006357
# 5 0.010884 -0.000165 0.000879 0.000000 0.042093 0.000000
# 6 0.000000 0.000000 0.000000 -0.006357 0.000000 0.024918
#
#
# Mechanical properties :
#
#
# Convention : Reuss Voigt Hill
#
# Bulk Modulus (GPa) = 40.93233 47.97353 44.45293
# Shear Modulus (GPa) = 30.84364 35.48251 33.16308
#
# Velocity S-wave (km/s) = 3.62646 3.88962 3.76035
# Velocity P-wave (km/s) = 5.91505 6.37396 6.14879
#
# Compressibility (1/GPa) = 0.02443057
#
# Stress axis : x y z
#
# Youngs Moduli (GPa) = 54.52552 82.82515 93.18433
#
# Poissons Ratio (x) = 0.47668 0.11655
# Poissons Ratio (y) = 0.31381 0.12592
# Poissons Ratio (z) = 0.06820 0.11192
#
# Static dielectric constant tensor:
#      x y z
#    x 4.532770 0.000000 0.006280 
#    y 0.000000 4.451750 0.000000 
#    z 0.006280 0.000000 4.119180 
# 
# 
# High freq. dielectric constant tensor:
#      x y z
#    x 1.932120 0.000000 0.000520 
#    y 0.000000 1.945790 0.000000 
#    z 0.000520 0.000000 1.909500 
# 
# From -- ./inp_files/70246.got.cif
#   From: 2010.06.25/outbox.cif.g09.slc.cpg/sg13_36_cif.got.tgz:70246.got - 2010.06.28 04:50:58.
