data_PCOD8122382
_publ_section_title
;
Structure prediction by ZEFSAII (Michael W. Deem and Ramdas Pophale) SiO2 
 PCOD8122382
Probable space group: P 2/C
;
_chemical_formula_sum "Si O2"
_cell_formula_units_Z 24
_cell_length_a 26.647963
_cell_length_b 4.873310
_cell_length_c 19.878502
_cell_angle_alpha 90.000000
_cell_angle_beta 150.621690
_cell_angle_gamma 90.000000
_cell_volume 1266.415323
_symmetry_space_group_name_H-M "P 2/C"
_symmetry_group_IT_number 13
_symmetry_cell_setting 'monoclinic'
loop_
_space_group_symop_operation_xyz
x,y,z
-x,y,1/2-z
-x,-y,-z
x,-y,1/2+z
loop_
_atom_site_type_symbol
_atom_site_label
_atom_site_fract_x
_atom_site_fract_y
_atom_site_fract_z
Si Si1 0.295110 0.458566 0.246623
Si Si2 0.885043 0.699603 0.328305
Si Si3 0.545738 0.945055 0.375713
Si Si4 0.670875 0.542660 0.059562
Si Si5 0.100876 0.797230 0.564743
Si Si6 0.412813 0.031232 0.842582
O O1 0.322326 0.423087 0.357065
O O2 0.177759 0.348242 0.101331
O O3 0.318413 0.770414 0.253376
O O4 0.364703 0.270475 0.280043
O O5 0.907620 0.391121 0.378879
O O6 0.982661 0.809190 0.398759
O O7 0.863433 0.901510 0.367671
O O8 0.780083 0.670025 0.162592
O O9 0.500000 0.011313 0.250000
O O10 0.632731 0.711352 0.469456
O O11 0.456621 0.854998 0.323352
O O12 0.588137 0.220466 0.458129
O O13 0.500000 0.000000 0.000000
#
# Coordination Sequence:
#
# PCOD8122382 Si02
#       6
#     4   4   4   4   4   4
#     4  11  19  32  55  80 104 135 172 217 268 316
#     4   9  17  29  49  74 108 138 162 208 268 318
#     4  12  25  37  51  75 107 143 182 219 257 314
#     4  11  19  35  54  76 104 140 176 214 265 317
#     4   9  17  29  46  79 110 130 163 212 267 317
#     4  12  21  35  53  77 103 141 177 216 266 318
#
# _framework density 18.951127
#
# number of rings (size 3 to 8) (size 9 to 14) (size 15 to 20)
#    0.000    1.333    3.333    6.000    0.000    0.000 
#    0.000    0.000    0.000    0.000    0.000    7.000 
#    0.000    0.000    0.000    0.000    0.000    0.000 
#
# Total GULP energy -297352.916872 kJ/mol
# GULP energy per Si atom -12389.704870 kJ/mol
# Density = 1.890799 g / cm^3
# Si number density = 18.951127 Si / 1000 Ang^3
#
#
#
# Elastic Constant Matrix: (Units=GPa)
#
#
# Indices 1 2 3 4 5 6 
#
# 1 74.9094 9.4639 48.0888 0.0000 17.0366 0.0000
# 2 9.4639 87.7943 20.5432 0.0000 8.7801 0.0000
# 3 48.0888 20.5432 78.4434 0.0000 24.9014 0.0000
# 4 0.0000 0.0000 0.0000 22.6857 0.0000 10.6717
# 5 17.0366 8.7801 24.9014 0.0000 20.4940 0.0000
# 6 0.0000 0.0000 0.0000 10.6717 0.0000 18.5434
#
#
#
# Elastic Compliance Matrix: (Units=1/GPa)
#
#
# Indices 1 2 3 4 5 6 
#
# 1 0.022205 0.000933 -0.012812 0.000000 -0.003291 0.000000
# 2 0.000933 0.012233 -0.003037 0.000000 -0.002326 0.000000
# 3 -0.012812 -0.003037 0.028657 0.000000 -0.022868 0.000000
# 4 0.000000 0.000000 0.000000 0.060444 0.000000 -0.034785
# 5 -0.003291 -0.002326 -0.022868 0.000000 0.080314 0.000000
# 6 0.000000 0.000000 0.000000 -0.034785 0.000000 0.073946
#
#
# Mechanical properties :
#
#
# Convention : Reuss Voigt Hill
#
# Bulk Modulus (GPa) = 30.06348 44.14877 37.10613
# Shear Modulus (GPa) = 15.68779 23.21471 19.45125
#
# Velocity S-wave (km/s) = 2.88028 3.50377 3.20721
# Velocity P-wave (km/s) = 5.19225 6.30200 5.77385
#
# Compressibility (1/GPa) = 0.03326295
#
# Stress axis : x y z
#
# Youngs Moduli (GPa) = 45.03507 81.74598 34.89520
#
# Poissons Ratio (x) = -0.07631 0.44708
# Poissons Ratio (y) = -0.04204 0.10599
# Poissons Ratio (z) = 0.57700 0.24830
#
# Static dielectric constant tensor:
#      x y z
#    x 3.343290 0.000000 0.717220 
#    y 0.000000 3.660020 0.000000 
#    z 0.717220 0.000000 3.861220 
# 
# 
# High freq. dielectric constant tensor:
#      x y z
#    x 1.684790 0.000000 0.058660 
#    y 0.000000 1.764400 0.000000 
#    z 0.058660 0.000000 1.712070 
# 
# From -- ./inp_files/70960.got.cif
#   From: 2010.06.25/outbox.cif.g09.slc.cpg/sg13_36_cif.got.tgz:70960.got - 2010.06.28 04:50:58.
