data_PCOD8122624
_publ_section_title
;
Structure prediction by ZEFSAII (Michael W. Deem and Ramdas Pophale) SiO2 
 PCOD8122624
Probable space group: P 2/C
;
_chemical_formula_sum "Si O2"
_cell_formula_units_Z 28
_cell_length_a 24.262086
_cell_length_b 9.269409
_cell_length_c 8.531963
_cell_angle_alpha 90.000000
_cell_angle_beta 139.782920
_cell_angle_gamma 90.000000
_cell_volume 1238.939439
_symmetry_space_group_name_H-M "P 2/C"
_symmetry_group_IT_number 13
_symmetry_cell_setting 'monoclinic'
loop_
_space_group_symop_operation_xyz
x,y,z
-x,y,1/2-z
-x,-y,-z
x,-y,1/2+z
loop_
_atom_site_type_symbol
_atom_site_label
_atom_site_fract_x
_atom_site_fract_y
_atom_site_fract_z
Si Si1 0.250219 0.927774 0.773035
Si Si2 0.549602 0.381134 0.508453
Si Si3 0.209887 0.797922 0.349545
Si Si4 0.937838 0.426466 0.986444
Si Si5 0.716757 0.569508 0.199727
Si Si6 0.200315 0.647092 0.813377
Si Si7 0.556803 0.106555 0.725919
O O1 0.242150 0.874648 0.577394
O O2 0.202941 0.817235 0.789161
O O3 0.199426 0.077197 0.694740
O O4 0.350588 0.957453 0.027010
O O5 0.500000 0.500000 0.500000
O O6 0.633588 0.451724 0.621350
O O7 0.577374 0.248903 0.673988
O O8 0.500000 0.320993 0.250000
O O9 0.123788 0.706215 0.200453
O O10 0.281953 0.688802 0.436907
O O11 0.882209 0.561254 0.930876
O O12 0.000000 0.358030 0.250000
O O13 0.000000 0.500000 0.000000
O O14 0.792627 0.610899 0.486173
O O15 0.723817 0.414679 0.131776
O O16 0.500000 0.150524 0.750000
O O17 0.500000 0.000000 0.500000
#
# Coordination Sequence:
#
# PCOD8122624 Si02
#       7
#     4   4   4   4   4   4   4
#     4  12  25  46  69  99 140 183 242 288 339 430
#     4  12  27  43  65  97 138 179 237 304 359 404
#     4  11  26  44  73 102 137 189 231 282 351 422
#     4  11  23  46  74 108 142 174 223 285 352 428
#     4  11  23  43  65  98 135 182 239 287 343 421
#     4  11  22  42  72 101 135 185 229 281 354 417
#     4  12  28  46  67  97 137 190 239 298 363 404
#
# _framework density 22.599975000000001
#
# number of rings (size 3 to 8) (size 9 to 14) (size 15 to 20)
#    0.000    0.571    1.429    7.714    8.000    0.000 
#    0.000    3.571    0.000    0.000    0.000    0.000 
#    0.000    0.000    0.000    0.000    0.000    0.000 
#
# Total GULP energy -347025.336557 kJ/mol
# GULP energy per Si atom -12393.762020 kJ/mol
# Density = 2.254854 g / cm^3
# Si number density = 22.599975 Si / 1000 Ang^3
#
#
#
# Elastic Constant Matrix: (Units=GPa)
#
#
# Indices 1 2 3 4 5 6 
#
# 1 134.5857 56.9107 40.0906 0.0000 3.5754 0.0000
# 2 56.9107 109.6842 23.1012 0.0000 16.7874 0.0000
# 3 40.0906 23.1012 108.0246 0.0000 2.6415 0.0000
# 4 0.0000 0.0000 0.0000 33.3881 0.0000 -2.0990
# 5 3.5754 16.7874 2.6415 0.0000 39.5616 0.0000
# 6 0.0000 0.0000 0.0000 -2.0990 0.0000 37.6416
#
#
#
# Elastic Compliance Matrix: (Units=1/GPa)
#
#
# Indices 1 2 3 4 5 6 
#
# 1 0.010336 -0.004981 -0.002804 0.000000 0.001367 0.000000
# 2 -0.004981 0.012596 -0.000727 0.000000 -0.004846 0.000000
# 3 -0.002804 -0.000727 0.010456 0.000000 -0.000136 0.000000
# 4 0.000000 0.000000 0.000000 0.030056 0.000000 0.001676
# 5 0.001367 -0.004846 -0.000136 0.000000 0.027219 0.000000
# 6 0.000000 0.000000 0.000000 0.001676 0.000000 0.026660
#
#
# Mechanical properties :
#
#
# Convention : Reuss Voigt Hill
#
# Bulk Modulus (GPa) = 61.10672 65.83326 63.46999
# Shear Modulus (GPa) = 35.76482 37.59773 36.68128
#
# Velocity S-wave (km/s) = 3.98240 4.08317 4.03310
# Velocity P-wave (km/s) = 6.94573 7.17097 7.05925
#
# Compressibility (1/GPa) = 0.01636481
#
# Stress axis : x y z
#
# Youngs Moduli (GPa) = 96.75352 79.38726 95.63455
#
# Poissons Ratio (x) = 0.39546 0.26815
# Poissons Ratio (y) = 0.48196 0.06948
# Poissons Ratio (z) = 0.27129 0.05768
#
# Static dielectric constant tensor:
#      x y z
#    x 4.332550 0.000000 -0.346800 
#    y 0.000000 3.963540 0.000000 
#    z -0.346800 0.000000 3.650440 
# 
# 
# High freq. dielectric constant tensor:
#      x y z
#    x 1.906350 0.000000 -0.016870 
#    y 0.000000 1.891840 0.000000 
#    z -0.016870 0.000000 1.888040 
# 
# From -- ./inp_files/24602.got.cif
#   From: 2010.06.25/outbox.cif.g09.slc.cpg/sg13_13_cif.got.tgz:24602.got - 2010.06.28 04:50:58.
