data_PCOD8122534
_publ_section_title
;
Structure prediction by ZEFSAII (Michael W. Deem and Ramdas Pophale) SiO2 
 PCOD8122534
Probable space group: P 2/C
;
_chemical_formula_sum "Si O2"
_cell_formula_units_Z 26
_cell_length_a 16.324425
_cell_length_b 9.591772
_cell_length_c 21.923668
_cell_angle_alpha 90.000000
_cell_angle_beta 158.108361
_cell_angle_gamma 90.000000
_cell_volume 1279.931946
_symmetry_space_group_name_H-M "P 2/C"
_symmetry_group_IT_number 13
_symmetry_cell_setting 'monoclinic'
loop_
_space_group_symop_operation_xyz
x,y,z
-x,y,1/2-z
-x,-y,-z
x,-y,1/2+z
loop_
_atom_site_type_symbol
_atom_site_label
_atom_site_fract_x
_atom_site_fract_y
_atom_site_fract_z
Si Si1 0.555713 0.903309 0.982844
Si Si2 0.556986 0.410729 0.481784
Si Si3 0.780777 0.581524 0.857815
Si Si4 0.868375 0.870540 0.880151
Si Si5 0.000000 0.027664 0.250000
Si Si6 0.500000 0.602353 0.250000
Si Si7 0.000000 0.539409 0.750000
Si Si8 0.105610 0.753325 0.923104
O O1 0.554872 0.745697 0.005132
O O2 0.370733 0.929065 0.803440
O O3 0.500000 0.000000 0.000000
O O4 0.799349 0.930346 0.128611
O O5 0.500000 0.500000 0.500000
O O6 0.362936 0.435245 0.301099
O O7 0.783664 0.444637 0.603480
O O8 0.833037 0.746662 0.905681
O O9 0.664588 0.505564 0.832943
O O10 0.000000 0.500000 0.000000
O O11 0.988321 0.795883 0.905375
O O12 0.000000 0.000000 0.000000
O O13 0.904744 0.114119 0.127685
O O14 0.642325 0.705321 0.391415
O O15 0.012196 0.629312 0.695887
#
# Coordination Sequence:
#
# PCOD8122534 Si02
#       8
#     4   4   4   4   2   2   2   4
#     4  11  24  45  65  97 139 174 226 278 338 402
#     4  11  25  41  70  98 129 176 225 279 336 400
#     4  11  24  44  67  96 137 177 224 281 336 404
#     4  11  25  47  66  99 137 182 228 278 345 413
#     4  11  25  44  68 100 138 180 224 282 342 408
#     4  12  24  44  70 102 138 178 226 284 344 402
#     4  11  21  44  68 100 132 170 230 286 336 396
#     4  11  24  43  71  99 135 178 226 280 345 408
#
# _framework density 20.313580000000002
#
# number of rings (size 3 to 8) (size 9 to 14) (size 15 to 20)
#    0.000    0.923    4.615    2.308    4.308    1.231 
#    5.538    0.000    0.000    0.000    0.000    0.000 
#    0.000    0.000    0.000    0.000    0.000    0.000 
#
# Total GULP energy -322284.297323 kJ/mol
# GULP energy per Si atom -12395.549897 kJ/mol
# Density = 2.026734 g / cm^3
# Si number density = 20.313580 Si / 1000 Ang^3
#
#
#
# Elastic Constant Matrix: (Units=GPa)
#
#
# Indices 1 2 3 4 5 6 
#
# 1 93.9028 52.2878 50.4168 0.0000 18.0893 0.0000
# 2 52.2878 138.9868 94.3657 0.0000 -1.7784 0.0000
# 3 50.4168 94.3657 157.3375 0.0000 17.2715 0.0000
# 4 0.0000 0.0000 0.0000 43.3514 0.0000 2.7877
# 5 18.0893 -1.7784 17.2715 0.0000 35.7504 0.0000
# 6 0.0000 0.0000 0.0000 2.7877 0.0000 32.8508
#
#
#
# Elastic Compliance Matrix: (Units=1/GPa)
#
#
# Indices 1 2 3 4 5 6 
#
# 1 0.015611 -0.005311 -0.000972 0.000000 -0.007693 0.000000
# 2 -0.005311 0.014621 -0.007859 0.000000 0.007212 0.000000
# 3 -0.000972 -0.007859 0.012007 0.000000 -0.005700 0.000000
# 4 0.000000 0.000000 0.000000 0.023194 0.000000 -0.001968
# 5 -0.007693 0.007212 -0.005700 0.000000 0.034977 0.000000
# 6 0.000000 0.000000 0.000000 -0.001968 0.000000 0.030608
#
#
# Mechanical properties :
#
#
# Convention : Reuss Voigt Hill
#
# Bulk Modulus (GPa) = 71.66637 87.15197 79.40917
# Shear Modulus (GPa) = 30.49650 35.26763 32.88206
#
# Velocity S-wave (km/s) = 3.87885 4.17125 4.02770
# Velocity P-wave (km/s) = 7.44427 8.13606 7.79784
#
# Compressibility (1/GPa) = 0.01395355
#
# Stress axis : x y z
#
# Youngs Moduli (GPa) = 64.05825 68.39349 83.28752
#
# Poissons Ratio (x) = 0.36325 0.08098
# Poissons Ratio (y) = 0.34023 0.65456
# Poissons Ratio (z) = 0.06228 0.53751
#
# Static dielectric constant tensor:
#      x y z
#    x 3.730720 0.000000 0.161830 
#    y 0.000000 3.989820 0.000000 
#    z 0.161830 0.000000 4.106920 
# 
# 
# High freq. dielectric constant tensor:
#      x y z
#    x 1.786280 0.000000 0.008630 
#    y 0.000000 1.805440 0.000000 
#    z 0.008630 0.000000 1.814790 
# 
# From -- ./inp_files/75952.got.cif
#   From: 2010.06.25/outbox.cif.g09.slc.cpg/sg13_38_cif.got.tgz:75952.got - 2010.06.28 04:50:58.
