data_PCOD8122027
_publ_section_title
;
Structure prediction by ZEFSAII (Michael W. Deem and Ramdas Pophale) SiO2 
 PCOD8122027
Probable space group: P 2/C
;
_chemical_formula_sum "Si O2"
_cell_formula_units_Z 26
_cell_length_a 8.251341
_cell_length_b 11.593249
_cell_length_c 13.908312
_cell_angle_alpha 90.000000
_cell_angle_beta 59.160985
_cell_angle_gamma 90.000000
_cell_volume 1142.353681
_symmetry_space_group_name_H-M "P 2/C"
_symmetry_group_IT_number 13
_symmetry_cell_setting 'monoclinic'
loop_
_space_group_symop_operation_xyz
x,y,z
-x,y,1/2-z
-x,-y,-z
x,-y,1/2+z
loop_
_atom_site_type_symbol
_atom_site_label
_atom_site_fract_x
_atom_site_fract_y
_atom_site_fract_z
Si Si1 0.821180 0.981965 0.619430
Si Si2 0.703910 0.765231 0.149949
Si Si3 0.288519 0.498228 0.151701
Si Si4 0.000000 0.995034 0.750000
Si Si5 0.450727 0.309891 0.986556
Si Si6 0.963884 0.559235 0.111820
Si Si7 0.662510 0.090239 0.978928
O O1 0.734789 0.105155 0.676498
O O2 0.878947 0.922553 0.705587
O O3 0.681385 0.912984 0.590770
O O4 0.000000 0.000000 0.500000
O O5 0.500000 0.722571 0.250000
O O6 0.698571 0.758178 0.035259
O O7 0.879946 0.688394 0.131487
O O8 0.467324 0.583485 0.101607
O O9 0.191001 0.483649 0.284325
O O10 0.156209 0.560389 0.112801
O O11 0.342006 0.367074 0.108844
O O12 0.854224 0.068847 0.859945
O O13 0.607605 0.221221 0.974185
O O14 0.000000 0.500000 0.000000
O O15 0.500000 0.000000 0.000000
#
# Coordination Sequence:
#
# PCOD8122027 Si02
#       7
#     4   4   4   2   4   4   4
#     4  10  24  42  66  99 136 174 233 289 353 421
#     4  12  22  39  70  98 130 178 233 291 348 417
#     4  10  24  41  66  97 135 179 227 281 347 417
#     4  10  24  42  66  98 142 178 232 290 346 430
#     4  11  22  42  65  97 139 175 228 289 345 414
#     4  11  23  40  66  97 133 177 230 281 346 414
#     4  11  23  42  70 101 137 180 235 292 355 424
#
# _framework density 22.760026
#
# number of rings (size 3 to 8) (size 9 to 14) (size 15 to 20)
#    0.000    1.231    4.615    0.923    4.308    0.000 
#    0.000    4.615    3.385    0.000    0.000    0.000 
#    0.000    0.000    0.000    0.000    0.000    0.000 
#
# Total GULP energy -322129.841564 kJ/mol
# GULP energy per Si atom -12389.609291 kJ/mol
# Density = 2.270822 g / cm^3
# Si number density = 22.760026 Si / 1000 Ang^3
#
#
#
# Elastic Constant Matrix: (Units=GPa)
#
#
# Indices 1 2 3 4 5 6 
#
# 1 100.7066 17.4145 37.7864 0.0000 22.7559 0.0000
# 2 17.4145 67.8640 28.0554 0.0000 -2.5612 0.0000
# 3 37.7864 28.0554 129.7486 0.0000 20.2054 0.0000
# 4 0.0000 0.0000 0.0000 28.6233 0.0000 -6.5045
# 5 22.7559 -2.5612 20.2054 0.0000 51.5044 0.0000
# 6 0.0000 0.0000 0.0000 -6.5045 0.0000 31.5952
#
#
#
# Elastic Compliance Matrix: (Units=1/GPa)
#
#
# Indices 1 2 3 4 5 6 
#
# 1 0.012258 -0.002351 -0.002343 0.000000 -0.004614 0.000000
# 2 -0.002351 0.016897 -0.003474 0.000000 0.003242 0.000000
# 3 -0.002343 -0.003474 0.009592 0.000000 -0.002901 0.000000
# 4 0.000000 0.000000 0.000000 0.036651 0.000000 0.007545
# 5 -0.004614 0.003242 -0.002901 0.000000 0.022753 0.000000
# 6 0.000000 0.000000 0.000000 0.007545 0.000000 0.033204
#
#
# Mechanical properties :
#
#
# Convention : Reuss Voigt Hill
#
# Bulk Modulus (GPa) = 44.61928 51.64795 48.13361
# Shear Modulus (GPa) = 32.22435 36.68210 34.45322
#
# Velocity S-wave (km/s) = 3.76684 4.01894 3.89493
# Velocity P-wave (km/s) = 6.21011 6.65413 6.43595
#
# Compressibility (1/GPa) = 0.02241184
#
# Stress axis : x y z
#
# Youngs Moduli (GPa) = 81.57922 59.18183 104.24895
#
# Poissons Ratio (x) = 0.13914 0.24426
# Poissons Ratio (y) = 0.19179 0.36214
# Poissons Ratio (z) = 0.19114 0.20559
#
# Static dielectric constant tensor:
#      x y z
#    x 4.749880 0.000000 0.339210 
#    y 0.000000 4.079050 0.000000 
#    z 0.339210 0.000000 4.362900 
# 
# 
# High freq. dielectric constant tensor:
#      x y z
#    x 1.916900 0.000000 0.005680 
#    y 0.000000 1.860480 0.000000 
#    z 0.005680 0.000000 1.902880 
# 
# From -- ./inp_files/46799.got.cif
#   From: 2010.06.25/outbox.cif.g09.slc.cpg/sg13_24_cif.got.tgz:46799.got - 2010.06.28 04:50:58.
