data_PCOD8122161
_publ_section_title
;
Structure prediction by ZEFSAII (Michael W. Deem and Ramdas Pophale) SiO2 
 PCOD8122161
Probable space group: P 2/C
;
_chemical_formula_sum "Si O2"
_cell_formula_units_Z 24
_cell_length_a 11.120382
_cell_length_b 10.758472
_cell_length_c 8.545630
_cell_angle_alpha 90.000000
_cell_angle_beta 78.778516
_cell_angle_gamma 90.000000
_cell_volume 1002.839111
_symmetry_space_group_name_H-M "P 2/C"
_symmetry_group_IT_number 13
_symmetry_cell_setting 'monoclinic'
loop_
_space_group_symop_operation_xyz
x,y,z
-x,y,1/2-z
-x,-y,-z
x,-y,1/2+z
loop_
_atom_site_type_symbol
_atom_site_label
_atom_site_fract_x
_atom_site_fract_y
_atom_site_fract_z
Si Si1 0.852644 0.321060 0.590967
Si Si2 0.639525 0.857141 0.205840
Si Si3 0.775394 0.499641 0.358453
Si Si4 0.036946 0.130758 0.421506
Si Si5 0.309414 0.115236 0.454392
Si Si6 0.376499 0.625158 0.854272
O O1 0.725015 0.244418 0.598321
O O2 0.862688 0.426288 0.455042
O O3 0.851853 0.387046 0.761065
O O4 0.969927 0.233654 0.544393
O O5 0.500000 0.805834 0.250000
O O6 0.702064 0.886452 0.355829
O O7 0.634152 0.983963 0.108666
O O8 0.656299 0.557570 0.474653
O O9 0.733466 0.402431 0.237579
O O10 0.180954 0.145383 0.404990
O O11 0.000000 0.143070 0.250000
O O12 0.000000 0.000000 0.500000
O O13 0.396546 0.227930 0.378490
O O14 0.500000 0.569109 0.750000
#
# Coordination Sequence:
#
# PCOD8122161 Si02
#       6
#     4   4   4   4   4   4
#     4  11  25  48  75 108 148 196 254 301 376 436
#     4  12  27  45  74 110 151 191 248 312 374 443
#     4  10  24  45  69 104 145 197 244 303 363 439
#     4  12  26  47  78 110 149 196 249 310 369 447
#     4  12  26  46  70 112 143 194 246 306 383 430
#     4  11  23  41  68  99 143 190 247 298 368 438
#
# _framework density 23.932057
#
# number of rings (size 3 to 8) (size 9 to 14) (size 15 to 20)
#    0.000    0.667    3.333    3.500    4.667    2.667 
#    0.000    9.167    0.000    0.000    0.000    0.000 
#    0.000    0.000    0.000    0.000    0.000    0.000 
#
# Total GULP energy -297707.846164 kJ/mol
# GULP energy per Si atom -12404.493590 kJ/mol
# Density = 2.387759 g / cm^3
# Si number density = 23.932057 Si / 1000 Ang^3
#
#
#
# Elastic Constant Matrix: (Units=GPa)
#
#
# Indices 1 2 3 4 5 6 
#
# 1 66.5750 -4.6866 6.5203 0.0000 -1.4440 0.0000
# 2 -4.6866 131.7301 39.4267 0.0000 -8.3048 0.0000
# 3 6.5203 39.4267 121.2778 0.0000 5.2239 0.0000
# 4 0.0000 0.0000 0.0000 48.8705 0.0000 -1.1456
# 5 -1.4440 -8.3048 5.2239 0.0000 38.3956 0.0000
# 6 0.0000 0.0000 0.0000 -1.1456 0.0000 22.3290
#
#
#
# Elastic Compliance Matrix: (Units=1/GPa)
#
#
# Indices 1 2 3 4 5 6 
#
# 1 0.015222 0.000950 -0.001168 0.000000 0.000937 0.000000
# 2 0.000950 0.008658 -0.002965 0.000000 0.002312 0.000000
# 3 -0.001168 -0.002965 0.009357 0.000000 -0.001958 0.000000
# 4 0.000000 0.000000 0.000000 0.020487 0.000000 0.001051
# 5 0.000937 0.002312 -0.001958 0.000000 0.026846 0.000000
# 6 0.000000 0.000000 0.000000 0.001051 0.000000 0.044839
#
#
# Mechanical properties :
#
#
# Convention : Reuss Voigt Hill
#
# Bulk Modulus (GPa) = 37.21434 44.67818 40.94626
# Shear Modulus (GPa) = 35.52842 40.47385 38.00113
#
# Velocity S-wave (km/s) = 3.85717 4.11688 3.98914
# Velocity P-wave (km/s) = 5.95154 6.42709 6.19388
#
# Compressibility (1/GPa) = 0.02687136
#
# Stress axis : x y z
#
# Youngs Moduli (GPa) = 65.69344 115.49480 106.87515
#
# Poissons Ratio (x) = -0.10973 0.12479
# Poissons Ratio (y) = -0.06242 0.31693
# Poissons Ratio (z) = 0.07671 0.34249
#
# Static dielectric constant tensor:
#      x y z
#    x 3.741850 0.000000 -0.098180 
#    y 0.000000 4.671730 0.000000 
#    z -0.098180 0.000000 4.488900 
# 
# 
# High freq. dielectric constant tensor:
#      x y z
#    x 1.931560 0.000000 -0.002190 
#    y 0.000000 1.964090 0.000000 
#    z -0.002190 0.000000 1.963880 
# 
# From -- ./inp_files/15791.got.cif
#   From: 2010.06.25/outbox.cif.g09.slc.cpg/sg13_8_cif.got.tgz:15791.got - 2010.06.28 04:50:58.
