data_PCOD8122747
_publ_section_title
;
Structure prediction by ZEFSAII (Michael W. Deem and Ramdas Pophale) SiO2 
 PCOD8122747
Probable space group: P 2/C
;
_chemical_formula_sum "Si O2"
_cell_formula_units_Z 16
_cell_length_a 9.635226
_cell_length_b 8.488469
_cell_length_c 9.194440
_cell_angle_alpha 90.000000
_cell_angle_beta 119.156157
_cell_angle_gamma 90.000000
_cell_volume 656.715998
_symmetry_space_group_name_H-M "P 2/C"
_symmetry_group_IT_number 13
_symmetry_cell_setting 'monoclinic'
loop_
_space_group_symop_operation_xyz
x,y,z
-x,y,1/2-z
-x,-y,-z
x,-y,1/2+z
loop_
_atom_site_type_symbol
_atom_site_label
_atom_site_fract_x
_atom_site_fract_y
_atom_site_fract_z
Si Si1 0.358548 0.611625 0.374103
Si Si2 0.164758 0.868712 0.897143
Si Si3 0.835167 0.470843 0.995345
Si Si4 0.648813 0.046743 0.736675
O O1 0.500000 0.500000 0.500000
O O2 0.215050 0.611207 0.420155
O O3 0.303731 0.543864 0.192154
O O4 0.407238 0.792508 0.372416
O O5 0.000000 0.939531 0.750000
O O6 0.306045 0.919283 0.861343
O O7 0.154991 0.680681 0.895273
O O8 0.200613 0.928619 0.078932
O O9 0.000000 0.500000 0.000000
O O10 0.500000 0.978479 0.750000
#
# Coordination Sequence:
#
# PCOD8122747 Si02
#       4
#     4   4   4   4
#     4  11  23  43  68  96 131 174 225 280 337 396
#     4  11  24  44  69 100 138 180 223 276 338 402
#     4  11  24  43  68  99 134 175 224 277 336 401
#     4  11  25  44  66  97 136 179 228 279 335 401
#
# _framework density 24.363654
#
# number of rings (size 3 to 8) (size 9 to 14) (size 15 to 20)
#    0.000    1.000    0.000    7.500    0.000    8.000 
#    0.000    3.750    0.000    0.000    0.000    0.000 
#    0.000    0.000    0.000    0.000    0.000    0.000 
#
# Total GULP energy -198431.751777 kJ/mol
# GULP energy per Si atom -12401.984486 kJ/mol
# Density = 2.430820 g / cm^3
# Si number density = 24.363654 Si / 1000 Ang^3
#
#
#
# Elastic Constant Matrix: (Units=GPa)
#
#
# Indices 1 2 3 4 5 6 
#
# 1 143.6326 69.9929 37.2485 0.0000 -26.4710 0.0000
# 2 69.9929 95.2271 48.9954 0.0000 -13.9110 0.0000
# 3 37.2485 48.9954 132.2377 0.0000 7.8529 0.0000
# 4 0.0000 0.0000 0.0000 35.0916 0.0000 -11.8877
# 5 -26.4710 -13.9110 7.8529 0.0000 53.7202 0.0000
# 6 0.0000 0.0000 0.0000 -11.8877 0.0000 41.8014
#
#
#
# Elastic Compliance Matrix: (Units=1/GPa)
#
#
# Indices 1 2 3 4 5 6 
#
# 1 0.011529 -0.007572 -0.000669 0.000000 0.003818 0.000000
# 2 -0.007572 0.018909 -0.004985 0.000000 0.001894 0.000000
# 3 -0.000669 -0.004985 0.009779 0.000000 -0.003050 0.000000
# 4 0.000000 0.000000 0.000000 0.031535 0.000000 0.008968
# 5 0.003818 0.001894 -0.003050 0.000000 0.021433 0.000000
# 6 0.000000 0.000000 0.000000 0.008968 0.000000 0.026473
#
#
# Mechanical properties :
#
#
# Convention : Reuss Voigt Hill
#
# Bulk Modulus (GPa) = 72.65356 75.95233 74.30294
# Shear Modulus (GPa) = 33.17897 40.44670 36.81284
#
# Velocity S-wave (km/s) = 3.69429 4.07888 3.89134
# Velocity P-wave (km/s) = 6.93414 7.30925 7.12416
#
# Compressibility (1/GPa) = 0.01376395
#
# Stress axis : x y z
#
# Youngs Moduli (GPa) = 86.73540 52.88577 102.26288
#
# Poissons Ratio (x) = 0.40047 0.06838
# Poissons Ratio (y) = 0.65680 0.50982
# Poissons Ratio (z) = 0.05799 0.26365
#
# Static dielectric constant tensor:
#      x y z
#    x 4.512610 0.000000 -0.023700 
#    y 0.000000 4.178440 0.000000 
#    z -0.023700 0.000000 4.817300 
# 
# 
# High freq. dielectric constant tensor:
#      x y z
#    x 1.975280 0.000000 -0.000970 
#    y 0.000000 1.940400 0.000000 
#    z -0.000970 0.000000 1.999230 
# 
# From -- ./inp_files/15043.got.cif
#   From: 2010.06.25/outbox.cif.g09.slc.cpg/sg13_8_cif.got.tgz:15043.got - 2010.06.28 04:50:58.
