data_PCOD8122506
_publ_section_title
;
Structure prediction by ZEFSAII (Michael W. Deem and Ramdas Pophale) SiO2 
 PCOD8122506
Probable space group: P 2/C
;
_chemical_formula_sum "Si O2"
_cell_formula_units_Z 28
_cell_length_a 27.541837
_cell_length_b 8.262207
_cell_length_c 10.024407
_cell_angle_alpha 90.000000
_cell_angle_beta 35.350699
_cell_angle_gamma 90.000000
_cell_volume 1319.808011
_symmetry_space_group_name_H-M "P 2/C"
_symmetry_group_IT_number 13
_symmetry_cell_setting 'monoclinic'
loop_
_space_group_symop_operation_xyz
x,y,z
-x,y,1/2-z
-x,-y,-z
x,-y,1/2+z
loop_
_atom_site_type_symbol
_atom_site_label
_atom_site_fract_x
_atom_site_fract_y
_atom_site_fract_z
Si Si1 0.821413 0.690768 0.399243
Si Si2 0.252495 0.179977 0.701564
Si Si3 0.006051 0.842665 0.395210
Si Si4 0.457891 0.190957 0.712937
Si Si5 0.270165 0.805709 0.651908
Si Si6 0.162644 0.681253 0.656610
Si Si7 0.556678 0.193691 0.241080
O O1 0.791111 0.800236 0.344097
O O2 0.906921 0.755525 0.270621
O O3 0.754141 0.695464 0.668534
O O4 0.828748 0.507864 0.333625
O O5 0.347051 0.251983 0.488994
O O6 0.259623 0.991321 0.721669
O O7 0.194614 0.270991 0.938259
O O8 0.000000 0.883472 0.250000
O O9 0.934468 0.721838 0.605584
O O10 0.000000 0.000000 0.500000
O O11 0.500000 0.263563 0.750000
O O12 0.516990 0.261703 0.465348
O O13 0.452405 0.998345 0.733048
O O14 0.363314 0.251077 0.904376
O O15 0.214626 0.781918 0.646681
O O16 0.500000 0.265894 0.250000
#
# Coordination Sequence:
#
# PCOD8122506 Si02
#       7
#     4   4   4   4   4   4   4
#     4  12  26  44  66  95 135 172 213 261 326 392
#     4  11  23  39  69  96 128 172 222 271 320 379
#     4  12  27  48  74 102 130 164 216 270 318 381
#     4   9  17  30  57  89 125 160 210 274 324 365
#     4  11  21  41  65  96 128 170 224 272 317 382
#     4  12  26  44  66  95 133 174 210 262 327 391
#     4   9  17  32  55  93 125 160 212 272 323 367
#
# _framework density 21.215205999999998
#
# number of rings (size 3 to 8) (size 9 to 14) (size 15 to 20)
#    0.000    1.143    1.429    5.571    2.000    4.571 
#    0.000    0.000    0.000   17.143    0.000    0.000 
#    0.000    0.000    0.000    0.000    0.000    0.000 
#
# Total GULP energy -347255.344727 kJ/mol
# GULP energy per Si atom -12401.976597 kJ/mol
# Density = 2.116692 g / cm^3
# Si number density = 21.215206 Si / 1000 Ang^3
#
#
#
# Elastic Constant Matrix: (Units=GPa)
#
#
# Indices 1 2 3 4 5 6 
#
# 1 130.4895 4.2646 53.7222 0.0000 9.7190 0.0000
# 2 4.2646 64.9180 20.7546 0.0000 -5.6009 0.0000
# 3 53.7222 20.7546 149.8921 0.0000 9.8433 0.0000
# 4 0.0000 0.0000 0.0000 16.1983 0.0000 10.7653
# 5 9.7190 -5.6009 9.8433 0.0000 40.2105 0.0000
# 6 0.0000 0.0000 0.0000 10.7653 0.0000 8.6758
#
#
#
# Elastic Compliance Matrix: (Units=1/GPa)
#
#
# Indices 1 2 3 4 5 6 
#
# 1 0.009075 0.000311 -0.003206 0.000000 -0.001365 0.000000
# 2 0.000311 0.016453 -0.002577 0.000000 0.002847 0.000000
# 3 -0.003206 -0.002577 0.008283 0.000000 -0.001612 0.000000
# 4 0.000000 0.000000 0.000000 0.352066 0.000000 -0.436855
# 5 -0.001365 0.002847 -0.001612 0.000000 0.025990 0.000000
# 6 0.000000 0.000000 0.000000 -0.436855 0.000000 0.657327
#
#
# Mechanical properties :
#
#
# Convention : Reuss Voigt Hill
#
# Bulk Modulus (GPa) = 43.72923 55.86471 49.79697
# Shear Modulus (GPa) = 4.59660 30.78746 17.69203
#
# Velocity S-wave (km/s) = 1.47355 3.81359 2.89092
# Velocity P-wave (km/s) = 4.85305 6.76616 5.88783
#
# Compressibility (1/GPa) = 0.02286800
#
# Stress axis : x y z
#
# Youngs Moduli (GPa) = 110.19490 60.77905 120.72817
#
# Poissons Ratio (x) = -0.01890 0.38704
# Poissons Ratio (y) = -0.03427 0.31107
# Poissons Ratio (z) = 0.35327 0.15660
#
# Static dielectric constant tensor:
#      x y z
#    x 4.147540 0.000000 -0.112300 
#    y 0.000000 3.546800 0.000000 
#    z -0.112300 0.000000 4.266190 
# 
# 
# High freq. dielectric constant tensor:
#      x y z
#    x 1.848170 0.000000 -0.001590 
#    y 0.000000 1.803240 0.000000 
#    z -0.001590 0.000000 1.852730 
# 
# From -- ./inp_files/24545.got.cif
#   From: 2010.06.25/outbox.cif.g09.slc.cpg/sg13_13_cif.got.tgz:24545.got - 2010.06.28 04:50:58.
