data_PCOD8122974
_publ_section_title
;
Structure prediction by ZEFSAII (Michael W. Deem and Ramdas Pophale) SiO2 
 PCOD8122974
Probable space group: P 2/C
;
_chemical_formula_sum "Si O2"
_cell_formula_units_Z 12
_cell_length_a 8.185987
_cell_length_b 5.043507
_cell_length_c 13.650785
_cell_angle_alpha 90.000000
_cell_angle_beta 51.805472
_cell_angle_gamma 90.000000
_cell_volume 442.932358
_symmetry_space_group_name_H-M "P 2/C"
_symmetry_group_IT_number 13
_symmetry_cell_setting 'monoclinic'
loop_
_space_group_symop_operation_xyz
x,y,z
-x,y,1/2-z
-x,-y,-z
x,-y,1/2+z
loop_
_atom_site_type_symbol
_atom_site_label
_atom_site_fract_x
_atom_site_fract_y
_atom_site_fract_z
Si Si1 0.309148 0.922242 0.660815
Si Si2 0.453371 0.449967 0.875633
Si Si3 0.934226 0.841266 0.930140
O O1 0.470622 0.681616 0.578164
O O2 0.210081 0.006463 0.593156
O O3 0.144654 0.776886 0.793960
O O4 0.420802 0.173947 0.665556
O O5 0.500000 0.563508 0.750000
O O6 0.204146 0.411900 0.984566
O O7 0.000000 0.000000 0.000000
#
# Coordination Sequence:
#
# PCOD8122974 Si02
#       3
#     4   4   4
#     4  11  27  48  71 110 144 189 242 300 358 431
#     4  12  25  47  74 104 150 190 239 296 365 427
#     4  11  25  48  76 106 145 192 242 298 361 431
#
# _framework density 27.092171
#
# number of rings (size 3 to 8) (size 9 to 14) (size 15 to 20)
#    0.000    0.667    3.333    3.000    0.000    9.333 
#    0.000    0.000    0.000    0.000    0.000    0.000 
#    0.000    0.000    0.000    0.000    0.000    0.000 
#
# Total GULP energy -148734.320358 kJ/mol
# GULP energy per Si atom -12394.526696 kJ/mol
# Density = 2.703051 g / cm^3
# Si number density = 27.092171 Si / 1000 Ang^3
#
#
#
# Elastic Constant Matrix: (Units=GPa)
#
#
# Indices 1 2 3 4 5 6 
#
# 1 170.3488 67.0298 49.1001 0.0000 0.9652 0.0000
# 2 67.0298 111.9747 -1.5735 0.0000 -13.1272 0.0000
# 3 49.1001 -1.5735 147.8647 0.0000 -12.4296 0.0000
# 4 0.0000 0.0000 0.0000 26.0682 0.0000 -14.3495
# 5 0.9652 -13.1272 -12.4296 0.0000 45.9092 0.0000
# 6 0.0000 0.0000 0.0000 -14.3495 0.0000 20.9785
#
#
#
# Elastic Compliance Matrix: (Units=1/GPa)
#
#
# Indices 1 2 3 4 5 6 
#
# 1 0.009147 -0.005847 -0.003332 0.000000 -0.002766 0.000000
# 2 -0.005847 0.012993 0.002458 0.000000 0.004504 0.000000
# 3 -0.003332 0.002458 0.008146 0.000000 0.002978 0.000000
# 4 0.000000 0.000000 0.000000 0.061527 0.000000 0.042085
# 5 -0.002766 0.004504 0.002978 0.000000 0.023934 0.000000
# 6 0.000000 0.000000 0.000000 0.042085 0.000000 0.076455
#
#
# Mechanical properties :
#
#
# Convention : Reuss Voigt Hill
#
# Bulk Modulus (GPa) = 59.36475 73.25566 66.31020
# Shear Modulus (GPa) = 23.66769 39.63329 31.65049
#
# Velocity S-wave (km/s) = 2.95888 3.82894 3.42168
# Velocity P-wave (km/s) = 5.79939 6.82978 6.33557
#
# Compressibility (1/GPa) = 0.01684501
#
# Stress axis : x y z
#
# Youngs Moduli (GPa) = 109.32579 76.96446 122.76065
#
# Poissons Ratio (x) = 0.44998 0.40905
# Poissons Ratio (y) = 0.63919 -0.30178
# Poissons Ratio (z) = 0.36428 -0.18920
#
# Static dielectric constant tensor:
#      x y z
#    x 5.358790 0.000000 -0.116710 
#    y 0.000000 4.406680 0.000000 
#    z -0.116710 0.000000 6.874470 
# 
# 
# High freq. dielectric constant tensor:
#      x y z
#    x 2.117780 0.000000 0.003160 
#    y 0.000000 2.054030 0.000000 
#    z 0.003160 0.000000 2.124880 
# 
# From -- ./inp_files/44671.got.cif
#   From: 2010.06.25/outbox.cif.g09.slc.cpg/sg13_23_cif.got.tgz:44671.got - 2010.06.28 04:50:58.
