data_PCOD8122633
_publ_section_title
;
Structure prediction by ZEFSAII (Michael W. Deem and Ramdas Pophale) SiO2 
 PCOD8122633
Probable space group: P 2/C
;
_chemical_formula_sum "Si O2"
_cell_formula_units_Z 20
_cell_length_a 6.751817
_cell_length_b 7.412349
_cell_length_c 27.544202
_cell_angle_alpha 90.000000
_cell_angle_beta 43.276267
_cell_angle_gamma 90.000000
_cell_volume 944.984843
_symmetry_space_group_name_H-M "P 2/C"
_symmetry_group_IT_number 13
_symmetry_cell_setting 'monoclinic'
loop_
_space_group_symop_operation_xyz
x,y,z
-x,y,1/2-z
-x,-y,-z
x,-y,1/2+z
loop_
_atom_site_type_symbol
_atom_site_label
_atom_site_fract_x
_atom_site_fract_y
_atom_site_fract_z
Si Si1 0.233936 0.907746 0.522185
Si Si2 0.648161 0.082137 0.605115
Si Si3 0.684571 0.293826 0.328917
Si Si4 0.228932 0.435692 0.079448
Si Si5 0.370656 0.408347 0.825312
O O1 0.345773 0.836568 0.450158
O O2 0.111403 0.747317 0.576654
O O3 0.500000 0.000000 0.500000
O O4 0.977010 0.048948 0.562129
O O5 0.525153 0.237565 0.661688
O O6 0.452091 0.904028 0.641468
O O7 0.690790 0.397915 0.379064
O O8 0.489363 0.407974 0.327165
O O9 0.000000 0.271905 0.250000
O O10 0.975785 0.582497 0.119028
O O11 0.500000 0.500000 0.000000
O O12 0.500000 0.377125 0.750000
#
# Coordination Sequence:
#
# PCOD8122633 Si02
#       5
#     4   4   4   4   4
#     4  11  22  43  70 103 137 176 229 293 352 415
#     4  11  26  43  71 104 137 179 239 287 348 429
#     4  12  26  48  71 101 143 190 236 292 358 427
#     4  12  25  44  74 102 143 187 233 294 360 417
#     4  12  27  47  69 103 144 185 237 294 357 425
#
# _framework density 21.164361
#
# number of rings (size 3 to 8) (size 9 to 14) (size 15 to 20)
#    0.000    0.400    6.000    2.400    2.800    4.800 
#    3.600    0.000    0.000    0.000    0.000    0.000 
#    0.000    0.000    0.000    0.000    0.000    0.000 
#
# Total GULP energy -248068.880970 kJ/mol
# GULP energy per Si atom -12403.444048 kJ/mol
# Density = 2.111619 g / cm^3
# Si number density = 21.164361 Si / 1000 Ang^3
#
#
#
# Elastic Constant Matrix: (Units=GPa)
#
#
# Indices 1 2 3 4 5 6 
#
# 1 108.0903 17.7284 47.2110 0.0000 -1.9058 0.0000
# 2 17.7284 67.9341 17.5743 0.0000 2.6421 0.0000
# 3 47.2110 17.5743 136.0260 0.0000 0.6518 0.0000
# 4 0.0000 0.0000 0.0000 36.4493 0.0000 4.3035
# 5 -1.9058 2.6421 0.6518 0.0000 46.1933 0.0000
# 6 0.0000 0.0000 0.0000 4.3035 0.0000 30.1133
#
#
#
# Elastic Compliance Matrix: (Units=1/GPa)
#
#
# Indices 1 2 3 4 5 6 
#
# 1 0.011173 -0.002003 -0.003622 0.000000 0.000627 0.000000
# 2 -0.002003 0.015621 -0.001318 0.000000 -0.000958 0.000000
# 3 -0.003622 -0.001318 0.008780 0.000000 -0.000198 0.000000
# 4 0.000000 0.000000 0.000000 0.027906 0.000000 -0.003988
# 5 0.000627 -0.000958 -0.000198 0.000000 0.021732 0.000000
# 6 0.000000 0.000000 0.000000 -0.003988 0.000000 0.033778
#
#
# Mechanical properties :
#
#
# Convention : Reuss Voigt Hill
#
# Bulk Modulus (GPa) = 46.11058 53.00867 49.55962
# Shear Modulus (GPa) = 35.68721 37.85365 36.77043
#
# Velocity S-wave (km/s) = 4.11078 4.23372 4.17270
# Velocity P-wave (km/s) = 6.66075 6.99998 6.83247
#
# Compressibility (1/GPa) = 0.02168700
#
# Stress axis : x y z
#
# Youngs Moduli (GPa) = 89.50021 64.01559 113.89580
#
# Poissons Ratio (x) = 0.12823 0.41254
# Poissons Ratio (y) = 0.17928 0.15016
# Poissons Ratio (z) = 0.32418 0.08440
#
# Static dielectric constant tensor:
#      x y z
#    x 4.077370 0.000000 0.166950 
#    y 0.000000 4.215200 0.000000 
#    z 0.166950 0.000000 3.928790 
# 
# 
# High freq. dielectric constant tensor:
#      x y z
#    x 1.849900 0.000000 0.005420 
#    y 0.000000 1.830970 0.000000 
#    z 0.005420 0.000000 1.839110 
# 
# From -- ./inp_files/69608.got.cif
#   From: 2010.06.25/outbox.cif.g09.slc.cpg/sg13_35_cif.got.tgz:69608.got - 2010.06.28 04:50:58.
