data_PCOD8122314
_publ_section_title
;
Structure prediction by ZEFSAII (Michael W. Deem and Ramdas Pophale) SiO2 
 PCOD8122314
Probable space group: P 2/C
;
_chemical_formula_sum "Si O2"
_cell_formula_units_Z 22
_cell_length_a 14.689511
_cell_length_b 10.784326
_cell_length_c 17.814836
_cell_angle_alpha 90.000000
_cell_angle_beta 19.530907
_cell_angle_gamma 90.000000
_cell_volume 943.492443
_symmetry_space_group_name_H-M "P 2/C"
_symmetry_group_IT_number 13
_symmetry_cell_setting 'monoclinic'
loop_
_space_group_symop_operation_xyz
x,y,z
-x,y,1/2-z
-x,-y,-z
x,-y,1/2+z
loop_
_atom_site_type_symbol
_atom_site_label
_atom_site_fract_x
_atom_site_fract_y
_atom_site_fract_z
Si Si1 0.616561 0.783194 0.873512
Si Si2 0.039812 0.665894 0.306875
Si Si3 0.949024 0.571983 0.964557
Si Si4 0.732954 0.873455 0.622386
Si Si5 0.500000 0.270433 0.750000
Si Si6 0.984564 0.082542 0.344833
O O1 0.826596 0.674317 0.705207
O O2 0.635743 0.867388 0.783558
O O3 0.717301 0.861183 0.867453
O O4 0.321817 0.725450 0.115385
O O5 0.005801 0.520172 0.350334
O O6 0.000000 0.688417 0.250000
O O7 0.811753 0.736962 0.531992
O O8 0.000000 0.500000 0.000000
O O9 0.648658 0.636264 0.193971
O O10 0.500000 0.927270 0.750000
O O11 0.959214 0.978851 0.430311
O O12 0.743547 0.186049 0.527699
O O13 0.000000 0.021640 0.250000
#
# Coordination Sequence:
#
# PCOD8122314 Si02
#       6
#     4   4   4   4   2   4
#     4  11  26  46  71 105 140 188 237 288 353 422
#     4  12  26  43  73 106 142 183 235 292 347 420
#     4  11  25  44  72  99 142 186 230 287 350 420
#     4  12  24  46  71 103 143 186 235 292 359 411
#     4  10  26  46  68 100 144 186 228 292 352 406
#     4  11  26  46  73 103 143 188 241 291 347 426
#
# _framework density 23.317622
#
# number of rings (size 3 to 8) (size 9 to 14) (size 15 to 20)
#    0.000    0.727    4.545    1.636    6.364    3.636 
#    0.000    0.000    0.000    0.000    0.000    0.000 
#    0.000    0.000    0.000    0.000    0.000    0.000 
#
# Total GULP energy -272643.989721 kJ/mol
# GULP energy per Si atom -12392.908624 kJ/mol
# Density = 2.326455 g / cm^3
# Si number density = 23.317622 Si / 1000 Ang^3
#
#
#
# Elastic Constant Matrix: (Units=GPa)
#
#
# Indices 1 2 3 4 5 6 
#
# 1 89.7146 27.8353 16.5350 0.0000 0.8985 0.0000
# 2 27.8353 83.4978 4.4888 0.0000 -13.2170 0.0000
# 3 16.5350 4.4888 55.5372 0.0000 -16.6820 0.0000
# 4 0.0000 0.0000 0.0000 53.5163 0.0000 -7.4286
# 5 0.8985 -13.2170 -16.6820 0.0000 33.6885 0.0000
# 6 0.0000 0.0000 0.0000 -7.4286 0.0000 41.6917
#
#
#
# Elastic Compliance Matrix: (Units=1/GPa)
#
#
# Indices 1 2 3 4 5 6 
#
# 1 0.013718 -0.005073 -0.005148 0.000000 -0.004905 0.000000
# 2 -0.005073 0.014660 0.002460 0.000000 0.007105 0.000000
# 3 -0.005148 0.002460 0.023108 0.000000 0.012545 0.000000
# 4 0.000000 0.000000 0.000000 0.019160 0.000000 0.003414
# 5 -0.004905 0.007105 0.012545 0.000000 0.038814 0.000000
# 6 0.000000 0.000000 0.000000 0.003414 0.000000 0.024594
#
#
# Mechanical properties :
#
#
# Convention : Reuss Voigt Hill
#
# Bulk Modulus (GPa) = 27.80554 36.27418 32.03986
# Shear Modulus (GPa) = 30.94748 37.77199 34.35973
#
# Velocity S-wave (km/s) = 3.64705 4.02915 3.84285
# Velocity P-wave (km/s) = 5.44841 6.10211 5.78450
#
# Compressibility (1/GPa) = 0.03596406
#
# Stress axis : x y z
#
# Youngs Moduli (GPa) = 72.89535 68.21319 43.27513
#
# Poissons Ratio (x) = 0.34604 0.22277
# Poissons Ratio (y) = 0.36979 -0.10644
# Poissons Ratio (z) = 0.37524 -0.16778
#
# Static dielectric constant tensor:
#      x y z
#    x 4.441290 0.000000 -0.563260 
#    y 0.000000 4.005680 0.000000 
#    z -0.563260 0.000000 4.782990 
# 
# 
# High freq. dielectric constant tensor:
#      x y z
#    x 1.928950 0.000000 -0.020900 
#    y 0.000000 1.939750 0.000000 
#    z -0.020900 0.000000 1.912860 
# 
# From -- ./inp_files/68515.got.cif
#   From: 2010.06.25/outbox.cif.g09.slc.cpg/sg13_35_cif.got.tgz:68515.got - 2010.06.28 04:50:58.
