data_PCOD8122118
_publ_section_title
;
Structure prediction by ZEFSAII (Michael W. Deem and Ramdas Pophale) SiO2 
 PCOD8122118
Probable space group: P 2/C
;
_chemical_formula_sum "Si O2"
_cell_formula_units_Z 16
_cell_length_a 7.019870
_cell_length_b 6.423235
_cell_length_c 14.614774
_cell_angle_alpha 90.000000
_cell_angle_beta 81.430753
_cell_angle_gamma 90.000000
_cell_volume 651.627604
_symmetry_space_group_name_H-M "P 2/C"
_symmetry_group_IT_number 13
_symmetry_cell_setting 'monoclinic'
loop_
_space_group_symop_operation_xyz
x,y,z
-x,y,1/2-z
-x,-y,-z
x,-y,1/2+z
loop_
_atom_site_type_symbol
_atom_site_label
_atom_site_fract_x
_atom_site_fract_y
_atom_site_fract_z
Si Si1 0.706099 0.460415 0.087397
Si Si2 0.364388 0.882517 0.340386
Si Si3 0.613576 0.200379 0.460038
Si Si4 0.991372 0.832451 0.647233
O O1 0.655040 0.632476 0.168732
O O2 0.913514 0.358746 0.091553
O O3 0.699222 0.576839 0.990053
O O4 0.553832 0.266290 0.100222
O O5 0.500000 0.970821 0.250000
O O6 0.456423 0.924657 0.438626
O O7 0.149574 0.970030 0.350313
O O8 0.797758 0.090538 0.400034
O O9 0.000000 0.752397 0.750000
#
# Coordination Sequence:
#
# PCOD8122118 Si02
#       4
#     4   4   4   4
#     4   9  23  45  72  92 133 174 226 274 335 386
#     4  10  24  44  65  99 132 175 222 270 335 397
#     4   9  22  47  68  97 128 177 223 280 329 391
#     4  12  26  40  67 101 137 172 220 275 339 397
#
# _framework density 24.553899999999999
#
# number of rings (size 3 to 8) (size 9 to 14) (size 15 to 20)
#    1.500    0.500    0.000    1.500    7.000    2.000 
#    4.500    0.000    0.000    0.000    0.000    0.000 
#    0.000    0.000    0.000    0.000    0.000    0.000 
#
# Total GULP energy -198343.012423 kJ/mol
# GULP energy per Si atom -12396.438276 kJ/mol
# Density = 2.449801 g / cm^3
# Si number density = 24.553900 Si / 1000 Ang^3
#
#
#
# Elastic Constant Matrix: (Units=GPa)
#
#
# Indices 1 2 3 4 5 6 
#
# 1 153.8297 43.5702 67.5477 0.0000 -14.8058 0.0000
# 2 43.5702 108.7677 26.2267 0.0000 -3.5035 0.0000
# 3 67.5477 26.2267 129.7479 0.0000 -22.6917 0.0000
# 4 0.0000 0.0000 0.0000 31.4761 0.0000 0.6051
# 5 -14.8058 -3.5035 -22.6917 0.0000 49.1772 0.0000
# 6 0.0000 0.0000 0.0000 0.6051 0.0000 31.0300
#
#
#
# Elastic Compliance Matrix: (Units=1/GPa)
#
#
# Indices 1 2 3 4 5 6 
#
# 1 0.009110 -0.002641 -0.004092 0.000000 0.000666 0.000000
# 2 -0.002641 0.010433 -0.000808 0.000000 -0.000425 0.000000
# 3 -0.004092 -0.000808 0.010634 0.000000 0.003617 0.000000
# 4 0.000000 0.000000 0.000000 0.031782 0.000000 -0.000620
# 5 0.000666 -0.000425 0.003617 0.000000 0.022174 0.000000
# 6 0.000000 0.000000 0.000000 -0.000620 0.000000 0.032239
#
#
# Mechanical properties :
#
#
# Convention : Reuss Voigt Hill
#
# Bulk Modulus (GPa) = 66.25381 74.11495 70.18438
# Shear Modulus (GPa) = 36.63387 39.33670 37.98528
#
# Velocity S-wave (km/s) = 3.86680 4.00691 3.93748
# Velocity P-wave (km/s) = 6.85404 7.18730 7.02264
#
# Compressibility (1/GPa) = 0.01509347
#
# Stress axis : x y z
#
# Youngs Moduli (GPa) = 109.77210 95.84930 94.04091
#
# Poissons Ratio (x) = 0.25314 0.38484
# Poissons Ratio (y) = 0.28991 0.07601
# Poissons Ratio (z) = 0.44922 0.07747
#
# Static dielectric constant tensor:
#      x y z
#    x 4.484730 0.000000 0.264000 
#    y 0.000000 4.555700 0.000000 
#    z 0.264000 0.000000 4.094050 
# 
# 
# High freq. dielectric constant tensor:
#      x y z
#    x 1.990480 0.000000 0.014460 
#    y 0.000000 2.006570 0.000000 
#    z 0.014460 0.000000 1.953360 
# 
# From -- ./inp_files/62243.got.cif
#   From: 2010.06.25/outbox.cif.g09.slc.cpg/sg13_32_cif.got.tgz:62243.got - 2010.06.28 04:50:58.
