data_PCOD8122938
_publ_section_title
;
Structure prediction by ZEFSAII (Michael W. Deem and Ramdas Pophale) SiO2 
 PCOD8122938
Probable space group: P 2/C
;
_chemical_formula_sum "Si O2"
_cell_formula_units_Z 24
_cell_length_a 7.690250
_cell_length_b 14.575463
_cell_length_c 9.623217
_cell_angle_alpha 90.000000
_cell_angle_beta 109.386694
_cell_angle_gamma 90.000000
_cell_volume 1017.496270
_symmetry_space_group_name_H-M "P 2/C"
_symmetry_group_IT_number 13
_symmetry_cell_setting 'monoclinic'
loop_
_space_group_symop_operation_xyz
x,y,z
-x,y,1/2-z
-x,-y,-z
x,-y,1/2+z
loop_
_atom_site_type_symbol
_atom_site_label
_atom_site_fract_x
_atom_site_fract_y
_atom_site_fract_z
Si Si1 0.520504 0.252311 0.599418
Si Si2 0.673046 0.067575 0.550946
Si Si3 0.220435 0.248298 0.304033
Si Si4 0.189080 0.410859 0.849393
Si Si5 0.291866 0.567788 0.683071
Si Si6 0.825056 0.941814 0.797661
O O1 0.500000 0.216257 0.750000
O O2 0.626437 0.174473 0.539529
O O3 0.317668 0.268001 0.479097
O O4 0.635646 0.346023 0.631159
O O5 0.822533 0.047966 0.465640
O O6 0.500000 0.000000 0.500000
O O7 0.759925 0.039574 0.721726
O O8 0.289859 0.324732 0.216458
O O9 0.296025 0.149522 0.267318
O O10 0.000000 0.256376 0.250000
O O11 0.181973 0.504083 0.759163
O O12 0.000000 0.359092 0.750000
O O13 0.196352 0.444224 0.009155
O O14 0.500000 0.531875 0.750000
O O15 0.000000 0.915701 0.750000
#
# Coordination Sequence:
#
# PCOD8122938 Si02
#       6
#     4   4   4   4   4   4
#     4  12  27  46  73 109 149 190 250 313 373 439
#     4  12  24  44  74 103 145 193 245 305 373 442
#     4  11  26  46  73 101 144 191 247 301 375 440
#     4  12  28  46  73 106 148 188 245 302 377 439
#     4  12  25  47  74 103 140 195 240 305 369 445
#     4  11  25  45  71 104 145 190 249 303 371 445
#
# _framework density 23.587309000000001
#
# number of rings (size 3 to 8) (size 9 to 14) (size 15 to 20)
#    0.000    0.333    3.333    5.000    4.667    0.667 
#    0.000    0.000    0.000    0.000    0.000    0.000 
#    0.000    0.000    0.000    0.000    0.000    0.000 
#
# Total GULP energy -297380.613398 kJ/mol
# GULP energy per Si atom -12390.858892 kJ/mol
# Density = 2.353362 g / cm^3
# Si number density = 23.587309 Si / 1000 Ang^3
#
#
#
# Elastic Constant Matrix: (Units=GPa)
#
#
# Indices 1 2 3 4 5 6 
#
# 1 95.0648 21.3599 50.6266 0.0000 8.1029 0.0000
# 2 21.3599 120.2345 38.6825 0.0000 -4.8805 0.0000
# 3 50.6266 38.6825 187.4775 0.0000 0.7128 0.0000
# 4 0.0000 0.0000 0.0000 33.6794 0.0000 2.6864
# 5 8.1029 -4.8805 0.7128 0.0000 51.7342 0.0000
# 6 0.0000 0.0000 0.0000 2.6864 0.0000 23.0526
#
#
#
# Elastic Compliance Matrix: (Units=1/GPa)
#
#
# Indices 1 2 3 4 5 6 
#
# 1 0.012664 -0.001324 -0.003139 0.000000 -0.002065 0.000000
# 2 -0.001324 0.009086 -0.001521 0.000000 0.001085 0.000000
# 3 -0.003139 -0.001521 0.006495 0.000000 0.000259 0.000000
# 4 0.000000 0.000000 0.000000 0.029970 0.000000 -0.003493
# 5 -0.002065 0.001085 0.000259 0.000000 0.019752 0.000000
# 6 0.000000 0.000000 0.000000 -0.003493 0.000000 0.043786
#
#
# Mechanical properties :
#
#
# Convention : Reuss Voigt Hill
#
# Bulk Modulus (GPa) = 61.43823 69.34608 65.39215
# Shear Modulus (GPa) = 35.93343 41.16710 38.55027
#
# Velocity S-wave (km/s) = 3.90734 4.18222 4.04711
# Velocity P-wave (km/s) = 6.81616 7.26532 7.04432
#
# Compressibility (1/GPa) = 0.01627651
#
# Stress axis : x y z
#
# Youngs Moduli (GPa) = 78.96277 110.06230 153.97630
#
# Poissons Ratio (x) = 0.14570 0.48331
# Poissons Ratio (y) = 0.10453 0.23425
# Poissons Ratio (z) = 0.24785 0.16744
#
# Static dielectric constant tensor:
#      x y z
#    x 2.455880 0.000000 -0.979880 
#    y 0.000000 4.884770 0.000000 
#    z -0.979880 0.000000 3.725980 
# 
# 
# High freq. dielectric constant tensor:
#      x y z
#    x 1.930710 0.000000 0.002510 
#    y 0.000000 1.945290 0.000000 
#    z 0.002510 0.000000 1.941350 
# 
# From -- ./inp_files/12562.got.cif
#   From: 2010.06.25/outbox.cif.g09.slc.cpg/sg13_7_cif.got.tgz:12562.got - 2010.06.28 04:50:58.
