data_PCOD8122374
_publ_section_title
;
Structure prediction by ZEFSAII (Michael W. Deem and Ramdas Pophale) SiO2 
 PCOD8122374
Probable space group: P 2/C
;
_chemical_formula_sum "Si O2"
_cell_formula_units_Z 26
_cell_length_a 16.723840
_cell_length_b 14.128882
_cell_length_c 9.858947
_cell_angle_alpha 90.000000
_cell_angle_beta 37.675143
_cell_angle_gamma 90.000000
_cell_volume 1423.790570
_symmetry_space_group_name_H-M "P 2/C"
_symmetry_group_IT_number 13
_symmetry_cell_setting 'monoclinic'
loop_
_space_group_symop_operation_xyz
x,y,z
-x,y,1/2-z
-x,-y,-z
x,-y,1/2+z
loop_
_atom_site_type_symbol
_atom_site_label
_atom_site_fract_x
_atom_site_fract_y
_atom_site_fract_z
Si Si1 0.323620 0.726788 0.239624
Si Si2 0.608771 0.805159 0.820620
Si Si3 0.500000 0.937374 0.750000
Si Si4 0.588269 0.460680 0.756228
Si Si5 0.731385 0.956038 0.826160
Si Si6 0.346024 0.650934 0.926262
Si Si7 0.152628 0.902573 0.546058
O O1 0.324158 0.629135 0.322393
O O2 0.219477 0.800850 0.435591
O O3 0.464491 0.777257 0.065542
O O4 0.277576 0.695819 0.150087
O O5 0.597816 0.875449 0.707937
O O6 0.702774 0.851199 0.806631
O O7 0.686116 0.713091 0.663249
O O8 0.587098 0.000536 0.534197
O O9 0.500000 0.426671 0.750000
O O10 0.687480 0.542511 0.567613
O O11 0.500000 0.500000 0.000000
O O12 0.806438 0.947784 0.866279
O O13 0.814001 0.022287 0.615599
O O14 0.500000 0.655120 0.750000
O O15 0.000000 0.883247 0.750000
#
# Coordination Sequence:
#
# PCOD8122374 Si02
#       7
#     4   4   2   4   4   4   4
#     4  11  21  36  58  87 123 154 190 242 298 361
#     4  11  18  32  57  88 121 150 183 235 311 356
#     4  12  18  36  58  88 124 146 184 238 322 356
#     4  11  19  32  54  91 126 151 182 230 309 371
#     4  12  24  39  60  88 117 155 201 254 297 360
#     4   9  17  32  54  84 124 158 173 224 302 359
#     4  12  27  44  60  81 116 167 211 247 287 345
#
# _framework density 18.261113999999999
#
# number of rings (size 3 to 8) (size 9 to 14) (size 15 to 20)
#    0.000    0.923   10.000    1.846    2.154    0.000 
#    0.000    0.000    0.000    0.923    0.000    0.000 
#    0.000    0.000    0.000    0.000    0.000    0.000 
#
# Total GULP energy -322299.499144 kJ/mol
# GULP energy per Si atom -12396.134582 kJ/mol
# Density = 1.821955 g / cm^3
# Si number density = 18.261114 Si / 1000 Ang^3
#
#
#
# Elastic Constant Matrix: (Units=GPa)
#
#
# Indices 1 2 3 4 5 6 
#
# 1 76.6503 47.8984 49.6866 0.0000 16.6966 0.0000
# 2 47.8984 144.4512 55.3565 0.0000 4.1531 0.0000
# 3 49.6866 55.3565 81.9369 0.0000 6.9104 0.0000
# 4 0.0000 0.0000 0.0000 19.6139 0.0000 17.3886
# 5 16.6966 4.1531 6.9104 0.0000 23.3270 0.0000
# 6 0.0000 0.0000 0.0000 17.3886 0.0000 28.4963
#
#
#
# Elastic Compliance Matrix: (Units=1/GPa)
#
#
# Indices 1 2 3 4 5 6 
#
# 1 0.026561 -0.003626 -0.012418 0.000000 -0.014687 0.000000
# 2 -0.003626 0.009837 -0.004634 0.000000 0.002217 0.000000
# 3 -0.012418 -0.004634 0.022611 0.000000 0.003015 0.000000
# 4 0.000000 0.000000 0.000000 0.111072 0.000000 -0.067777
# 5 -0.014687 0.002217 0.003015 0.000000 0.052093 0.000000
# 6 0.000000 0.000000 0.000000 -0.067777 0.000000 0.076450
#
#
# Mechanical properties :
#
#
# Convention : Reuss Voigt Hill
#
# Bulk Modulus (GPa) = 56.64772 67.65791 62.15281
# Shear Modulus (GPa) = 14.45642 24.29390 19.37516
#
# Velocity S-wave (km/s) = 2.81668 3.65137 3.26084
# Velocity P-wave (km/s) = 6.45496 7.40995 6.94888
#
# Compressibility (1/GPa) = 0.01765296
#
# Stress axis : x y z
#
# Youngs Moduli (GPa) = 37.64855 101.65380 44.22541
#
# Poissons Ratio (x) = 0.36863 0.54920
# Poissons Ratio (y) = 0.13652 0.20494
# Poissons Ratio (z) = 0.46753 0.47107
#
# Static dielectric constant tensor:
#      x y z
#    x 3.360590 0.000000 0.453560 
#    y 0.000000 3.873710 0.000000 
#    z 0.453560 0.000000 3.199910 
# 
# 
# High freq. dielectric constant tensor:
#      x y z
#    x 1.687800 0.000000 0.046020 
#    y 0.000000 1.729830 0.000000 
#    z 0.046020 0.000000 1.671850 
# 
# From -- ./inp_files/19845.got.cif
#   From: 2010.06.25/outbox.cif.g09.slc.cpg/sg13_10_cif.got.tgz:19845.got - 2010.06.28 04:50:58.
