data_PCOD8122402
_publ_section_title
;
Structure prediction by ZEFSAII (Michael W. Deem and Ramdas Pophale) SiO2 
 PCOD8122402
Probable space group: P 2/C
;
_chemical_formula_sum "Si O2"
_cell_formula_units_Z 24
_cell_length_a 18.010109
_cell_length_b 11.975870
_cell_length_c 8.460399
_cell_angle_alpha 90.000000
_cell_angle_beta 45.013097
_cell_angle_gamma 90.000000
_cell_volume 1290.620362
_symmetry_space_group_name_H-M "P 2/C"
_symmetry_group_IT_number 13
_symmetry_cell_setting 'monoclinic'
loop_
_space_group_symop_operation_xyz
x,y,z
-x,y,1/2-z
-x,-y,-z
x,-y,1/2+z
loop_
_atom_site_type_symbol
_atom_site_label
_atom_site_fract_x
_atom_site_fract_y
_atom_site_fract_z
Si Si1 0.204189 0.079158 0.811713
Si Si2 0.316455 0.228870 0.217382
Si Si3 0.115519 0.130418 0.628833
Si Si4 0.487702 0.377027 0.083071
Si Si5 0.400234 0.038502 0.304670
Si Si6 0.354978 0.199441 0.797945
O O1 0.118692 0.124748 0.815365
O O2 0.299625 0.024744 0.569489
O O3 0.250176 0.179654 0.850351
O O4 0.149257 0.988349 0.004850
O O5 0.194403 0.227110 0.451127
O O6 0.371285 0.336884 0.210709
O O7 0.374426 0.119427 0.198583
O O8 0.323105 0.236246 0.020050
O O9 0.000000 0.164873 0.750000
O O10 0.500000 0.376158 0.250000
O O11 0.500000 0.500000 0.000000
O O12 0.575176 0.296788 0.878017
O O13 0.500000 0.086074 0.250000
O O14 0.423142 0.915817 0.197857
#
# Coordination Sequence:
#
# PCOD8122402 Si02
#       6
#     4   4   4   4   4   4
#     4  11  20  34  50  81 117 153 194 234 282 346
#     4  11  21  37  56  83 119 152 194 233 282 341
#     4  11  21  35  53  80 116 156 195 239 285 332
#     4  12  26  42  59  86 116 152 190 232 286 345
#     4  11  20  32  52  85 116 154 186 228 284 350
#     4  12  21  35  57  83 117 154 187 231 288 347
#
# _framework density 18.595708999999999
#
# number of rings (size 3 to 8) (size 9 to 14) (size 15 to 20)
#    0.000    0.667    5.000    6.500    0.000    2.000 
#    0.000    0.000    0.000    0.000    0.000   11.667 
#    0.000    0.000    0.000    0.000    0.000    0.000 
#
# Total GULP energy -297635.390989 kJ/mol
# GULP energy per Si atom -12401.474625 kJ/mol
# Density = 1.855338 g / cm^3
# Si number density = 18.595709 Si / 1000 Ang^3
#
#
#
# Elastic Constant Matrix: (Units=GPa)
#
#
# Indices 1 2 3 4 5 6 
#
# 1 185.4161 47.0389 68.9763 0.0000 4.9747 0.0000
# 2 47.0389 109.7675 43.3908 0.0000 0.8192 0.0000
# 3 68.9763 43.3908 81.5874 0.0000 11.1049 0.0000
# 4 0.0000 0.0000 0.0000 31.3944 0.0000 41.8965
# 5 4.9747 0.8192 11.1049 0.0000 46.1448 0.0000
# 6 0.0000 0.0000 0.0000 41.8965 0.0000 118.9991
#
#
#
# Elastic Compliance Matrix: (Units=1/GPa)
#
#
# Indices 1 2 3 4 5 6 
#
# 1 0.007966 -0.000911 -0.006343 0.000000 0.000684 0.000000
# 2 -0.000911 0.011717 -0.005631 0.000000 0.001245 0.000000
# 3 -0.006343 -0.005631 0.021201 0.000000 -0.004318 0.000000
# 4 0.000000 0.000000 0.000000 0.060082 0.000000 -0.021153
# 5 0.000684 0.001245 -0.004318 0.000000 0.022614 0.000000
# 6 0.000000 0.000000 0.000000 -0.021153 0.000000 0.015851
#
#
# Mechanical properties :
#
#
# Convention : Reuss Voigt Hill
#
# Bulk Modulus (GPa) = 66.16002 77.28701 71.72351
# Shear Modulus (GPa) = 29.37031 53.79868 41.58449
#
# Velocity S-wave (km/s) = 3.97849 5.38456 4.73402
# Velocity P-wave (km/s) = 7.53392 8.96158 8.27858
#
# Compressibility (1/GPa) = 0.01511487
#
# Stress axis : x y z
#
# Youngs Moduli (GPa) = 125.53798 85.34486 47.16649
#
# Poissons Ratio (x) = 0.07778 0.29917
# Poissons Ratio (y) = 0.11441 0.26557
# Poissons Ratio (z) = 0.79627 0.48054
#
# Static dielectric constant tensor:
#      x y z
#    x 4.340640 0.000000 0.156070 
#    y 0.000000 3.174910 0.000000 
#    z 0.156070 0.000000 3.501220 
# 
# 
# High freq. dielectric constant tensor:
#      x y z
#    x 1.742020 0.000000 0.027010 
#    y 0.000000 1.673620 0.000000 
#    z 0.027010 0.000000 1.723470 
# 
# From -- ./inp_files/21508.got.cif
#   From: 2010.06.25/outbox.cif.g09.slc.cpg/sg13_11_cif.got.tgz:21508.got - 2010.06.28 04:50:58.
