data_PCOD8122927
_publ_section_title
;
Structure prediction by ZEFSAII (Michael W. Deem and Ramdas Pophale) SiO2 
 PCOD8122927
Probable space group: P 2/C
;
_chemical_formula_sum "Si O2"
_cell_formula_units_Z 18
_cell_length_a 9.089140
_cell_length_b 7.581393
_cell_length_c 20.895999
_cell_angle_alpha 90.000000
_cell_angle_beta 29.548394
_cell_angle_gamma 90.000000
_cell_volume 710.103216
_symmetry_space_group_name_H-M "P 2/C"
_symmetry_group_IT_number 13
_symmetry_cell_setting 'monoclinic'
loop_
_space_group_symop_operation_xyz
x,y,z
-x,y,1/2-z
-x,-y,-z
x,-y,1/2+z
loop_
_atom_site_type_symbol
_atom_site_label
_atom_site_fract_x
_atom_site_fract_y
_atom_site_fract_z
Si Si1 0.919585 0.496318 0.662565
Si Si2 0.167516 0.845115 0.590570
Si Si3 0.529793 0.345114 0.409431
Si Si4 0.430154 0.996318 0.162565
Si Si5 0.500000 0.250001 0.750000
O O1 0.700946 0.494759 0.807572
O O2 0.776927 0.379543 0.660109
O O3 0.990218 0.698352 0.614650
O O4 0.243932 0.413595 0.556171
O O5 0.243421 0.750002 0.628290
O O6 0.931235 0.005242 0.692428
O O7 0.468616 0.913597 0.443829
O O8 0.448818 0.198352 0.385349
O O9 0.582636 0.879540 0.160109
#
# Coordination Sequence:
#
# PCOD8122927 Si02
#       5
#     4   4   4   4   2
#     4  11  25  44  71 103 144 187 230 290 346 423
#     4  11  25  47  75 108 140 182 237 299 361 410
#     4  11  25  47  75 108 140 182 237 299 361 410
#     4  11  25  44  71 103 144 187 230 290 346 423
#     4  12  28  46  70 106 144 194 240 276 352 426
#
# _framework density 25.348431000000001
#
# number of rings (size 3 to 8) (size 9 to 14) (size 15 to 20)
#    0.000    0.889    0.000    6.667    0.000   14.222 
#    0.000    4.444    0.000    0.000    0.000    0.000 
#    0.000    0.000    0.000    0.000    0.000    0.000 
#
# Total GULP energy -223040.334075 kJ/mol
# GULP energy per Si atom -12391.129671 kJ/mol
# Density = 2.529074 g / cm^3
# Si number density = 25.348431 Si / 1000 Ang^3
#
#
#
# Elastic Constant Matrix: (Units=GPa)
#
#
# Indices 1 2 3 4 5 6 
#
# 1 108.0941 47.4880 66.8460 0.0000 -0.0282 0.0000
# 2 47.4880 113.8350 83.9918 0.0000 0.3286 0.0000
# 3 66.8460 83.9918 186.0243 0.0000 0.7282 0.0000
# 4 0.0000 0.0000 0.0000 51.3681 0.0000 0.1138
# 5 -0.0282 0.3286 0.7282 0.0000 19.1181 0.0000
# 6 0.0000 0.0000 0.0000 0.1138 0.0000 38.7322
#
#
#
# Elastic Compliance Matrix: (Units=1/GPa)
#
#
# Indices 1 2 3 4 5 6 
#
# 1 0.012481 -0.002845 -0.003201 0.000000 0.000189 0.000000
# 2 -0.002845 0.013822 -0.005218 0.000000 -0.000043 0.000000
# 3 -0.003201 -0.005218 0.008883 0.000000 -0.000253 0.000000
# 4 0.000000 0.000000 0.000000 0.019467 0.000000 -0.000057
# 5 0.000189 -0.000043 -0.000253 0.000000 0.052317 0.000000
# 6 0.000000 0.000000 0.000000 -0.000057 0.000000 0.025819
#
#
# Mechanical properties :
#
#
# Convention : Reuss Voigt Hill
#
# Bulk Modulus (GPa) = 79.00879 89.40056 84.20468
# Shear Modulus (GPa) = 31.34089 35.81884 33.57986
#
# Velocity S-wave (km/s) = 3.52007 3.76315 3.64363
# Velocity P-wave (km/s) = 6.91071 7.36389 7.14090
#
# Compressibility (1/GPa) = 0.01265682
#
# Stress axis : x y z
#
# Youngs Moduli (GPa) = 80.12370 72.34925 112.57654
#
# Poissons Ratio (x) = 0.20586 0.36034
# Poissons Ratio (y) = 0.22798 0.58743
# Poissons Ratio (z) = 0.25646 0.37752
#
# Static dielectric constant tensor:
#      x y z
#    x 4.193410 0.000000 0.004250 
#    y 0.000000 5.176510 0.000000 
#    z 0.004250 0.000000 4.665560 
# 
# 
# High freq. dielectric constant tensor:
#      x y z
#    x 1.967980 0.000000 0.000550 
#    y 0.000000 2.027710 0.000000 
#    z 0.000550 0.000000 2.029180 
# 
# From -- ./inp_files/75503.got.cif
#   From: 2010.06.25/outbox.cif.g09.slc.cpg/sg13_38_cif.got.tgz:75503.got - 2010.06.28 04:50:58.
