data_PCOD8122351
_publ_section_title
;
Structure prediction by ZEFSAII (Michael W. Deem and Ramdas Pophale) SiO2 
 PCOD8122351
Probable space group: P 2/C
;
_chemical_formula_sum "Si O2"
_cell_formula_units_Z 30
_cell_length_a 11.547733
_cell_length_b 10.985860
_cell_length_c 20.906838
_cell_angle_alpha 90.000000
_cell_angle_beta 148.630080
_cell_angle_gamma 90.000000
_cell_volume 1380.674016
_symmetry_space_group_name_H-M "P 2/C"
_symmetry_group_IT_number 13
_symmetry_cell_setting 'monoclinic'
loop_
_space_group_symop_operation_xyz
x,y,z
-x,y,1/2-z
-x,-y,-z
x,-y,1/2+z
loop_
_atom_site_type_symbol
_atom_site_label
_atom_site_fract_x
_atom_site_fract_y
_atom_site_fract_z
Si Si1 0.838511 0.980983 0.231253
Si Si2 0.720205 0.397313 0.772108
Si Si3 0.446465 0.427173 0.412720
Si Si4 0.253079 0.799381 0.875241
Si Si5 0.500000 0.582811 0.750000
Si Si6 0.533689 0.177300 0.891090
Si Si7 0.119426 0.988457 0.486428
Si Si8 0.787683 0.706912 0.990468
O O1 0.652370 0.080554 0.117241
O O2 0.000000 0.932678 0.250000
O O3 0.699457 0.866523 0.189918
O O4 0.965921 0.032187 0.354866
O O5 0.678372 0.476660 0.689711
O O6 0.690275 0.493409 0.814231
O O7 0.531417 0.291296 0.684622
O O8 0.964972 0.344641 0.895135
O O9 0.500000 0.500000 0.500000
O O10 0.269062 0.322395 0.342590
O O11 0.669473 0.355483 0.495727
O O12 0.000000 0.843915 0.750000
O O13 0.323899 0.777966 0.981162
O O14 0.627501 0.670398 0.857529
O O15 0.666181 0.078290 0.911178
O O16 0.201271 0.852808 0.507178
O O17 0.000000 0.000000 0.500000
#
# Coordination Sequence:
#
# PCOD8122351 Si02
#       8
#     4   4   4   4   2   4   4   4
#     4  11  24  44  71 106 142 193 238 299 380 438
#     4  11  25  43  74 102 140 189 235 303 357 435
#     4  11  25  42  69 107 142 189 240 297 364 434
#     4  11  23  41  68 101 141 187 230 294 363 435
#     4  10  26  50  72  98 138 194 242 294 366 440
#     4  12  24  44  72 107 144 185 244 305 364 444
#     4  12  28  46  74 111 144 196 248 307 375 448
#     4  11  26  50  69 105 143 190 246 304 371 439
#
# _framework density 21.728518999999999
#
# number of rings (size 3 to 8) (size 9 to 14) (size 15 to 20)
#    0.000    0.800    5.333    1.600    5.600    3.733 
#    0.000    0.000    0.000    0.000    0.000    0.000 
#    0.000    0.000    0.000    0.000    0.000    0.000 
#
# Total GULP energy -371681.824397 kJ/mol
# GULP energy per Si atom -12389.394147 kJ/mol
# Density = 2.167906 g / cm^3
# Si number density = 21.728519 Si / 1000 Ang^3
#
#
#
# Elastic Constant Matrix: (Units=GPa)
#
#
# Indices 1 2 3 4 5 6 
#
# 1 109.2003 27.4284 27.8194 0.0000 -6.5351 0.0000
# 2 27.4284 124.1906 30.1237 0.0000 7.5113 0.0000
# 3 27.8194 30.1237 64.8014 0.0000 17.9267 0.0000
# 4 0.0000 0.0000 0.0000 48.2291 0.0000 -11.7557
# 5 -6.5351 7.5113 17.9267 0.0000 22.5232 0.0000
# 6 0.0000 0.0000 0.0000 -11.7557 0.0000 55.0158
#
#
#
# Elastic Compliance Matrix: (Units=1/GPa)
#
#
# Indices 1 2 3 4 5 6 
#
# 1 0.011906 -0.001495 -0.007066 0.000000 0.009577 0.000000
# 2 -0.001495 0.009266 -0.003451 0.000000 -0.000777 0.000000
# 3 -0.007066 -0.003451 0.026055 0.000000 -0.021637 0.000000
# 4 0.000000 0.000000 0.000000 0.021874 0.000000 0.004674
# 5 0.009577 -0.000777 -0.021637 0.000000 0.064658 0.000000
# 6 0.000000 0.000000 0.000000 0.004674 0.000000 0.019175
#
#
# Mechanical properties :
#
#
# Convention : Reuss Voigt Hill
#
# Bulk Modulus (GPa) = 43.09497 52.10392 47.59945
# Shear Modulus (GPa) = 27.07216 39.34167 33.20691
#
# Velocity S-wave (km/s) = 3.53360 4.25973 3.91354
# Velocity P-wave (km/s) = 6.04358 6.94445 6.50961
#
# Compressibility (1/GPa) = 0.02320456
#
# Stress axis : x y z
#
# Youngs Moduli (GPa) = 83.99028 107.91755 38.38059
#
# Poissons Ratio (x) = 0.16133 0.27119
# Poissons Ratio (y) = 0.12556 0.13244
# Poissons Ratio (z) = 0.59345 0.37239
#
# Static dielectric constant tensor:
#      x y z
#    x 4.078570 0.000000 -0.095340 
#    y 0.000000 5.599560 0.000000 
#    z -0.095340 0.000000 3.921270 
# 
# 
# High freq. dielectric constant tensor:
#      x y z
#    x 1.851450 0.000000 -0.006050 
#    y 0.000000 1.875150 0.000000 
#    z -0.006050 0.000000 1.857320 
# 
# From -- ./inp_files/78664.got.cif
#   From: 2010.06.25/outbox.cif.g09.slc.cpg/sg13_40_cif.got.tgz:78664.got - 2010.06.28 04:50:58.
