data_PCOD8122209
_publ_section_title
;
Structure prediction by ZEFSAII (Michael W. Deem and Ramdas Pophale) SiO2 
 PCOD8122209
Probable space group: P 2/C
;
_chemical_formula_sum "Si O2"
_cell_formula_units_Z 18
_cell_length_a 20.886626
_cell_length_b 7.429311
_cell_length_c 8.690991
_cell_angle_alpha 90.000000
_cell_angle_beta 37.266218
_cell_angle_gamma 90.000000
_cell_volume 816.608890
_symmetry_space_group_name_H-M "P 2/C"
_symmetry_group_IT_number 13
_symmetry_cell_setting 'monoclinic'
loop_
_space_group_symop_operation_xyz
x,y,z
-x,y,1/2-z
-x,-y,-z
x,-y,1/2+z
loop_
_atom_site_type_symbol
_atom_site_label
_atom_site_fract_x
_atom_site_fract_y
_atom_site_fract_z
Si Si1 0.729261 0.197137 0.485225
Si Si2 0.000000 0.519610 0.750000
Si Si3 0.488176 0.696949 0.955354
Si Si4 0.850208 0.441213 0.783054
Si Si5 0.305816 0.162285 0.308281
O O1 0.821957 0.345237 0.325349
O O2 0.698980 0.174174 0.365501
O O3 0.762512 0.004832 0.494180
O O4 0.628657 0.242497 0.780891
O O5 0.063526 0.398103 0.750471
O O6 0.091977 0.629514 0.483710
O O7 0.500000 0.695686 0.750000
O O8 0.572130 0.835784 0.871090
O O9 0.500000 0.500000 0.000000
O O10 0.742362 0.339424 0.020139
#
# Coordination Sequence:
#
# PCOD8122209 Si02
#       5
#     4   2   4   4   4
#     4  12  26  44  71 104 141 182 226 277 338 409
#     4  10  24  46  74  96 130 182 224 298 338 402
#     4  12  25  42  69 103 143 183 224 272 333 408
#     4  11  24  47  72  98 138 175 232 279 352 396
#     4  12  26  44  71 104 141 182 226 277 338 409
#
# _framework density 22.042376000000001
#
# number of rings (size 3 to 8) (size 9 to 14) (size 15 to 20)
#    0.000    0.444    4.444    4.000    6.222    0.000 
#    0.000    6.667    0.000    0.000    0.000    0.000 
#    0.000    0.000    0.000    0.000    0.000    0.000 
#
# Total GULP energy -223108.038364 kJ/mol
# GULP energy per Si atom -12394.891020 kJ/mol
# Density = 2.199221 g / cm^3
# Si number density = 22.042376 Si / 1000 Ang^3
#
#
#
# Elastic Constant Matrix: (Units=GPa)
#
#
# Indices 1 2 3 4 5 6 
#
# 1 119.5274 29.5814 51.3894 0.0000 22.6856 0.0000
# 2 29.5814 96.0211 20.3548 0.0000 9.2436 0.0000
# 3 51.3894 20.3548 155.0807 0.0000 31.1659 0.0000
# 4 0.0000 0.0000 0.0000 20.7402 0.0000 7.2311
# 5 22.6856 9.2436 31.1659 0.0000 49.2577 0.0000
# 6 0.0000 0.0000 0.0000 7.2311 0.0000 17.0363
#
#
#
# Elastic Compliance Matrix: (Units=1/GPa)
#
#
# Indices 1 2 3 4 5 6 
#
# 1 0.010635 -0.002449 -0.002647 0.000000 -0.002763 0.000000
# 2 -0.002449 0.011348 -0.000546 0.000000 -0.000656 0.000000
# 3 -0.002647 -0.000546 0.008170 0.000000 -0.003848 0.000000
# 4 0.000000 0.000000 0.000000 0.056590 0.000000 -0.024020
# 5 -0.002763 -0.000656 -0.003848 0.000000 0.024132 0.000000
# 6 0.000000 0.000000 0.000000 -0.024020 0.000000 0.068894
#
#
# Mechanical properties :
#
#
# Convention : Reuss Voigt Hill
#
# Bulk Modulus (GPa) = 52.99894 63.69781 58.34837
# Shear Modulus (GPa) = 25.33657 35.36042 30.34849
#
# Velocity S-wave (km/s) = 3.39403 4.00959 3.71458
# Velocity P-wave (km/s) = 6.28137 7.09904 6.70268
#
# Compressibility (1/GPa) = 0.01886830
#
# Stress axis : x y z
#
# Youngs Moduli (GPa) = 94.02832 88.12287 122.39194
#
# Poissons Ratio (x) = 0.21583 0.32402
# Poissons Ratio (y) = 0.23029 0.06683
# Poissons Ratio (z) = 0.24893 0.04811
#
# Static dielectric constant tensor:
#      x y z
#    x 3.966530 0.000000 0.180490 
#    y 0.000000 4.152250 0.000000 
#    z 0.180490 0.000000 4.336110 
# 
# 
# High freq. dielectric constant tensor:
#      x y z
#    x 1.876100 0.000000 0.014160 
#    y 0.000000 1.846300 0.000000 
#    z 0.014160 0.000000 1.891440 
# 
# From -- ./inp_files/22478.got.cif
#   From: 2010.06.25/outbox.cif.g09.slc.cpg/sg13_12_cif.got.tgz:22478.got - 2010.06.28 04:50:58.
