data_PCOD8122048
_publ_section_title
;
Structure prediction by ZEFSAII (Michael W. Deem and Ramdas Pophale) SiO2 
 PCOD8122048
Probable space group: P 2/C
;
_chemical_formula_sum "Si O2"
_cell_formula_units_Z 18
_cell_length_a 16.965589
_cell_length_b 4.712682
_cell_length_c 9.172666
_cell_angle_alpha 90.000000
_cell_angle_beta 109.067590
_cell_angle_gamma 90.000000
_cell_volume 693.148005
_symmetry_space_group_name_H-M "P 2/C"
_symmetry_group_IT_number 13
_symmetry_cell_setting 'monoclinic'
loop_
_space_group_symop_operation_xyz
x,y,z
-x,y,1/2-z
-x,-y,-z
x,-y,1/2+z
loop_
_atom_site_type_symbol
_atom_site_label
_atom_site_fract_x
_atom_site_fract_y
_atom_site_fract_z
Si Si1 0.722420 0.280084 0.161570
Si Si2 0.169892 0.361410 0.997536
Si Si3 0.391243 0.773330 0.423621
Si Si4 0.942905 0.855860 0.583394
Si Si5 0.500000 0.933086 0.750000
O O1 0.773589 0.242434 0.339504
O O2 0.777452 0.447441 0.079769
O O3 0.637813 0.458269 0.136041
O O4 0.690486 0.970034 0.090827
O O5 0.098634 0.576408 0.013171
O O6 0.126836 0.082595 0.900458
O O7 0.438866 0.873116 0.308515
O O8 0.447520 0.745868 0.602886
O O9 0.000000 0.752329 0.750000
O O10 0.000000 0.000000 0.500000
#
# Coordination Sequence:
#
# PCOD8122048 Si02
#       5
#     4   4   4   4   2
#     4  12  24  42  64  92 124 161 204 251 304 360
#     4  12  24  41  64  91 124 161 204 251 304 361
#     4  11  24  41  64  91 124 161 204 251 302 361
#     4  12  24  42  64  91 124 161 204 251 304 361
#     4  10  24  42  64  92 124 162 204 250 304 360
#
# _framework density 25.968478000000001
#
# number of rings (size 3 to 8) (size 9 to 14) (size 15 to 20)
#    0.000    0.444    0.000    9.333    0.000    5.333 
#    0.000    0.000    0.000    0.000    0.000    0.000 
#    0.000    0.000    0.000    0.000    0.000    0.000 
#
# Total GULP energy -223286.054118 kJ/mol
# GULP energy per Si atom -12404.780784 kJ/mol
# Density = 2.590937 g / cm^3
# Si number density = 25.968478 Si / 1000 Ang^3
#
#
#
# Elastic Constant Matrix: (Units=GPa)
#
#
# Indices 1 2 3 4 5 6 
#
# 1 46.1581 -17.1215 21.1866 0.0000 16.4991 0.0000
# 2 -17.1215 96.2667 11.9032 0.0000 27.4906 0.0000
# 3 21.1866 11.9032 132.9203 0.0000 19.9511 0.0000
# 4 0.0000 0.0000 0.0000 17.8302 0.0000 -1.1247
# 5 16.4991 27.4906 19.9511 0.0000 47.0410 0.0000
# 6 0.0000 0.0000 0.0000 -1.1247 0.0000 11.4903
#
#
#
# Elastic Compliance Matrix: (Units=1/GPa)
#
#
# Indices 1 2 3 4 5 6 
#
# 1 0.033553 0.011208 -0.003847 0.000000 -0.016687 0.000000
# 2 0.011208 0.016213 -0.001310 0.000000 -0.012851 0.000000
# 3 -0.003847 -0.001310 0.008476 0.000000 -0.001480 0.000000
# 4 0.000000 0.000000 0.000000 0.056433 0.000000 0.005524
# 5 -0.016687 -0.012851 -0.001480 0.000000 0.035248 0.000000
# 6 0.000000 0.000000 0.000000 0.005524 0.000000 0.087571
#
#
# Mechanical properties :
#
#
# Convention : Reuss Voigt Hill
#
# Bulk Modulus (GPa) = 14.21571 34.14242 24.17907
# Shear Modulus (GPa) = 20.09333 32.56408 26.32871
#
# Velocity S-wave (km/s) = 2.78467 3.54501 3.18759
# Velocity P-wave (km/s) = 3.97810 5.47104 4.78318
#
# Compressibility (1/GPa) = 0.07034469
#
# Stress axis : x y z
#
# Youngs Moduli (GPa) = 29.80390 61.67940 117.98065
#
# Poissons Ratio (x) = -0.69132 0.45389
# Poissons Ratio (y) = -0.33405 0.15451
# Poissons Ratio (z) = 0.11466 0.08077
#
# Static dielectric constant tensor:
#      x y z
#    x 4.826060 0.000000 -1.311550 
#    y 0.000000 4.944630 0.000000 
#    z -1.311550 0.000000 -3.718350 
# 
# 
# High freq. dielectric constant tensor:
#      x y z
#    x 2.063920 0.000000 0.013420 
#    y 0.000000 2.048870 0.000000 
#    z 0.013420 0.000000 2.035490 
# 
# From -- ./inp_files/20283.got.cif
#   From: 2010.06.25/outbox.cif.g09.slc.cpg/sg13_11_cif.got.tgz:20283.got - 2010.06.28 04:50:58.
