data_PCOD8122672
_publ_section_title
;
Structure prediction by ZEFSAII (Michael W. Deem and Ramdas Pophale) SiO2 
 PCOD8122672
Probable space group: P 2/C
;
_chemical_formula_sum "Si O2"
_cell_formula_units_Z 20
_cell_length_a 8.663759
_cell_length_b 8.629642
_cell_length_c 23.877709
_cell_angle_alpha 90.000000
_cell_angle_beta 149.143204
_cell_angle_gamma 90.000000
_cell_volume 915.628884
_symmetry_space_group_name_H-M "P 2/C"
_symmetry_group_IT_number 13
_symmetry_cell_setting 'monoclinic'
loop_
_space_group_symop_operation_xyz
x,y,z
-x,y,1/2-z
-x,-y,-z
x,-y,1/2+z
loop_
_atom_site_type_symbol
_atom_site_label
_atom_site_fract_x
_atom_site_fract_y
_atom_site_fract_z
Si Si1 0.827930 0.130302 0.369966
Si Si2 0.826056 0.656478 0.597998
Si Si3 0.841697 0.213984 0.913502
Si Si4 0.646246 0.595798 0.965791
Si Si5 0.589159 0.520863 0.217094
O O1 0.500000 0.193328 0.250000
O O2 0.037839 0.182955 0.383100
O O3 0.966779 0.200631 0.469916
O O4 0.804160 0.946846 0.369980
O O5 0.616651 0.697961 0.586195
O O6 0.629950 0.575106 0.488088
O O7 0.064679 0.520333 0.688678
O O8 0.515264 0.297178 0.820865
O O9 0.027187 0.322292 0.927345
O O10 0.599136 0.581086 0.885158
O O11 0.500000 0.454546 0.250000
#
# Coordination Sequence:
#
# PCOD8122672 Si02
#       5
#     4   4   4   4   4
#     4  11  24  41  64  95 125 175 215 272 326 385
#     4  11  23  39  64  91 132 164 213 267 322 387
#     4  11  23  41  65  93 132 164 225 265 322 396
#     4  11  23  39  62  97 125 169 211 265 326 380
#     4  12  21  38  68  95 126 170 216 272 316 386
#
# _framework density 21.842911000000001
#
# number of rings (size 3 to 8) (size 9 to 14) (size 15 to 20)
#    0.000    0.800    4.000    4.800    0.000    0.800 
#    0.000    0.000    0.000    0.000    0.000    0.000 
#    0.000    0.000    0.000    0.000    0.000    0.000 
#
# Total GULP energy -247801.628201 kJ/mol
# GULP energy per Si atom -12390.081410 kJ/mol
# Density = 2.179320 g / cm^3
# Si number density = 21.842911 Si / 1000 Ang^3
#
#
#
# Elastic Constant Matrix: (Units=GPa)
#
#
# Indices 1 2 3 4 5 6 
#
# 1 96.2244 46.9059 31.4281 0.0000 5.9709 0.0000
# 2 46.9059 94.2808 22.9856 0.0000 -4.5623 0.0000
# 3 31.4281 22.9856 86.3614 0.0000 -3.1279 0.0000
# 4 0.0000 0.0000 0.0000 33.0939 0.0000 -2.0993
# 5 5.9709 -4.5623 -3.1279 0.0000 35.3761 0.0000
# 6 0.0000 0.0000 0.0000 -2.0993 0.0000 24.8563
#
#
#
# Elastic Compliance Matrix: (Units=1/GPa)
#
#
# Indices 1 2 3 4 5 6 
#
# 1 0.015206 -0.006808 -0.003859 0.000000 -0.003786 0.000000
# 2 -0.006808 0.014441 -0.001261 0.000000 0.002900 0.000000
# 3 -0.003859 -0.001261 0.013380 0.000000 0.001672 0.000000
# 4 0.000000 0.000000 0.000000 0.030380 0.000000 0.002566
# 5 -0.003786 0.002900 0.001672 0.000000 0.029428 0.000000
# 6 0.000000 0.000000 0.000000 0.002566 0.000000 0.040448
#
#
# Mechanical properties :
#
#
# Convention : Reuss Voigt Hill
#
# Bulk Modulus (GPa) = 52.16030 53.27840 52.71935
# Shear Modulus (GPa) = 28.81355 30.36841 29.59098
#
# Velocity S-wave (km/s) = 3.63592 3.73273 3.68464
# Velocity P-wave (km/s) = 6.44656 6.55914 6.50309
#
# Compressibility (1/GPa) = 0.01917167
#
# Stress axis : x y z
#
# Youngs Moduli (GPa) = 65.76300 69.24579 74.73956
#
# Poissons Ratio (x) = 0.47140 0.28841
# Poissons Ratio (y) = 0.44769 0.09426
# Poissons Ratio (z) = 0.25377 0.08733
#
# Static dielectric constant tensor:
#      x y z
#    x 3.888320 0.000000 -0.064570 
#    y 0.000000 3.733430 0.000000 
#    z -0.064570 0.000000 4.198570 
# 
# 
# High freq. dielectric constant tensor:
#      x y z
#    x 1.844580 0.000000 -0.008230 
#    y 0.000000 1.841410 0.000000 
#    z -0.008230 0.000000 1.878900 
# 
# From -- ./inp_files/75849.got.cif
#   From: 2010.06.25/outbox.cif.g09.slc.cpg/sg13_38_cif.got.tgz:75849.got - 2010.06.28 04:50:58.
