data_PCOD8122271
_publ_section_title
;
Structure prediction by ZEFSAII (Michael W. Deem and Ramdas Pophale) SiO2 
 PCOD8122271
Probable space group: P 2/C
;
_chemical_formula_sum "Si O2"
_cell_formula_units_Z 14
_cell_length_a 4.881607
_cell_length_b 12.632602
_cell_length_c 9.458173
_cell_angle_alpha 90.000000
_cell_angle_beta 74.381676
_cell_angle_gamma 90.000000
_cell_volume 561.724895
_symmetry_space_group_name_H-M "P 2/C"
_symmetry_group_IT_number 13
_symmetry_cell_setting 'monoclinic'
loop_
_space_group_symop_operation_xyz
x,y,z
-x,y,1/2-z
-x,-y,-z
x,-y,1/2+z
loop_
_atom_site_type_symbol
_atom_site_label
_atom_site_fract_x
_atom_site_fract_y
_atom_site_fract_z
Si Si1 0.500000 0.908934 0.750000
Si Si2 0.000000 0.496998 0.250000
Si Si3 0.788523 0.363919 0.529867
Si Si4 0.305318 0.779373 0.020325
Si Si5 0.000000 0.051808 0.750000
O O1 0.476699 0.831652 0.619781
O O2 0.784725 0.978438 0.691462
O O3 0.189289 0.566251 0.331331
O O4 0.790768 0.429543 0.381617
O O5 0.486513 0.304726 0.585836
O O6 0.044830 0.280444 0.483354
O O7 0.194682 0.875097 0.128223
#
# Coordination Sequence:
#
# PCOD8122271 Si02
#       5
#     2   2   4   4   2
#     4  12  24  44  70 100 138 180 228 280 340 406
#     4  10  25  45  70 102 138 180 228 283 341 406
#     4  11  25  44  70 101 139 180 228 281 341 405
#     4  12  25  44  70 101 138 180 228 281 340 406
#     4  12  25  43  68 100 138 180 226 281 341 406
#
# _framework density 24.923233
#
# number of rings (size 3 to 8) (size 9 to 14) (size 15 to 20)
#    0.000    0.571    0.000    7.714    0.000   10.286 
#    0.000    0.000    0.000    0.000    0.000    0.000 
#    0.000    0.000    0.000    0.000    0.000    0.000 
#
# Total GULP energy -173647.714651 kJ/mol
# GULP energy per Si atom -12403.408189 kJ/mol
# Density = 2.486651 g / cm^3
# Si number density = 24.923233 Si / 1000 Ang^3
#
#
#
# Elastic Constant Matrix: (Units=GPa)
#
#
# Indices 1 2 3 4 5 6 
#
# 1 104.2613 18.1283 9.9994 0.0000 9.2008 0.0000
# 2 18.1283 91.8711 31.2404 0.0000 12.8494 0.0000
# 3 9.9994 31.2404 127.8950 0.0000 15.7810 0.0000
# 4 0.0000 0.0000 0.0000 22.1379 0.0000 -3.6360
# 5 9.2008 12.8494 15.7810 0.0000 27.5363 0.0000
# 6 0.0000 0.0000 0.0000 -3.6360 0.0000 78.2219
#
#
#
# Elastic Compliance Matrix: (Units=1/GPa)
#
#
# Indices 1 2 3 4 5 6 
#
# 1 0.010106 -0.001606 -0.000079 0.000000 -0.002582 0.000000
# 2 -0.001606 0.012589 -0.002465 0.000000 -0.003925 0.000000
# 3 -0.000079 -0.002465 0.008912 0.000000 -0.003931 0.000000
# 4 0.000000 0.000000 0.000000 0.045519 0.000000 0.002116
# 5 -0.002582 -0.003925 -0.003931 0.000000 0.041263 0.000000
# 6 0.000000 0.000000 0.000000 0.002116 0.000000 0.012882
#
#
# Mechanical properties :
#
#
# Convention : Reuss Voigt Hill
#
# Bulk Modulus (GPa) = 42.90699 49.19597 46.05148
# Shear Modulus (GPa) = 33.93487 43.22318 38.57902
#
# Velocity S-wave (km/s) = 3.69396 4.16895 3.93862
# Velocity P-wave (km/s) = 5.95372 6.55404 6.26108
#
# Compressibility (1/GPa) = 0.02330623
#
# Stress axis : x y z
#
# Youngs Moduli (GPa) = 98.95122 79.43460 112.20462
#
# Poissons Ratio (x) = 0.12758 0.00889
# Poissons Ratio (y) = 0.15893 0.27660
# Poissons Ratio (z) = 0.00784 0.19582
#
# Static dielectric constant tensor:
#      x y z
#    x 4.259490 0.000000 0.132320 
#    y 0.000000 4.929750 0.000000 
#    z 0.132320 0.000000 3.956720 
# 
# 
# High freq. dielectric constant tensor:
#      x y z
#    x 1.993270 0.000000 -0.004890 
#    y 0.000000 2.017790 0.000000 
#    z -0.004890 0.000000 1.998160 
# 
# From -- ./inp_files/8429.got.cif
#   From: 2010.06.25/outbox.cif.g09.slc.cpg/sg13_5_cif.got.tgz:8429.got - 2010.06.28 04:50:58.
