data_PCOD8122762
_publ_section_title
;
Structure prediction by ZEFSAII (Michael W. Deem and Ramdas Pophale) SiO2 
 PCOD8122762
Probable space group: P 2/C
;
_chemical_formula_sum "Si O2"
_cell_formula_units_Z 28
_cell_length_a 8.047763
_cell_length_b 6.844882
_cell_length_c 26.208539
_cell_angle_alpha 90.000000
_cell_angle_beta 67.463445
_cell_angle_gamma 90.000000
_cell_volume 1333.473615
_symmetry_space_group_name_H-M "P 2/C"
_symmetry_group_IT_number 13
_symmetry_cell_setting 'monoclinic'
loop_
_space_group_symop_operation_xyz
x,y,z
-x,y,1/2-z
-x,-y,-z
x,-y,1/2+z
loop_
_atom_site_type_symbol
_atom_site_label
_atom_site_fract_x
_atom_site_fract_y
_atom_site_fract_z
Si Si1 0.939005 0.347353 0.701440
Si Si2 0.791730 0.100533 0.889974
Si Si3 0.801028 0.062972 0.007533
Si Si4 0.850036 0.570067 0.558423
Si Si5 0.027106 0.252120 0.350017
Si Si6 0.671686 0.062472 0.698245
Si Si7 0.593018 0.208733 0.598001
O O1 0.969703 0.578290 0.692647
O O2 0.736171 0.268266 0.716364
O O3 0.000000 0.279178 0.750000
O O4 0.044438 0.237743 0.644257
O O5 0.622016 0.202649 0.882624
O O6 0.777550 0.113550 0.951889
O O7 0.839916 0.873697 0.869897
O O8 0.741959 0.253008 0.045852
O O9 0.666850 0.890776 0.038089
O O10 0.000000 0.000000 0.000000
O O11 0.949525 0.647105 0.597483
O O12 0.692537 0.416997 0.590891
O O13 0.000000 0.500000 0.500000
O O14 0.185715 0.110175 0.314337
O O15 0.500000 0.991480 0.750000
O O16 0.634092 0.085428 0.643141
#
# Coordination Sequence:
#
# PCOD8122762 Si02
#       7
#     4   4   4   4   4   4   4
#     4  11  24  44  67  94 129 176 225 277 336 399
#     4  11  25  42  66  98 137 172 221 282 335 398
#     4  12  21  40  67  95 132 176 219 269 336 408
#     4  12  22  38  69  95 130 177 219 266 337 407
#     4  11  23  44  67  95 131 179 224 271 342 405
#     4  11  24  44  68  95 133 175 222 278 341 400
#     4  12  24  41  65 100 134 171 225 277 336 403
#
# _framework density 20.997790999999999
#
# number of rings (size 3 to 8) (size 9 to 14) (size 15 to 20)
#    0.000    0.571    5.714    3.000    0.000    5.714 
#    2.571    0.000    0.000    0.000    0.000    0.000 
#    0.000    0.000    0.000    0.000    0.000    0.000 
#
# Total GULP energy -347093.857259 kJ/mol
# GULP energy per Si atom -12396.209188 kJ/mol
# Density = 2.095000 g / cm^3
# Si number density = 20.997791 Si / 1000 Ang^3
#
#
#
# Elastic Constant Matrix: (Units=GPa)
#
#
# Indices 1 2 3 4 5 6 
#
# 1 89.4865 27.6776 21.1293 0.0000 -2.7494 0.0000
# 2 27.6776 113.0240 26.5202 0.0000 -7.1257 0.0000
# 3 21.1293 26.5202 97.0218 0.0000 3.3316 0.0000
# 4 0.0000 0.0000 0.0000 33.9607 0.0000 -3.3865
# 5 -2.7494 -7.1257 3.3316 0.0000 36.7522 0.0000
# 6 0.0000 0.0000 0.0000 -3.3865 0.0000 29.1589
#
#
#
# Elastic Compliance Matrix: (Units=1/GPa)
#
#
# Indices 1 2 3 4 5 6 
#
# 1 0.012460 -0.002532 -0.002043 0.000000 0.000626 0.000000
# 2 -0.002532 0.010129 -0.002285 0.000000 0.001982 0.000000
# 3 -0.002043 -0.002285 0.011433 0.000000 -0.001632 0.000000
# 4 0.000000 0.000000 0.000000 0.029791 0.000000 0.003460
# 5 0.000626 0.001982 -0.001632 0.000000 0.027788 0.000000
# 6 0.000000 0.000000 0.000000 0.003460 0.000000 0.034697
#
#
# Mechanical properties :
#
#
# Convention : Reuss Voigt Hill
#
# Bulk Modulus (GPa) = 49.25992 50.02071 49.64031
# Shear Modulus (GPa) = 34.06355 34.92136 34.49246
#
# Velocity S-wave (km/s) = 4.03208 4.08253 4.05738
# Velocity P-wave (km/s) = 6.72216 6.78943 6.75588
#
# Compressibility (1/GPa) = 0.02030048
#
# Stress axis : x y z
#
# Youngs Moduli (GPa) = 80.25879 98.72692 87.46969
#
# Poissons Ratio (x) = 0.25001 0.17868
# Poissons Ratio (y) = 0.20324 0.19989
# Poissons Ratio (z) = 0.16395 0.22561
#
# Static dielectric constant tensor:
#      x y z
#    x 4.100690 0.000000 0.000330 
#    y 0.000000 3.589720 0.000000 
#    z 0.000330 0.000000 3.796100 
# 
# 
# High freq. dielectric constant tensor:
#      x y z
#    x 1.810530 0.000000 0.005500 
#    y 0.000000 1.830750 0.000000 
#    z 0.005500 0.000000 1.835990 
# 
# From -- ./inp_files/95587.got.cif
#   From: 2010.06.25/outbox.cif.g09.slc.cpg/sg13_48_cif.got.tgz:95587.got - 2010.06.28 04:50:58.
