data_PCOD8122579
_publ_section_title
;
Structure prediction by ZEFSAII (Michael W. Deem and Ramdas Pophale) SiO2 
 PCOD8122579
Probable space group: P 2/C
;
_chemical_formula_sum "Si O2"
_cell_formula_units_Z 20
_cell_length_a 4.968027
_cell_length_b 9.978175
_cell_length_c 20.142521
_cell_angle_alpha 90.000000
_cell_angle_beta 110.174046
_cell_angle_gamma 90.000000
_cell_volume 937.243136
_symmetry_space_group_name_H-M "P 2/C"
_symmetry_group_IT_number 13
_symmetry_cell_setting 'monoclinic'
loop_
_space_group_symop_operation_xyz
x,y,z
-x,y,1/2-z
-x,-y,-z
x,-y,1/2+z
loop_
_atom_site_type_symbol
_atom_site_label
_atom_site_fract_x
_atom_site_fract_y
_atom_site_fract_z
Si Si1 0.497680 0.887709 0.056159
Si Si2 0.826011 0.560477 0.896501
Si Si3 0.773600 0.338326 0.176954
Si Si4 0.304799 0.965975 0.797904
Si Si5 0.974978 0.709074 0.038152
O O1 0.187033 0.820077 0.026725
O O2 0.742701 0.778567 0.065170
O O3 0.541298 0.945534 0.133526
O O4 0.500000 0.000000 0.000000
O O5 0.532762 0.594833 0.833065
O O6 0.848321 0.400067 0.904333
O O7 0.107548 0.617370 0.884309
O O8 0.804698 0.632528 0.965789
O O9 0.746878 0.178975 0.174797
O O10 0.000000 0.391287 0.250000
O O11 0.500000 0.954316 0.750000
O O12 0.000000 0.029167 0.750000
#
# Coordination Sequence:
#
# PCOD8122579 Si02
#       5
#     4   4   4   4   4
#     4  12  24  41  65  94 123 162 214 255 301 370
#     4  11  22  41  62  89 125 156 199 257 308 359
#     4  11  22  39  64  91 118 159 207 249 299 362
#     4  11  23  41  63  89 125 163 202 255 312 363
#     4  11  24  40  63  91 123 161 200 253 314 359
#
# _framework density 21.339182000000001
#
# number of rings (size 3 to 8) (size 9 to 14) (size 15 to 20)
#    0.000    0.800    0.000    9.600    0.000    3.200 
#    0.000   10.000    0.000    0.000    0.000    0.000 
#    0.000    0.000    0.000    0.000    0.000    0.000 
#
# Total GULP energy -248142.534239 kJ/mol
# GULP energy per Si atom -12407.126712 kJ/mol
# Density = 2.129061 g / cm^3
# Si number density = 21.339182 Si / 1000 Ang^3
#
#
#
# Elastic Constant Matrix: (Units=GPa)
#
#
# Indices 1 2 3 4 5 6 
#
# 1 104.4245 18.9264 15.0460 0.0000 -0.3445 0.0000
# 2 18.9264 87.4727 43.1212 0.0000 -3.0341 0.0000
# 3 15.0460 43.1212 79.7585 0.0000 1.1679 0.0000
# 4 0.0000 0.0000 0.0000 24.6667 0.0000 -0.3545
# 5 -0.3445 -3.0341 1.1679 0.0000 45.9489 0.0000
# 6 0.0000 0.0000 0.0000 -0.3545 0.0000 27.8709
#
#
#
# Elastic Compliance Matrix: (Units=1/GPa)
#
#
# Indices 1 2 3 4 5 6 
#
# 1 0.010023 -0.001687 -0.000979 0.000000 -0.000011 0.000000
# 2 -0.001687 0.015941 -0.008319 0.000000 0.001251 0.000000
# 3 -0.000979 -0.008319 0.017235 0.000000 -0.000995 0.000000
# 4 0.000000 0.000000 0.000000 0.040548 0.000000 0.000516
# 5 -0.000011 0.001251 -0.000995 0.000000 0.021871 0.000000
# 6 0.000000 0.000000 0.000000 0.000516 0.000000 0.035886
#
#
# Mechanical properties :
#
#
# Convention : Reuss Voigt Hill
#
# Bulk Modulus (GPa) = 47.10173 47.31586 47.20879
# Shear Modulus (GPa) = 29.31703 32.66813 30.99258
#
# Velocity S-wave (km/s) = 3.71058 3.91691 3.81514
# Velocity P-wave (km/s) = 6.36229 6.53281 6.44811
#
# Compressibility (1/GPa) = 0.02123064
#
# Stress axis : x y z
#
# Youngs Moduli (GPa) = 99.77088 62.72990 58.02279
#
# Poissons Ratio (x) = 0.10580 0.05679
# Poissons Ratio (y) = 0.16827 0.48268
# Poissons Ratio (z) = 0.09765 0.52184
#
# Static dielectric constant tensor:
#      x y z
#    x 4.076010 0.000000 0.111760 
#    y 0.000000 3.864520 0.000000 
#    z 0.111760 0.000000 3.894150 
# 
# 
# High freq. dielectric constant tensor:
#      x y z
#    x 1.856290 0.000000 0.000910 
#    y 0.000000 1.834190 0.000000 
#    z 0.000910 0.000000 1.838210 
# 
# From -- ./inp_files/73119.got.cif
#   From: 2010.06.25/outbox.cif.g09.slc.cpg/sg13_37_cif.got.tgz:73119.got - 2010.06.28 04:50:58.
