data_PCOD8122215
_publ_section_title
;
Structure prediction by ZEFSAII (Michael W. Deem and Ramdas Pophale) SiO2 
 PCOD8122215
Probable space group: P 2/C
;
_chemical_formula_sum "Si O2"
_cell_formula_units_Z 20
_cell_length_a 7.158980
_cell_length_b 5.294184
_cell_length_c 24.255869
_cell_angle_alpha 90.000000
_cell_angle_beta 59.981448
_cell_angle_gamma 90.000000
_cell_volume 796.006166
_symmetry_space_group_name_H-M "P 2/C"
_symmetry_group_IT_number 13
_symmetry_cell_setting 'monoclinic'
loop_
_space_group_symop_operation_xyz
x,y,z
-x,y,1/2-z
-x,-y,-z
x,-y,1/2+z
loop_
_atom_site_type_symbol
_atom_site_label
_atom_site_fract_x
_atom_site_fract_y
_atom_site_fract_z
Si Si1 0.063958 0.622220 0.891694
Si Si2 0.848891 0.339610 0.315481
Si Si3 0.498669 0.025591 0.588519
Si Si4 0.825574 0.858776 0.454285
Si Si5 0.494311 0.622644 0.314583
O O1 0.998099 0.538004 0.839849
O O2 0.959405 0.399461 0.944646
O O3 0.325546 0.607637 0.851717
O O4 0.981825 0.904050 0.917239
O O5 0.662264 0.193903 0.372960
O O6 0.738164 0.555077 0.294751
O O7 0.000000 0.181608 0.250000
O O8 0.714994 0.913901 0.529393
O O9 0.363254 0.192428 0.563675
O O10 0.577069 0.158100 0.632886
O O11 0.500000 0.713402 0.250000
#
# Coordination Sequence:
#
# PCOD8122215 Si02
#       5
#     4   4   4   4   4
#     4  11  25  45  74 105 145 184 239 296 366 421
#     4  11  24  46  68 101 145 191 240 300 363 428
#     4  10  25  43  75 101 143 190 243 292 363 430
#     4  10  24  47  74 107 143 189 235 301 359 431
#     4  12  26  43  70 106 142 190 248 294 361 439
#
# _framework density 25.125430000000001
#
# number of rings (size 3 to 8) (size 9 to 14) (size 15 to 20)
#    0.000    1.200    4.000    0.000    5.600    8.800 
#    0.000    0.000    0.000    0.000    0.000    0.000 
#    0.000    0.000    0.000    0.000    0.000    0.000 
#
# Total GULP energy -247840.129776 kJ/mol
# GULP energy per Si atom -12392.006489 kJ/mol
# Density = 2.506824 g / cm^3
# Si number density = 25.125430 Si / 1000 Ang^3
#
#
#
# Elastic Constant Matrix: (Units=GPa)
#
#
# Indices 1 2 3 4 5 6 
#
# 1 56.1057 -1.1662 12.1198 0.0000 0.1624 0.0000
# 2 -1.1662 63.5178 8.6788 0.0000 -0.2231 0.0000
# 3 12.1198 8.6788 147.8840 0.0000 8.7004 0.0000
# 4 0.0000 0.0000 0.0000 41.3423 0.0000 -27.2133
# 5 0.1624 -0.2231 8.7004 0.0000 37.9415 0.0000
# 6 0.0000 0.0000 0.0000 -27.2133 0.0000 72.1496
#
#
#
# Elastic Compliance Matrix: (Units=1/GPa)
#
#
# Indices 1 2 3 4 5 6 
#
# 1 0.018166 0.000545 -0.001537 0.000000 0.000278 0.000000
# 2 0.000545 0.015891 -0.000996 0.000000 0.000320 0.000000
# 3 -0.001537 -0.000996 0.007041 0.000000 -0.001614 0.000000
# 4 0.000000 0.000000 0.000000 0.032177 0.000000 0.012137
# 5 0.000278 0.000320 -0.001614 0.000000 0.026727 0.000000
# 6 0.000000 0.000000 0.000000 0.012137 0.000000 0.018438
#
#
# Mechanical properties :
#
#
# Convention : Reuss Voigt Hill
#
# Bulk Modulus (GPa) = 26.93882 34.08581 30.51231
# Shear Modulus (GPa) = 37.09440 46.81168 41.95304
#
# Velocity S-wave (km/s) = 3.84652 4.32107 4.09068
# Velocity P-wave (km/s) = 5.52020 6.20413 5.87213
#
# Compressibility (1/GPa) = 0.03712116
#
# Stress axis : x y z
#
# Youngs Moduli (GPa) = 55.04772 62.92940 142.01650
#
# Poissons Ratio (x) = -0.03427 0.21829
# Poissons Ratio (y) = -0.02997 0.14145
# Poissons Ratio (z) = 0.08461 0.06268
#
# Static dielectric constant tensor:
#      x y z
#    x 5.611890 0.000000 0.116850 
#    y 0.000000 3.915090 0.000000 
#    z 0.116850 0.000000 4.718100 
# 
# 
# High freq. dielectric constant tensor:
#      x y z
#    x 2.025310 0.000000 -0.000760 
#    y 0.000000 1.962500 0.000000 
#    z -0.000760 0.000000 2.020920 
# 
# From -- ./inp_files/90614.got.cif
#   From: 2010.06.25/outbox.cif.g09.slc.cpg/sg13_46_cif.got.tgz:90614.got - 2010.06.28 04:50:58.
