data_PCOD8122668
_publ_section_title
;
Structure prediction by ZEFSAII (Michael W. Deem and Ramdas Pophale) SiO2 
 PCOD8122668
Probable space group: P 2/C
;
_chemical_formula_sum "Si O2"
_cell_formula_units_Z 22
_cell_length_a 10.759952
_cell_length_b 13.240246
_cell_length_c 10.666167
_cell_angle_alpha 90.000000
_cell_angle_beta 140.988949
_cell_angle_gamma 90.000000
_cell_volume 956.511051
_symmetry_space_group_name_H-M "P 2/C"
_symmetry_group_IT_number 13
_symmetry_cell_setting 'monoclinic'
loop_
_space_group_symop_operation_xyz
x,y,z
-x,y,1/2-z
-x,-y,-z
x,-y,1/2+z
loop_
_atom_site_type_symbol
_atom_site_label
_atom_site_fract_x
_atom_site_fract_y
_atom_site_fract_z
Si Si1 0.767438 0.616574 0.580938
Si Si2 0.221966 0.261312 0.650018
Si Si3 0.520151 0.084224 0.909791
Si Si4 0.222892 0.788773 0.742299
Si Si5 0.500000 0.752687 0.750000
Si Si6 0.224567 0.606367 0.386540
O O1 0.692350 0.688265 0.409333
O O2 0.715507 0.674485 0.669356
O O3 0.675232 0.504654 0.518051
O O4 0.000000 0.607264 0.750000
O O5 0.358260 0.171068 0.805592
O O6 0.230050 0.356823 0.748241
O O7 0.006395 0.209440 0.472466
O O8 0.500000 0.043790 0.750000
O O9 0.735204 0.135064 0.107336
O O10 0.500000 0.000000 0.000000
O O11 0.373306 0.821165 0.747970
O O12 0.333282 0.685157 0.558000
O O13 0.000000 0.601361 0.250000
#
# Coordination Sequence:
#
# PCOD8122668 Si02
#       6
#     4   4   4   4   2   4
#     4   9  22  39  66  99 139 187 233 281 342 419
#     4  11  23  46  72  99 144 189 228 291 356 413
#     4  12  28  49  76 106 138 177 237 302 365 428
#     4  11  24  44  69  99 140 183 233 287 352 418
#     4  12  24  36  62 102 138 186 238 280 334 408
#     4  11  23  38  63 103 146 189 232 286 338 415
#
# _framework density 23.000257999999999
#
# number of rings (size 3 to 8) (size 9 to 14) (size 15 to 20)
#    0.000    1.091    5.455    0.000    3.818    5.091 
#    0.000    0.000    0.000    0.000    0.000    0.000 
#    0.000    0.000    0.000    0.000    0.000    0.000 
#
# Total GULP energy -272624.933507 kJ/mol
# GULP energy per Si atom -12392.042432 kJ/mol
# Density = 2.294791 g / cm^3
# Si number density = 23.000258 Si / 1000 Ang^3
#
#
#
# Elastic Constant Matrix: (Units=GPa)
#
#
# Indices 1 2 3 4 5 6 
#
# 1 97.7952 30.5472 28.2937 0.0000 -15.2821 0.0000
# 2 30.5472 108.1303 51.2305 0.0000 -7.3460 0.0000
# 3 28.2937 51.2305 121.3909 0.0000 -6.1933 0.0000
# 4 0.0000 0.0000 0.0000 32.0204 0.0000 -18.8320
# 5 -15.2821 -7.3460 -6.1933 0.0000 32.8152 0.0000
# 6 0.0000 0.0000 0.0000 -18.8320 0.0000 44.4674
#
#
#
# Elastic Compliance Matrix: (Units=1/GPa)
#
#
# Indices 1 2 3 4 5 6 
#
# 1 0.012180 -0.002355 -0.001598 0.000000 0.004844 0.000000
# 2 -0.002355 0.012107 -0.004522 0.000000 0.000760 0.000000
# 3 -0.001598 -0.004522 0.010531 0.000000 0.000231 0.000000
# 4 0.000000 0.000000 0.000000 0.041589 0.000000 0.017613
# 5 0.004844 0.000760 0.000231 0.000000 0.032943 0.000000
# 6 0.000000 0.000000 0.000000 0.017613 0.000000 0.029947
#
#
# Mechanical properties :
#
#
# Convention : Reuss Voigt Hill
#
# Bulk Modulus (GPa) = 55.96454 60.82881 58.39667
# Shear Modulus (GPa) = 30.82548 36.34360 33.58454
#
# Velocity S-wave (km/s) = 3.66488 3.97941 3.82538
# Velocity P-wave (km/s) = 6.50334 6.90063 6.70493
#
# Compressibility (1/GPa) = 0.01786846
#
# Stress axis : x y z
#
# Youngs Moduli (GPa) = 82.10034 82.59360 94.96175
#
# Poissons Ratio (x) = 0.19449 0.15175
# Poissons Ratio (y) = 0.19333 0.42942
# Poissons Ratio (z) = 0.13120 0.37349
#
# Static dielectric constant tensor:
#      x y z
#    x 4.240300 0.000000 -0.112160 
#    y 0.000000 4.188950 0.000000 
#    z -0.112160 0.000000 4.551980 
# 
# 
# High freq. dielectric constant tensor:
#      x y z
#    x 1.905990 0.000000 -0.006310 
#    y 0.000000 1.894990 0.000000 
#    z -0.006310 0.000000 1.927190 
# 
# From -- ./inp_files/33627.got.cif
#   From: 2010.06.25/outbox.cif.g09.slc.cpg/sg13_17_cif.got.tgz:33627.got - 2010.06.28 04:50:58.
