data_PCOD8122732
_publ_section_title
;
Structure prediction by ZEFSAII (Michael W. Deem and Ramdas Pophale) SiO2 
 PCOD8122732
Probable space group: P 2/C
;
_chemical_formula_sum "Si O2"
_cell_formula_units_Z 20
_cell_length_a 7.768729
_cell_length_b 23.856504
_cell_length_c 9.001247
_cell_angle_alpha 90.000000
_cell_angle_beta 146.112737
_cell_angle_gamma 90.000000
_cell_volume 930.146839
_symmetry_space_group_name_H-M "P 2/C"
_symmetry_group_IT_number 13
_symmetry_cell_setting 'monoclinic'
loop_
_space_group_symop_operation_xyz
x,y,z
-x,y,1/2-z
-x,-y,-z
x,-y,1/2+z
loop_
_atom_site_type_symbol
_atom_site_label
_atom_site_fract_x
_atom_site_fract_y
_atom_site_fract_z
Si Si1 0.398458 0.234229 0.340873
Si Si2 0.150445 0.950291 0.018246
Si Si3 0.221026 0.171190 0.662168
Si Si4 0.637800 0.551924 0.010554
Si Si5 0.647720 0.348282 0.014895
O O1 0.500000 0.251730 0.250000
O O2 0.660506 0.191990 0.592108
O O3 0.371058 0.289389 0.417766
O O4 0.065971 0.205909 0.103086
O O5 0.500000 0.968754 0.250000
O O6 0.125521 0.894015 0.099309
O O7 0.000000 0.939827 0.750000
O O8 0.000000 0.000000 0.000000
O O9 0.500000 0.181118 0.750000
O O10 0.000000 0.544960 0.250000
O O11 0.500000 0.555197 0.750000
O O12 0.500000 0.500000 0.000000
O O13 0.556493 0.607834 0.041024
O O14 0.000000 0.369385 0.250000
O O15 0.500000 0.340040 0.750000
#
# Coordination Sequence:
#
# PCOD8122732 Si02
#       5
#     4   4   4   4   4
#     4  12  25  41  64  96 128 164 211 265 316 373
#     4  11  24  42  65  92 125 163 209 260 316 377
#     4  11  23  43  65  90 125 169 210 255 316 383
#     4  12  25  45  70  99 134 171 217 267 316 374
#     4  12  25  43  67  95 130 173 214 259 318 379
#
# _framework density 21.501978999999999
#
# number of rings (size 3 to 8) (size 9 to 14) (size 15 to 20)
#    0.000    0.400    0.000   10.800    0.000    4.000 
#    0.000    0.000    0.000    0.000    0.000    0.000 
#    0.000    0.000    0.000    0.000    0.000    0.000 
#
# Total GULP energy -248128.949249 kJ/mol
# GULP energy per Si atom -12406.447462 kJ/mol
# Density = 2.145304 g / cm^3
# Si number density = 21.501979 Si / 1000 Ang^3
#
#
#
# Elastic Constant Matrix: (Units=GPa)
#
#
# Indices 1 2 3 4 5 6 
#
# 1 128.8196 87.3456 70.5298 0.0000 4.2200 0.0000
# 2 87.3456 160.2321 83.8518 0.0000 4.8485 0.0000
# 3 70.5298 83.8518 171.6948 0.0000 6.8380 0.0000
# 4 0.0000 0.0000 0.0000 36.2153 0.0000 4.6338
# 5 4.2200 4.8485 6.8380 0.0000 50.5133 0.0000
# 6 0.0000 0.0000 0.0000 4.6338 0.0000 32.7846
#
#
#
# Elastic Compliance Matrix: (Units=1/GPa)
#
#
# Indices 1 2 3 4 5 6 
#
# 1 0.013093 -0.005804 -0.002536 0.000000 -0.000193 0.000000
# 2 -0.005804 0.010960 -0.002962 0.000000 -0.000166 0.000000
# 3 -0.002536 -0.002962 0.008338 0.000000 -0.000633 0.000000
# 4 0.000000 0.000000 0.000000 0.028121 0.000000 -0.003975
# 5 -0.000193 -0.000166 -0.000633 0.000000 0.019915 0.000000
# 6 0.000000 0.000000 0.000000 -0.003975 0.000000 0.031064
#
#
# Mechanical properties :
#
#
# Convention : Reuss Voigt Hill
#
# Bulk Modulus (GPa) = 102.17959 104.91123 103.54541
# Shear Modulus (GPa) = 36.40155 38.50393 37.45274
#
# Velocity S-wave (km/s) = 4.11900 4.23628 4.17805
# Velocity P-wave (km/s) = 8.38127 8.53378 8.45787
#
# Compressibility (1/GPa) = 0.00978669
#
# Stress axis : x y z
#
# Youngs Moduli (GPa) = 76.37484 91.24175 119.93782
#
# Poissons Ratio (x) = 0.52960 0.30418
# Poissons Ratio (y) = 0.44331 0.35521
# Poissons Ratio (z) = 0.19370 0.27022
#
# Static dielectric constant tensor:
#      x y z
#    x 2.217950 0.000000 -1.255870 
#    y 0.000000 4.140190 0.000000 
#    z -1.255870 0.000000 3.306130 
# 
# 
# High freq. dielectric constant tensor:
#      x y z
#    x 1.854750 0.000000 0.002410 
#    y 0.000000 1.858400 0.000000 
#    z 0.002410 0.000000 1.870970 
# 
# From -- ./inp_files/13842.got.cif
#   From: 2010.06.25/outbox.cif.g09.slc.cpg/sg13_7_cif.got.tgz:13842.got - 2010.06.28 04:50:58.
