data_PCOD8122970
_publ_section_title
;
Structure prediction by ZEFSAII (Michael W. Deem and Ramdas Pophale) SiO2 
 PCOD8122970
Probable space group: P 2/C
;
_chemical_formula_sum "Si O2"
_cell_formula_units_Z 32
_cell_length_a 13.375337
_cell_length_b 14.200416
_cell_length_c 18.012244
_cell_angle_alpha 90.000000
_cell_angle_beta 155.286867
_cell_angle_gamma 90.000000
_cell_volume 1430.303291
_symmetry_space_group_name_H-M "P 2/C"
_symmetry_group_IT_number 13
_symmetry_cell_setting 'monoclinic'
loop_
_space_group_symop_operation_xyz
x,y,z
-x,y,1/2-z
-x,-y,-z
x,-y,1/2+z
loop_
_atom_site_type_symbol
_atom_site_label
_atom_site_fract_x
_atom_site_fract_y
_atom_site_fract_z
Si Si1 0.468388 0.701605 0.013708
Si Si2 0.903672 0.926631 0.601844
Si Si3 0.705572 0.271167 0.946432
Si Si4 0.407212 0.098268 0.403122
Si Si5 0.882120 0.606087 0.830237
Si Si6 0.995526 0.712229 0.161634
Si Si7 0.323773 0.881221 0.566795
Si Si8 0.234281 0.560471 0.580609
O O1 0.357812 0.675756 0.019411
O O2 0.753496 0.687025 0.207867
O O3 0.424103 0.812320 0.969195
O O4 0.352746 0.625905 0.878374
O O5 0.728777 0.838375 0.480415
O O6 0.000000 0.944972 0.750000
O O7 0.127317 0.915880 0.696869
O O8 0.746391 0.011910 0.465997
O O9 0.500000 0.292074 0.750000
O O10 0.951656 0.304714 0.075556
O O11 0.546542 0.129595 0.424329
O O12 0.500000 0.000000 0.500000
O O13 0.804347 0.597479 0.862436
O O14 0.035770 0.512641 0.916288
O O15 0.000000 0.685813 0.250000
O O16 0.920650 0.820873 0.099301
O O17 0.784209 0.651423 0.983402
O O18 0.500000 0.845979 0.750000
O O19 0.500000 0.516528 0.750000
#
# Coordination Sequence:
#
# PCOD8122970 Si02
#       8
#     4   4   4   4   4   4   4   4
#     4  12  24  42  72 103 137 190 236 289 359 423
#     4  12  22  41  67  98 136 186 238 293 348 424
#     4  12  24  42  70 103 143 181 236 291 356 424
#     4  12  23  41  70  97 142 191 234 291 351 421
#     4  11  25  48  72 105 142 185 235 296 362 422
#     4  12  25  42  68 102 139 187 237 292 355 427
#     4  12  27  43  66 102 146 188 244 297 356 425
#     4  11  26  47  75 104 144 185 233 299 365 429
#
# _framework density 22.372879000000001
#
# number of rings (size 3 to 8) (size 9 to 14) (size 15 to 20)
#    0.000    0.250    5.000    4.125    1.750    4.000 
#    0.000    0.000    0.000    0.000    0.000    0.000 
#    0.000    0.000    0.000    0.000    0.000    0.000 
#
# Total GULP energy -396835.625348 kJ/mol
# GULP energy per Si atom -12401.113292 kJ/mol
# Density = 2.232196 g / cm^3
# Si number density = 22.372879 Si / 1000 Ang^3
#
#
#
# Elastic Constant Matrix: (Units=GPa)
#
#
# Indices 1 2 3 4 5 6 
#
# 1 106.8956 44.8324 56.0556 0.0000 0.3830 0.0000
# 2 44.8324 93.7459 28.6009 0.0000 -7.6289 0.0000
# 3 56.0556 28.6009 112.9418 0.0000 5.3910 0.0000
# 4 0.0000 0.0000 0.0000 41.7053 0.0000 1.1057
# 5 0.3830 -7.6289 5.3910 0.0000 42.9486 0.0000
# 6 0.0000 0.0000 0.0000 1.1057 0.0000 28.6185
#
#
#
# Elastic Compliance Matrix: (Units=1/GPa)
#
#
# Indices 1 2 3 4 5 6 
#
# 1 0.014662 -0.005225 -0.005939 0.000000 -0.000313 0.000000
# 2 -0.005225 0.013682 -0.000995 0.000000 0.002602 0.000000
# 3 -0.005939 -0.000995 0.012132 0.000000 -0.001647 0.000000
# 4 0.000000 0.000000 0.000000 0.024002 0.000000 -0.000927
# 5 -0.000313 0.002602 -0.001647 0.000000 0.023955 0.000000
# 6 0.000000 0.000000 0.000000 -0.000927 0.000000 0.034978
#
#
# Mechanical properties :
#
#
# Convention : Reuss Voigt Hill
#
# Bulk Modulus (GPa) = 61.89424 63.61788 62.75606
# Shear Modulus (GPa) = 32.65491 34.92744 33.79118
#
# Velocity S-wave (km/s) = 3.82458 3.95543 3.89056
# Velocity P-wave (km/s) = 6.87228 7.02549 6.94931
#
# Compressibility (1/GPa) = 0.01615659
#
# Stress axis : x y z
#
# Youngs Moduli (GPa) = 68.20404 73.09140 82.42438
#
# Poissons Ratio (x) = 0.38194 0.48950
# Poissons Ratio (y) = 0.35640 0.08204
# Poissons Ratio (z) = 0.40505 0.07275
#
# Static dielectric constant tensor:
#      x y z
#    x 4.193710 0.000000 0.131780 
#    y 0.000000 4.029890 0.000000 
#    z 0.131780 0.000000 4.197820 
# 
# 
# High freq. dielectric constant tensor:
#      x y z
#    x 1.884510 0.000000 0.012150 
#    y 0.000000 1.886490 0.000000 
#    z 0.012150 0.000000 1.889290 
# 
# From -- ./inp_files/80402.got.cif
#   From: 2010.06.25/outbox.cif.g09.slc.cpg/sg13_41_cif.got.tgz:80402.got - 2010.06.28 04:50:58.
