data_PCOD8122341
_publ_section_title
;
Structure prediction by ZEFSAII (Michael W. Deem and Ramdas Pophale) SiO2 
 PCOD8122341
Probable space group: P 2/C
;
_chemical_formula_sum "Si O2"
_cell_formula_units_Z 20
_cell_length_a 13.533832
_cell_length_b 5.887408
_cell_length_c 20.744341
_cell_angle_alpha 90.000000
_cell_angle_beta 31.779227
_cell_angle_gamma 90.000000
_cell_volume 870.491808
_symmetry_space_group_name_H-M "P 2/C"
_symmetry_group_IT_number 13
_symmetry_cell_setting 'monoclinic'
loop_
_space_group_symop_operation_xyz
x,y,z
-x,y,1/2-z
-x,-y,-z
x,-y,1/2+z
loop_
_atom_site_type_symbol
_atom_site_label
_atom_site_fract_x
_atom_site_fract_y
_atom_site_fract_z
Si Si1 0.960038 0.802201 0.158844
Si Si2 0.682460 0.897167 0.742343
Si Si3 0.314749 0.418010 0.138859
Si Si4 0.000000 0.124947 0.250000
Si Si5 0.814371 0.561369 0.565869
Si Si6 0.500000 0.795614 0.250000
O O1 0.795146 0.639028 0.275809
O O2 0.872034 0.965980 0.153373
O O3 0.050462 0.959954 0.163095
O O4 0.129917 0.654807 0.035570
O O5 0.621457 0.743610 0.837128
O O6 0.706382 0.748159 0.665793
O O7 0.524169 0.069413 0.804356
O O8 0.181458 0.278879 0.164076
O O9 0.500000 0.500000 0.000000
O O10 0.684328 0.344811 0.629949
O O11 0.000000 0.500000 0.500000
#
# Coordination Sequence:
#
# PCOD8122341 Si02
#       6
#     4   4   4   2   4   2
#     4  11  24  50  74 103 146 190 246 303 358 430
#     4  11  24  47  73 108 143 194 240 299 369 424
#     4  11  25  52  73 106 152 192 244 303 354 436
#     4  10  26  48  74 112 136 204 246 292 372 426
#     4  12  24  49  74 106 149 187 241 307 361 436
#     4  12  26  44  70 120 146 190 240 300 376 436
#
# _framework density 22.975517
#
# number of rings (size 3 to 8) (size 9 to 14) (size 15 to 20)
#    0.000    0.800    4.000    1.800    0.000    3.200 
#   36.000    0.000    0.000    0.000    0.000    0.000 
#    0.000    0.000    0.000    0.000    0.000    0.000 
#
# Total GULP energy -248007.061188 kJ/mol
# GULP energy per Si atom -12400.353059 kJ/mol
# Density = 2.292322 g / cm^3
# Si number density = 22.975517 Si / 1000 Ang^3
#
#
#
# Elastic Constant Matrix: (Units=GPa)
#
#
# Indices 1 2 3 4 5 6 
#
# 1 142.2676 66.5229 67.0707 0.0000 -1.6285 0.0000
# 2 66.5229 133.1716 75.0346 0.0000 -0.5104 0.0000
# 3 67.0707 75.0346 160.8609 0.0000 6.1265 0.0000
# 4 0.0000 0.0000 0.0000 22.2933 0.0000 2.0426
# 5 -1.6285 -0.5104 6.1265 0.0000 28.4811 0.0000
# 6 0.0000 0.0000 0.0000 2.0426 0.0000 55.3330
#
#
#
# Elastic Compliance Matrix: (Units=1/GPa)
#
#
# Indices 1 2 3 4 5 6 
#
# 1 0.009868 -0.003506 -0.002519 0.000000 0.001043 0.000000
# 2 -0.003506 0.011474 -0.003923 0.000000 0.000849 0.000000
# 3 -0.002519 -0.003923 0.009180 0.000000 -0.002189 0.000000
# 4 0.000000 0.000000 0.000000 0.045009 0.000000 -0.001661
# 5 0.001043 0.000849 -0.002189 0.000000 0.035657 0.000000
# 6 0.000000 0.000000 0.000000 -0.001661 0.000000 0.018134
#
#
# Mechanical properties :
#
#
# Convention : Reuss Voigt Hill
#
# Bulk Modulus (GPa) = 94.10132 94.83962 94.47047
# Shear Modulus (GPa) = 32.73166 36.39961 34.56564
#
# Velocity S-wave (km/s) = 3.77852 3.98462 3.88294
# Velocity P-wave (km/s) = 7.75129 7.90808 7.83008
#
# Compressibility (1/GPa) = 0.01062684
#
# Stress axis : x y z
#
# Youngs Moduli (GPa) = 101.34009 87.15446 108.93551
#
# Poissons Ratio (x) = 0.30557 0.27437
# Poissons Ratio (y) = 0.35531 0.42730
# Poissons Ratio (z) = 0.25524 0.34187
#
# Static dielectric constant tensor:
#      x y z
#    x 4.384020 0.000000 0.087980 
#    y 0.000000 4.867970 0.000000 
#    z 0.087980 0.000000 3.503510 
# 
# 
# High freq. dielectric constant tensor:
#      x y z
#    x 1.923830 0.000000 0.001790 
#    y 0.000000 1.935490 0.000000 
#    z 0.001790 0.000000 1.888040 
# 
# From -- ./inp_files/56419.got.cif
#   From: 2010.06.25/outbox.cif.g09.slc.cpg/sg13_29_cif.got.tgz:56419.got - 2010.06.28 04:50:58.
