data_PCOD8122398
_publ_section_title
;
Structure prediction by ZEFSAII (Michael W. Deem and Ramdas Pophale) SiO2 
 PCOD8122398
Probable space group: P 2/C
;
_chemical_formula_sum "Si O2"
_cell_formula_units_Z 24
_cell_length_a 15.423649
_cell_length_b 8.736639
_cell_length_c 8.551858
_cell_angle_alpha 90.000000
_cell_angle_beta 90.814928
_cell_angle_gamma 90.000000
_cell_volume 1152.253604
_symmetry_space_group_name_H-M "P 2/C"
_symmetry_group_IT_number 13
_symmetry_cell_setting 'monoclinic'
loop_
_space_group_symop_operation_xyz
x,y,z
-x,y,1/2-z
-x,-y,-z
x,-y,1/2+z
loop_
_atom_site_type_symbol
_atom_site_label
_atom_site_fract_x
_atom_site_fract_y
_atom_site_fract_z
Si Si1 0.740108 0.785315 0.300674
Si Si2 0.837534 0.468202 0.953192
Si Si3 0.743803 0.091415 0.139169
Si Si4 0.594974 0.284634 0.272657
Si Si5 0.904077 0.706993 0.723588
Si Si6 0.346697 0.435856 0.913766
O O1 0.822314 0.671776 0.329703
O O2 0.716358 0.873326 0.460337
O O3 0.661966 0.679900 0.233973
O O4 0.757380 0.910765 0.166360
O O5 0.872669 0.621787 0.878280
O O6 0.907575 0.415066 0.082677
O O7 0.746694 0.501220 0.035984
O O8 0.668776 0.157261 0.249236
O O9 0.837275 0.159872 0.182687
O O10 0.500000 0.208594 0.250000
O O11 0.603809 0.352016 0.446158
O O12 0.600022 0.418623 0.144144
O O13 0.000000 0.776477 0.750000
#
# Coordination Sequence:
#
# PCOD8122398 Si02
#       6
#     4   4   4   4   4   4
#     4  11  22  39  69  89 122 175 200 255 319 367
#     4  11  19  39  65  90 122 160 212 256 306 360
#     4  11  23  42  60  90 131 163 209 250 318 381
#     4  12  23  39  64  94 127 166 209 259 311 368
#     4  11  22  38  63  92 125 163 208 258 308 367
#     4  12  19  41  65  92 123 163 212 259 308 363
#
# _framework density 20.828748000000001
#
# number of rings (size 3 to 8) (size 9 to 14) (size 15 to 20)
#    0.000    0.667    8.333    2.000    0.000    0.000 
#    0.000    8.333    0.000    0.000    0.000    0.000 
#    0.000    0.000    0.000    0.000    0.000    0.000 
#
# Total GULP energy -297575.121724 kJ/mol
# GULP energy per Si atom -12398.963405 kJ/mol
# Density = 2.078134 g / cm^3
# Si number density = 20.828748 Si / 1000 Ang^3
#
#
#
# Elastic Constant Matrix: (Units=GPa)
#
#
# Indices 1 2 3 4 5 6 
#
# 1 118.2319 17.3260 25.3877 0.0000 8.5032 0.0000
# 2 17.3260 73.9050 11.5868 0.0000 -5.0808 0.0000
# 3 25.3877 11.5868 66.9348 0.0000 8.0006 0.0000
# 4 0.0000 0.0000 0.0000 43.0759 0.0000 7.0617
# 5 8.5032 -5.0808 8.0006 0.0000 24.7040 0.0000
# 6 0.0000 0.0000 0.0000 7.0617 0.0000 11.6513
#
#
#
# Elastic Compliance Matrix: (Units=1/GPa)
#
#
# Indices 1 2 3 4 5 6 
#
# 1 0.009581 -0.001970 -0.002965 0.000000 -0.002742 0.000000
# 2 -0.001970 0.014662 -0.002322 0.000000 0.004446 0.000000
# 3 -0.002965 -0.002322 0.017062 0.000000 -0.004983 0.000000
# 4 0.000000 0.000000 0.000000 0.025776 0.000000 -0.015623
# 5 -0.002742 0.004446 -0.004983 0.000000 0.043951 0.000000
# 6 0.000000 0.000000 0.000000 -0.015623 0.000000 0.095296
#
#
# Mechanical properties :
#
#
# Convention : Reuss Voigt Hill
#
# Bulk Modulus (GPa) = 37.32639 40.85254 39.08946
# Shear Modulus (GPa) = 21.76062 29.53765 25.64914
#
# Velocity S-wave (km/s) = 3.23575 3.76988 3.51298
# Velocity P-wave (km/s) = 5.64975 6.21333 5.93823
#
# Compressibility (1/GPa) = 0.02679070
#
# Stress axis : x y z
#
# Youngs Moduli (GPa) = 104.37851 68.20169 58.60934
#
# Poissons Ratio (x) = 0.13434 0.17378
# Poissons Ratio (y) = 0.20560 0.13612
# Poissons Ratio (z) = 0.30948 0.15839
#
# Static dielectric constant tensor:
#      x y z
#    x 3.555790 0.000000 0.208990 
#    y 0.000000 3.799020 0.000000 
#    z 0.208990 0.000000 4.018600 
# 
# 
# High freq. dielectric constant tensor:
#      x y z
#    x 1.789660 0.000000 0.020770 
#    y 0.000000 1.808600 0.000000 
#    z 0.020770 0.000000 1.829750 
# 
# From -- ./inp_files/18031.got.cif
#   From: 2010.06.25/outbox.cif.g09.slc.cpg/sg13_10_cif.got.tgz:18031.got - 2010.06.28 04:50:58.
