data_PCOD8122248
_publ_section_title
;
Structure prediction by ZEFSAII (Michael W. Deem and Ramdas Pophale) SiO2 
 PCOD8122248
Probable space group: P 2/C
;
_chemical_formula_sum "Si O2"
_cell_formula_units_Z 24
_cell_length_a 8.828084
_cell_length_b 11.132802
_cell_length_c 11.750323
_cell_angle_alpha 90.000000
_cell_angle_beta 107.138604
_cell_angle_gamma 90.000000
_cell_volume 1103.556242
_symmetry_space_group_name_H-M "P 2/C"
_symmetry_group_IT_number 13
_symmetry_cell_setting 'monoclinic'
loop_
_space_group_symop_operation_xyz
x,y,z
-x,y,1/2-z
-x,-y,-z
x,-y,1/2+z
loop_
_atom_site_type_symbol
_atom_site_label
_atom_site_fract_x
_atom_site_fract_y
_atom_site_fract_z
Si Si1 0.782413 0.745410 0.916322
Si Si2 0.678787 0.040420 0.526419
Si Si3 0.184785 0.644763 0.810960
Si Si4 0.151522 0.803015 0.008697
Si Si5 0.657558 0.803009 0.227623
Si Si6 0.648862 0.578176 0.073049
O O1 0.732392 0.710251 0.777378
O O2 0.677638 0.859668 0.927254
O O3 0.744475 0.630658 0.986763
O O4 0.964454 0.784976 0.968441
O O5 0.734419 0.100727 0.657827
O O6 0.500000 0.000000 0.500000
O O7 0.801892 0.936739 0.520560
O O8 0.234926 0.507059 0.830028
O O9 0.000000 0.650719 0.750000
O O10 0.234128 0.712423 0.937789
O O11 0.212544 0.773378 0.148383
O O12 0.500000 0.859264 0.250000
O O13 0.599713 0.684600 0.147441
O O14 0.500000 0.500000 0.000000
#
# Coordination Sequence:
#
# PCOD8122248 Si02
#       6
#     4   4   4   4   4   4
#     4  10  26  47  68 101 135 181 230 281 347 408
#     4  11  24  44  68  99 135 179 226 283 347 403
#     4  10  25  43  70  99 134 179 226 279 342 413
#     4  11  24  45  72 100 137 177 231 284 343 413
#     4  11  24  42  68 101 137 181 227 282 344 407
#     4  11  26  43  68 101 139 183 229 281 348 409
#
# _framework density 21.747872999999998
#
# number of rings (size 3 to 8) (size 9 to 14) (size 15 to 20)
#    0.000    1.333    1.667    1.500   11.667    3.333 
#    3.000    0.000    0.000    0.000    0.000    0.000 
#    0.000    0.000    0.000    0.000    0.000    0.000 
#
# Total GULP energy -297656.168177 kJ/mol
# GULP energy per Si atom -12402.340341 kJ/mol
# Density = 2.169837 g / cm^3
# Si number density = 21.747873 Si / 1000 Ang^3
#
#
#
# Elastic Constant Matrix: (Units=GPa)
#
#
# Indices 1 2 3 4 5 6 
#
# 1 99.7959 61.9319 46.5639 0.0000 -21.1820 0.0000
# 2 61.9319 129.0590 54.3340 0.0000 -7.5726 0.0000
# 3 46.5639 54.3340 140.7255 0.0000 -12.1854 0.0000
# 4 0.0000 0.0000 0.0000 30.4816 0.0000 -3.3713
# 5 -21.1820 -7.5726 -12.1854 0.0000 28.1031 0.0000
# 6 0.0000 0.0000 0.0000 -3.3713 0.0000 43.3411
#
#
#
# Elastic Compliance Matrix: (Units=1/GPa)
#
#
# Indices 1 2 3 4 5 6 
#
# 1 0.017531 -0.006854 -0.002255 0.000000 0.010389 0.000000
# 2 -0.006854 0.011958 -0.002616 0.000000 -0.003078 0.000000
# 3 -0.002255 -0.002616 0.008991 0.000000 0.001494 0.000000
# 4 0.000000 0.000000 0.000000 0.033091 0.000000 0.002574
# 5 0.010389 -0.003078 0.001494 0.000000 0.043232 0.000000
# 6 0.000000 0.000000 0.000000 0.002574 0.000000 0.023273
#
#
# Mechanical properties :
#
#
# Convention : Reuss Voigt Hill
#
# Bulk Modulus (GPa) = 66.52600 77.24890 71.88745
# Shear Modulus (GPa) = 30.02346 34.16852 32.09599
#
# Velocity S-wave (km/s) = 3.71957 3.96804 3.84581
# Velocity P-wave (km/s) = 7.00735 7.52270 7.26960
#
# Compressibility (1/GPa) = 0.01503172
#
# Stress axis : x y z
#
# Youngs Moduli (GPa) = 57.04169 83.62660 111.21687
#
# Poissons Ratio (x) = 0.57316 0.25079
# Poissons Ratio (y) = 0.39095 0.29090
# Poissons Ratio (z) = 0.12863 0.21874
#
# Static dielectric constant tensor:
#      x y z
#    x 3.917550 0.000000 -0.341420 
#    y 0.000000 4.299150 0.000000 
#    z -0.341420 0.000000 4.235310 
# 
# 
# High freq. dielectric constant tensor:
#      x y z
#    x 1.856770 0.000000 -0.015690 
#    y 0.000000 1.864190 0.000000 
#    z -0.015690 0.000000 1.863970 
# 
# From -- ./inp_files/29332.got.cif
#   From: 2010.06.25/outbox.cif.g09.slc.cpg/sg13_15_cif.got.tgz:29332.got - 2010.06.28 04:50:58.
