data_PCOD8122699
_publ_section_title
;
Structure prediction by ZEFSAII (Michael W. Deem and Ramdas Pophale) SiO2 
 PCOD8122699
Probable space group: P 2/C
;
_chemical_formula_sum "Si O2"
_cell_formula_units_Z 24
_cell_length_a 10.778959
_cell_length_b 11.999737
_cell_length_c 9.120109
_cell_angle_alpha 90.000000
_cell_angle_beta 96.264077
_cell_angle_gamma 90.000000
_cell_volume 1172.594563
_symmetry_space_group_name_H-M "P 2/C"
_symmetry_group_IT_number 13
_symmetry_cell_setting 'monoclinic'
loop_
_space_group_symop_operation_xyz
x,y,z
-x,y,1/2-z
-x,-y,-z
x,-y,1/2+z
loop_
_atom_site_type_symbol
_atom_site_label
_atom_site_fract_x
_atom_site_fract_y
_atom_site_fract_z
Si Si1 0.507724 0.618857 0.425530
Si Si2 0.164065 0.936302 0.628393
Si Si3 0.278755 0.721684 0.553609
Si Si4 0.881452 0.128425 0.067623
Si Si5 0.749850 0.653908 0.622538
Si Si6 0.912354 0.557521 0.104916
O O1 0.500000 0.607741 0.250000
O O2 0.500000 0.500000 0.500000
O O3 0.398294 0.698447 0.469068
O O4 0.640226 0.668770 0.490155
O O5 0.261065 0.855149 0.557885
O O6 0.182735 0.935517 0.804515
O O7 0.028723 0.884485 0.577709
O O8 0.178842 0.064518 0.579213
O O9 0.300588 0.678124 0.721558
O O10 0.155328 0.665426 0.469128
O O11 0.854008 0.259674 0.077070
O O12 0.805877 0.530191 0.638299
O O13 0.000000 0.595929 0.250000
O O14 0.000000 0.500000 0.000000
#
# Coordination Sequence:
#
# PCOD8122699 Si02
#       6
#     4   4   4   4   4   4
#     4  12  26  42  61  87 120 163 209 251 299 360
#     4   9  19  38  60  91 123 158 197 248 300 362
#     4  11  23  42  62  88 123 161 205 248 303 359
#     4   9  19  37  62  89 124 158 197 245 305 357
#     4  11  23  41  64  86 124 164 201 250 304 358
#     4  12  24  37  58  91 124 157 195 245 303 363
#
# _framework density 20.467431000000001
#
# number of rings (size 3 to 8) (size 9 to 14) (size 15 to 20)
#    0.000    1.333    3.333    2.500    4.667    1.333 
#    6.000    0.833    0.000    0.000    0.000    0.000 
#    0.000    0.000    0.000    0.000    0.000    0.000 
#
# Total GULP energy -297582.584203 kJ/mol
# GULP energy per Si atom -12399.274342 kJ/mol
# Density = 2.042085 g / cm^3
# Si number density = 20.467431 Si / 1000 Ang^3
#
#
#
# Elastic Constant Matrix: (Units=GPa)
#
#
# Indices 1 2 3 4 5 6 
#
# 1 75.9082 -0.4538 29.8111 0.0000 2.6570 0.0000
# 2 -0.4538 49.9449 13.8585 0.0000 -5.3929 0.0000
# 3 29.8111 13.8585 116.2443 0.0000 12.4204 0.0000
# 4 0.0000 0.0000 0.0000 30.0359 0.0000 -1.6162
# 5 2.6570 -5.3929 12.4204 0.0000 39.3265 0.0000
# 6 0.0000 0.0000 0.0000 -1.6162 0.0000 22.9909
#
#
#
# Elastic Compliance Matrix: (Units=1/GPa)
#
#
# Indices 1 2 3 4 5 6 
#
# 1 0.014728 0.001284 -0.003977 0.000000 0.000437 0.000000
# 2 0.001284 0.021366 -0.003292 0.000000 0.003883 0.000000
# 3 -0.003977 -0.003292 0.010385 0.000000 -0.003462 0.000000
# 4 0.000000 0.000000 0.000000 0.033420 0.000000 0.002349
# 5 0.000437 0.003883 -0.003462 0.000000 0.027025 0.000000
# 6 0.000000 0.000000 0.000000 0.002349 0.000000 0.043661
#
#
# Mechanical properties :
#
#
# Convention : Reuss Voigt Hill
#
# Bulk Modulus (GPa) = 28.97602 36.50323 32.73963
# Shear Modulus (GPa) = 28.72642 31.72943 30.22792
#
# Velocity S-wave (km/s) = 3.75042 3.94158 3.84719
# Velocity P-wave (km/s) = 5.73952 6.21194 5.98040
#
# Compressibility (1/GPa) = 0.03451130
#
# Stress axis : x y z
#
# Youngs Moduli (GPa) = 67.89782 46.80273 96.29442
#
# Poissons Ratio (x) = -0.06012 0.38295
# Poissons Ratio (y) = -0.08721 0.31696
# Poissons Ratio (z) = 0.27002 0.15405
#
# Static dielectric constant tensor:
#      x y z
#    x 3.758290 0.000000 0.030130 
#    y 0.000000 3.722060 0.000000 
#    z 0.030130 0.000000 3.847040 
# 
# 
# High freq. dielectric constant tensor:
#      x y z
#    x 1.788740 0.000000 -0.003580 
#    y 0.000000 1.790140 0.000000 
#    z -0.003580 0.000000 1.809620 
# 
# From -- ./inp_files/15891.got.cif
#   From: 2010.06.25/outbox.cif.g09.slc.cpg/sg13_8_cif.got.tgz:15891.got - 2010.06.28 04:50:58.
