data_PCOD8122447
_publ_section_title
;
Structure prediction by ZEFSAII (Michael W. Deem and Ramdas Pophale) SiO2 
 PCOD8122447
Probable space group: P 2/C
;
_chemical_formula_sum "Si O2"
_cell_formula_units_Z 24
_cell_length_a 16.643137
_cell_length_b 11.581620
_cell_length_c 11.705518
_cell_angle_alpha 90.000000
_cell_angle_beta 34.282779
_cell_angle_gamma 90.000000
_cell_volume 1270.918545
_symmetry_space_group_name_H-M "P 2/C"
_symmetry_group_IT_number 13
_symmetry_cell_setting 'monoclinic'
loop_
_space_group_symop_operation_xyz
x,y,z
-x,y,1/2-z
-x,-y,-z
x,-y,1/2+z
loop_
_atom_site_type_symbol
_atom_site_label
_atom_site_fract_x
_atom_site_fract_y
_atom_site_fract_z
Si Si1 0.343757 0.681532 0.474579
Si Si2 0.337095 0.586960 0.934781
Si Si3 0.614623 0.266026 0.319219
Si Si4 0.344524 0.940676 0.896275
Si Si5 0.709773 0.230100 0.843417
Si Si6 0.163830 0.840168 0.536128
O O1 0.500000 0.720330 0.250000
O O2 0.322266 0.545919 0.480184
O O3 0.321655 0.722550 0.629748
O O4 0.216995 0.737194 0.552836
O O5 0.500000 0.633367 0.750000
O O6 0.308243 0.625840 0.837693
O O7 0.241712 0.658723 0.137984
O O8 0.656617 0.146919 0.208779
O O9 0.442986 0.265456 0.530836
O O10 0.500000 0.987212 0.750000
O O11 0.285880 0.880448 0.079068
O O12 0.250725 0.046155 0.965118
O O13 0.818501 0.200493 0.615172
O O14 0.000000 0.866543 0.750000
#
# Coordination Sequence:
#
# PCOD8122447 Si02
#       6
#     4   4   4   4   4   4
#     4  11  21  34  62  89 113 146 187 228 281 329
#     4   8  18  33  60  91 113 143 178 235 286 326
#     4   9  18  36  60  91 113 137 188 236 280 333
#     4   9  21  39  62  82 108 150 187 233 285 329
#     4   9  19  38  59  83 117 143 183 236 282 328
#     4  12  26  38  53  82 118 151 190 233 276 329
#
# _framework density 18.883979
#
# number of rings (size 3 to 8) (size 9 to 14) (size 15 to 20)
#    0.000    2.333    1.667    2.500    4.667    4.000 
#    0.000    0.833    0.000    0.000    0.000    0.000 
#    0.000    0.000    0.000    0.000    0.000    0.000 
#
# Total GULP energy -297405.945701 kJ/mol
# GULP energy per Si atom -12391.914404 kJ/mol
# Density = 1.884100 g / cm^3
# Si number density = 18.883979 Si / 1000 Ang^3
#
#
#
# Elastic Constant Matrix: (Units=GPa)
#
#
# Indices 1 2 3 4 5 6 
#
# 1 89.2376 41.9035 63.4182 0.0000 27.0471 0.0000
# 2 41.9035 88.5752 54.4928 0.0000 6.1065 0.0000
# 3 63.4182 54.4928 107.3107 0.0000 20.4799 0.0000
# 4 0.0000 0.0000 0.0000 9.5688 0.0000 10.5741
# 5 27.0471 6.1065 20.4799 0.0000 34.0451 0.0000
# 6 0.0000 0.0000 0.0000 10.5741 0.0000 6.5337
#
#
#
# Elastic Compliance Matrix: (Units=1/GPa)
#
#
# Indices 1 2 3 4 5 6 
#
# 1 0.023794 -0.004668 -0.009312 0.000000 -0.012464 0.000000
# 2 -0.004668 0.017502 -0.007046 0.000000 0.004808 0.000000
# 3 -0.009312 -0.007046 0.018919 0.000000 -0.002719 0.000000
# 4 0.000000 0.000000 0.000000 -0.132548 0.000000 0.214516
# 5 -0.012464 0.004808 -0.002719 0.000000 0.040048 0.000000
# 6 0.000000 0.000000 0.000000 0.214516 0.000000 -0.194121
#
#
# Mechanical properties :
#
#
# Convention : Reuss Voigt Hill
#
# Bulk Modulus (GPa) = 55.06301 67.19473 61.12887
# Shear Modulus (GPa) = -28.04270 18.38344 -4.82963
#
# Velocity S-wave (km/s) = -3.85775 3.12347 -1.60096
# Velocity P-wave (km/s) = 3.06250 6.97627 5.38735
#
# Compressibility (1/GPa) = 0.01816101
#
# Stress axis : x y z
#
# Youngs Moduli (GPa) = 42.02807 57.13714 52.85621
#
# Poissons Ratio (x) = 0.26671 0.49222
# Poissons Ratio (y) = 0.19618 0.37245
# Poissons Ratio (z) = 0.39138 0.40261
#
# Static dielectric constant tensor:
#      x y z
#    x 3.409730 0.000000 0.330490 
#    y 0.000000 3.422510 0.000000 
#    z 0.330490 0.000000 3.292290 
# 
# 
# High freq. dielectric constant tensor:
#      x y z
#    x 1.723590 0.000000 0.039460 
#    y 0.000000 1.743800 0.000000 
#    z 0.039460 0.000000 1.706400 
# 
# From -- ./inp_files/29432.got.cif
#   From: 2010.06.25/outbox.cif.g09.slc.cpg/sg13_15_cif.got.tgz:29432.got - 2010.06.28 04:50:58.
