data_PCOD8122928
_publ_section_title
;
Structure prediction by ZEFSAII (Michael W. Deem and Ramdas Pophale) SiO2 
 PCOD8122928
Probable space group: P 2/C
;
_chemical_formula_sum "Si O2"
_cell_formula_units_Z 20
_cell_length_a 7.840801
_cell_length_b 12.111773
_cell_length_c 9.189920
_cell_angle_alpha 90.000000
_cell_angle_beta 82.085993
_cell_angle_gamma 90.000000
_cell_volume 864.417934
_symmetry_space_group_name_H-M "P 2/C"
_symmetry_group_IT_number 13
_symmetry_cell_setting 'monoclinic'
loop_
_space_group_symop_operation_xyz
x,y,z
-x,y,1/2-z
-x,-y,-z
x,-y,1/2+z
loop_
_atom_site_type_symbol
_atom_site_label
_atom_site_fract_x
_atom_site_fract_y
_atom_site_fract_z
Si Si1 0.676969 0.614295 0.307064
Si Si2 0.915482 0.190453 0.114377
Si Si3 0.320980 0.604057 0.850142
Si Si4 0.623411 0.977257 0.617634
Si Si5 0.850704 0.174294 0.675055
O O1 0.500000 0.647050 0.250000
O O2 0.648447 0.588423 0.480792
O O3 0.753341 0.507759 0.214040
O O4 0.801919 0.718277 0.275421
O O5 0.819308 0.303080 0.164559
O O6 0.000000 0.140437 0.250000
O O7 0.781845 0.102706 0.059468
O O8 0.073987 0.212082 0.988432
O O9 0.500000 0.635051 0.750000
O O10 0.500000 0.918697 0.750000
O O11 0.690807 0.093303 0.672538
O O12 0.500000 0.000000 0.500000
O O13 0.000000 0.112934 0.750000
#
# Coordination Sequence:
#
# PCOD8122928 Si02
#       5
#     4   4   4   4   4
#     4  11  25  44  74 104 141 191 234 288 344 418
#     4  12  27  44  69 106 145 182 228 295 357 413
#     4  11  25  46  72 104 144 186 240 284 344 419
#     4  12  26  47  75 101 136 186 240 287 346 425
#     4  12  25  46  71 105 145 181 229 290 360 415
#
# _framework density 23.136956000000001
#
# number of rings (size 3 to 8) (size 9 to 14) (size 15 to 20)
#    0.000    0.400    2.000    7.200    8.400    1.600 
#    0.000    0.000    0.000    0.000    0.000    0.000 
#    0.000    0.000    0.000    0.000    0.000    0.000 
#
# Total GULP energy -248047.841756 kJ/mol
# GULP energy per Si atom -12402.392088 kJ/mol
# Density = 2.308430 g / cm^3
# Si number density = 23.136956 Si / 1000 Ang^3
#
#
#
# Elastic Constant Matrix: (Units=GPa)
#
#
# Indices 1 2 3 4 5 6 
#
# 1 98.5030 38.1205 38.0337 0.0000 20.6221 0.0000
# 2 38.1205 109.6996 21.1267 0.0000 -1.8272 0.0000
# 3 38.0337 21.1267 163.4443 0.0000 7.3698 0.0000
# 4 0.0000 0.0000 0.0000 30.5338 0.0000 1.1702
# 5 20.6221 -1.8272 7.3698 0.0000 55.2880 0.0000
# 6 0.0000 0.0000 0.0000 1.1702 0.0000 24.1421
#
#
#
# Elastic Compliance Matrix: (Units=1/GPa)
#
#
# Indices 1 2 3 4 5 6 
#
# 1 0.013846 -0.004428 -0.002425 0.000000 -0.004988 0.000000
# 2 -0.004428 0.010777 -0.000456 0.000000 0.002068 0.000000
# 3 -0.002425 -0.000456 0.006742 0.000000 -0.000009 0.000000
# 4 0.000000 0.000000 0.000000 0.032812 0.000000 -0.001590
# 5 -0.004988 0.002068 -0.000009 0.000000 0.020017 0.000000
# 6 0.000000 0.000000 0.000000 -0.001590 0.000000 0.041499
#
#
# Mechanical properties :
#
#
# Convention : Reuss Voigt Hill
#
# Bulk Modulus (GPa) = 59.70897 62.91207 61.31052
# Shear Modulus (GPa) = 34.27227 40.28384 37.27805
#
# Velocity S-wave (km/s) = 3.85291 4.17718 4.01832
# Velocity P-wave (km/s) = 6.75692 7.10741 6.93438
#
# Compressibility (1/GPa) = 0.01674790
#
# Stress axis : x y z
#
# Youngs Moduli (GPa) = 72.22401 92.79345 148.32632
#
# Poissons Ratio (x) = 0.41084 0.35965
# Poissons Ratio (y) = 0.31977 0.06763
# Poissons Ratio (z) = 0.17513 0.04231
#
# Static dielectric constant tensor:
#      x y z
#    x 4.220170 0.000000 -0.107540 
#    y 0.000000 4.096520 0.000000 
#    z -0.107540 0.000000 4.412340 
# 
# 
# High freq. dielectric constant tensor:
#      x y z
#    x 1.923510 0.000000 0.001430 
#    y 0.000000 1.912370 0.000000 
#    z 0.001430 0.000000 1.934440 
# 
# From -- ./inp_files/11696.got.cif
#   From: 2010.06.25/outbox.cif.g09.slc.cpg/sg13_6_cif.got.tgz:11696.got - 2010.06.28 04:50:58.
