data_PCOD8122308
_publ_section_title
;
Structure prediction by ZEFSAII (Michael W. Deem and Ramdas Pophale) SiO2 
 PCOD8122308
Probable space group: P 2/C
;
_chemical_formula_sum "Si O2"
_cell_formula_units_Z 20
_cell_length_a 10.940782
_cell_length_b 4.970419
_cell_length_c 15.698380
_cell_angle_alpha 90.000000
_cell_angle_beta 113.840010
_cell_angle_gamma 90.000000
_cell_volume 780.843984
_symmetry_space_group_name_H-M "P 2/C"
_symmetry_group_IT_number 13
_symmetry_cell_setting 'monoclinic'
loop_
_space_group_symop_operation_xyz
x,y,z
-x,y,1/2-z
-x,-y,-z
x,-y,1/2+z
loop_
_atom_site_type_symbol
_atom_site_label
_atom_site_fract_x
_atom_site_fract_y
_atom_site_fract_z
Si Si1 0.677993 0.544270 0.677372
Si Si2 0.211201 0.040220 0.524952
Si Si3 0.852182 0.457978 0.389404
Si Si4 0.087545 0.302376 0.854905
Si Si5 0.490632 0.045712 0.848558
O O1 0.737621 0.500163 0.787901
O O2 0.791812 0.497197 0.639121
O O3 0.621566 0.841922 0.647839
O O4 0.554559 0.340320 0.634830
O O5 0.144031 0.849862 0.578441
O O6 0.146889 0.964780 0.415826
O O7 0.369243 0.982049 0.567165
O O8 0.183039 0.348800 0.540959
O O9 0.998055 0.526512 0.394908
O O10 0.000000 0.200688 0.750000
O O11 0.500000 0.015200 0.750000
#
# Coordination Sequence:
#
# PCOD8122308 Si02
#       5
#     4   4   4   4   4
#     4  11  23  42  66  97 131 169 204 269 322 371
#     4  12  24  41  70  96 126 173 214 261 314 381
#     4  11  22  43  68  95 128 169 217 259 313 383
#     4  10  26  45  65  95 133 168 215 267 321 372
#     4  12  22  40  69  97 130 163 217 260 316 385
#
# _framework density 25.613309000000001
#
# number of rings (size 3 to 8) (size 9 to 14) (size 15 to 20)
#    0.000    0.800    4.000    3.000    0.000    4.800 
#    0.000    9.000    0.000    0.000    0.000    0.000 
#    0.000    0.000    0.000    0.000    0.000    0.000 
#
# Total GULP energy -248186.112991 kJ/mol
# GULP energy per Si atom -12409.305650 kJ/mol
# Density = 2.555501 g / cm^3
# Si number density = 25.613309 Si / 1000 Ang^3
#
#
#
# Elastic Constant Matrix: (Units=GPa)
#
#
# Indices 1 2 3 4 5 6 
#
# 1 120.6404 8.5750 41.4477 0.0000 8.2241 0.0000
# 2 8.5750 76.6021 -10.0512 0.0000 -1.8863 0.0000
# 3 41.4477 -10.0512 57.4826 0.0000 20.1632 0.0000
# 4 0.0000 0.0000 0.0000 19.6608 0.0000 10.2179
# 5 8.2241 -1.8863 20.1632 0.0000 35.0631 0.0000
# 6 0.0000 0.0000 0.0000 10.2179 0.0000 15.1442
#
#
#
# Elastic Compliance Matrix: (Units=1/GPa)
#
#
# Indices 1 2 3 4 5 6 
#
# 1 0.011652 -0.002524 -0.009817 0.000000 0.002776 0.000000
# 2 -0.002524 0.013925 0.004741 0.000000 -0.001385 0.000000
# 3 -0.009817 0.004741 0.030574 0.000000 -0.015024 0.000000
# 4 0.000000 0.000000 0.000000 0.078329 0.000000 -0.052849
# 5 0.002776 -0.001385 -0.015024 0.000000 0.036434 0.000000
# 6 0.000000 0.000000 0.000000 -0.052849 0.000000 0.101689
#
#
# Mechanical properties :
#
#
# Convention : Reuss Voigt Hill
#
# Bulk Modulus (GPa) = 24.41984 37.18534 30.80259
# Shear Modulus (GPa) = 16.58632 28.29054 22.43843
#
# Velocity S-wave (km/s) = 2.54749 3.32705 2.96302
# Velocity P-wave (km/s) = 4.26705 5.41373 4.87423
#
# Compressibility (1/GPa) = 0.04095031
#
# Stress axis : x y z
#
# Youngs Moduli (GPa) = 85.82255 71.81357 32.70755
#
# Poissons Ratio (x) = 0.18126 0.32109
# Poissons Ratio (y) = 0.21662 -0.15506
# Poissons Ratio (z) = 0.84251 -0.34044
#
# Static dielectric constant tensor:
#      x y z
#    x 4.726760 0.000000 0.161770 
#    y 0.000000 4.308200 0.000000 
#    z 0.161770 0.000000 4.739090 
# 
# 
# High freq. dielectric constant tensor:
#      x y z
#    x 2.039070 0.000000 0.012310 
#    y 0.000000 2.018610 0.000000 
#    z 0.012310 0.000000 2.030340 
# 
# From -- ./inp_files/65048.got.cif
#   From: 2010.06.25/outbox.cif.g09.slc.cpg/sg13_33_cif.got.tgz:65048.got - 2010.06.28 04:50:58.
