data_PCOD8122907
_publ_section_title
;
Structure prediction by ZEFSAII (Michael W. Deem and Ramdas Pophale) SiO2 
 PCOD8122907
Probable space group: P 2/C
;
_chemical_formula_sum "Si O2"
_cell_formula_units_Z 18
_cell_length_a 7.921357
_cell_length_b 7.477916
_cell_length_c 14.076060
_cell_angle_alpha 90.000000
_cell_angle_beta 101.488920
_cell_angle_gamma 90.000000
_cell_volume 817.092198
_symmetry_space_group_name_H-M "P 2/C"
_symmetry_group_IT_number 13
_symmetry_cell_setting 'monoclinic'
loop_
_space_group_symop_operation_xyz
x,y,z
-x,y,1/2-z
-x,-y,-z
x,-y,1/2+z
loop_
_atom_site_type_symbol
_atom_site_label
_atom_site_fract_x
_atom_site_fract_y
_atom_site_fract_z
Si Si1 0.000000 0.786484 0.250000
Si Si2 0.319985 0.999582 0.361887
Si Si3 0.709375 0.074010 0.925382
Si Si4 0.174747 0.216918 0.207320
Si Si5 0.884043 0.431768 0.902821
O O1 0.178779 0.895788 0.280281
O O2 0.991720 0.660612 0.158211
O O3 0.509693 0.922054 0.374308
O O4 0.259575 0.009929 0.463377
O O5 0.323093 0.189084 0.304780
O O6 0.752860 0.283214 0.925557
O O7 0.824736 0.943059 0.872744
O O8 0.212591 0.401422 0.157326
O O9 0.000000 0.214535 0.250000
O O10 0.000000 0.500000 0.000000
#
# Coordination Sequence:
#
# PCOD8122907 Si02
#       5
#     2   4   4   4   4
#     4  12  24  44  76 102 142 188 238 286 360 420
#     4  11  24  48  73 102 144 190 235 296 355 424
#     4  11  26  48  72 104 146 186 236 296 359 417
#     4  12  23  44  71 105 139 189 236 287 351 427
#     4  12  26  43  71 107 141 185 235 293 355 421
#
# _framework density 22.029337999999999
#
# number of rings (size 3 to 8) (size 9 to 14) (size 15 to 20)
#    0.000    0.444    4.444    3.333    0.000    2.667 
#    8.000    3.333    0.000    0.000    0.000    0.000 
#    0.000    0.000    0.000    0.000    0.000    0.000 
#
# Total GULP energy -223005.184200 kJ/mol
# GULP energy per Si atom -12389.176900 kJ/mol
# Density = 2.197920 g / cm^3
# Si number density = 22.029338 Si / 1000 Ang^3
#
#
#
# Elastic Constant Matrix: (Units=GPa)
#
#
# Indices 1 2 3 4 5 6 
#
# 1 102.1940 64.2244 53.6480 0.0000 1.6960 0.0000
# 2 64.2244 150.6152 50.6583 0.0000 4.9935 0.0000
# 3 53.6480 50.6583 112.1027 0.0000 -1.9037 0.0000
# 4 0.0000 0.0000 0.0000 41.7623 0.0000 -2.2265
# 5 1.6960 4.9935 -1.9037 0.0000 35.9473 0.0000
# 6 0.0000 0.0000 0.0000 -2.2265 0.0000 25.3152
#
#
#
# Elastic Compliance Matrix: (Units=1/GPa)
#
#
# Indices 1 2 3 4 5 6 
#
# 1 0.015628 -0.004876 -0.005281 0.000000 -0.000340 0.000000
# 2 -0.004876 0.009410 -0.001939 0.000000 -0.001180 0.000000
# 3 -0.005281 -0.001939 0.012344 0.000000 0.001172 0.000000
# 4 0.000000 0.000000 0.000000 0.024058 0.000000 0.002116
# 5 -0.000340 -0.001180 0.001172 0.000000 0.028060 0.000000
# 6 0.000000 0.000000 0.000000 0.002116 0.000000 0.039688
#
#
# Mechanical properties :
#
#
# Convention : Reuss Voigt Hill
#
# Bulk Modulus (GPa) = 75.81928 77.99704 76.90816
# Shear Modulus (GPa) = 31.69032 33.69702 32.69367
#
# Velocity S-wave (km/s) = 3.79694 3.91531 3.85658
# Velocity P-wave (km/s) = 7.32901 7.47813 7.40395
#
# Compressibility (1/GPa) = 0.01318926
#
# Stress axis : x y z
#
# Youngs Moduli (GPa) = 63.98783 106.26990 81.01314
#
# Poissons Ratio (x) = 0.51822 0.42784
# Poissons Ratio (y) = 0.31204 0.15706
# Poissons Ratio (z) = 0.33792 0.20602
#
# Static dielectric constant tensor:
#      x y z
#    x 4.526770 0.000000 0.778470 
#    y 0.000000 4.323870 0.000000 
#    z 0.778470 0.000000 5.689360 
# 
# 
# High freq. dielectric constant tensor:
#      x y z
#    x 1.853210 0.000000 -0.016570 
#    y 0.000000 1.866010 0.000000 
#    z -0.016570 0.000000 1.903100 
# 
# From -- ./inp_files/45603.got.cif
#   From: 2010.06.25/outbox.cif.g09.slc.cpg/sg13_23_cif.got.tgz:45603.got - 2010.06.28 04:50:58.
