data_PCOD8122932
_publ_section_title
;
Structure prediction by ZEFSAII (Michael W. Deem and Ramdas Pophale) SiO2 
 PCOD8122932
Probable space group: P 2/C
;
_chemical_formula_sum "Si O2"
_cell_formula_units_Z 18
_cell_length_a 21.268787
_cell_length_b 8.131055
_cell_length_c 15.354942
_cell_angle_alpha 90.000000
_cell_angle_beta 161.827087
_cell_angle_gamma 90.000000
_cell_volume 828.196463
_symmetry_space_group_name_H-M "P 2/C"
_symmetry_group_IT_number 13
_symmetry_cell_setting 'monoclinic'
loop_
_space_group_symop_operation_xyz
x,y,z
-x,y,1/2-z
-x,-y,-z
x,-y,1/2+z
loop_
_atom_site_type_symbol
_atom_site_label
_atom_site_fract_x
_atom_site_fract_y
_atom_site_fract_z
Si Si1 0.691242 0.705792 0.950114
Si Si2 0.000000 0.139469 0.250000
Si Si3 0.284101 0.673708 0.999686
Si Si4 0.701466 0.904183 0.783802
Si Si5 0.057267 0.183968 0.047029
O O1 0.500000 0.775916 0.750000
O O2 0.697842 0.793375 0.865401
O O3 0.678183 0.511190 0.919362
O O4 0.878188 0.738711 0.257114
O O5 0.189941 0.237917 0.460235
O O6 0.106085 0.026525 0.461896
O O7 0.112285 0.698494 0.700343
O O8 0.500000 0.748262 0.250000
O O9 0.744926 0.800276 0.754239
O O10 0.500000 0.000000 0.500000
O O11 0.000000 0.000000 0.000000
#
# Coordination Sequence:
#
# PCOD8122932 Si02
#       5
#     4   2   4   4   4
#     4  11  25  45  67 101 144 181 229 298 354 424
#     4  12  24  44  72  98 144 184 236 294 346 426
#     4  11  26  46  67 103 143 186 233 292 359 422
#     4  12  24  43  71 104 134 185 242 289 350 423
#     4  12  22  43  69  98 137 182 236 289 348 421
#
# _framework density 21.733974
#
# number of rings (size 3 to 8) (size 9 to 14) (size 15 to 20)
#    0.000    0.444    4.444    3.333    3.111    1.778 
#    0.000    3.333    0.000    0.000    0.000    0.000 
#    0.000    0.000    0.000    0.000    0.000    0.000 
#
# Total GULP energy -223109.067845 kJ/mol
# GULP energy per Si atom -12394.948214 kJ/mol
# Density = 2.168451 g / cm^3
# Si number density = 21.733974 Si / 1000 Ang^3
#
#
#
# Elastic Constant Matrix: (Units=GPa)
#
#
# Indices 1 2 3 4 5 6 
#
# 1 135.7565 37.6233 25.9209 0.0000 14.6034 0.0000
# 2 37.6233 74.4856 22.4946 0.0000 5.1047 0.0000
# 3 25.9209 22.4946 100.4220 0.0000 6.6972 0.0000
# 4 0.0000 0.0000 0.0000 36.6711 0.0000 0.0181
# 5 14.6034 5.1047 6.6972 0.0000 50.0292 0.0000
# 6 0.0000 0.0000 0.0000 0.0181 0.0000 33.9966
#
#
#
# Elastic Compliance Matrix: (Units=1/GPa)
#
#
# Indices 1 2 3 4 5 6 
#
# 1 0.008933 -0.003988 -0.001277 0.000000 -0.002030 0.000000
# 2 -0.003988 0.016234 -0.002598 0.000000 -0.000145 0.000000
# 3 -0.001277 -0.002598 0.010925 0.000000 -0.000825 0.000000
# 4 0.000000 0.000000 0.000000 0.027269 0.000000 -0.000015
# 5 -0.002030 -0.000145 -0.000825 0.000000 0.020706 0.000000
# 6 0.000000 0.000000 0.000000 -0.000015 0.000000 0.029415
#
#
# Mechanical properties :
#
#
# Convention : Reuss Voigt Hill
#
# Bulk Modulus (GPa) = 49.09857 53.63798 51.36827
# Shear Modulus (GPa) = 36.76587 39.11440 37.94014
#
# Velocity S-wave (km/s) = 4.11741 4.24688 4.18264
# Velocity P-wave (km/s) = 6.72635 6.98433 6.85655
#
# Compressibility (1/GPa) = 0.02036719
#
# Stress axis : x y z
#
# Youngs Moduli (GPa) = 111.93870 61.59952 91.53724
#
# Poissons Ratio (x) = 0.24563 0.11692
# Poissons Ratio (y) = 0.44636 0.23777
# Poissons Ratio (z) = 0.14298 0.16000
#
# Static dielectric constant tensor:
#      x y z
#    x 4.127550 0.000000 0.325530 
#    y 0.000000 4.153950 0.000000 
#    z 0.325530 0.000000 5.163040 
# 
# 
# High freq. dielectric constant tensor:
#      x y z
#    x 1.877970 0.000000 0.005100 
#    y 0.000000 1.843000 0.000000 
#    z 0.005100 0.000000 1.868510 
# 
# From -- ./inp_files/56973.got.cif
#   From: 2010.06.25/outbox.cif.g09.slc.cpg/sg13_29_cif.got.tgz:56973.got - 2010.06.28 04:50:58.
