data_PCOD8122524
_publ_section_title
;
Structure prediction by ZEFSAII (Michael W. Deem and Ramdas Pophale) SiO2 
 PCOD8122524
Probable space group: P 2/C
;
_chemical_formula_sum "Si O2"
_cell_formula_units_Z 30
_cell_length_a 11.404165
_cell_length_b 8.958818
_cell_length_c 13.251663
_cell_angle_alpha 90.000000
_cell_angle_beta 93.159426
_cell_angle_gamma 90.000000
_cell_volume 1351.835908
_symmetry_space_group_name_H-M "P 2/C"
_symmetry_group_IT_number 13
_symmetry_cell_setting 'monoclinic'
loop_
_space_group_symop_operation_xyz
x,y,z
-x,y,1/2-z
-x,-y,-z
x,-y,1/2+z
loop_
_atom_site_type_symbol
_atom_site_label
_atom_site_fract_x
_atom_site_fract_y
_atom_site_fract_z
Si Si1 0.875272 0.776567 0.781413
Si Si2 0.264301 0.497872 0.266273
Si Si3 0.097131 0.717314 0.169308
Si Si4 0.565566 0.100829 0.423023
Si Si5 0.500000 0.315440 0.250000
Si Si6 0.273190 0.957565 0.225774
Si Si7 0.944158 0.836396 0.006347
Si Si8 0.286617 0.234577 0.905398
O O1 0.841190 0.620689 0.727673
O O2 0.885384 0.770011 0.903157
O O3 0.000000 0.834365 0.750000
O O4 0.768019 0.879620 0.739440
O O5 0.211387 0.609254 0.178521
O O6 0.385506 0.421059 0.236379
O O7 0.283055 0.591713 0.370553
O O8 0.150899 0.881543 0.187719
O O9 0.000000 0.677465 0.250000
O O10 0.041112 0.719786 0.054452
O O11 0.487000 0.204421 0.345675
O O12 0.641429 0.221908 0.488558
O O13 0.500000 0.000000 0.500000
O O14 0.641354 0.980694 0.364776
O O15 0.341463 0.867111 0.317284
O O16 0.842478 0.836412 0.086177
O O17 0.000000 0.000000 0.000000
#
# Coordination Sequence:
#
# PCOD8122524 Si02
#       8
#     4   4   4   4   2   4   4   4
#     4  12  24  41  67 106 146 193 240 293 374 437
#     4  11  26  45  69  98 150 195 236 299 369 431
#     4  11  21  42  72 107 146 183 239 299 368 443
#     4  12  26  47  75 106 139 193 257 313 362 431
#     4  12  26  54  72 102 154 194 248 318 366 430
#     4  11  21  42  72 104 146 184 245 311 360 430
#     4  12  21  40  72 107 145 189 239 306 362 441
#     4  11  24  44  72 104 142 186 249 293 373 441
#
# _framework density 22.192039999999999
#
# number of rings (size 3 to 8) (size 9 to 14) (size 15 to 20)
#    0.000    0.533    6.667    2.400    0.000    3.200 
#    2.400    1.333    0.000    0.000    0.000    0.000 
#    0.000    0.000    0.000    0.000    0.000    0.000 
#
# Total GULP energy -371767.183157 kJ/mol
# GULP energy per Si atom -12392.239439 kJ/mol
# Density = 2.214153 g / cm^3
# Si number density = 22.192040 Si / 1000 Ang^3
#
#
#
# Elastic Constant Matrix: (Units=GPa)
#
#
# Indices 1 2 3 4 5 6 
#
# 1 106.4769 45.5918 44.6286 0.0000 -5.9670 0.0000
# 2 45.5918 112.6830 57.8096 0.0000 0.1566 0.0000
# 3 44.6286 57.8096 116.3051 0.0000 9.5567 0.0000
# 4 0.0000 0.0000 0.0000 37.3062 0.0000 3.8272
# 5 -5.9670 0.1566 9.5567 0.0000 48.7450 0.0000
# 6 0.0000 0.0000 0.0000 3.8272 0.0000 41.3138
#
#
#
# Elastic Compliance Matrix: (Units=1/GPa)
#
#
# Indices 1 2 3 4 5 6 
#
# 1 0.012291 -0.003310 -0.003248 0.000000 0.002152 0.000000
# 2 -0.003310 0.012866 -0.005172 0.000000 0.000567 0.000000
# 3 -0.003248 -0.005172 0.012650 0.000000 -0.002861 0.000000
# 4 0.000000 0.000000 0.000000 0.027062 0.000000 -0.002507
# 5 0.002152 0.000567 -0.002861 0.000000 0.021337 0.000000
# 6 0.000000 0.000000 0.000000 -0.002507 0.000000 0.024437
#
#
# Mechanical properties :
#
#
# Convention : Reuss Voigt Hill
#
# Bulk Modulus (GPa) = 69.69491 70.16944 69.93217
# Shear Modulus (GPa) = 36.00095 37.96868 36.98482
#
# Velocity S-wave (km/s) = 4.03208 4.14081 4.08681
# Velocity P-wave (km/s) = 7.29044 7.38577 7.33826
#
# Compressibility (1/GPa) = 0.01434825
#
# Stress axis : x y z
#
# Youngs Moduli (GPa) = 81.36187 77.72448 79.05068
#
# Poissons Ratio (x) = 0.25723 0.25676
# Poissons Ratio (y) = 0.26927 0.40883
# Poissons Ratio (z) = 0.26427 0.40197
#
# Static dielectric constant tensor:
#      x y z
#    x 4.134230 0.000000 0.286550 
#    y 0.000000 4.055990 0.000000 
#    z 0.286550 0.000000 4.211240 
# 
# 
# High freq. dielectric constant tensor:
#      x y z
#    x 1.878290 0.000000 0.015960 
#    y 0.000000 1.873160 0.000000 
#    z 0.015960 0.000000 1.867750 
# 
# From -- ./inp_files/50047.got.cif
#   From: 2010.06.25/outbox.cif.g09.slc.cpg/sg13_26_cif.got.tgz:50047.got - 2010.06.28 04:50:58.
