data_PCOD8122482
_publ_section_title
;
Structure prediction by ZEFSAII (Michael W. Deem and Ramdas Pophale) SiO2 
 PCOD8122482
Probable space group: P 2/C
;
_chemical_formula_sum "Si O2"
_cell_formula_units_Z 20
_cell_length_a 4.915793
_cell_length_b 8.218519
_cell_length_c 23.737514
_cell_angle_alpha 90.000000
_cell_angle_beta 103.315355
_cell_angle_gamma 90.000000
_cell_volume 933.227497
_symmetry_space_group_name_H-M "P 2/C"
_symmetry_group_IT_number 13
_symmetry_cell_setting 'monoclinic'
loop_
_space_group_symop_operation_xyz
x,y,z
-x,y,1/2-z
-x,-y,-z
x,-y,1/2+z
loop_
_atom_site_type_symbol
_atom_site_label
_atom_site_fract_x
_atom_site_fract_y
_atom_site_fract_z
Si Si1 0.920319 0.252611 0.083274
Si Si2 0.183123 0.780083 0.049218
Si Si3 0.743878 0.914980 0.111627
Si Si4 0.557133 0.538204 0.892682
Si Si5 0.291580 0.316056 0.788975
O O1 0.688146 0.389729 0.080916
O O2 0.222800 0.322610 0.114008
O O3 0.855931 0.098586 0.119931
O O4 0.920985 0.191495 0.018980
O O5 0.423397 0.911619 0.075016
O O6 0.293466 0.597249 0.062105
O O7 0.923726 0.803223 0.078400
O O8 0.764726 0.840675 0.174899
O O9 0.431451 0.463387 0.829787
O O10 0.500000 0.259579 0.750000
O O11 0.000000 0.379788 0.750000
#
# Coordination Sequence:
#
# PCOD8122482 Si02
#       5
#     4   4   4   4   4
#     4  12  22  38  61  97 133 154 191 257 301 353
#     4  11  21  39  61  91 131 172 194 226 298 382
#     4  11  23  39  63  92 121 162 209 242 296 367
#     4  11  23  38  62  92 121 160 206 244 300 366
#     4  11  23  44  66  82 111 162 212 257 303 362
#
# _framework density 21.431004000000001
#
# number of rings (size 3 to 8) (size 9 to 14) (size 15 to 20)
#    0.000    0.800    0.000   10.800    0.000    0.000 
#    0.000    4.000    0.000    2.400    0.000    0.000 
#    0.000    0.000    0.000    0.000    0.000    0.000 
#
# Total GULP energy -248174.323244 kJ/mol
# GULP energy per Si atom -12408.716162 kJ/mol
# Density = 2.138223 g / cm^3
# Si number density = 21.431004 Si / 1000 Ang^3
#
#
#
# Elastic Constant Matrix: (Units=GPa)
#
#
# Indices 1 2 3 4 5 6 
#
# 1 110.7676 8.4390 51.3062 0.0000 -2.6176 0.0000
# 2 8.4390 76.3747 42.4472 0.0000 4.3961 0.0000
# 3 51.3062 42.4472 114.1987 0.0000 -1.1419 0.0000
# 4 0.0000 0.0000 0.0000 7.3549 0.0000 -1.2094
# 5 -2.6176 4.3961 -1.1419 0.0000 49.2991 0.0000
# 6 0.0000 0.0000 0.0000 -1.2094 0.0000 41.9678
#
#
#
# Elastic Compliance Matrix: (Units=1/GPa)
#
#
# Indices 1 2 3 4 5 6 
#
# 1 0.011652 0.002020 -0.005983 0.000000 0.000300 0.000000
# 2 0.002020 0.016982 -0.007236 0.000000 -0.001575 0.000000
# 3 -0.005983 -0.007236 0.014141 0.000000 0.000655 0.000000
# 4 0.000000 0.000000 0.000000 0.136610 0.000000 0.003937
# 5 0.000300 -0.001575 0.000655 0.000000 0.020456 0.000000
# 6 0.000000 0.000000 0.000000 0.003937 0.000000 0.023941
#
#
# Mechanical properties :
#
#
# Convention : Reuss Voigt Hill
#
# Bulk Modulus (GPa) = 49.07102 56.19177 52.63139
# Shear Modulus (GPa) = 19.76501 33.00094 26.38298
#
# Velocity S-wave (km/s) = 3.04017 3.92837 3.51246
# Velocity P-wave (km/s) = 5.93889 6.84492 6.40794
#
# Compressibility (1/GPa) = 0.02037863
#
# Stress axis : x y z
#
# Youngs Moduli (GPa) = 85.81963 58.88537 70.71779
#
# Poissons Ratio (x) = -0.11897 0.42311
# Poissons Ratio (y) = -0.17339 0.51169
# Poissons Ratio (z) = 0.51346 0.42608
#
# Static dielectric constant tensor:
#      x y z
#    x 4.211440 0.000000 -0.003420 
#    y 0.000000 3.805920 0.000000 
#    z -0.003420 0.000000 3.724000 
# 
# 
# High freq. dielectric constant tensor:
#      x y z
#    x 1.868730 0.000000 -0.005100 
#    y 0.000000 1.839240 0.000000 
#    z -0.005100 0.000000 1.826610 
# 
# From -- ./inp_files/83142.got.cif
#   From: 2010.06.25/outbox.cif.g09.slc.cpg/sg13_42_cif.got.tgz:83142.got - 2010.06.28 04:50:58.
