data_PCOD8122391
_publ_section_title
;
Structure prediction by ZEFSAII (Michael W. Deem and Ramdas Pophale) SiO2 
 PCOD8122391
Probable space group: P 2/C
;
_chemical_formula_sum "Si O2"
_cell_formula_units_Z 24
_cell_length_a 23.098411
_cell_length_b 11.087397
_cell_length_c 9.305483
_cell_angle_alpha 90.000000
_cell_angle_beta 30.398844
_cell_angle_gamma 90.000000
_cell_volume 1205.910795
_symmetry_space_group_name_H-M "P 2/C"
_symmetry_group_IT_number 13
_symmetry_cell_setting 'monoclinic'
loop_
_space_group_symop_operation_xyz
x,y,z
-x,y,1/2-z
-x,-y,-z
x,-y,1/2+z
loop_
_atom_site_type_symbol
_atom_site_label
_atom_site_fract_x
_atom_site_fract_y
_atom_site_fract_z
Si Si1 0.444513 0.866975 0.003964
Si Si2 0.402980 0.777067 0.572684
Si Si3 0.240384 0.031822 0.472034
Si Si4 0.366860 0.466538 0.288589
Si Si5 0.298449 0.653333 0.222143
Si Si6 0.131796 0.859353 0.491339
O O1 0.404992 0.741595 0.017553
O O2 0.338434 0.935097 0.303723
O O3 0.500000 0.941499 0.750000
O O4 0.542610 0.846557 0.908937
O O5 0.298514 0.863725 0.747988
O O6 0.346712 0.651669 0.736495
O O7 0.500000 0.751913 0.250000
O O8 0.143871 0.963395 0.586345
O O9 0.189487 0.092967 0.722487
O O10 0.288291 0.573613 0.389840
O O11 0.325263 0.441761 0.538710
O O12 0.500000 0.500000 0.000000
O O13 0.186377 0.732887 0.427081
O O14 0.000000 0.831859 0.750000
#
# Coordination Sequence:
#
# PCOD8122391 Si02
#       6
#     4   4   4   4   4   4
#     4  11  19  36  56  90 134 163 187 233 302 373
#     4  12  21  32  55  94 131 160 192 234 297 371
#     4  11  22  38  63  91 121 153 203 252 302 366
#     4  12  21  37  60  88 131 161 196 231 291 368
#     4  11  23  40  59  89 122 164 205 245 287 357
#     4  11  24  46  66  84 116 159 209 264 307 342
#
# _framework density 19.901969000000001
#
# number of rings (size 3 to 8) (size 9 to 14) (size 15 to 20)
#    0.000    0.667    5.000    5.000    0.000    0.000 
#    0.000    0.833    0.000    0.000    0.000    0.000 
#    0.000    0.000    0.000    0.000    0.000    0.000 
#
# Total GULP energy -297527.263348 kJ/mol
# GULP energy per Si atom -12396.969306 kJ/mol
# Density = 1.985667 g / cm^3
# Si number density = 19.901969 Si / 1000 Ang^3
#
#
#
# Elastic Constant Matrix: (Units=GPa)
#
#
# Indices 1 2 3 4 5 6 
#
# 1 83.5767 29.8502 25.5021 0.0000 -12.0277 0.0000
# 2 29.8502 60.9019 8.5301 0.0000 -18.0759 0.0000
# 3 25.5021 8.5301 60.3270 0.0000 -6.8922 0.0000
# 4 0.0000 0.0000 0.0000 34.9492 0.0000 5.6839
# 5 -12.0277 -18.0759 -6.8922 0.0000 35.5107 0.0000
# 6 0.0000 0.0000 0.0000 5.6839 0.0000 45.4961
#
#
#
# Elastic Compliance Matrix: (Units=1/GPa)
#
#
# Indices 1 2 3 4 5 6 
#
# 1 0.016347 -0.006936 -0.005830 0.000000 0.000875 0.000000
# 2 -0.006936 0.022446 0.000813 0.000000 0.009234 0.000000
# 3 -0.005830 0.000813 0.019173 0.000000 0.002161 0.000000
# 4 0.000000 0.000000 0.000000 0.029206 0.000000 -0.003649
# 5 0.000875 0.009234 0.002161 0.000000 0.033577 0.000000
# 6 0.000000 0.000000 0.000000 -0.003649 0.000000 0.022436
#
#
# Mechanical properties :
#
#
# Convention : Reuss Voigt Hill
#
# Bulk Modulus (GPa) = 29.35925 36.95225 33.15575
# Shear Modulus (GPa) = 28.02004 32.58609 30.30306
#
# Velocity S-wave (km/s) = 3.75627 4.05078 3.90630
# Velocity P-wave (km/s) = 5.79627 6.36285 6.08616
#
# Compressibility (1/GPa) = 0.03406082
#
# Stress axis : x y z
#
# Youngs Moduli (GPa) = 61.17291 44.55058 52.15782
#
# Poissons Ratio (x) = 0.30901 0.30407
# Poissons Ratio (y) = 0.42431 -0.04242
# Poissons Ratio (z) = 0.35662 -0.03623
#
# Static dielectric constant tensor:
#      x y z
#    x 3.714560 0.000000 0.086660 
#    y 0.000000 3.989010 0.000000 
#    z 0.086660 0.000000 3.101230 
# 
# 
# High freq. dielectric constant tensor:
#      x y z
#    x 1.771390 0.000000 0.020030 
#    y 0.000000 1.793110 0.000000 
#    z 0.020030 0.000000 1.747710 
# 
# From -- ./inp_files/15863.got.cif
#   From: 2010.06.25/outbox.cif.g09.slc.cpg/sg13_8_cif.got.tgz:15863.got - 2010.06.28 04:50:58.
