data_PCOD8122465
_publ_section_title
;
Structure prediction by ZEFSAII (Michael W. Deem and Ramdas Pophale) SiO2 
 PCOD8122465
Probable space group: P 2/C
;
_chemical_formula_sum "Si O2"
_cell_formula_units_Z 24
_cell_length_a 12.824573
_cell_length_b 11.112114
_cell_length_c 8.882646
_cell_angle_alpha 90.000000
_cell_angle_beta 72.667614
_cell_angle_gamma 90.000000
_cell_volume 1208.370185
_symmetry_space_group_name_H-M "P 2/C"
_symmetry_group_IT_number 13
_symmetry_cell_setting 'monoclinic'
loop_
_space_group_symop_operation_xyz
x,y,z
-x,y,1/2-z
-x,-y,-z
x,-y,1/2+z
loop_
_atom_site_type_symbol
_atom_site_label
_atom_site_fract_x
_atom_site_fract_y
_atom_site_fract_z
Si Si1 0.281357 0.979380 0.117390
Si Si2 0.894311 0.805282 0.197287
Si Si3 0.124632 0.561822 0.153139
Si Si4 0.624516 0.162703 0.196739
Si Si5 0.193286 0.650057 0.802305
Si Si6 0.898761 0.847738 0.866049
O O1 0.198436 0.905916 0.256934
O O2 0.363025 0.056166 0.186169
O O3 0.207236 0.072313 0.055334
O O4 0.345492 0.890704 0.979288
O O5 0.840133 0.681862 0.275089
O O6 0.000000 0.838360 0.250000
O O7 0.933060 0.788896 0.009145
O O8 0.207428 0.456462 0.172231
O O9 0.000000 0.526790 0.250000
O O10 0.136433 0.588139 0.970743
O O11 0.500000 0.205419 0.250000
O O12 0.693796 0.282985 0.202975
O O13 0.117184 0.748514 0.756859
O O14 0.000000 0.924164 0.750000
#
# Coordination Sequence:
#
# PCOD8122465 Si02
#       6
#     4   4   4   4   4   4
#     4  11  22  39  63  87 123 159 199 257 303 366
#     4  11  22  35  59  92 129 165 198 238 297 371
#     4  11  21  37  62  89 128 162 197 242 298 365
#     4  11  24  44  65  88 118 160 210 262 309 353
#     4  11  23  40  62  90 123 163 206 250 298 360
#     4  11  22  35  58  92 129 163 199 239 306 368
#
# _framework density 19.861463000000001
#
# number of rings (size 3 to 8) (size 9 to 14) (size 15 to 20)
#    0.000    1.000    3.333    5.000    2.333    1.333 
#    0.000    0.833    0.000    0.000    0.000    0.000 
#    0.000    0.000    0.000    0.000    0.000    0.000 
#
# Total GULP energy -297476.910938 kJ/mol
# GULP energy per Si atom -12394.871289 kJ/mol
# Density = 1.981626 g / cm^3
# Si number density = 19.861463 Si / 1000 Ang^3
#
#
#
# Elastic Constant Matrix: (Units=GPa)
#
#
# Indices 1 2 3 4 5 6 
#
# 1 112.2593 39.0765 53.3147 0.0000 0.1713 0.0000
# 2 39.0765 97.8197 32.6540 0.0000 3.4516 0.0000
# 3 53.3147 32.6540 123.3590 0.0000 5.4179 0.0000
# 4 0.0000 0.0000 0.0000 25.6808 0.0000 5.3162
# 5 0.1713 3.4516 5.4179 0.0000 19.5803 0.0000
# 6 0.0000 0.0000 0.0000 5.3162 0.0000 22.4670
#
#
#
# Elastic Compliance Matrix: (Units=1/GPa)
#
#
# Indices 1 2 3 4 5 6 
#
# 1 0.012219 -0.003460 -0.004441 0.000000 0.001732 0.000000
# 2 -0.003460 0.012220 -0.001666 0.000000 -0.001663 0.000000
# 3 -0.004441 -0.001666 0.010581 0.000000 -0.002595 0.000000
# 4 0.000000 0.000000 0.000000 0.040945 0.000000 -0.009689
# 5 0.001732 -0.001663 -0.002595 0.000000 0.052068 0.000000
# 6 0.000000 0.000000 0.000000 -0.009689 0.000000 0.046802
#
#
# Mechanical properties :
#
#
# Convention : Reuss Voigt Hill
#
# Bulk Modulus (GPa) = 62.95178 64.83649 63.89413
# Shear Modulus (GPa) = 25.09230 27.43848 26.26539
#
# Velocity S-wave (km/s) = 3.55824 3.72088 3.64047
# Velocity P-wave (km/s) = 6.97465 7.15368 7.06473
#
# Compressibility (1/GPa) = 0.01588518
#
# Stress axis : x y z
#
# Youngs Moduli (GPa) = 81.84119 81.83372 94.50974
#
# Poissons Ratio (x) = 0.28312 0.41973
# Poissons Ratio (y) = 0.28314 0.15749
# Poissons Ratio (z) = 0.36347 0.13637
#
# Static dielectric constant tensor:
#      x y z
#    x 3.168490 0.000000 0.288150 
#    y 0.000000 3.719710 0.000000 
#    z 0.288150 0.000000 3.508700 
# 
# 
# High freq. dielectric constant tensor:
#      x y z
#    x 1.747060 0.000000 0.019880 
#    y 0.000000 1.779390 0.000000 
#    z 0.019880 0.000000 1.785120 
# 
# From -- ./inp_files/15777.got.cif
#   From: 2010.06.25/outbox.cif.g09.slc.cpg/sg13_8_cif.got.tgz:15777.got - 2010.06.28 04:50:58.
