data_PCOD8122984
_publ_section_title
;
Structure prediction by ZEFSAII (Michael W. Deem and Ramdas Pophale) SiO2 
 PCOD8122984
Probable space group: P 2/C
;
_chemical_formula_sum "Si O2"
_cell_formula_units_Z 28
_cell_length_a 6.706979
_cell_length_b 13.955366
_cell_length_c 17.084202
_cell_angle_alpha 90.000000
_cell_angle_beta 52.427996
_cell_angle_gamma 90.000000
_cell_volume 1267.389755
_symmetry_space_group_name_H-M "P 2/C"
_symmetry_group_IT_number 13
_symmetry_cell_setting 'monoclinic'
loop_
_space_group_symop_operation_xyz
x,y,z
-x,y,1/2-z
-x,-y,-z
x,-y,1/2+z
loop_
_atom_site_type_symbol
_atom_site_label
_atom_site_fract_x
_atom_site_fract_y
_atom_site_fract_z
Si Si1 0.433617 0.993979 0.181893
Si Si2 0.498343 0.357283 0.533340
Si Si3 0.500000 0.654557 0.750000
Si Si4 0.000000 0.884831 0.750000
Si Si5 0.776430 0.164608 0.865253
Si Si6 0.982052 0.753730 0.886747
Si Si7 0.126246 0.102932 0.483139
Si Si8 0.290966 0.469382 0.440736
O O1 0.500000 0.947876 0.250000
O O2 0.429410 0.912019 0.116531
O O3 0.168610 0.043430 0.259940
O O4 0.594371 0.085348 0.114890
O O5 0.361636 0.265723 0.601093
O O6 0.321515 0.398801 0.507392
O O7 0.531697 0.437780 0.591794
O O8 0.785353 0.333294 0.439037
O O9 0.256304 0.719978 0.789039
O O10 0.592707 0.587154 0.658782
O O11 0.137740 0.821859 0.651015
O O12 0.000000 0.170436 0.750000
O O13 0.881235 0.133609 0.924517
O O14 0.001456 0.810053 0.964546
O O15 0.000000 0.000000 0.500000
O O16 0.000000 0.500000 0.500000
#
# Coordination Sequence:
#
# PCOD8122984 Si02
#       8
#     4   4   2   2   4   4   4   4
#     4  12  23  45  66 101 147 194 246 292 356 423
#     4  11  26  48  73 102 143 187 233 306 367 442
#     4  12  24  44  78 108 138 188 232 312 366 442
#     4  12  22  40  68 102 142 184 238 298 342 418
#     4  12  26  45  68 105 145 194 253 295 357 445
#     4  12  23  43  72 111 141 189 249 301 365 436
#     4  12  24  43  71 102 149 199 240 301 363 416
#     4  11  25  51  74 104 145 178 239 299 381 451
#
# _framework density 22.092649999999999
#
# number of rings (size 3 to 8) (size 9 to 14) (size 15 to 20)
#    0.000    0.286    3.571    6.429    0.000    1.143 
#    1.286    0.000    0.000    0.000    0.000    0.000 
#    0.000    0.000    0.000    0.000    0.000    0.000 
#
# Total GULP energy -347094.324951 kJ/mol
# GULP energy per Si atom -12396.225891 kJ/mol
# Density = 2.204237 g / cm^3
# Si number density = 22.092650 Si / 1000 Ang^3
#
#
#
# Elastic Constant Matrix: (Units=GPa)
#
#
# Indices 1 2 3 4 5 6 
#
# 1 133.9036 55.2088 54.9267 0.0000 15.3683 0.0000
# 2 55.2088 122.3139 35.6784 0.0000 10.9833 0.0000
# 3 54.9267 35.6784 100.1538 0.0000 12.1096 0.0000
# 4 0.0000 0.0000 0.0000 44.3926 0.0000 -5.1918
# 5 15.3683 10.9833 12.1096 0.0000 49.4391 0.0000
# 6 0.0000 0.0000 0.0000 -5.1918 0.0000 29.9346
#
#
#
# Elastic Compliance Matrix: (Units=1/GPa)
#
#
# Indices 1 2 3 4 5 6 
#
# 1 0.010955 -0.003470 -0.004589 0.000000 -0.001510 0.000000
# 2 -0.003470 0.010301 -0.001670 0.000000 -0.000801 0.000000
# 3 -0.004589 -0.001670 0.013272 0.000000 -0.001453 0.000000
# 4 0.000000 0.000000 0.000000 0.022993 0.000000 0.003988
# 5 -0.001510 -0.000801 -0.001453 0.000000 0.021230 0.000000
# 6 0.000000 0.000000 0.000000 0.003988 0.000000 0.034098
#
#
# Mechanical properties :
#
#
# Convention : Reuss Voigt Hill
#
# Bulk Modulus (GPa) = 66.35793 71.99989 69.17891
# Shear Modulus (GPa) = 36.40893 38.79042 37.59968
#
# Velocity S-wave (km/s) = 4.06397 4.19478 4.12990
# Velocity P-wave (km/s) = 7.21960 7.49148 7.35680
#
# Compressibility (1/GPa) = 0.01506979
#
# Stress axis : x y z
#
# Youngs Moduli (GPa) = 91.28601 97.07777 75.34793
#
# Poissons Ratio (x) = 0.33690 0.34576
# Poissons Ratio (y) = 0.31680 0.12580
# Poissons Ratio (z) = 0.41890 0.16207
#
# Static dielectric constant tensor:
#      x y z
#    x 3.128960 0.000000 0.561610 
#    y 0.000000 4.298310 0.000000 
#    z 0.561610 0.000000 3.768120 
# 
# 
# High freq. dielectric constant tensor:
#      x y z
#    x 1.888450 0.000000 0.002610 
#    y 0.000000 1.884260 0.000000 
#    z 0.002610 0.000000 1.862320 
# 
# From -- ./inp_files/61554.got.cif
#   From: 2010.06.25/outbox.cif.g09.slc.cpg/sg13_31_cif.got.tgz:61554.got - 2010.06.28 04:50:58.
