data_PCOD8122864
_publ_section_title
;
Structure prediction by ZEFSAII (Michael W. Deem and Ramdas Pophale) SiO2 
 PCOD8122864
Probable space group: P 2/C
;
_chemical_formula_sum "Si O2"
_cell_formula_units_Z 26
_cell_length_a 14.521030
_cell_length_b 8.175637
_cell_length_c 14.469230
_cell_angle_alpha 90.000000
_cell_angle_beta 137.196461
_cell_angle_gamma 90.000000
_cell_volume 1167.200204
_symmetry_space_group_name_H-M "P 2/C"
_symmetry_group_IT_number 13
_symmetry_cell_setting 'monoclinic'
loop_
_space_group_symop_operation_xyz
x,y,z
-x,y,1/2-z
-x,-y,-z
x,-y,1/2+z
loop_
_atom_site_type_symbol
_atom_site_label
_atom_site_fract_x
_atom_site_fract_y
_atom_site_fract_z
Si Si1 0.278873 0.645240 0.730091
Si Si2 0.000000 0.223569 0.750000
Si Si3 0.344280 0.426713 0.616302
Si Si4 0.456368 0.146880 0.033019
Si Si5 0.744649 0.407178 0.627288
Si Si6 0.109334 0.091786 0.018882
Si Si7 0.347031 0.067245 0.606567
O O1 0.280156 0.487121 0.664961
O O2 0.255024 0.574779 0.814819
O O3 0.145329 0.743034 0.600025
O O4 0.414191 0.759150 0.827156
O O5 0.105254 0.337112 0.772315
O O6 0.936923 0.112692 0.622064
O O7 0.500000 0.419356 0.750000
O O8 0.311714 0.561378 0.516297
O O9 0.292221 0.249483 0.541792
O O10 0.362602 0.276630 0.907957
O O11 0.500000 0.000000 0.000000
O O12 0.350618 0.066488 0.027803
O O13 0.249979 0.991747 0.117683
O O14 0.000000 0.000000 0.000000
O O15 0.500000 0.085658 0.750000
#
# Coordination Sequence:
#
# PCOD8122864 Si02
#       7
#     4   2   4   4   4   4   4
#     4  12  26  46  76 106 147 195 242 313 380 442
#     4  12  28  48  74 100 146 200 248 304 362 446
#     4  11  24  44  71 110 144 182 240 308 377 437
#     4  12  25  43  73 110 146 186 250 312 375 444
#     4  12  27  46  71 106 148 194 246 309 374 449
#     4  12  29  50  76 108 150 199 251 306 374 446
#     4  11  24  45  75 105 141 187 243 308 371 439
#
# _framework density 22.275528000000001
#
# number of rings (size 3 to 8) (size 9 to 14) (size 15 to 20)
#    0.000    0.308    6.154    1.385    8.615    3.077 
#    0.000    0.000    0.000    0.000    0.000    0.000 
#    0.000    0.000    0.000    0.000    0.000    0.000 
#
# Total GULP energy -322283.919052 kJ/mol
# GULP energy per Si atom -12395.535348 kJ/mol
# Density = 2.222483 g / cm^3
# Si number density = 22.275528 Si / 1000 Ang^3
#
#
#
# Elastic Constant Matrix: (Units=GPa)
#
#
# Indices 1 2 3 4 5 6 
#
# 1 127.9104 43.1272 35.1045 0.0000 13.8842 0.0000
# 2 43.1272 113.5595 40.8046 0.0000 8.2778 0.0000
# 3 35.1045 40.8046 88.0205 0.0000 -0.4343 0.0000
# 4 0.0000 0.0000 0.0000 31.0921 0.0000 1.7924
# 5 13.8842 8.2778 -0.4343 0.0000 33.5803 0.0000
# 6 0.0000 0.0000 0.0000 1.7924 0.0000 50.6213
#
#
#
# Elastic Compliance Matrix: (Units=1/GPa)
#
#
# Indices 1 2 3 4 5 6 
#
# 1 0.009789 -0.002466 -0.002778 0.000000 -0.003475 0.000000
# 2 -0.002466 0.011432 -0.004325 0.000000 -0.001854 0.000000
# 3 -0.002778 -0.004325 0.014486 0.000000 0.002402 0.000000
# 4 0.000000 0.000000 0.000000 0.032228 0.000000 -0.001141
# 5 -0.003475 -0.001854 0.002402 0.000000 0.031704 0.000000
# 6 0.000000 0.000000 0.000000 -0.001141 0.000000 0.019795
#
#
# Mechanical properties :
#
#
# Convention : Reuss Voigt Hill
#
# Bulk Modulus (GPa) = 60.35677 63.06258 61.70967
# Shear Modulus (GPa) = 34.69911 37.08902 35.89406
#
# Velocity S-wave (km/s) = 3.95108 4.08488 4.01854
# Velocity P-wave (km/s) = 6.92597 7.11478 7.02101
#
# Compressibility (1/GPa) = 0.01656815
#
# Stress axis : x y z
#
# Youngs Moduli (GPa) = 102.15404 87.47498 69.03293
#
# Poissons Ratio (x) = 0.21573 0.19178
# Poissons Ratio (y) = 0.25193 0.29858
# Poissons Ratio (z) = 0.28379 0.37834
#
# Static dielectric constant tensor:
#      x y z
#    x 4.838130 0.000000 -0.757500 
#    y 0.000000 4.906890 0.000000 
#    z -0.757500 0.000000 4.657730 
# 
# 
# High freq. dielectric constant tensor:
#      x y z
#    x 1.875550 0.000000 0.001690 
#    y 0.000000 1.894590 0.000000 
#    z 0.001690 0.000000 1.870140 
# 
# From -- ./inp_files/53369.got.cif
#   From: 2010.06.25/outbox.cif.g09.slc.cpg/sg13_27_cif.got.tgz:53369.got - 2010.06.28 04:50:58.
