data_PCOD8122295
_publ_section_title
;
Structure prediction by ZEFSAII (Michael W. Deem and Ramdas Pophale) SiO2 
 PCOD8122295
Probable space group: P 2/C
;
_chemical_formula_sum "Si O2"
_cell_formula_units_Z 16
_cell_length_a 5.292933
_cell_length_b 5.057832
_cell_length_c 23.245478
_cell_angle_alpha 90.000000
_cell_angle_beta 103.096884
_cell_angle_gamma 90.000000
_cell_volume 606.112184
_symmetry_space_group_name_H-M "P 2/C"
_symmetry_group_IT_number 13
_symmetry_cell_setting 'monoclinic'
loop_
_space_group_symop_operation_xyz
x,y,z
-x,y,1/2-z
-x,-y,-z
x,-y,1/2+z
loop_
_atom_site_type_symbol
_atom_site_label
_atom_site_fract_x
_atom_site_fract_y
_atom_site_fract_z
Si Si1 0.359086 0.484923 0.845953
Si Si2 0.000000 0.204633 0.250000
Si Si3 0.500000 0.141718 0.750000
Si Si4 0.118364 0.788953 0.437319
Si Si5 0.786939 0.278988 0.432352
O O1 0.094948 0.606420 0.806556
O O2 0.522991 0.330056 0.806387
O O3 0.301561 0.278100 0.893641
O O4 0.527807 0.728231 0.880152
O O5 0.760739 0.032291 0.260989
O O6 0.283783 0.796193 0.505285
O O7 0.890491 0.577235 0.433826
O O8 0.996655 0.075312 0.418008
#
# Coordination Sequence:
#
# PCOD8122295 Si02
#       5
#     4   2   2   4   4
#     4  12  29  48  80 114 165 220 270 346 410 496
#     4  12  32  52  78 120 164 220 288 340 410 490
#     4  12  32  52  78 120 164 220 288 340 410 490
#     4  10  25  48  80 121 160 209 270 337 415 496
#     4  10  25  48  80 121 160 209 270 337 415 496
#
# _framework density 26.397752000000001
#
# number of rings (size 3 to 8) (size 9 to 14) (size 15 to 20)
#    0.000    1.000    0.000    2.250   17.500    0.000 
#    0.000    7.500    0.000    4.500    0.000    0.000 
#    0.000    0.000    0.000    0.000    0.000    0.000 
#
# Total GULP energy -198521.339302 kJ/mol
# GULP energy per Si atom -12407.583706 kJ/mol
# Density = 2.633767 g / cm^3
# Si number density = 26.397752 Si / 1000 Ang^3
#
#
#
# Elastic Constant Matrix: (Units=GPa)
#
#
# Indices 1 2 3 4 5 6 
#
# 1 15.6771 2.7437 -192.5124 0.0000 -165.2978 0.0000
# 2 2.7437 101.7382 -39.8852 0.0000 -56.8701 0.0000
# 3 -192.5124 -39.8852 -424.7220 0.0000 -362.3782 0.0000
# 4 0.0000 0.0000 0.0000 -16.0393 0.0000 -8.4443
# 5 -165.2978 -56.8701 -362.3782 0.0000 -152.5438 0.0000
# 6 0.0000 0.0000 0.0000 -8.4443 0.0000 51.9338
#
#
#
# Elastic Compliance Matrix: (Units=1/GPa)
#
#
# Indices 1 2 3 4 5 6 
#
# 1 0.010127 -0.002049 -0.004200 0.000000 -0.000231 0.000000
# 2 -0.002049 0.010204 -0.001287 0.000000 0.001474 0.000000
# 3 -0.004200 -0.001287 0.004502 0.000000 -0.005663 0.000000
# 4 0.000000 0.000000 0.000000 -0.057430 0.000000 -0.009338
# 5 -0.000231 0.001474 -0.005663 0.000000 0.006597 0.000000
# 6 0.000000 0.000000 0.000000 -0.009338 0.000000 0.017737
#
#
# Mechanical properties :
#
#
# Convention : Reuss Voigt Hill
#
# Bulk Modulus (GPa) = 102.46992 -85.17938 8.64527
# Shear Modulus (GPa) = 496.88995 -28.50672 234.19162
#
# Velocity S-wave (km/s) = 13.73465 -3.28974 9.42916
# Velocity P-wave (km/s) = 17.04179 6.83868 11.03755
#
# Compressibility (1/GPa) = 0.00975896
#
# Stress axis : x y z
#
# Youngs Moduli (GPa) = 98.74716 98.00269 222.13964
#
# Poissons Ratio (x) = 0.20082 0.93308
# Poissons Ratio (y) = 0.20234 0.28593
# Poissons Ratio (z) = 0.41478 0.12615
#
# Static dielectric constant tensor:
#      x y z
#    x 4.496020 0.000000 0.135760 
#    y 0.000000 4.860940 0.000000 
#    z 0.135760 0.000000 5.175820 
# 
# 
# High freq. dielectric constant tensor:
#      x y z
#    x 2.046290 0.000000 0.001390 
#    y 0.000000 2.069840 0.000000 
#    z 0.001390 0.000000 2.080440 
# 
# From -- ./inp_files/82846.got.cif
#   From: 2010.06.25/outbox.cif.g09.slc.cpg/sg13_42_cif.got.tgz:82846.got - 2010.06.28 04:50:58.
