data_PCOD8122669
_publ_section_title
;
Structure prediction by ZEFSAII (Michael W. Deem and Ramdas Pophale) SiO2 
 PCOD8122669
Probable space group: P 2/C
;
_chemical_formula_sum "Si O2"
_cell_formula_units_Z 28
_cell_length_a 10.899234
_cell_length_b 14.883087
_cell_length_c 9.498127
_cell_angle_alpha 90.000000
_cell_angle_beta 121.531583
_cell_angle_gamma 90.000000
_cell_volume 1313.245629
_symmetry_space_group_name_H-M "P 2/C"
_symmetry_group_IT_number 13
_symmetry_cell_setting 'monoclinic'
loop_
_space_group_symop_operation_xyz
x,y,z
-x,y,1/2-z
-x,-y,-z
x,-y,1/2+z
loop_
_atom_site_type_symbol
_atom_site_label
_atom_site_fract_x
_atom_site_fract_y
_atom_site_fract_z
Si Si1 0.223805 0.996557 0.151788
Si Si2 0.604577 0.260665 0.439671
Si Si3 0.160363 0.528080 0.557295
Si Si4 0.610316 0.933098 0.998431
Si Si5 0.912485 0.280406 0.556144
Si Si6 0.652917 0.548101 0.093088
Si Si7 0.986946 0.861349 0.584873
O O1 0.253242 0.945291 0.316426
O O2 0.120399 0.078576 0.121009
O O3 0.156039 0.920658 0.010624
O O4 0.357833 0.038601 0.144939
O O5 0.500000 0.292040 0.250000
O O6 0.543258 0.168187 0.469607
O O7 0.765738 0.225678 0.497090
O O8 0.622165 0.345284 0.555480
O O9 0.151999 0.635241 0.569409
O O10 0.225237 0.510119 0.440702
O O11 0.276560 0.473668 0.716162
O O12 0.000000 0.500000 0.500000
O O13 0.500000 0.000000 0.000000
O O14 0.020345 0.223867 0.523792
O O15 0.000000 0.309007 0.750000
O O16 0.500000 0.500000 0.000000
O O17 0.000000 0.823481 0.750000
#
# Coordination Sequence:
#
# PCOD8122669 Si02
#       7
#     4   4   4   4   4   4   4
#     4  11  23  41  60  93 129 170 222 273 329 388
#     4  11  23  42  68  96 130 179 228 271 339 410
#     4  11  23  42  67  99 137 172 219 283 348 399
#     4  12  24  42  65  92 134 178 223 277 334 396
#     4  11  23  42  67  97 132 179 228 269 338 416
#     4  11  23  44  69  98 131 180 229 276 336 417
#     4  11  23  38  64  94 129 169 220 282 320 385
#
# _framework density 21.321221000000001
#
# number of rings (size 3 to 8) (size 9 to 14) (size 15 to 20)
#    0.000    0.857    2.857    6.429    0.000    1.143 
#    0.000    4.286    0.000    0.000    0.000    0.000 
#    0.000    0.000    0.000    0.000    0.000    0.000 
#
# Total GULP energy -346928.361639 kJ/mol
# GULP energy per Si atom -12390.298630 kJ/mol
# Density = 2.127269 g / cm^3
# Si number density = 21.321221 Si / 1000 Ang^3
#
#
#
# Elastic Constant Matrix: (Units=GPa)
#
#
# Indices 1 2 3 4 5 6 
#
# 1 87.5224 22.4581 -7.1390 0.0000 2.2594 0.0000
# 2 22.4581 136.0758 45.2771 0.0000 -7.7849 0.0000
# 3 -7.1390 45.2771 85.0192 0.0000 1.6470 0.0000
# 4 0.0000 0.0000 0.0000 25.4566 0.0000 -16.1956
# 5 2.2594 -7.7849 1.6470 0.0000 37.6839 0.0000
# 6 0.0000 0.0000 0.0000 -16.1956 0.0000 9.5395
#
#
#
# Elastic Compliance Matrix: (Units=1/GPa)
#
#
# Indices 1 2 3 4 5 6 
#
# 1 0.012464 -0.003039 0.002694 0.000000 -0.001493 0.000000
# 2 -0.003039 0.009834 -0.005540 0.000000 0.002456 0.000000
# 3 0.002694 -0.005540 0.014977 0.000000 -0.001961 0.000000
# 4 0.000000 0.000000 0.000000 -0.490352 0.000000 -0.832492
# 5 -0.001493 0.002456 -0.001961 0.000000 0.027219 0.000000
# 6 0.000000 0.000000 0.000000 -0.832492 0.000000 -1.308529
#
#
# Mechanical properties :
#
#
# Convention : Reuss Voigt Hill
#
# Bulk Modulus (GPa) = 39.20871 47.75665 43.48268
# Shear Modulus (GPa) = -2.91695 31.07074 14.07689
#
# Velocity S-wave (km/s) = -1.17093 3.82156 2.57228
# Velocity P-wave (km/s) = 4.07448 6.47454 5.40930
#
# Compressibility (1/GPa) = 0.02550454
#
# Stress axis : x y z
#
# Youngs Moduli (GPa) = 80.23335 101.68600 66.77113
#
# Poissons Ratio (x) = 0.30900 -0.17987
# Poissons Ratio (y) = 0.24381 0.36991
# Poissons Ratio (z) = -0.21613 0.56334
#
# Static dielectric constant tensor:
#      x y z
#    x 4.008120 0.000000 -0.267570 
#    y 0.000000 4.171800 0.000000 
#    z -0.267570 0.000000 3.060620 
# 
# 
# High freq. dielectric constant tensor:
#      x y z
#    x 1.838210 0.000000 0.012820 
#    y 0.000000 1.840760 0.000000 
#    z 0.012820 0.000000 1.838200 
# 
# From -- ./inp_files/16567.got.cif
#   From: 2010.06.25/outbox.cif.g09.slc.cpg/sg13_9_cif.got.tgz:16567.got - 2010.06.28 04:50:58.
