data_PCOD8122164
_publ_section_title
;
Structure prediction by ZEFSAII (Michael W. Deem and Ramdas Pophale) SiO2 
 PCOD8122164
Probable space group: P 2/C
;
_chemical_formula_sum "Si O2"
_cell_formula_units_Z 16
_cell_length_a 9.084791
_cell_length_b 9.938736
_cell_length_c 12.508521
_cell_angle_alpha 90.000000
_cell_angle_beta 143.044173
_cell_angle_gamma 90.000000
_cell_volume 679.000974
_symmetry_space_group_name_H-M "P 2/C"
_symmetry_group_IT_number 13
_symmetry_cell_setting 'monoclinic'
loop_
_space_group_symop_operation_xyz
x,y,z
-x,y,1/2-z
-x,-y,-z
x,-y,1/2+z
loop_
_atom_site_type_symbol
_atom_site_label
_atom_site_fract_x
_atom_site_fract_y
_atom_site_fract_z
Si Si1 0.000000 0.485799 0.750000
Si Si2 0.174465 0.262490 0.440072
Si Si3 0.005905 0.269323 0.924533
Si Si4 0.500000 0.159175 0.250000
Si Si5 0.609855 0.932843 0.165613
O O1 0.779334 0.586952 0.582954
O O2 0.916800 0.396836 0.803304
O O3 0.043911 0.285427 0.478539
O O4 0.420495 0.178540 0.602482
O O5 0.000000 0.186776 0.250000
O O6 0.867631 0.139533 0.795883
O O7 0.298096 0.250957 0.073339
O O8 0.661105 0.059545 0.271016
O O9 0.500000 0.000000 0.000000
#
# Coordination Sequence:
#
# PCOD8122164 Si02
#       5
#     2   4   4   2   4
#     4  10  26  44  72  98 140 190 234 292 342 422
#     4  10  24  45  70 104 134 185 230 290 352 414
#     4  12  24  49  65 105 142 182 240 287 352 417
#     4  12  26  42  70 100 138 188 224 290 354 416
#     4  12  25  43  73 102 141 180 231 291 356 423
#
# _framework density 23.564032000000001
#
# number of rings (size 3 to 8) (size 9 to 14) (size 15 to 20)
#    0.750    0.000    2.500    4.500    3.500    1.000 
#    9.000    0.000    0.000    0.000    0.000    0.000 
#    0.000    0.000    0.000    0.000    0.000    0.000 
#
# Total GULP energy -198231.769702 kJ/mol
# GULP energy per Si atom -12389.485606 kJ/mol
# Density = 2.351040 g / cm^3
# Si number density = 23.564032 Si / 1000 Ang^3
#
#
#
# Elastic Constant Matrix: (Units=GPa)
#
#
# Indices 1 2 3 4 5 6 
#
# 1 65.6356 32.3119 38.2197 0.0000 -6.5994 0.0000
# 2 32.3119 112.5709 44.5192 0.0000 -3.4858 0.0000
# 3 38.2197 44.5192 123.4988 0.0000 -3.2127 0.0000
# 4 0.0000 0.0000 0.0000 41.4126 0.0000 -14.3484
# 5 -6.5994 -3.4858 -3.2127 0.0000 48.9441 0.0000
# 6 0.0000 0.0000 0.0000 -14.3484 0.0000 38.8381
#
#
#
# Elastic Compliance Matrix: (Units=1/GPa)
#
#
# Indices 1 2 3 4 5 6 
#
# 1 0.020119 -0.003812 -0.004797 0.000000 0.002126 0.000000
# 2 -0.003812 0.011094 -0.002817 0.000000 0.000091 0.000000
# 3 -0.004797 -0.002817 0.010593 0.000000 -0.000152 0.000000
# 4 0.000000 0.000000 0.000000 0.027692 0.000000 0.010231
# 5 0.002126 0.000091 -0.000152 0.000000 0.020715 0.000000
# 6 0.000000 0.000000 0.000000 0.010231 0.000000 0.029528
#
#
# Mechanical properties :
#
#
# Convention : Reuss Voigt Hill
#
# Bulk Modulus (GPa) = 52.75730 59.08964 55.92347
# Shear Modulus (GPa) = 33.57689 38.28258 35.92974
#
# Velocity S-wave (km/s) = 3.77891 4.03503 3.90907
# Velocity P-wave (km/s) = 6.44032 6.84392 6.64519
#
# Compressibility (1/GPa) = 0.01895472
#
# Stress axis : x y z
#
# Youngs Moduli (GPa) = 49.70348 90.13493 94.39850
#
# Poissons Ratio (x) = 0.34360 0.45282
# Poissons Ratio (y) = 0.18947 0.26595
# Poissons Ratio (z) = 0.23842 0.25393
#
# Static dielectric constant tensor:
#      x y z
#    x 3.919170 0.000000 -0.087620 
#    y 0.000000 4.656780 0.000000 
#    z -0.087620 0.000000 4.301690 
# 
# 
# High freq. dielectric constant tensor:
#      x y z
#    x 1.909730 0.000000 -0.026480 
#    y 0.000000 1.936680 0.000000 
#    z -0.026480 0.000000 1.944390 
# 
# From -- ./inp_files/27984.got.cif
#   From: 2010.06.25/outbox.cif.g09.slc.cpg/sg13_14_cif.got.tgz:27984.got - 2010.06.28 04:50:58.
