data_PCOD8122467
_publ_section_title
;
Structure prediction by ZEFSAII (Michael W. Deem and Ramdas Pophale) SiO2 
 PCOD8122467
Probable space group: P 2/C
;
_chemical_formula_sum "Si O2"
_cell_formula_units_Z 28
_cell_length_a 26.717685
_cell_length_b 9.287908
_cell_length_c 9.706972
_cell_angle_alpha 90.000000
_cell_angle_beta 36.206442
_cell_angle_gamma 90.000000
_cell_volume 1422.868702
_symmetry_space_group_name_H-M "P 2/C"
_symmetry_group_IT_number 13
_symmetry_cell_setting 'monoclinic'
loop_
_space_group_symop_operation_xyz
x,y,z
-x,y,1/2-z
-x,-y,-z
x,-y,1/2+z
loop_
_atom_site_type_symbol
_atom_site_label
_atom_site_fract_x
_atom_site_fract_y
_atom_site_fract_z
Si Si1 0.093575 0.045367 0.505652
Si Si2 0.438668 0.503044 0.509922
Si Si3 0.086693 0.623919 0.006486
Si Si4 0.695431 0.273573 0.099784
Si Si5 0.822227 0.519758 0.434959
Si Si6 0.306004 0.721346 0.214285
Si Si7 0.786484 0.006948 0.003020
O O1 0.076940 0.208262 0.498661
O O2 0.164094 0.025003 0.465092
O O3 0.000000 0.976914 0.750000
O O4 0.138645 0.972614 0.274924
O O5 0.500000 0.500000 0.500000
O O6 0.378350 0.641319 0.657507
O O7 0.388215 0.350442 0.605760
O O8 0.500000 0.535006 0.250000
O O9 0.151182 0.608138 0.989532
O O10 0.000000 0.552468 0.250000
O O11 0.105356 0.550867 0.818920
O O12 0.714370 0.126875 0.139707
O O13 0.777547 0.374637 0.925816
O O14 0.671755 0.240343 0.993495
O O15 0.765529 0.397359 0.626323
O O16 0.268088 0.858797 0.379948
#
# Coordination Sequence:
#
# PCOD8122467 Si02
#       7
#     4   4   4   4   4   4   4
#     4  11  24  39  59  90 132 177 218 273 318 357
#     4  11  24  45  73  98 128 157 199 254 323 390
#     4  11  22  36  55  86 123 161 213 274 319 354
#     4  11  23  40  67  93 125 166 204 255 316 379
#     4  11  21  38  59  87 116 165 212 260 313 369
#     4  11  23  40  67  93 126 164 206 258 311 374
#     4  12  23  42  64  92 130 172 224 256 310 382
#
# _framework density 19.678553999999998
#
# number of rings (size 3 to 8) (size 9 to 14) (size 15 to 20)
#    0.000    0.857    7.143    0.857    0.000    1.143 
#    0.000    2.857    0.000    0.000    0.000    0.000 
#    0.000    0.000    0.000    0.000    0.000    0.000 
#
# Total GULP energy -347017.562271 kJ/mol
# GULP energy per Si atom -12393.484367 kJ/mol
# Density = 1.963376 g / cm^3
# Si number density = 19.678554 Si / 1000 Ang^3
#
#
#
# Elastic Constant Matrix: (Units=GPa)
#
#
# Indices 1 2 3 4 5 6 
#
# 1 84.5774 28.0087 20.7899 0.0000 -2.9972 0.0000
# 2 28.0087 77.8176 18.1615 0.0000 -15.2607 0.0000
# 3 20.7899 18.1615 92.9897 0.0000 -2.0229 0.0000
# 4 0.0000 0.0000 0.0000 22.8953 0.0000 -2.6105
# 5 -2.9972 -15.2607 -2.0229 0.0000 34.2406 0.0000
# 6 0.0000 0.0000 0.0000 -2.6105 0.0000 27.3993
#
#
#
# Elastic Compliance Matrix: (Units=1/GPa)
#
#
# Indices 1 2 3 4 5 6 
#
# 1 0.013880 -0.004676 -0.002212 0.000000 -0.001000 0.000000
# 2 -0.004676 0.016323 -0.001996 0.000000 0.006748 0.000000
# 3 -0.002212 -0.001996 0.011630 0.000000 -0.000396 0.000000
# 4 0.000000 0.000000 0.000000 0.044157 0.000000 0.004207
# 5 -0.001000 0.006748 -0.000396 0.000000 0.032102 0.000000
# 6 0.000000 0.000000 0.000000 0.004207 0.000000 0.036898
#
#
# Mechanical properties :
#
#
# Convention : Reuss Voigt Hill
#
# Bulk Modulus (GPa) = 41.55278 43.25610 42.40444
# Shear Modulus (GPa) = 27.65841 29.46869 28.56355
#
# Velocity S-wave (km/s) = 3.75308 3.87396 3.81400
# Velocity P-wave (km/s) = 6.32000 6.48376 6.40240
#
# Compressibility (1/GPa) = 0.02406578
#
# Stress axis : x y z
#
# Youngs Moduli (GPa) = 72.04542 61.26505 85.98793
#
# Poissons Ratio (x) = 0.28646 0.19018
# Poissons Ratio (y) = 0.33686 0.17161
# Poissons Ratio (z) = 0.15935 0.12227
#
# Static dielectric constant tensor:
#      x y z
#    x 3.704260 0.000000 -0.044510 
#    y 0.000000 3.682390 0.000000 
#    z -0.044510 0.000000 3.803770 
# 
# 
# High freq. dielectric constant tensor:
#      x y z
#    x 1.770190 0.000000 0.007710 
#    y 0.000000 1.760480 0.000000 
#    z 0.007710 0.000000 1.774450 
# 
# From -- ./inp_files/24504.got.cif
#   From: 2010.06.25/outbox.cif.g09.slc.cpg/sg13_13_cif.got.tgz:24504.got - 2010.06.28 04:50:58.
