data_PCOD8122490
_publ_section_title
;
Structure prediction by ZEFSAII (Michael W. Deem and Ramdas Pophale) SiO2 
 PCOD8122490
Probable space group: P 2/C
;
_chemical_formula_sum "Si O2"
_cell_formula_units_Z 28
_cell_length_a 16.236387
_cell_length_b 9.084545
_cell_length_c 13.424055
_cell_angle_alpha 90.000000
_cell_angle_beta 139.176250
_cell_angle_gamma 90.000000
_cell_volume 1294.427087
_symmetry_space_group_name_H-M "P 2/C"
_symmetry_group_IT_number 13
_symmetry_cell_setting 'monoclinic'
loop_
_space_group_symop_operation_xyz
x,y,z
-x,y,1/2-z
-x,-y,-z
x,-y,1/2+z
loop_
_atom_site_type_symbol
_atom_site_label
_atom_site_fract_x
_atom_site_fract_y
_atom_site_fract_z
Si Si1 0.786959 0.121874 0.818105
Si Si2 0.982894 0.710811 0.626732
Si Si3 0.766406 0.172231 0.192489
Si Si4 0.615994 0.628243 0.688515
Si Si5 0.334871 0.626134 0.416221
Si Si6 0.233115 0.507740 0.013507
Si Si7 0.645793 0.180864 0.876518
O O1 0.727042 0.223668 0.677859
O O2 0.690260 0.092050 0.819855
O O3 0.824005 0.968807 0.800764
O O4 0.910475 0.193824 0.979133
O O5 0.908949 0.556209 0.582090
O O6 0.000000 0.792607 0.750000
O O7 0.126107 0.698929 0.716959
O O8 0.649330 0.237674 0.145959
O O9 0.717139 0.121752 0.039417
O O10 0.471963 0.652282 0.592803
O O11 0.637346 0.472978 0.654064
O O12 0.712168 0.625471 0.869792
O O13 0.237834 0.548584 0.404053
O O14 0.325654 0.646555 0.110439
O O15 0.500000 0.151733 0.750000
#
# Coordination Sequence:
#
# PCOD8122490 Si02
#       7
#     4   4   4   4   4   4   4
#     4  11  25  42  66  98 133 177 226 270 336 395
#     4  11  21  46  69  87 125 180 225 271 328 397
#     4  12  25  42  67  96 133 180 224 271 334 406
#     4  11  22  38  67  98 134 170 217 274 336 393
#     4  11  21  40  66 101 133 169 216 278 333 397
#     4  11  22  40  67  99 130 172 225 276 330 391
#     4  11  21  39  65  91 130 175 216 272 339 400
#
# _framework density 21.631191999999999
#
# number of rings (size 3 to 8) (size 9 to 14) (size 15 to 20)
#    0.000    0.857    7.143    2.571    0.000    4.000 
#    2.571    0.000    0.000    0.000    0.000    0.000 
#    0.000    0.000    0.000    0.000    0.000    0.000 
#
# Total GULP energy -347068.912826 kJ/mol
# GULP energy per Si atom -12395.318315 kJ/mol
# Density = 2.158196 g / cm^3
# Si number density = 21.631192 Si / 1000 Ang^3
#
#
#
# Elastic Constant Matrix: (Units=GPa)
#
#
# Indices 1 2 3 4 5 6 
#
# 1 99.4308 31.8338 44.8879 0.0000 -0.0919 0.0000
# 2 31.8338 62.6644 29.1685 0.0000 -5.4408 0.0000
# 3 44.8879 29.1685 129.0125 0.0000 2.4378 0.0000
# 4 0.0000 0.0000 0.0000 22.0392 0.0000 -10.3301
# 5 -0.0919 -5.4408 2.4378 0.0000 37.4857 0.0000
# 6 0.0000 0.0000 0.0000 -10.3301 0.0000 20.4127
#
#
#
# Elastic Compliance Matrix: (Units=1/GPa)
#
#
# Indices 1 2 3 4 5 6 
#
# 1 0.013267 -0.005184 -0.003435 0.000000 -0.000497 0.000000
# 2 -0.005184 0.020171 -0.002815 0.000000 0.003098 0.000000
# 3 -0.003435 -0.002815 0.009602 0.000000 -0.001042 0.000000
# 4 0.000000 0.000000 0.000000 0.059483 0.000000 0.030102
# 5 -0.000497 0.003098 -0.001042 0.000000 0.027193 0.000000
# 6 0.000000 0.000000 0.000000 0.030102 0.000000 0.064223
#
#
# Mechanical properties :
#
#
# Convention : Reuss Voigt Hill
#
# Bulk Modulus (GPa) = 49.57259 55.87645 52.72452
# Shear Modulus (GPa) = 22.36823 28.33537 25.35180
#
# Velocity S-wave (km/s) = 3.21919 3.62322 3.42717
# Velocity P-wave (km/s) = 6.06502 6.58720 6.33150
#
# Compressibility (1/GPa) = 0.02017244
#
# Stress axis : x y z
#
# Youngs Moduli (GPa) = 75.37446 49.57616 104.14074
#
# Poissons Ratio (x) = 0.25701 0.35768
# Poissons Ratio (y) = 0.39075 0.29318
# Poissons Ratio (z) = 0.25888 0.13957
#
# Static dielectric constant tensor:
#      x y z
#    x 4.037810 0.000000 -0.038580 
#    y 0.000000 3.458530 0.000000 
#    z -0.038580 0.000000 4.079650 
# 
# 
# High freq. dielectric constant tensor:
#      x y z
#    x 1.855130 0.000000 -0.004400 
#    y 0.000000 1.803320 0.000000 
#    z -0.004400 0.000000 1.864840 
# 
# From -- ./inp_files/55309.got.cif
#   From: 2010.06.25/outbox.cif.g09.slc.cpg/sg13_28_cif.got.tgz:55309.got - 2010.06.28 04:50:58.
