data_PCOD8122298
_publ_section_title
;
Structure prediction by ZEFSAII (Michael W. Deem and Ramdas Pophale) SiO2 
 PCOD8122298
Probable space group: P 2/C
;
_chemical_formula_sum "Si O2"
_cell_formula_units_Z 24
_cell_length_a 17.681405
_cell_length_b 14.120953
_cell_length_c 9.347591
_cell_angle_alpha 90.000000
_cell_angle_beta 27.366800
_cell_angle_gamma 90.000000
_cell_volume 1072.855082
_symmetry_space_group_name_H-M "P 2/C"
_symmetry_group_IT_number 13
_symmetry_cell_setting 'monoclinic'
loop_
_space_group_symop_operation_xyz
x,y,z
-x,y,1/2-z
-x,-y,-z
x,-y,1/2+z
loop_
_atom_site_type_symbol
_atom_site_label
_atom_site_fract_x
_atom_site_fract_y
_atom_site_fract_z
Si Si1 0.500000 0.978297 0.250000
Si Si2 0.140646 0.309461 0.780220
Si Si3 0.497698 0.688513 0.956284
Si Si4 0.000000 0.829508 0.750000
Si Si5 0.663405 0.888325 0.244425
Si Si6 0.000000 0.385969 0.750000
Si Si7 0.257854 0.527921 0.239403
Si Si8 0.500000 0.389735 0.750000
O O1 0.607242 0.913843 0.177616
O O2 0.390865 0.041049 0.539208
O O3 0.336075 0.298445 0.415428
O O4 0.013434 0.313989 0.861550
O O5 0.119450 0.409612 0.895589
O O6 0.083251 0.228223 0.981939
O O7 0.391614 0.783038 0.118979
O O8 0.390712 0.595988 0.094629
O O9 0.545854 0.676651 0.040433
O O10 0.139136 0.893907 0.588922
O O11 0.161303 0.452174 0.500089
O O12 0.348198 0.460548 0.971609
#
# Coordination Sequence:
#
# PCOD8122298 Si02
#       8
#     2   4   4   2   4   2   4   2
#     4  10  25  51  80 104 136 172 224 273 359 444
#     4  12  25  44  62  97 137 191 232 291 336 398
#     4  12  24  43  69  96 137 186 237 277 339 410
#     4  12  27  44  76 105 142 176 228 285 358 404
#     4  11  25  47  77 108 135 178 221 286 349 431
#     4  12  27  40  60  93 146 186 244 299 336 372
#     4  12  23  41  63  95 138 192 242 284 329 392
#     4  12  23  37  64  98 136 192 248 281 319 394
#
# _framework density 22.370215000000002
#
# number of rings (size 3 to 8) (size 9 to 14) (size 15 to 20)
#    0.000    0.333    5.000    4.000    2.333    2.000 
#    0.000    0.000    0.000    0.000    0.000    0.000 
#    0.000    0.000    0.000    0.000    0.000    0.000 
#
# Total GULP energy -297376.372869 kJ/mol
# GULP energy per Si atom -12390.682203 kJ/mol
# Density = 2.231930 g / cm^3
# Si number density = 22.370215 Si / 1000 Ang^3
#
#
#
# Elastic Constant Matrix: (Units=GPa)
#
#
# Indices 1 2 3 4 5 6 
#
# 1 149.0172 43.1225 62.0537 0.0000 -0.6215 0.0000
# 2 43.1225 76.3078 44.3497 0.0000 -6.4032 0.0000
# 3 62.0537 44.3497 119.1312 0.0000 -6.5067 0.0000
# 4 0.0000 0.0000 0.0000 12.2142 0.0000 1.0008
# 5 -0.6215 -6.4032 -6.5067 0.0000 41.5945 0.0000
# 6 0.0000 0.0000 0.0000 1.0008 0.0000 18.1327
#
#
#
# Elastic Compliance Matrix: (Units=1/GPa)
#
#
# Indices 1 2 3 4 5 6 
#
# 1 0.009126 -0.003116 -0.003643 0.000000 -0.000913 0.000000
# 2 -0.003116 0.017895 -0.004933 0.000000 0.001937 0.000000
# 3 -0.003643 -0.004933 0.012188 0.000000 0.001093 0.000000
# 4 0.000000 0.000000 0.000000 0.082244 0.000000 -0.004539
# 5 -0.000913 0.001937 0.001093 0.000000 0.024497 0.000000
# 6 0.000000 0.000000 0.000000 -0.004539 0.000000 0.055400
#
#
# Mechanical properties :
#
#
# Convention : Reuss Voigt Hill
#
# Bulk Modulus (GPa) = 63.19507 71.50089 67.34798
# Shear Modulus (GPa) = 21.73822 27.38363 24.56092
#
# Velocity S-wave (km/s) = 3.12067 3.50253 3.31710
# Velocity P-wave (km/s) = 6.42618 6.95621 6.69644
#
# Compressibility (1/GPa) = 0.01582402
#
# Stress axis : x y z
#
# Youngs Moduli (GPa) = 109.58035 55.88016 82.04823
#
# Poissons Ratio (x) = 0.17414 0.29892
# Poissons Ratio (y) = 0.34148 0.40475
# Poissons Ratio (z) = 0.39923 0.27566
#
# Static dielectric constant tensor:
#      x y z
#    x 4.204080 0.000000 0.043920 
#    y 0.000000 3.924410 0.000000 
#    z 0.043920 0.000000 4.210190 
# 
# 
# High freq. dielectric constant tensor:
#      x y z
#    x 1.893080 0.000000 0.003640 
#    y 0.000000 1.864810 0.000000 
#    z 0.003640 0.000000 1.888920 
# 
# From -- ./inp_files/21930.got.cif
#   From: 2010.06.25/outbox.cif.g09.slc.cpg/sg13_11_cif.got.tgz:21930.got - 2010.06.28 04:50:58.
