data_PCOD8122601
_publ_section_title
;
Structure prediction by ZEFSAII (Michael W. Deem and Ramdas Pophale) SiO2 
 PCOD8122601
Probable space group: P 2/C
;
_chemical_formula_sum "Si O2"
_cell_formula_units_Z 20
_cell_length_a 20.504309
_cell_length_b 7.686091
_cell_length_c 8.415272
_cell_angle_alpha 90.000000
_cell_angle_beta 42.199298
_cell_angle_gamma 90.000000
_cell_volume 890.843899
_symmetry_space_group_name_H-M "P 2/C"
_symmetry_group_IT_number 13
_symmetry_cell_setting 'monoclinic'
loop_
_space_group_symop_operation_xyz
x,y,z
-x,y,1/2-z
-x,-y,-z
x,-y,1/2+z
loop_
_atom_site_type_symbol
_atom_site_label
_atom_site_fract_x
_atom_site_fract_y
_atom_site_fract_z
Si Si1 0.700366 0.292817 0.226490
Si Si2 0.897585 0.216351 0.379504
Si Si3 0.102827 0.830546 0.996731
Si Si4 0.703291 0.343100 0.846232
Si Si5 0.422490 0.960766 0.011584
O O1 0.813167 0.275500 0.066972
O O2 0.659497 0.468659 0.381233
O O3 0.639822 0.134127 0.412647
O O4 0.688481 0.297355 0.057708
O O5 0.892074 0.197046 0.200579
O O6 0.815791 0.346411 0.591855
O O7 0.000000 0.297423 0.250000
O O8 0.882757 0.033150 0.493761
O O9 0.000000 0.763646 0.250000
O O10 0.652254 0.197525 0.826997
O O11 0.500000 0.890771 0.750000
O O12 0.500000 0.000000 0.000000
#
# Coordination Sequence:
#
# PCOD8122601 Si02
#       5
#     4   4   4   4   4
#     4  12  27  46  73 106 144 182 235 288 351 419
#     4  11  22  40  69 103 143 186 234 280 344 414
#     4  11  22  40  69 103 143 187 232 282 342 415
#     4  12  27  46  73 107 142 184 234 289 350 419
#     4  12  28  50  75 101 138 182 234 294 355 413
#
# _framework density 22.450623
#
# number of rings (size 3 to 8) (size 9 to 14) (size 15 to 20)
#    0.000    0.400    4.000    6.000    5.600    2.400 
#    0.000    4.000    0.000    0.000    0.000    0.000 
#    0.000    0.000    0.000    0.000    0.000    0.000 
#
# Total GULP energy -247900.500531 kJ/mol
# GULP energy per Si atom -12395.025027 kJ/mol
# Density = 2.239952 g / cm^3
# Si number density = 22.450623 Si / 1000 Ang^3
#
#
#
# Elastic Constant Matrix: (Units=GPa)
#
#
# Indices 1 2 3 4 5 6 
#
# 1 122.4541 26.4617 9.4311 0.0000 -19.8858 0.0000
# 2 26.4617 131.4000 15.6345 0.0000 -35.1349 0.0000
# 3 9.4311 15.6345 73.8103 0.0000 -18.5626 0.0000
# 4 0.0000 0.0000 0.0000 17.8656 0.0000 8.3562
# 5 -19.8858 -35.1349 -18.5626 0.0000 39.0550 0.0000
# 6 0.0000 0.0000 0.0000 8.3562 0.0000 23.8354
#
#
#
# Elastic Compliance Matrix: (Units=1/GPa)
#
#
# Indices 1 2 3 4 5 6 
#
# 1 0.008961 -0.000770 -0.000010 0.000000 0.003866 0.000000
# 2 -0.000770 0.010089 0.000165 0.000000 0.008763 0.000000
# 3 -0.000010 0.000165 0.015390 0.000000 0.007458 0.000000
# 4 0.000000 0.000000 0.000000 0.066952 0.000000 -0.023472
# 5 0.003866 0.008763 0.007458 0.000000 0.039001 0.000000
# 6 0.000000 0.000000 0.000000 -0.023472 0.000000 0.050183
#
#
# Mechanical properties :
#
#
# Convention : Reuss Voigt Hill
#
# Bulk Modulus (GPa) = 30.11046 47.85766 38.98406
# Shear Modulus (GPa) = 24.64565 34.56036 29.60301
#
# Velocity S-wave (km/s) = 3.31686 3.92777 3.63517
# Velocity P-wave (km/s) = 5.30186 6.47556 5.91788
#
# Compressibility (1/GPa) = 0.03321105
#
# Stress axis : x y z
#
# Youngs Moduli (GPa) = 111.59240 99.12022 64.97620
#
# Poissons Ratio (x) = 0.07631 0.00064
# Poissons Ratio (y) = 0.08591 -0.01073
# Poissons Ratio (z) = 0.00109 -0.01636
#
# Static dielectric constant tensor:
#      x y z
#    x 4.073890 0.000000 -0.112370 
#    y 0.000000 3.918160 0.000000 
#    z -0.112370 0.000000 3.964430 
# 
# 
# High freq. dielectric constant tensor:
#      x y z
#    x 1.902310 0.000000 -0.005190 
#    y 0.000000 1.881740 0.000000 
#    z -0.005190 0.000000 1.890290 
# 
# From -- ./inp_files/22483.got.cif
#   From: 2010.06.25/outbox.cif.g09.slc.cpg/sg13_12_cif.got.tgz:22483.got - 2010.06.28 04:50:58.
