data_PCOD8122896
_publ_section_title
;
Structure prediction by ZEFSAII (Michael W. Deem and Ramdas Pophale) SiO2 
 PCOD8122896
Probable space group: P 2/C
;
_chemical_formula_sum "Si O2"
_cell_formula_units_Z 22
_cell_length_a 7.360919
_cell_length_b 6.551641
_cell_length_c 19.221208
_cell_angle_alpha 90.000000
_cell_angle_beta 100.879327
_cell_angle_gamma 90.000000
_cell_volume 910.303438
_symmetry_space_group_name_H-M "P 2/C"
_symmetry_group_IT_number 13
_symmetry_cell_setting 'monoclinic'
loop_
_space_group_symop_operation_xyz
x,y,z
-x,y,1/2-z
-x,-y,-z
x,-y,1/2+z
loop_
_atom_site_type_symbol
_atom_site_label
_atom_site_fract_x
_atom_site_fract_y
_atom_site_fract_z
Si Si1 0.000000 0.050820 0.250000
Si Si2 0.643624 0.706356 0.929526
Si Si3 0.811747 0.109450 0.969488
Si Si4 0.283897 0.363293 0.218631
Si Si5 0.740119 0.547516 0.565925
Si Si6 0.947128 0.693881 0.344284
O O1 0.022113 0.907560 0.319429
O O2 0.815960 0.189936 0.242334
O O3 0.756332 0.678190 0.866205
O O4 0.452279 0.580926 0.907092
O O5 0.642615 0.951510 0.942405
O O6 0.745238 0.617676 0.004612
O O7 0.832150 0.263614 0.906231
O O8 0.772125 0.230782 0.036714
O O9 0.000000 0.000000 0.000000
O O10 0.500000 0.361063 0.250000
O O11 0.190194 0.586915 0.222669
O O12 0.888154 0.470023 0.632380
#
# Coordination Sequence:
#
# PCOD8122896 Si02
#       6
#     2   4   4   4   4   4
#     4  12  30  52  74 106 146 208 256 308 370 446
#     4  11  24  46  70 115 147 191 241 307 372 447
#     4  12  22  43  75 110 147 188 240 303 379 447
#     4  12  29  52  74 106 154 201 255 308 367 449
#     4  11  25  44  76 110 152 183 241 313 382 437
#     4  12  26  49  77 108 146 198 252 310 373 441
#
# _framework density 24.167767000000001
#
# number of rings (size 3 to 8) (size 9 to 14) (size 15 to 20)
#    0.000    0.364    5.455    2.727    5.091    0.727 
#    6.545    0.000    0.000    0.000    0.000    0.000 
#    0.000    0.000    0.000    0.000    0.000    0.000 
#
# Total GULP energy -272771.393680 kJ/mol
# GULP energy per Si atom -12398.699713 kJ/mol
# Density = 2.411276 g / cm^3
# Si number density = 24.167767 Si / 1000 Ang^3
#
#
#
# Elastic Constant Matrix: (Units=GPa)
#
#
# Indices 1 2 3 4 5 6 
#
# 1 111.8785 50.0037 36.3530 0.0000 17.6971 0.0000
# 2 50.0037 136.4596 29.7021 0.0000 12.7054 0.0000
# 3 36.3530 29.7021 64.1255 0.0000 -0.5315 0.0000
# 4 0.0000 0.0000 0.0000 48.6455 0.0000 -3.9540
# 5 17.6971 12.7054 -0.5315 0.0000 40.6897 0.0000
# 6 0.0000 0.0000 0.0000 -3.9540 0.0000 39.3007
#
#
#
# Elastic Compliance Matrix: (Units=1/GPa)
#
#
# Indices 1 2 3 4 5 6 
#
# 1 0.012994 -0.003006 -0.006013 0.000000 -0.004791 0.000000
# 2 -0.003006 0.009129 -0.002537 0.000000 -0.001576 0.000000
# 3 -0.006013 -0.002537 0.020209 0.000000 0.003672 0.000000
# 4 0.000000 0.000000 0.000000 0.020726 0.000000 0.002085
# 5 -0.004791 -0.001576 0.003672 0.000000 0.027200 0.000000
# 6 0.000000 0.000000 0.000000 0.002085 0.000000 0.025655
#
#
# Mechanical properties :
#
#
# Convention : Reuss Voigt Hill
#
# Bulk Modulus (GPa) = 52.03500 60.50903 56.27202
# Shear Modulus (GPa) = 34.38022 38.82084 36.60053
#
# Velocity S-wave (km/s) = 3.77578 4.01222 3.89580
# Velocity P-wave (km/s) = 6.37073 6.82315 6.60082
#
# Compressibility (1/GPa) = 0.01921783
#
# Stress axis : x y z
#
# Youngs Moduli (GPa) = 76.95975 109.54347 49.48287
#
# Poissons Ratio (x) = 0.32933 0.29756
# Poissons Ratio (y) = 0.23137 0.12554
# Poissons Ratio (z) = 0.46279 0.27792
#
# Static dielectric constant tensor:
#      x y z
#    x 4.462350 0.000000 -0.433040 
#    y 0.000000 4.614790 0.000000 
#    z -0.433040 0.000000 4.440180 
# 
# 
# High freq. dielectric constant tensor:
#      x y z
#    x 1.955840 0.000000 -0.019420 
#    y 0.000000 1.975240 0.000000 
#    z -0.019420 0.000000 1.959430 
# 
# From -- ./inp_files/74651.got.cif
#   From: 2010.06.25/outbox.cif.g09.slc.cpg/sg13_38_cif.got.tgz:74651.got - 2010.06.28 04:50:58.
