data_PCOD8122422
_publ_section_title
;
Structure prediction by ZEFSAII (Michael W. Deem and Ramdas Pophale) SiO2 
 PCOD8122422
Probable space group: P 2/C
;
_chemical_formula_sum "Si O2"
_cell_formula_units_Z 20
_cell_length_a 9.315378
_cell_length_b 10.652710
_cell_length_c 9.411821
_cell_angle_alpha 90.000000
_cell_angle_beta 96.748868
_cell_angle_gamma 90.000000
_cell_volume 927.501133
_symmetry_space_group_name_H-M "P 2/C"
_symmetry_group_IT_number 13
_symmetry_cell_setting 'monoclinic'
loop_
_space_group_symop_operation_xyz
x,y,z
-x,y,1/2-z
-x,-y,-z
x,-y,1/2+z
loop_
_atom_site_type_symbol
_atom_site_label
_atom_site_fract_x
_atom_site_fract_y
_atom_site_fract_z
Si Si1 0.185246 0.455821 0.663977
Si Si2 0.836248 0.897376 0.203401
Si Si3 0.887143 0.646691 0.056646
Si Si4 0.588565 0.915829 0.616506
Si Si5 0.370087 0.244355 0.628765
O O1 0.174410 0.598010 0.602345
O O2 0.173970 0.452290 0.832963
O O3 0.336982 0.392541 0.636122
O O4 0.060024 0.366098 0.582021
O O5 0.835231 0.789256 0.079432
O O6 0.768133 0.836631 0.336319
O O7 0.000000 0.941348 0.250000
O O8 0.745749 0.021060 0.153714
O O9 0.500000 0.893489 0.750000
O O10 0.602000 0.784080 0.534061
O O11 0.500000 0.000000 0.500000
O O12 0.500000 0.205224 0.750000
#
# Coordination Sequence:
#
# PCOD8122422 Si02
#       5
#     4   4   4   4   4
#     4   9  18  36  59  88 117 159 191 241 301 356
#     4  11  20  38  64  90 119 163 202 244 307 362
#     4   9  17  35  61  85 121 152 195 240 302 351
#     4  12  23  42  64  86 120 166 203 250 309 359
#     4  11  21  41  64  85 122 166 200 245 307 363
#
# _framework density 21.563316
#
# number of rings (size 3 to 8) (size 9 to 14) (size 15 to 20)
#    0.000    1.600    8.000    0.000    0.000    0.800 
#    3.600    4.000    4.400    1.200    0.000    0.000 
#    0.000    0.000    0.000    0.000    0.000    0.000 
#
# Total GULP energy -247830.277261 kJ/mol
# GULP energy per Si atom -12391.513863 kJ/mol
# Density = 2.151424 g / cm^3
# Si number density = 21.563316 Si / 1000 Ang^3
#
#
#
# Elastic Constant Matrix: (Units=GPa)
#
#
# Indices 1 2 3 4 5 6 
#
# 1 122.3603 31.2385 44.8369 0.0000 -1.8923 0.0000
# 2 31.2385 52.5918 28.7289 0.0000 -4.0617 0.0000
# 3 44.8369 28.7289 96.7918 0.0000 -9.8637 0.0000
# 4 0.0000 0.0000 0.0000 31.0287 0.0000 -3.5929
# 5 -1.8923 -4.0617 -9.8637 0.0000 24.1592 0.0000
# 6 0.0000 0.0000 0.0000 -3.5929 0.0000 27.4073
#
#
#
# Elastic Compliance Matrix: (Units=1/GPa)
#
#
# Indices 1 2 3 4 5 6 
#
# 1 0.010653 -0.004372 -0.003785 0.000000 -0.001446 0.000000
# 2 -0.004372 0.024517 -0.005078 0.000000 0.001706 0.000000
# 3 -0.003785 -0.005078 0.014059 0.000000 0.004590 0.000000
# 4 0.000000 0.000000 0.000000 0.032725 0.000000 0.004290
# 5 -0.001446 0.001706 0.004590 0.000000 0.043440 0.000000
# 6 0.000000 0.000000 0.000000 0.004290 0.000000 0.037049
#
#
# Mechanical properties :
#
#
# Convention : Reuss Voigt Hill
#
# Bulk Modulus (GPa) = 43.93516 53.48359 48.70937
# Shear Modulus (GPa) = 25.44544 27.64834 26.54689
#
# Velocity S-wave (km/s) = 3.43889 3.58466 3.51253
# Velocity P-wave (km/s) = 6.01557 6.47996 6.25208
#
# Compressibility (1/GPa) = 0.02276082
#
# Stress axis : x y z
#
# Youngs Moduli (GPa) = 93.86849 40.78824 71.12658
#
# Poissons Ratio (x) = 0.17833 0.26918
# Poissons Ratio (y) = 0.41040 0.36116
# Poissons Ratio (z) = 0.35525 0.20711
#
# Static dielectric constant tensor:
#      x y z
#    x 3.799930 0.000000 0.379810 
#    y 0.000000 3.816760 0.000000 
#    z 0.379810 0.000000 3.370430 
# 
# 
# High freq. dielectric constant tensor:
#      x y z
#    x 1.850620 0.000000 -0.008540 
#    y 0.000000 1.813660 0.000000 
#    z -0.008540 0.000000 1.829640 
# 
# From -- ./inp_files/11871.got.cif
#   From: 2010.06.25/outbox.cif.g09.slc.cpg/sg13_6_cif.got.tgz:11871.got - 2010.06.28 04:50:58.
