data_PCOD8122617
_publ_section_title
;
Structure prediction by ZEFSAII (Michael W. Deem and Ramdas Pophale) SiO2 
 PCOD8122617
Probable space group: P 2/C
;
_chemical_formula_sum "Si O2"
_cell_formula_units_Z 32
_cell_length_a 13.803956
_cell_length_b 13.102800
_cell_length_c 9.251575
_cell_angle_alpha 90.000000
_cell_angle_beta 65.481107
_cell_angle_gamma 90.000000
_cell_volume 1522.442746
_symmetry_space_group_name_H-M "P 2/C"
_symmetry_group_IT_number 13
_symmetry_cell_setting 'monoclinic'
loop_
_space_group_symop_operation_xyz
x,y,z
-x,y,1/2-z
-x,-y,-z
x,-y,1/2+z
loop_
_atom_site_type_symbol
_atom_site_label
_atom_site_fract_x
_atom_site_fract_y
_atom_site_fract_z
Si Si1 0.698364 0.124654 0.041799
Si Si2 0.444358 0.317829 0.428749
Si Si3 0.765056 0.378502 0.556076
Si Si4 0.105304 0.728500 0.092949
Si Si5 0.006017 0.610048 0.574398
Si Si6 0.747779 0.443152 0.867272
Si Si7 0.620563 0.037308 0.392450
Si Si8 0.415189 0.233541 0.918552
O O1 0.611598 0.209311 0.057013
O O2 0.653956 0.060105 0.206486
O O3 0.815694 0.175038 0.983775
O O4 0.701815 0.047163 0.904205
O O5 0.500000 0.352417 0.250000
O O6 0.365288 0.409704 0.503982
O O7 0.528980 0.311516 0.505958
O O8 0.880953 0.333359 0.520549
O O9 0.736872 0.456046 0.702558
O O10 0.774160 0.443581 0.404075
O O11 0.679276 0.289380 0.607229
O O12 0.161963 0.638687 0.147226
O O13 0.000000 0.761161 0.250000
O O14 0.078756 0.685725 0.948349
O O15 0.000000 0.594839 0.750000
O O16 0.000000 0.500000 0.500000
O O17 0.639815 0.142036 0.464056
O O18 0.500000 0.000000 0.500000
O O19 0.500000 0.191505 0.750000
#
# Coordination Sequence:
#
# PCOD8122617 Si02
#       8
#     4   4   4   4   4   4   4   4
#     4  11  25  42  73 101 130 170 222 273 343 391
#     4  11  22  42  61  95 135 176 215 269 335 403
#     4  12  26  40  63  99 129 179 228 272 329 394
#     4  11  24  47  70  96 133 176 220 281 336 393
#     4  12  24  42  70  99 131 176 231 280 328 388
#     4  11  25  40  64  94 136 177 224 269 334 398
#     4  12  23  44  71 103 130 169 216 277 326 405
#     4  12  25  41  64  95 138 176 221 270 333 400
#
# _framework density 21.018853
#
# number of rings (size 3 to 8) (size 9 to 14) (size 15 to 20)
#    0.000    0.500    6.250    2.250    3.500    1.000 
#    0.000    0.625    0.000    0.000    0.000    0.000 
#    0.000    0.000    0.000    0.000    0.000    0.000 
#
# Total GULP energy -396695.584352 kJ/mol
# GULP energy per Si atom -12396.737011 kJ/mol
# Density = 2.097101 g / cm^3
# Si number density = 21.018853 Si / 1000 Ang^3
#
#
#
# Elastic Constant Matrix: (Units=GPa)
#
#
# Indices 1 2 3 4 5 6 
#
# 1 115.9290 35.8748 23.7927 0.0000 -3.7184 0.0000
# 2 35.8748 61.0014 3.0851 0.0000 -2.7295 0.0000
# 3 23.7927 3.0851 86.1016 0.0000 5.9193 0.0000
# 4 0.0000 0.0000 0.0000 43.0903 0.0000 -0.6292
# 5 -3.7184 -2.7295 5.9193 0.0000 41.3812 0.0000
# 6 0.0000 0.0000 0.0000 -0.6292 0.0000 37.7066
#
#
#
# Elastic Compliance Matrix: (Units=1/GPa)
#
#
# Indices 1 2 3 4 5 6 
#
# 1 0.011251 -0.006422 -0.002948 0.000000 0.001009 0.000000
# 2 -0.006422 0.020146 0.001011 0.000000 0.000607 0.000000
# 3 -0.002948 0.001011 0.012529 0.000000 -0.001990 0.000000
# 4 0.000000 0.000000 0.000000 0.023213 0.000000 0.000387
# 5 0.001009 0.000607 -0.001990 0.000000 0.024581 0.000000
# 6 0.000000 0.000000 0.000000 0.000387 0.000000 0.026527
#
#
# Mechanical properties :
#
#
# Convention : Reuss Voigt Hill
#
# Bulk Modulus (GPa) = 36.75461 43.17082 39.96271
# Shear Modulus (GPa) = 34.71373 37.78759 36.25066
#
# Velocity S-wave (km/s) = 4.06834 4.24464 4.15742
# Velocity P-wave (km/s) = 6.29229 6.67880 6.48842
#
# Compressibility (1/GPa) = 0.02720747
#
# Stress axis : x y z
#
# Youngs Moduli (GPa) = 88.88225 49.63749 79.81169
#
# Poissons Ratio (x) = 0.31879 0.23530
# Poissons Ratio (y) = 0.57083 -0.08070
# Poissons Ratio (z) = 0.26205 -0.05019
#
# Static dielectric constant tensor:
#      x y z
#    x 4.082410 0.000000 0.057910 
#    y 0.000000 3.593120 0.000000 
#    z 0.057910 0.000000 4.059930 
# 
# 
# High freq. dielectric constant tensor:
#      x y z
#    x 1.832850 0.000000 0.009160 
#    y 0.000000 1.797790 0.000000 
#    z 0.009160 0.000000 1.840170 
# 
# From -- ./inp_files/19640.got.cif
#   From: 2010.06.25/outbox.cif.g09.slc.cpg/sg13_10_cif.got.tgz:19640.got - 2010.06.28 04:50:58.
