data_PCOD8122545
_publ_section_title
;
Structure prediction by ZEFSAII (Michael W. Deem and Ramdas Pophale) SiO2 
 PCOD8122545
Probable space group: P 2/C
;
_chemical_formula_sum "Si O2"
_cell_formula_units_Z 18
_cell_length_a 16.090476
_cell_length_b 8.821670
_cell_length_c 15.463942
_cell_angle_alpha 90.000000
_cell_angle_beta 24.819403
_cell_angle_gamma 90.000000
_cell_volume 921.383474
_symmetry_space_group_name_H-M "P 2/C"
_symmetry_group_IT_number 13
_symmetry_cell_setting 'monoclinic'
loop_
_space_group_symop_operation_xyz
x,y,z
-x,y,1/2-z
-x,-y,-z
x,-y,1/2+z
loop_
_atom_site_type_symbol
_atom_site_label
_atom_site_fract_x
_atom_site_fract_y
_atom_site_fract_z
Si Si1 0.399876 0.661777 0.588179
Si Si2 0.000000 0.966073 0.250000
Si Si3 0.218238 0.160420 0.811932
Si Si4 0.062420 0.255977 0.280562
Si Si5 0.150227 0.836963 0.947095
O O1 0.500000 0.500000 0.500000
O O2 0.562284 0.787561 0.415655
O O3 0.243521 0.661717 0.656714
O O4 0.290216 0.699188 0.783032
O O5 0.849406 0.861961 0.449097
O O6 0.879875 0.079295 0.297837
O O7 0.227979 0.981908 0.820933
O O8 0.131167 0.252192 0.976114
O O9 0.077395 0.196357 0.863341
O O10 0.000000 0.342013 0.250000
#
# Coordination Sequence:
#
# PCOD8122545 Si02
#       5
#     4   2   4   4   4
#     4  11  22  35  59  90 118 156 197 229 289 362
#     4   8  16  36  60  80 114 150 196 248 294 322
#     4   9  18  35  60  84 109 147 199 237 284 346
#     4   8  18  36  57  85 109 152 193 247 290 333
#     4   9  18  35  59  86 113 151 190 244 292 334
#
# _framework density 19.535841000000001
#
# number of rings (size 3 to 8) (size 9 to 14) (size 15 to 20)
#    0.667    2.222    0.000    2.000    0.000    4.444 
#    0.000    3.333   14.667    0.000    0.000    0.000 
#    0.000    0.000    0.000    0.000    0.000    0.000 
#
# Total GULP energy -223006.000636 kJ/mol
# GULP energy per Si atom -12389.222258 kJ/mol
# Density = 1.949138 g / cm^3
# Si number density = 19.535841 Si / 1000 Ang^3
#
#
#
# Elastic Constant Matrix: (Units=GPa)
#
#
# Indices 1 2 3 4 5 6 
#
# 1 96.3062 33.2795 52.9136 0.0000 14.9744 0.0000
# 2 33.2795 68.5323 38.5626 0.0000 1.5313 0.0000
# 3 52.9136 38.5626 104.1570 0.0000 4.0495 0.0000
# 4 0.0000 0.0000 0.0000 31.4500 0.0000 -3.3061
# 5 14.9744 1.5313 4.0495 0.0000 30.6685 0.0000
# 6 0.0000 0.0000 0.0000 -3.3061 0.0000 17.1321
#
#
#
# Elastic Compliance Matrix: (Units=1/GPa)
#
#
# Indices 1 2 3 4 5 6 
#
# 1 0.016526 -0.004166 -0.006582 0.000000 -0.006992 0.000000
# 2 -0.004166 0.019481 -0.005164 0.000000 0.001743 0.000000
# 3 -0.006582 -0.005164 0.014797 0.000000 0.001518 0.000000
# 4 0.000000 0.000000 0.000000 0.032455 0.000000 0.006263
# 5 -0.006992 0.001743 0.001518 0.000000 0.035733 0.000000
# 6 0.000000 0.000000 0.000000 0.006263 0.000000 0.059579
#
#
# Mechanical properties :
#
#
# Convention : Reuss Voigt Hill
#
# Bulk Modulus (GPa) = 52.68067 57.61190 55.14629
# Shear Modulus (GPa) = 23.07098 25.46609 24.26853
#
# Velocity S-wave (km/s) = 3.44023 3.61440 3.52839
# Velocity P-wave (km/s) = 6.54255 6.85368 6.69992
#
# Compressibility (1/GPa) = 0.01898229
#
# Stress axis : x y z
#
# Youngs Moduli (GPa) = 60.50952 51.33088 67.57924
#
# Poissons Ratio (x) = 0.21382 0.44478
# Poissons Ratio (y) = 0.25206 0.34900
# Poissons Ratio (z) = 0.39825 0.26509
#
# Static dielectric constant tensor:
#      x y z
#    x 3.619690 0.000000 0.181480 
#    y 0.000000 3.226950 0.000000 
#    z 0.181480 0.000000 3.449680 
# 
# 
# High freq. dielectric constant tensor:
#      x y z
#    x 1.751310 0.000000 0.017200 
#    y 0.000000 1.728510 0.000000 
#    z 0.017200 0.000000 1.754660 
# 
# From -- ./inp_files/60586.got.cif
#   From: 2010.06.25/outbox.cif.g09.slc.cpg/sg13_31_cif.got.tgz:60586.got - 2010.06.28 04:50:58.
