data_PCOD8122051
_publ_section_title
;
Structure prediction by ZEFSAII (Michael W. Deem and Ramdas Pophale) SiO2 
 PCOD8122051
Probable space group: P 2/C
;
_chemical_formula_sum "Si O2"
_cell_formula_units_Z 18
_cell_length_a 22.249915
_cell_length_b 5.216553
_cell_length_c 8.876220
_cell_angle_alpha 90.000000
_cell_angle_beta 51.834881
_cell_angle_gamma 90.000000
_cell_volume 810.011961
_symmetry_space_group_name_H-M "P 2/C"
_symmetry_group_IT_number 13
_symmetry_cell_setting 'monoclinic'
loop_
_space_group_symop_operation_xyz
x,y,z
-x,y,1/2-z
-x,-y,-z
x,-y,1/2+z
loop_
_atom_site_type_symbol
_atom_site_label
_atom_site_fract_x
_atom_site_fract_y
_atom_site_fract_z
Si Si1 0.207419 0.780080 0.555308
Si Si2 0.430681 0.306448 0.106630
Si Si3 0.260572 0.699865 0.805028
Si Si4 0.969935 0.752939 0.628702
Si Si5 0.500000 0.970900 0.750000
O O1 0.255816 0.736895 0.632836
O O2 0.209431 0.537240 0.439441
O O3 0.120262 0.793993 0.739618
O O4 0.237133 0.037536 0.426338
O O5 0.345321 0.405486 0.215379
O O6 0.434192 0.184498 0.266242
O O7 0.500000 0.500000 0.000000
O O8 0.446364 0.115771 0.947637
O O9 0.000000 0.744122 0.750000
O O10 0.000000 0.500000 0.500000
O O11 0.000000 0.000000 0.500000
#
# Coordination Sequence:
#
# PCOD8122051 Si02
#       5
#     4   4   4   4   2
#     4  12  26  47  69 106 139 183 226 279 349 407
#     4  11  25  41  67  92 128 174 229 277 338 397
#     4  12  27  44  71  97 144 179 230 285 344 404
#     4  12  24  44  74 104 141 181 227 278 334 411
#     4  10  24  42  64  92 126 162 236 270 338 392
#
# _framework density 22.221893000000001
#
# number of rings (size 3 to 8) (size 9 to 14) (size 15 to 20)
#    0.000    0.444    0.000    8.000   12.444    0.000 
#    0.000    0.000    0.000    0.000    0.000    0.000 
#    0.000    0.000    0.000    0.000    0.000    0.000 
#
# Total GULP energy -223115.500322 kJ/mol
# GULP energy per Si atom -12395.305573 kJ/mol
# Density = 2.217132 g / cm^3
# Si number density = 22.221893 Si / 1000 Ang^3
#
#
#
# Elastic Constant Matrix: (Units=GPa)
#
#
# Indices 1 2 3 4 5 6 
#
# 1 115.4737 25.2291 35.2722 0.0000 3.8385 0.0000
# 2 25.2291 155.3432 41.0640 0.0000 14.5624 0.0000
# 3 35.2722 41.0640 70.0418 0.0000 12.7575 0.0000
# 4 0.0000 0.0000 0.0000 81.8813 0.0000 17.2646
# 5 3.8385 14.5624 12.7575 0.0000 59.9143 0.0000
# 6 0.0000 0.0000 0.0000 17.2646 0.0000 40.3195
#
#
#
# Elastic Compliance Matrix: (Units=1/GPa)
#
#
# Indices 1 2 3 4 5 6 
#
# 1 0.010266 -0.000383 -0.005037 0.000000 0.000508 0.000000
# 2 -0.000383 0.007683 -0.004136 0.000000 -0.000962 0.000000
# 3 -0.005037 -0.004136 0.019764 0.000000 -0.002880 0.000000
# 4 0.000000 0.000000 0.000000 0.013425 0.000000 -0.005748
# 5 0.000508 -0.000962 -0.002880 0.000000 0.017505 0.000000
# 6 0.000000 0.000000 0.000000 -0.005748 0.000000 0.027263
#
#
# Mechanical properties :
#
#
# Convention : Reuss Voigt Hill
#
# Bulk Modulus (GPa) = 53.76799 60.44325 57.10562
# Shear Modulus (GPa) = 41.24766 52.37592 46.81179
#
# Velocity S-wave (km/s) = 4.31301 4.86011 4.59471
# Velocity P-wave (km/s) = 7.00365 7.66506 7.34181
#
# Compressibility (1/GPa) = 0.01859843
#
# Stress axis : x y z
#
# Youngs Moduli (GPa) = 97.41324 130.15435 50.59807
#
# Poissons Ratio (x) = 0.04988 0.25489
# Poissons Ratio (y) = 0.03733 0.20929
# Poissons Ratio (z) = 0.49072 0.53835
#
# Static dielectric constant tensor:
#      x y z
#    x 4.367840 0.000000 0.176640 
#    y 0.000000 3.739170 0.000000 
#    z 0.176640 0.000000 4.226910 
# 
# 
# High freq. dielectric constant tensor:
#      x y z
#    x 1.898020 0.000000 0.007870 
#    y 0.000000 1.885130 0.000000 
#    z 0.007870 0.000000 1.895450 
# 
# From -- ./inp_files/20335.got.cif
#   From: 2010.06.25/outbox.cif.g09.slc.cpg/sg13_11_cif.got.tgz:20335.got - 2010.06.28 04:50:58.
