data_PCOD8122241
_publ_section_title
;
Structure prediction by ZEFSAII (Michael W. Deem and Ramdas Pophale) SiO2 
 PCOD8122241
Probable space group: P 2/C
;
_chemical_formula_sum "Si O2"
_cell_formula_units_Z 22
_cell_length_a 11.179466
_cell_length_b 11.736570
_cell_length_c 10.726192
_cell_angle_alpha 90.000000
_cell_angle_beta 137.223976
_cell_angle_gamma 90.000000
_cell_volume 955.792077
_symmetry_space_group_name_H-M "P 2/C"
_symmetry_group_IT_number 13
_symmetry_cell_setting 'monoclinic'
loop_
_space_group_symop_operation_xyz
x,y,z
-x,y,1/2-z
-x,-y,-z
x,-y,1/2+z
loop_
_atom_site_type_symbol
_atom_site_label
_atom_site_fract_x
_atom_site_fract_y
_atom_site_fract_z
Si Si1 0.606513 0.033635 0.203836
Si Si2 0.697557 0.656630 0.412096
Si Si3 0.220362 0.752597 0.760324
Si Si4 0.124835 0.837131 0.096938
Si Si5 0.287097 0.594892 0.598257
Si Si6 0.000000 0.740657 0.250000
O O1 0.500000 0.015542 0.250000
O O2 0.647680 0.165933 0.215555
O O3 0.786132 0.960288 0.351815
O O4 0.500000 0.000000 0.000000
O O5 0.500000 0.618588 0.250000
O O6 0.728822 0.730035 0.559489
O O7 0.737227 0.735307 0.323101
O O8 0.790588 0.533256 0.479342
O O9 0.224168 0.633722 0.688031
O O10 0.030726 0.814228 0.621435
O O11 0.045773 0.826188 0.173717
O O12 0.500000 0.608881 0.750000
O O13 0.177091 0.668476 0.413372
#
# Coordination Sequence:
#
# PCOD8122241 Si02
#       6
#     4   4   4   4   4   2
#     4  12  27  46  76 104 144 190 243 304 364 442
#     4  11  25  43  71 105 141 188 241 297 358 435
#     4  11  25  45  70 103 144 188 239 295 365 435
#     4  11  25  45  68 104 138 188 235 299 358 430
#     4  10  25  42  70 103 143 190 237 296 359 426
#     4  10  26  42  72 100 146 184 240 294 350 442
#
# _framework density 23.017558999999999
#
# number of rings (size 3 to 8) (size 9 to 14) (size 15 to 20)
#    0.000    1.091    0.000    4.364   15.273    2.909 
#    3.273    0.000    0.000    0.000    0.000    0.000 
#    0.000    0.000    0.000    0.000    0.000    0.000 
#
# Total GULP energy -272717.278049 kJ/mol
# GULP energy per Si atom -12396.239911 kJ/mol
# Density = 2.296517 g / cm^3
# Si number density = 23.017559 Si / 1000 Ang^3
#
#
#
# Elastic Constant Matrix: (Units=GPa)
#
#
# Indices 1 2 3 4 5 6 
#
# 1 122.6996 56.0403 39.1277 0.0000 -16.8099 0.0000
# 2 56.0403 129.3364 30.1937 0.0000 -9.9592 0.0000
# 3 39.1277 30.1937 113.5380 0.0000 -4.6724 0.0000
# 4 0.0000 0.0000 0.0000 24.5697 0.0000 1.0054
# 5 -16.8099 -9.9592 -4.6724 0.0000 35.2978 0.0000
# 6 0.0000 0.0000 0.0000 1.0054 0.0000 29.2622
#
#
#
# Elastic Compliance Matrix: (Units=1/GPa)
#
#
# Indices 1 2 3 4 5 6 
#
# 1 0.011373 -0.003996 -0.002695 0.000000 0.003932 0.000000
# 2 -0.003996 0.009797 -0.001199 0.000000 0.000703 0.000000
# 3 -0.002695 -0.001199 0.010043 0.000000 -0.000292 0.000000
# 4 0.000000 0.000000 0.000000 0.040758 0.000000 -0.001400
# 5 0.003932 0.000703 -0.000292 0.000000 0.030362 0.000000
# 6 0.000000 0.000000 0.000000 -0.001400 0.000000 0.034222
#
#
# Mechanical properties :
#
#
# Convention : Reuss Voigt Hill
#
# Bulk Modulus (GPa) = 64.79609 68.47750 66.63680
# Shear Modulus (GPa) = 31.74988 33.84012 32.79500
#
# Velocity S-wave (km/s) = 3.71803 3.83846 3.77872
# Velocity P-wave (km/s) = 6.82960 7.03276 6.93193
#
# Compressibility (1/GPa) = 0.01543303
#
# Stress axis : x y z
#
# Youngs Moduli (GPa) = 87.92649 102.06903 99.56887
#
# Poissons Ratio (x) = 0.40786 0.26833
# Poissons Ratio (y) = 0.35135 0.11943
# Poissons Ratio (z) = 0.23696 0.12243
#
# Static dielectric constant tensor:
#      x y z
#    x 4.251480 0.000000 0.198100 
#    y 0.000000 4.359570 0.000000 
#    z 0.198100 0.000000 4.260320 
# 
# 
# High freq. dielectric constant tensor:
#      x y z
#    x 1.912570 0.000000 0.004910 
#    y 0.000000 1.918770 0.000000 
#    z 0.004910 0.000000 1.916100 
# 
# From -- ./inp_files/34046.got.cif
#   From: 2010.06.25/outbox.cif.g09.slc.cpg/sg13_18_cif.got.tgz:34046.got - 2010.06.28 04:50:58.
