data_PCOD8122235
_publ_section_title
;
Structure prediction by ZEFSAII (Michael W. Deem and Ramdas Pophale) SiO2 
 PCOD8122235
Probable space group: P 2/C
;
_chemical_formula_sum "Si O2"
_cell_formula_units_Z 14
_cell_length_a 19.521486
_cell_length_b 5.227754
_cell_length_c 9.247538
_cell_angle_alpha 90.000000
_cell_angle_beta 147.685569
_cell_angle_gamma 90.000000
_cell_volume 504.492653
_symmetry_space_group_name_H-M "P 2/C"
_symmetry_group_IT_number 13
_symmetry_cell_setting 'monoclinic'
loop_
_space_group_symop_operation_xyz
x,y,z
-x,y,1/2-z
-x,-y,-z
x,-y,1/2+z
loop_
_atom_site_type_symbol
_atom_site_label
_atom_site_fract_x
_atom_site_fract_y
_atom_site_fract_z
Si Si1 0.854626 0.030882 0.456974
Si Si2 0.500000 0.944458 0.750000
Si Si3 0.148001 0.531434 0.218547
Si Si4 0.664326 0.205351 0.803652
O O1 0.814755 0.810391 0.272490
O O2 0.770802 0.008945 0.453021
O O3 0.830382 0.315731 0.362722
O O4 0.000000 0.974778 0.750000
O O5 0.432555 0.767069 0.506606
O O6 0.597640 0.127137 0.836106
O O7 0.254491 0.468543 0.532274
O O8 0.000000 0.500000 0.000000
#
# Coordination Sequence:
#
# PCOD8122235 Si02
#       4
#     4   2   4   4
#     4  12  26  46  79 123 165 208 270 344 417 484
#     4  10  24  52  84 118 168 230 274 338 394 508
#     4  12  26  46  79 122 166 211 267 343 415 487
#     4  11  24  49  85 118 167 216 285 331 417 484
#
# _framework density 27.750651999999999
#
# number of rings (size 3 to 8) (size 9 to 14) (size 15 to 20)
#    0.000    0.571    5.714    1.714    0.000    0.000 
#    0.000    4.286    0.000    0.000    0.000    0.000 
#    0.000    0.000    0.000    0.000    0.000    0.000 
#
# Total GULP energy -173463.372467 kJ/mol
# GULP energy per Si atom -12390.240891 kJ/mol
# Density = 2.768749 g / cm^3
# Si number density = 27.750652 Si / 1000 Ang^3
#
#
#
# Elastic Constant Matrix: (Units=GPa)
#
#
# Indices 1 2 3 4 5 6 
#
# 1 192.8943 46.9146 54.0261 0.0000 6.5920 0.0000
# 2 46.9146 92.8215 32.7525 0.0000 -22.9409 0.0000
# 3 54.0261 32.7525 189.8940 0.0000 -3.7523 0.0000
# 4 0.0000 0.0000 0.0000 59.5727 0.0000 -9.8438
# 5 6.5920 -22.9409 -3.7523 0.0000 54.5914 0.0000
# 6 0.0000 0.0000 0.0000 -9.8438 0.0000 40.3329
#
#
#
# Elastic Compliance Matrix: (Units=1/GPa)
#
#
# Indices 1 2 3 4 5 6 
#
# 1 0.006443 -0.003362 -0.001298 0.000000 -0.002280 0.000000
# 2 -0.003362 0.014566 -0.001429 0.000000 0.006429 0.000000
# 3 -0.001298 -0.001429 0.005881 0.000000 -0.000039 0.000000
# 4 0.000000 0.000000 0.000000 0.017492 0.000000 0.004269
# 5 -0.002280 0.006429 -0.000039 0.000000 0.021292 0.000000
# 6 0.000000 0.000000 0.000000 0.004269 0.000000 0.025836
#
#
# Mechanical properties :
#
#
# Convention : Reuss Voigt Hill
#
# Bulk Modulus (GPa) = 67.97210 82.55512 75.26361
# Shear Modulus (GPa) = 46.04397 53.69384 49.86891
#
# Velocity S-wave (km/s) = 4.07775 4.40349 4.24374
# Velocity P-wave (km/s) = 6.83504 7.46108 7.15491
#
# Compressibility (1/GPa) = 0.01471192
#
# Stress axis : x y z
#
# Youngs Moduli (GPa) = 155.19576 68.65465 170.03535
#
# Poissons Ratio (x) = 0.23083 0.22077
# Poissons Ratio (y) = 0.52179 0.24292
# Poissons Ratio (z) = 0.20150 0.09808
#
# Static dielectric constant tensor:
#      x y z
#    x 5.553820 0.000000 0.269070 
#    y 0.000000 4.900490 0.000000 
#    z 0.269070 0.000000 6.126570 
# 
# 
# High freq. dielectric constant tensor:
#      x y z
#    x 2.142860 0.000000 0.003700 
#    y 0.000000 2.102210 0.000000 
#    z 0.003700 0.000000 2.145560 
# 
# From -- ./inp_files/20617.got.cif
#   From: 2010.06.25/outbox.cif.g09.slc.cpg/sg13_11_cif.got.tgz:20617.got - 2010.06.28 04:50:58.
