data_PCOD8122507
_publ_section_title
;
Structure prediction by ZEFSAII (Michael W. Deem and Ramdas Pophale) SiO2 
 PCOD8122507
Probable space group: P 2/C
;
_chemical_formula_sum "Si O2"
_cell_formula_units_Z 24
_cell_length_a 18.435099
_cell_length_b 9.413617
_cell_length_c 15.615359
_cell_angle_alpha 90.000000
_cell_angle_beta 155.366854
_cell_angle_gamma 90.000000
_cell_volume 1129.506375
_symmetry_space_group_name_H-M "P 2/C"
_symmetry_group_IT_number 13
_symmetry_cell_setting 'monoclinic'
loop_
_space_group_symop_operation_xyz
x,y,z
-x,y,1/2-z
-x,-y,-z
x,-y,1/2+z
loop_
_atom_site_type_symbol
_atom_site_label
_atom_site_fract_x
_atom_site_fract_y
_atom_site_fract_z
Si Si1 0.191112 0.993871 0.671125
Si Si2 0.500000 0.094740 0.750000
Si Si3 0.371865 0.739125 0.957612
Si Si4 0.595317 0.261496 0.544768
Si Si5 0.000000 0.650073 0.250000
Si Si6 0.710116 0.132107 0.393299
Si Si7 0.127750 0.486234 0.717523
O O1 0.292332 0.877621 0.831702
O O2 0.178842 0.947732 0.559578
O O3 0.290900 0.140594 0.788327
O O4 0.000000 0.000000 0.500000
O O5 0.488626 0.202705 0.659290
O O6 0.334900 0.988748 0.584661
O O7 0.223050 0.635971 0.834028
O O8 0.487690 0.664310 0.007311
O O9 0.467616 0.199770 0.334929
O O10 0.723139 0.371212 0.637456
O O11 0.983649 0.552392 0.317329
O O12 0.173284 0.745145 0.440036
O O13 0.000000 0.500000 0.500000
#
# Coordination Sequence:
#
# PCOD8122507 Si02
#       7
#     4   2   4   4   2   4   4
#     4  11  21  41  67 100 129 178 233 285 346 410
#     4  12  22  40  64 104 140 168 232 300 352 408
#     4  11  24  41  66 100 135 177 233 281 350 416
#     4  11  21  46  72  96 133 191 235 279 350 427
#     4  12  28  46  68 108 142 192 240 290 358 426
#     4  11  23  42  69  98 137 176 237 293 343 418
#     4  12  27  48  69  99 147 187 235 289 353 425
#
# _framework density 21.248218999999999
#
# number of rings (size 3 to 8) (size 9 to 14) (size 15 to 20)
#    0.000    0.667    3.333    6.500    2.333    2.667 
#    3.000    0.000    0.000    0.000    0.000    0.000 
#    0.000    0.000    0.000    0.000    0.000    0.000 
#
# Total GULP energy -297615.868502 kJ/mol
# GULP energy per Si atom -12400.661188 kJ/mol
# Density = 2.119986 g / cm^3
# Si number density = 21.248219 Si / 1000 Ang^3
#
#
#
# Elastic Constant Matrix: (Units=GPa)
#
#
# Indices 1 2 3 4 5 6 
#
# 1 122.5995 77.3751 47.7660 0.0000 5.8450 0.0000
# 2 77.3751 203.3128 40.7910 0.0000 23.6484 0.0000
# 3 47.7660 40.7910 87.2527 0.0000 9.9596 0.0000
# 4 0.0000 0.0000 0.0000 35.4800 0.0000 12.5817
# 5 5.8450 23.6484 9.9596 0.0000 40.2908 0.0000
# 6 0.0000 0.0000 0.0000 12.5817 0.0000 48.4189
#
#
#
# Elastic Compliance Matrix: (Units=1/GPa)
#
#
# Indices 1 2 3 4 5 6 
#
# 1 0.012617 -0.003954 -0.005263 0.000000 0.001792 0.000000
# 2 -0.003954 0.006953 -0.000705 0.000000 -0.003333 0.000000
# 3 -0.005263 -0.000705 0.014960 0.000000 -0.002520 0.000000
# 4 0.000000 0.000000 0.000000 0.031046 0.000000 -0.008067
# 5 0.001792 -0.003333 -0.002520 0.000000 0.027139 0.000000
# 6 0.000000 0.000000 0.000000 -0.008067 0.000000 0.022749
#
#
# Mechanical properties :
#
#
# Convention : Reuss Voigt Hill
#
# Bulk Modulus (GPa) = 68.09974 82.78101 75.44038
# Shear Modulus (GPa) = 35.66241 41.32012 38.49127
#
# Velocity S-wave (km/s) = 4.10124 4.41459 4.26080
# Velocity P-wave (km/s) = 7.38553 8.06402 7.73222
#
# Compressibility (1/GPa) = 0.01468434
#
# Stress axis : x y z
#
# Youngs Moduli (GPa) = 79.25541 143.83230 66.84642
#
# Poissons Ratio (x) = 0.56875 0.35183
# Poissons Ratio (y) = 0.31340 0.04714
# Poissons Ratio (z) = 0.41714 0.10143
#
# Static dielectric constant tensor:
#      x y z
#    x 4.730160 0.000000 -0.278800 
#    y 0.000000 3.928590 0.000000 
#    z -0.278800 0.000000 3.667800 
# 
# 
# High freq. dielectric constant tensor:
#      x y z
#    x 1.853540 0.000000 0.003500 
#    y 0.000000 1.833890 0.000000 
#    z 0.003500 0.000000 1.830210 
# 
# From -- ./inp_files/55399.got.cif
#   From: 2010.06.25/outbox.cif.g09.slc.cpg/sg13_28_cif.got.tgz:55399.got - 2010.06.28 04:50:58.
