data_PCOD8122819
_publ_section_title
;
Structure prediction by ZEFSAII (Michael W. Deem and Ramdas Pophale) SiO2 
 PCOD8122819
Probable space group: P 2/C
;
_chemical_formula_sum "Si O2"
_cell_formula_units_Z 16
_cell_length_a 4.855796
_cell_length_b 6.002577
_cell_length_c 21.780113
_cell_angle_alpha 90.000000
_cell_angle_beta 87.967177
_cell_angle_gamma 90.000000
_cell_volume 634.431738
_symmetry_space_group_name_H-M "P 2/C"
_symmetry_group_IT_number 13
_symmetry_cell_setting 'monoclinic'
loop_
_space_group_symop_operation_xyz
x,y,z
-x,y,1/2-z
-x,-y,-z
x,-y,1/2+z
loop_
_atom_site_type_symbol
_atom_site_label
_atom_site_fract_x
_atom_site_fract_y
_atom_site_fract_z
Si Si1 0.283928 0.310500 0.987864
Si Si2 0.495343 0.603619 0.678049
Si Si3 0.002225 0.633717 0.124953
Si Si4 0.632482 0.981884 0.902430
O O1 0.018802 0.405066 0.950295
O O2 0.417891 0.142167 0.937457
O O3 0.500000 0.500000 0.000000
O O4 0.206604 0.175942 0.049671
O O5 0.500000 0.640527 0.750000
O O6 0.701399 0.404092 0.657231
O O7 0.553062 0.838530 0.643798
O O8 0.190962 0.546831 0.656570
O O9 0.129877 0.878994 0.135201
#
# Coordination Sequence:
#
# PCOD8122819 Si02
#       4
#     4   4   4   4
#     4  11  23  47  76 117 154 190 246 318 386 459
#     4  12  29  51  73 106 153 200 262 314 369 452
#     4  12  25  50  75 111 148 198 248 316 379 447
#     4  11  25  45  79 111 154 195 252 306 394 453
#
# _framework density 25.219418000000001
#
# number of rings (size 3 to 8) (size 9 to 14) (size 15 to 20)
#    0.000    0.500    5.000    1.500    3.500    5.000 
#    4.500    0.000    0.000    0.000    0.000    0.000 
#    0.000    0.000    0.000    0.000    0.000    0.000 
#
# Total GULP energy -198401.343178 kJ/mol
# GULP energy per Si atom -12400.083949 kJ/mol
# Density = 2.516202 g / cm^3
# Si number density = 25.219418 Si / 1000 Ang^3
#
#
#
# Elastic Constant Matrix: (Units=GPa)
#
#
# Indices 1 2 3 4 5 6 
#
# 1 92.2823 25.5058 40.5701 0.0000 21.2802 0.0000
# 2 25.5058 128.4445 69.7166 0.0000 9.1361 0.0000
# 3 40.5701 69.7166 198.1985 0.0000 22.9228 0.0000
# 4 0.0000 0.0000 0.0000 36.2667 0.0000 -0.7731
# 5 21.2802 9.1361 22.9228 0.0000 37.9787 0.0000
# 6 0.0000 0.0000 0.0000 -0.7731 0.0000 28.8755
#
#
#
# Elastic Compliance Matrix: (Units=1/GPa)
#
#
# Indices 1 2 3 4 5 6 
#
# 1 0.013319 -0.001376 -0.001524 0.000000 -0.006212 0.000000
# 2 -0.001376 0.009768 -0.003195 0.000000 0.000349 0.000000
# 3 -0.001524 -0.003195 0.006766 0.000000 -0.002461 0.000000
# 4 0.000000 0.000000 0.000000 0.027589 0.000000 0.000739
# 5 -0.006212 0.000349 -0.002461 0.000000 0.031213 0.000000
# 6 0.000000 0.000000 0.000000 0.000739 0.000000 0.034651
#
#
# Mechanical properties :
#
#
# Convention : Reuss Voigt Hill
#
# Bulk Modulus (GPa) = 56.61268 76.72336 66.66802
# Shear Modulus (GPa) = 35.36504 39.49970 37.43237
#
# Velocity S-wave (km/s) = 3.74878 3.96187 3.85680
# Velocity P-wave (km/s) = 6.42142 7.17056 6.80630
#
# Compressibility (1/GPa) = 0.01766389
#
# Stress axis : x y z
#
# Youngs Moduli (GPa) = 75.08047 102.37749 147.80342
#
# Poissons Ratio (x) = 0.14085 0.22524
# Poissons Ratio (y) = 0.10330 0.47217
# Poissons Ratio (z) = 0.11442 0.32706
#
# Static dielectric constant tensor:
#      x y z
#    x 4.523510 0.000000 0.283040 
#    y 0.000000 5.067970 0.000000 
#    z 0.283040 0.000000 4.674950 
# 
# 
# High freq. dielectric constant tensor:
#      x y z
#    x 2.007990 0.000000 0.019350 
#    y 0.000000 2.024360 0.000000 
#    z 0.019350 0.000000 1.994850 
# 
# From -- ./inp_files/72625.got.cif
#   From: 2010.06.25/outbox.cif.g09.slc.cpg/sg13_37_cif.got.tgz:72625.got - 2010.06.28 04:50:58.
