data_PCOD8122263
_publ_section_title
;
Structure prediction by ZEFSAII (Michael W. Deem and Ramdas Pophale) SiO2 
 PCOD8122263
Probable space group: P 2/C
;
_chemical_formula_sum "Si O2"
_cell_formula_units_Z 32
_cell_length_a 21.016677
_cell_length_b 14.018652
_cell_length_c 14.264258
_cell_angle_alpha 90.000000
_cell_angle_beta 158.993429
_cell_angle_gamma 90.000000
_cell_volume 1506.532074
_symmetry_space_group_name_H-M "P 2/C"
_symmetry_group_IT_number 13
_symmetry_cell_setting 'monoclinic'
loop_
_space_group_symop_operation_xyz
x,y,z
-x,y,1/2-z
-x,-y,-z
x,-y,1/2+z
loop_
_atom_site_type_symbol
_atom_site_label
_atom_site_fract_x
_atom_site_fract_y
_atom_site_fract_z
Si Si1 0.185436 0.487363 0.949747
Si Si2 0.126590 0.411653 0.677742
Si Si3 0.874430 0.907839 0.491327
Si Si4 0.857142 0.869087 0.974455
Si Si5 0.929402 0.219502 0.376911
Si Si6 0.523960 0.789829 0.027503
Si Si7 0.512377 0.618846 0.879880
Si Si8 0.642218 0.680562 0.371496
O O1 0.175591 0.407864 0.854319
O O2 0.000000 0.482557 0.750000
O O3 0.369442 0.443714 0.244834
O O4 0.220980 0.596356 0.968673
O O5 0.000000 0.500000 0.500000
O O6 0.037099 0.316565 0.518850
O O7 0.294296 0.431236 0.839510
O O8 0.679384 0.867404 0.241245
O O9 0.000000 0.878112 0.750000
O O10 0.955116 0.864699 0.507941
O O11 0.869729 0.020007 0.468462
O O12 0.893436 0.805671 0.934029
O O13 0.658090 0.847381 0.731769
O O14 0.000000 0.839760 0.250000
O O15 0.748268 0.234238 0.068980
O O16 0.540346 0.723247 0.142020
O O17 0.527657 0.725163 0.940398
O O18 0.500000 0.625908 0.750000
O O19 0.500000 0.637700 0.250000
#
# Coordination Sequence:
#
# PCOD8122263 Si02
#       8
#     4   4   4   4   4   4   4   4
#     4  11  27  42  68  99 138 186 242 282 348 412
#     4  11  23  41  67  97 139 183 230 286 341 411
#     4  11  24  47  73 106 140 178 232 298 355 425
#     4  11  28  46  71 104 140 184 236 294 356 419
#     4  12  24  44  74  99 143 186 233 283 360 415
#     4  12  25  43  76 102 140 180 236 288 359 420
#     4  10  25  45  64  97 143 183 227 285 343 415
#     4  12  25  44  69 104 142 186 228 294 350 412
#
# _framework density 21.240836999999999
#
# number of rings (size 3 to 8) (size 9 to 14) (size 15 to 20)
#    0.000    0.750    5.000    1.875    8.750    0.500 
#    0.000    0.000    0.000    0.000    0.000    0.000 
#    0.000    0.000    0.000    0.000    0.000    0.000 
#
# Total GULP energy -396606.734461 kJ/mol
# GULP energy per Si atom -12393.960452 kJ/mol
# Density = 2.119249 g / cm^3
# Si number density = 21.240837 Si / 1000 Ang^3
#
#
#
# Elastic Constant Matrix: (Units=GPa)
#
#
# Indices 1 2 3 4 5 6 
#
# 1 81.6520 35.2311 55.9128 0.0000 24.0403 0.0000
# 2 35.2311 91.5126 62.3092 0.0000 3.1509 0.0000
# 3 55.9128 62.3092 156.0759 0.0000 30.6742 0.0000
# 4 0.0000 0.0000 0.0000 42.3545 0.0000 4.5958
# 5 24.0403 3.1509 30.6742 0.0000 44.0042 0.0000
# 6 0.0000 0.0000 0.0000 4.5958 0.0000 37.2471
#
#
#
# Elastic Compliance Matrix: (Units=1/GPa)
#
#
# Indices 1 2 3 4 5 6 
#
# 1 0.018816 -0.004681 -0.003381 0.000000 -0.007588 0.000000
# 2 -0.004681 0.016678 -0.006083 0.000000 0.005603 0.000000
# 3 -0.003381 -0.006083 0.011122 0.000000 -0.005470 0.000000
# 4 0.000000 0.000000 0.000000 0.023931 0.000000 -0.002953
# 5 -0.007588 0.005603 -0.005470 0.000000 0.030282 0.000000
# 6 0.000000 0.000000 0.000000 -0.002953 0.000000 0.027212
#
#
# Mechanical properties :
#
#
# Convention : Reuss Voigt Hill
#
# Bulk Modulus (GPa) = 54.56320 70.68297 62.62309
# Shear Modulus (GPa) = 30.78107 36.44033 33.61070
#
# Velocity S-wave (km/s) = 3.81089 4.14645 3.98221
# Velocity P-wave (km/s) = 6.71621 7.50155 7.11972
#
# Compressibility (1/GPa) = 0.01832737
#
# Stress axis : x y z
#
# Youngs Moduli (GPa) = 53.14720 59.95886 89.91470
#
# Poissons Ratio (x) = 0.28065 0.30397
# Poissons Ratio (y) = 0.24876 0.54692
# Poissons Ratio (z) = 0.17967 0.36471
#
# Static dielectric constant tensor:
#      x y z
#    x 3.790650 0.000000 0.055430 
#    y 0.000000 3.819870 0.000000 
#    z 0.055430 0.000000 4.621090 
# 
# 
# High freq. dielectric constant tensor:
#      x y z
#    x 1.832660 0.000000 0.006770 
#    y 0.000000 1.828420 0.000000 
#    z 0.006770 0.000000 1.860490 
# 
# From -- ./inp_files/57876.got.cif
#   From: 2010.06.25/outbox.cif.g09.slc.cpg/sg13_29_cif.got.tgz:57876.got - 2010.06.28 04:50:58.
