data_PCOD8122642
_publ_section_title
;
Structure prediction by ZEFSAII (Michael W. Deem and Ramdas Pophale) SiO2 
 PCOD8122642
Probable space group: P 2/C
;
_chemical_formula_sum "Si O2"
_cell_formula_units_Z 18
_cell_length_a 5.668882
_cell_length_b 10.029780
_cell_length_c 13.652952
_cell_angle_alpha 90.000000
_cell_angle_beta 86.804628
_cell_angle_gamma 90.000000
_cell_volume 775.067723
_symmetry_space_group_name_H-M "P 2/C"
_symmetry_group_IT_number 13
_symmetry_cell_setting 'monoclinic'
loop_
_space_group_symop_operation_xyz
x,y,z
-x,y,1/2-z
-x,-y,-z
x,-y,1/2+z
loop_
_atom_site_type_symbol
_atom_site_label
_atom_site_fract_x
_atom_site_fract_y
_atom_site_fract_z
Si Si1 0.751832 0.141866 0.802433
Si Si2 0.213359 0.507212 0.421104
Si Si3 0.526142 0.721508 0.480507
Si Si4 0.000000 0.627161 0.750000
Si Si5 0.675616 0.156025 0.335570
O O1 0.500000 0.157626 0.750000
O O2 0.728848 0.222512 0.904595
O O3 0.000000 0.194473 0.750000
O O4 0.799289 0.986760 0.823786
O O5 0.318724 0.657214 0.418548
O O6 0.398874 0.396232 0.449274
O O7 0.000000 0.500000 0.500000
O O8 0.155623 0.473305 0.310362
O O9 0.443622 0.840547 0.554173
O O10 0.138530 0.722849 0.671653
O O11 0.500000 0.179033 0.250000
#
# Coordination Sequence:
#
# PCOD8122642 Si02
#       5
#     4   4   4   2   4
#     4  11  27  47  73 111 148 191 242 306 375 434
#     4  11  25  42  68 103 142 186 246 292 363 432
#     4  11  25  46  68 105 143 191 241 303 363 438
#     4  12  22  42  72 102 144 194 240 300 358 442
#     4  11  22  45  71 105 141 188 243 300 362 438
#
# _framework density 23.223776000000001
#
# number of rings (size 3 to 8) (size 9 to 14) (size 15 to 20)
#    0.000    0.889    5.556    0.667    3.111    1.778 
#    0.000    4.444    0.000    0.000    0.000    0.000 
#    0.000    0.000    0.000    0.000    0.000    0.000 
#
# Total GULP energy -223133.261216 kJ/mol
# GULP energy per Si atom -12396.292290 kJ/mol
# Density = 2.317092 g / cm^3
# Si number density = 23.223776 Si / 1000 Ang^3
#
#
#
# Elastic Constant Matrix: (Units=GPa)
#
#
# Indices 1 2 3 4 5 6 
#
# 1 113.0617 27.0332 50.5127 0.0000 -17.6993 0.0000
# 2 27.0332 66.8799 52.6987 0.0000 3.6491 0.0000
# 3 50.5127 52.6987 143.7156 0.0000 -15.9497 0.0000
# 4 0.0000 0.0000 0.0000 30.9025 0.0000 -7.4814
# 5 -17.6993 3.6491 -15.9497 0.0000 50.4373 0.0000
# 6 0.0000 0.0000 0.0000 -7.4814 0.0000 24.4837
#
#
#
# Elastic Compliance Matrix: (Units=1/GPa)
#
#
# Indices 1 2 3 4 5 6 
#
# 1 0.011146 -0.002651 -0.002581 0.000000 0.003287 0.000000
# 2 -0.002651 0.022511 -0.007883 0.000000 -0.005052 0.000000
# 3 -0.002581 -0.007883 0.011109 0.000000 0.003178 0.000000
# 4 0.000000 0.000000 0.000000 0.034945 0.000000 0.010678
# 5 0.003287 -0.005052 0.003178 0.000000 0.022350 0.000000
# 6 0.000000 0.000000 0.000000 0.010678 0.000000 0.044106
#
#
# Mechanical properties :
#
#
# Convention : Reuss Voigt Hill
#
# Bulk Modulus (GPa) = 53.95064 64.90517 59.42791
# Shear Modulus (GPa) = 27.99913 34.05887 31.02900
#
# Velocity S-wave (km/s) = 3.47598 3.83371 3.65922
# Velocity P-wave (km/s) = 6.27623 6.89963 6.59530
#
# Compressibility (1/GPa) = 0.01853546
#
# Stress axis : x y z
#
# Youngs Moduli (GPa) = 89.71672 44.42212 90.02004
#
# Poissons Ratio (x) = 0.11777 0.23231
# Poissons Ratio (y) = 0.23786 0.70967
# Poissons Ratio (z) = 0.23153 0.35020
#
# Static dielectric constant tensor:
#      x y z
#    x 3.491910 0.000000 -0.164080 
#    y 0.000000 4.430290 0.000000 
#    z -0.164080 0.000000 4.011690 
# 
# 
# High freq. dielectric constant tensor:
#      x y z
#    x 1.913370 0.000000 -0.005840 
#    y 0.000000 1.924340 0.000000 
#    z -0.005840 0.000000 1.922130 
# 
# From -- ./inp_files/25804.got.cif
#   From: 2010.06.25/outbox.cif.g09.slc.cpg/sg13_13_cif.got.tgz:25804.got - 2010.06.28 04:50:58.
