data_PCOD8122770
_publ_section_title
;
Structure prediction by ZEFSAII (Michael W. Deem and Ramdas Pophale) SiO2 
 PCOD8122770
Probable space group: P 2/C
;
_chemical_formula_sum "Si O2"
_cell_formula_units_Z 30
_cell_length_a 18.728368
_cell_length_b 14.203619
_cell_length_c 11.755627
_cell_angle_alpha 90.000000
_cell_angle_beta 153.842644
_cell_angle_gamma 90.000000
_cell_volume 1378.553711
_symmetry_space_group_name_H-M "P 2/C"
_symmetry_group_IT_number 13
_symmetry_cell_setting 'monoclinic'
loop_
_space_group_symop_operation_xyz
x,y,z
-x,y,1/2-z
-x,-y,-z
x,-y,1/2+z
loop_
_atom_site_type_symbol
_atom_site_label
_atom_site_fract_x
_atom_site_fract_y
_atom_site_fract_z
Si Si1 0.811493 0.725483 0.083651
Si Si2 0.395781 0.066760 0.493511
Si Si3 0.163617 0.444002 0.746307
Si Si4 0.500000 0.792550 0.750000
Si Si5 0.839899 0.771342 0.868329
Si Si6 0.365004 0.876009 0.345793
Si Si7 0.321301 0.629042 0.023464
Si Si8 0.180258 0.688103 0.052321
O O1 0.858488 0.616332 0.168944
O O2 0.966169 0.788797 0.344579
O O3 0.662147 0.733684 0.958100
O O4 0.767899 0.745897 0.890313
O O5 0.500000 0.030130 0.750000
O O6 0.246642 0.136450 0.307831
O O7 0.531127 0.125626 0.619547
O O8 0.309861 0.982906 0.297705
O O9 0.200818 0.376891 0.692059
O O10 0.000000 0.500000 0.500000
O O11 0.307437 0.519107 0.970580
O O12 0.488952 0.855315 0.623475
O O13 0.810330 0.686981 0.737929
O O14 0.223765 0.797975 0.139176
O O15 0.500000 0.665806 0.250000
O O16 0.296280 0.645415 0.121723
O O17 0.000000 0.685975 0.750000
#
# Coordination Sequence:
#
# PCOD8122770 Si02
#       8
#     4   4   4   2   4   4   4   4
#     4  11  25  41  70  93 139 179 230 282 346 408
#     4  11  23  44  72 101 141 185 231 282 353 416
#     4  12  25  45  68  99 136 183 233 282 347 411
#     4  12  22  46  68 102 130 184 226 290 342 410
#     4  11  23  45  67  99 137 182 225 288 340 412
#     4  11  24  43  71 105 138 185 230 287 347 418
#     4  12  28  43  69 105 138 183 235 288 349 414
#     4  12  25  46  72  99 143 184 231 292 351 413
#
# _framework density 21.761938000000001
#
# number of rings (size 3 to 8) (size 9 to 14) (size 15 to 20)
#    0.000    0.533    6.000    2.000    2.800    0.533 
#    2.400    0.667    0.000    0.000    0.000    0.000 
#    0.000    0.000    0.000    0.000    0.000    0.000 
#
# Total GULP energy -371847.346904 kJ/mol
# GULP energy per Si atom -12394.911563 kJ/mol
# Density = 2.171241 g / cm^3
# Si number density = 21.761938 Si / 1000 Ang^3
#
#
#
# Elastic Constant Matrix: (Units=GPa)
#
#
# Indices 1 2 3 4 5 6 
#
# 1 112.8657 27.7426 31.4242 0.0000 5.6728 0.0000
# 2 27.7426 113.5173 25.7683 0.0000 2.0000 0.0000
# 3 31.4242 25.7683 76.0495 0.0000 2.1918 0.0000
# 4 0.0000 0.0000 0.0000 34.6195 0.0000 -3.5655
# 5 5.6728 2.0000 2.1918 0.0000 38.6713 0.0000
# 6 0.0000 0.0000 0.0000 -3.5655 0.0000 34.1899
#
#
#
# Elastic Compliance Matrix: (Units=1/GPa)
#
#
# Indices 1 2 3 4 5 6 
#
# 1 0.010357 -0.001675 -0.003677 0.000000 -0.001224 0.000000
# 2 -0.001675 0.009818 -0.002631 0.000000 -0.000113 0.000000
# 3 -0.003677 -0.002631 0.015566 0.000000 -0.000207 0.000000
# 4 0.000000 0.000000 0.000000 0.029199 0.000000 0.003045
# 5 -0.001224 -0.000113 -0.000207 0.000000 0.026056 0.000000
# 6 0.000000 0.000000 0.000000 0.003045 0.000000 0.029566
#
#
# Mechanical properties :
#
#
# Convention : Reuss Voigt Hill
#
# Bulk Modulus (GPa) = 50.56897 52.47808 51.52353
# Shear Modulus (GPa) = 34.93576 35.99597 35.46586
#
# Velocity S-wave (km/s) = 4.01104 4.07145 4.04136
# Velocity P-wave (km/s) = 6.68873 6.80215 6.74568
#
# Compressibility (1/GPa) = 0.01977497
#
# Stress axis : x y z
#
# Youngs Moduli (GPa) = 96.55278 101.85514 64.24207
#
# Poissons Ratio (x) = 0.17060 0.23620
# Poissons Ratio (y) = 0.16172 0.16904
# Poissons Ratio (z) = 0.35500 0.26801
#
# Static dielectric constant tensor:
#      x y z
#    x 4.051140 0.000000 -0.196730 
#    y 0.000000 4.183010 0.000000 
#    z -0.196730 0.000000 3.964920 
# 
# 
# High freq. dielectric constant tensor:
#      x y z
#    x 1.861920 0.000000 -0.011450 
#    y 0.000000 1.856800 0.000000 
#    z -0.011450 0.000000 1.853950 
# 
# From -- ./inp_files/39406.got.cif
#   From: 2010.06.25/outbox.cif.g09.slc.cpg/sg13_20_cif.got.tgz:39406.got - 2010.06.28 04:50:58.
