data_PCOD8122600
_publ_section_title
;
Structure prediction by ZEFSAII (Michael W. Deem and Ramdas Pophale) SiO2 
 PCOD8122600
Probable space group: P 2/C
;
_chemical_formula_sum "Si O2"
_cell_formula_units_Z 28
_cell_length_a 21.117402
_cell_length_b 8.606806
_cell_length_c 23.316768
_cell_angle_alpha 90.000000
_cell_angle_beta 161.419129
_cell_angle_gamma 90.000000
_cell_volume 1350.377062
_symmetry_space_group_name_H-M "P 2/C"
_symmetry_group_IT_number 13
_symmetry_cell_setting 'monoclinic'
loop_
_space_group_symop_operation_xyz
x,y,z
-x,y,1/2-z
-x,-y,-z
x,-y,1/2+z
loop_
_atom_site_type_symbol
_atom_site_label
_atom_site_fract_x
_atom_site_fract_y
_atom_site_fract_z
Si Si1 0.827412 0.829693 0.141182
Si Si2 0.505746 0.595696 0.818825
Si Si3 0.531367 0.371877 0.608993
Si Si4 0.939004 0.333586 0.563755
Si Si5 0.121303 0.147205 0.089036
Si Si6 0.193404 0.569905 0.727484
Si Si7 0.489089 0.986594 0.060102
O O1 0.000000 0.912056 0.250000
O O2 0.953754 0.704006 0.285203
O O3 0.672915 0.728813 0.970762
O O4 0.719941 0.955870 0.090708
O O5 0.500000 0.522312 0.750000
O O6 0.532485 0.455251 0.886737
O O7 0.296327 0.680951 0.642708
O O8 0.736382 0.450419 0.762520
O O9 0.370104 0.400993 0.422379
O O10 0.544916 0.186673 0.629218
O O11 0.002901 0.206267 0.572049
O O12 0.007291 0.503585 0.602589
O O13 0.115704 0.270502 0.135345
O O14 0.351360 0.103837 0.275655
O O15 0.000000 0.000000 0.000000
O O16 0.500000 0.000000 0.000000
#
# Coordination Sequence:
#
# PCOD8122600 Si02
#       7
#     4   4   4   4   4   4   4
#     4  12  25  47  71 101 138 188 238 292 353 430
#     4  12  25  47  69  99 132 188 244 283 341 428
#     4  11  23  42  68 101 142 180 231 287 353 415
#     4  12  24  41  69  99 138 175 240 284 346 419
#     4  12  24  38  64 108 146 177 228 288 361 423
#     4  11  22  40  67 102 141 181 221 296 353 410
#     4  12  24  44  70 104 148 184 227 297 360 422
#
# _framework density 20.734950000000001
#
# number of rings (size 3 to 8) (size 9 to 14) (size 15 to 20)
#    0.000    0.286    7.143    3.000    2.000    0.000 
#    0.000    4.286    0.000    0.000    0.000    0.000 
#    0.000    0.000    0.000    0.000    0.000    0.000 
#
# Total GULP energy -346985.829041 kJ/mol
# GULP energy per Si atom -12392.351037 kJ/mol
# Density = 2.068776 g / cm^3
# Si number density = 20.734950 Si / 1000 Ang^3
#
#
#
# Elastic Constant Matrix: (Units=GPa)
#
#
# Indices 1 2 3 4 5 6 
#
# 1 80.3050 16.5032 2.6206 0.0000 5.8696 0.0000
# 2 16.5032 93.5948 8.2475 0.0000 6.0595 0.0000
# 3 2.6206 8.2475 74.3545 0.0000 6.3523 0.0000
# 4 0.0000 0.0000 0.0000 37.2226 0.0000 1.3490
# 5 5.8696 6.0595 6.3523 0.0000 38.0730 0.0000
# 6 0.0000 0.0000 0.0000 1.3490 0.0000 25.0203
#
#
#
# Elastic Compliance Matrix: (Units=1/GPa)
#
#
# Indices 1 2 3 4 5 6 
#
# 1 0.013024 -0.002183 -0.000076 0.000000 -0.001648 0.000000
# 2 -0.002183 0.011245 -0.001061 0.000000 -0.001276 0.000000
# 3 -0.000076 -0.001061 0.013750 0.000000 -0.002113 0.000000
# 4 0.000000 0.000000 0.000000 0.026918 0.000000 -0.001451
# 5 -0.001648 -0.001276 -0.002113 0.000000 0.027075 0.000000
# 6 0.000000 0.000000 0.000000 -0.001451 0.000000 0.040046
#
#
# Mechanical properties :
#
#
# Convention : Reuss Voigt Hill
#
# Bulk Modulus (GPa) = 31.86909 33.66633 32.76771
# Shear Modulus (GPa) = 33.52125 34.78871 34.15498
#
# Velocity S-wave (km/s) = 4.02513 4.10052 4.06300
# Velocity P-wave (km/s) = 6.08320 6.22019 6.15207
#
# Compressibility (1/GPa) = 0.03137837
#
# Stress axis : x y z
#
# Youngs Moduli (GPa) = 76.78081 88.92488 72.72697
#
# Poissons Ratio (x) = 0.19413 0.00553
# Poissons Ratio (y) = 0.16762 0.07719
# Poissons Ratio (z) = 0.00584 0.09438
#
# Static dielectric constant tensor:
#      x y z
#    x 3.667830 0.000000 0.926840 
#    y 0.000000 3.699820 0.000000 
#    z 0.926840 0.000000 2.412860 
# 
# 
# High freq. dielectric constant tensor:
#      x y z
#    x 1.807140 0.000000 -0.006390 
#    y 0.000000 1.799160 0.000000 
#    z -0.006390 0.000000 1.835020 
# 
# From -- ./inp_files/82156.got.cif
#   From: 2010.06.25/outbox.cif.g09.slc.cpg/sg13_42_cif.got.tgz:82156.got - 2010.06.28 04:50:58.
