data_PCOD8122937
_publ_section_title
;
Structure prediction by ZEFSAII (Michael W. Deem and Ramdas Pophale) SiO2 
 PCOD8122937
Probable space group: P 2/C
;
_chemical_formula_sum "Si O2"
_cell_formula_units_Z 18
_cell_length_a 5.934864
_cell_length_b 6.156132
_cell_length_c 21.513150
_cell_angle_alpha 90.000000
_cell_angle_beta 102.958139
_cell_angle_gamma 90.000000
_cell_volume 765.984119
_symmetry_space_group_name_H-M "P 2/C"
_symmetry_group_IT_number 13
_symmetry_cell_setting 'monoclinic'
loop_
_space_group_symop_operation_xyz
x,y,z
-x,y,1/2-z
-x,-y,-z
x,-y,1/2+z
loop_
_atom_site_type_symbol
_atom_site_label
_atom_site_fract_x
_atom_site_fract_y
_atom_site_fract_z
Si Si1 0.095379 0.951401 0.360662
Si Si2 0.000000 0.637117 0.250000
Si Si3 0.832458 0.366228 0.533875
Si Si4 0.703869 0.705380 0.805132
Si Si5 0.541091 0.300147 0.087090
O O1 0.334904 0.078154 0.385331
O O2 0.885027 0.106350 0.330440
O O3 0.034335 0.825559 0.421355
O O4 0.139333 0.785484 0.307228
O O5 0.815559 0.492065 0.274775
O O6 0.626657 0.258572 0.481576
O O7 0.734202 0.524379 0.581054
O O8 0.000000 0.500000 0.500000
O O9 0.500000 0.805064 0.750000
O O10 0.606334 0.611311 0.863849
#
# Coordination Sequence:
#
# PCOD8122937 Si02
#       5
#     4   2   4   4   4
#     4  12  25  45  71 101 136 178 228 281 337 404
#     4  12  26  46  70  98 140 182 226 284 340 400
#     4  11  25  47  72 101 140 180 224 281 341 405
#     4  12  26  46  69 100 138 179 229 280 340 406
#     4  11  25  45  71 103 137 178 227 279 340 406
#
# _framework density 23.499182999999999
#
# number of rings (size 3 to 8) (size 9 to 14) (size 15 to 20)
#    0.000    0.444    0.000    9.333    0.000   11.556 
#    0.000    4.444    0.000    0.000    0.000    0.000 
#    0.000    0.000    0.000    0.000    0.000    0.000 
#
# Total GULP energy -223298.836004 kJ/mol
# GULP energy per Si atom -12405.490889 kJ/mol
# Density = 2.344570 g / cm^3
# Si number density = 23.499183 Si / 1000 Ang^3
#
#
#
# Elastic Constant Matrix: (Units=GPa)
#
#
# Indices 1 2 3 4 5 6 
#
# 1 126.2710 83.9710 67.6884 0.0000 -16.2770 0.0000
# 2 83.9710 147.5002 99.1561 0.0000 5.1238 0.0000
# 3 67.6884 99.1561 157.3838 0.0000 -7.4600 0.0000
# 4 0.0000 0.0000 0.0000 62.2260 0.0000 2.9008
# 5 -16.2770 5.1238 -7.4600 0.0000 63.1224 0.0000
# 6 0.0000 0.0000 0.0000 2.9008 0.0000 23.8223
#
#
#
# Elastic Compliance Matrix: (Units=1/GPa)
#
#
# Indices 1 2 3 4 5 6 
#
# 1 0.013906 -0.007224 -0.001239 0.000000 0.004026 0.000000
# 2 -0.007224 0.015730 -0.006991 0.000000 -0.003966 0.000000
# 3 -0.001239 -0.006991 0.011367 0.000000 0.001591 0.000000
# 4 0.000000 0.000000 0.000000 0.016162 0.000000 -0.001968
# 5 0.004026 -0.003966 0.001591 0.000000 0.017390 0.000000
# 6 0.000000 0.000000 0.000000 -0.001968 0.000000 0.042217
#
#
# Mechanical properties :
#
#
# Convention : Reuss Voigt Hill
#
# Bulk Modulus (GPa) = 99.05908 103.64287 101.35097
# Shear Modulus (GPa) = 33.10251 41.85679 37.47965
#
# Velocity S-wave (km/s) = 3.75729 4.22501 3.99800
# Velocity P-wave (km/s) = 7.81465 8.24631 8.03338
#
# Compressibility (1/GPa) = 0.01009499
#
# Stress axis : x y z
#
# Youngs Moduli (GPa) = 71.90890 63.57372 87.97512
#
# Poissons Ratio (x) = 0.45925 0.10899
# Poissons Ratio (y) = 0.51946 0.61506
# Poissons Ratio (z) = 0.08909 0.44446
#
# Static dielectric constant tensor:
#      x y z
#    x 4.185080 0.000000 0.046480 
#    y 0.000000 4.192270 0.000000 
#    z 0.046480 0.000000 4.799120 
# 
# 
# High freq. dielectric constant tensor:
#      x y z
#    x 1.927490 0.000000 0.005360 
#    y 0.000000 1.925810 0.000000 
#    z 0.005360 0.000000 1.966520 
# 
# From -- ./inp_files/82957.got.cif
#   From: 2010.06.25/outbox.cif.g09.slc.cpg/sg13_42_cif.got.tgz:82957.got - 2010.06.28 04:50:58.
