data_PCOD8122848
_publ_section_title
;
Structure prediction by ZEFSAII (Michael W. Deem and Ramdas Pophale) SiO2 
 PCOD8122848
Probable space group: P 2/C
;
_chemical_formula_sum "Si O2"
_cell_formula_units_Z 24
_cell_length_a 11.191733
_cell_length_b 10.720220
_cell_length_c 11.315676
_cell_angle_alpha 90.000000
_cell_angle_beta 130.199884
_cell_angle_gamma 90.000000
_cell_volume 1036.954454
_symmetry_space_group_name_H-M "P 2/C"
_symmetry_group_IT_number 13
_symmetry_cell_setting 'monoclinic'
loop_
_space_group_symop_operation_xyz
x,y,z
-x,y,1/2-z
-x,-y,-z
x,-y,1/2+z
loop_
_atom_site_type_symbol
_atom_site_label
_atom_site_fract_x
_atom_site_fract_y
_atom_site_fract_z
Si Si1 0.185205 0.758558 0.543751
Si Si2 0.902302 0.127651 0.941692
Si Si3 0.271020 0.919106 0.392609
Si Si4 0.333054 0.278170 0.579698
Si Si5 0.906969 0.504273 0.565991
Si Si6 0.380873 0.171743 0.375967
O O1 0.177984 0.880313 0.452177
O O2 0.179867 0.628867 0.469616
O O3 0.337425 0.769694 0.722503
O O4 0.034239 0.764725 0.534141
O O5 0.807637 0.158048 0.762066
O O6 0.771041 0.151545 0.959083
O O7 0.000000 0.000000 0.000000
O O8 0.447480 0.880675 0.528927
O O9 0.263022 0.062785 0.345574
O O10 0.500000 0.274411 0.750000
O O11 0.232061 0.398441 0.545691
O O12 0.371990 0.281139 0.466076
O O13 0.000000 0.533281 0.750000
O O14 0.000000 0.500000 0.500000
#
# Coordination Sequence:
#
# PCOD8122848 Si02
#       6
#     4   4   4   4   4   4
#     4  12  25  45  72 106 144 191 250 307 367 448
#     4  12  23  43  71 105 140 185 237 299 370 438
#     4  11  24  43  69 105 148 190 235 303 372 449
#     4  12  27  47  73 104 149 195 250 308 375 449
#     4  12  27  50  77 107 148 200 261 318 374 445
#     4  11  25  44  71 105 150 192 239 302 380 450
#
# _framework density 23.144701000000001
#
# number of rings (size 3 to 8) (size 9 to 14) (size 15 to 20)
#    0.000    0.333    5.000    4.000    0.000    1.333 
#    0.000    2.500    0.000    0.000    0.000    0.000 
#    0.000    0.000    0.000    0.000    0.000    0.000 
#
# Total GULP energy -297323.011265 kJ/mol
# GULP energy per Si atom -12388.458803 kJ/mol
# Density = 2.309202 g / cm^3
# Si number density = 23.144701 Si / 1000 Ang^3
#
#
#
# Elastic Constant Matrix: (Units=GPa)
#
#
# Indices 1 2 3 4 5 6 
#
# 1 81.9084 18.5715 18.6189 0.0000 -1.5256 0.0000
# 2 18.5715 92.9554 13.3040 0.0000 17.8742 0.0000
# 3 18.6189 13.3040 122.0134 0.0000 -2.8456 0.0000
# 4 0.0000 0.0000 0.0000 33.9715 0.0000 0.7676
# 5 -1.5256 17.8742 -2.8456 0.0000 43.4785 0.0000
# 6 0.0000 0.0000 0.0000 0.7676 0.0000 29.7471
#
#
#
# Elastic Compliance Matrix: (Units=1/GPa)
#
#
# Indices 1 2 3 4 5 6 
#
# 1 0.013228 -0.002681 -0.001692 0.000000 0.001455 0.000000
# 2 -0.002681 0.012464 -0.001073 0.000000 -0.005288 0.000000
# 3 -0.001692 -0.001073 0.008593 0.000000 0.000944 0.000000
# 4 0.000000 0.000000 0.000000 0.029454 0.000000 -0.000760
# 5 0.001455 -0.005288 0.000944 0.000000 0.025287 0.000000
# 6 0.000000 0.000000 0.000000 -0.000760 0.000000 0.033636
#
#
# Mechanical properties :
#
#
# Convention : Reuss Voigt Hill
#
# Bulk Modulus (GPa) = 42.74803 44.20734 43.47769
# Shear Modulus (GPa) = 35.37266 37.86494 36.61880
#
# Velocity S-wave (km/s) = 3.91362 4.04915 3.98196
# Velocity P-wave (km/s) = 6.23954 6.40333 6.32197
#
# Compressibility (1/GPa) = 0.02339289
#
# Stress axis : x y z
#
# Youngs Moduli (GPa) = 75.59534 80.23191 116.37202
#
# Poissons Ratio (x) = 0.21506 0.19695
# Poissons Ratio (y) = 0.20263 0.12490
# Poissons Ratio (z) = 0.12794 0.08611
#
# Static dielectric constant tensor:
#      x y z
#    x 4.313320 0.000000 0.025160 
#    y 0.000000 4.320390 0.000000 
#    z 0.025160 0.000000 4.270630 
# 
# 
# High freq. dielectric constant tensor:
#      x y z
#    x 1.922180 0.000000 0.001490 
#    y 0.000000 1.901930 0.000000 
#    z 0.001490 0.000000 1.929940 
# 
# From -- ./inp_files/33923.got.cif
#   From: 2010.06.25/outbox.cif.g09.slc.cpg/sg13_17_cif.got.tgz:33923.got - 2010.06.28 04:50:58.
