data_PCOD8122239
_publ_section_title
;
Structure prediction by ZEFSAII (Michael W. Deem and Ramdas Pophale) SiO2 
 PCOD8122239
Probable space group: P 2/C
;
_chemical_formula_sum "Si O2"
_cell_formula_units_Z 24
_cell_length_a 18.241870
_cell_length_b 7.175028
_cell_length_c 13.610413
_cell_angle_alpha 90.000000
_cell_angle_beta 138.605928
_cell_angle_gamma 90.000000
_cell_volume 1177.930326
_symmetry_space_group_name_H-M "P 2/C"
_symmetry_group_IT_number 13
_symmetry_cell_setting 'monoclinic'
loop_
_space_group_symop_operation_xyz
x,y,z
-x,y,1/2-z
-x,-y,-z
x,-y,1/2+z
loop_
_atom_site_type_symbol
_atom_site_label
_atom_site_fract_x
_atom_site_fract_y
_atom_site_fract_z
Si Si1 0.034069 0.712630 0.553157
Si Si2 0.440633 0.860894 0.870457
Si Si3 0.593052 0.406841 0.419624
Si Si4 0.070901 0.006477 0.919569
Si Si5 0.304794 0.943628 0.559921
Si Si6 0.280577 0.245603 0.369297
O O1 0.150062 0.724790 0.727197
O O2 0.000000 0.500000 0.500000
O O3 0.945510 0.815457 0.535037
O O4 0.036421 0.816604 0.450902
O O5 0.526597 0.693333 0.940234
O O6 0.328846 0.787122 0.809344
O O7 0.410496 0.968999 0.738950
O O8 0.500000 0.000000 0.000000
O O9 0.500000 0.478385 0.250000
O O10 0.663980 0.575077 0.529565
O O11 0.685428 0.269951 0.465540
O O12 0.000000 0.008281 0.750000
O O13 0.197909 0.018387 0.017718
O O14 0.308965 0.074153 0.469278
#
# Coordination Sequence:
#
# PCOD8122239 Si02
#       6
#     4   4   4   4   4   4
#     4  11  27  44  68 100 130 173 225 271 332 395
#     4  11  23  43  68  95 131 174 215 266 320 384
#     4  10  25  41  64 100 134 169 217 266 320 389
#     4  11  24  46  69  94 134 172 220 276 330 390
#     4  11  24  44  66  98 131 170 219 265 327 388
#     4  12  24  43  68  96 132 176 216 267 330 385
#
# _framework density 20.374721999999998
#
# number of rings (size 3 to 8) (size 9 to 14) (size 15 to 20)
#    0.000    1.000    5.000    0.500    4.667    3.333 
#    0.000    0.000    0.000    0.000    0.000    0.000 
#    0.000    0.000    0.000    0.000    0.000    0.000 
#
# Total GULP energy -297577.726978 kJ/mol
# GULP energy per Si atom -12399.071957 kJ/mol
# Density = 2.032835 g / cm^3
# Si number density = 20.374722 Si / 1000 Ang^3
#
#
#
# Elastic Constant Matrix: (Units=GPa)
#
#
# Indices 1 2 3 4 5 6 
#
# 1 117.4323 31.4365 14.4592 0.0000 1.0987 0.0000
# 2 31.4365 109.5916 50.6976 0.0000 -8.3589 0.0000
# 3 14.4592 50.6976 91.7779 0.0000 -15.5508 0.0000
# 4 0.0000 0.0000 0.0000 40.1320 0.0000 0.0966
# 5 1.0987 -8.3589 -15.5508 0.0000 36.3937 0.0000
# 6 0.0000 0.0000 0.0000 0.0966 0.0000 22.3037
#
#
#
# Elastic Compliance Matrix: (Units=1/GPa)
#
#
# Indices 1 2 3 4 5 6 
#
# 1 0.009255 -0.002657 -0.000152 0.000000 -0.000955 0.000000
# 2 -0.002657 0.013020 -0.006741 0.000000 0.000190 0.000000
# 3 -0.000152 -0.006741 0.015505 0.000000 0.005081 0.000000
# 4 0.000000 0.000000 0.000000 0.024918 0.000000 -0.000108
# 5 -0.000955 0.000190 0.005081 0.000000 0.029721 0.000000
# 6 0.000000 0.000000 0.000000 -0.000108 0.000000 0.044836
#
#
# Mechanical properties :
#
#
# Convention : Reuss Voigt Hill
#
# Bulk Modulus (GPa) = 53.53817 56.88760 55.21288
# Shear Modulus (GPa) = 30.75377 34.57976 32.66676
#
# Velocity S-wave (km/s) = 3.88932 4.12417 4.00847
# Velocity P-wave (km/s) = 6.81931 7.11756 6.97003
#
# Compressibility (1/GPa) = 0.01867826
#
# Stress axis : x y z
#
# Youngs Moduli (GPa) = 108.05539 76.80418 64.49658
#
# Poissons Ratio (x) = 0.20408 0.00980
# Poissons Ratio (y) = 0.28712 0.43480
# Poissons Ratio (z) = 0.01642 0.51777
#
# Static dielectric constant tensor:
#      x y z
#    x 5.658070 0.000000 -0.282460 
#    y 0.000000 3.582210 0.000000 
#    z -0.282460 0.000000 3.863410 
# 
# 
# High freq. dielectric constant tensor:
#      x y z
#    x 1.815890 0.000000 -0.004650 
#    y 0.000000 1.788920 0.000000 
#    z -0.004650 0.000000 1.809680 
# 
# From -- ./inp_files/56469.got.cif
#   From: 2010.06.25/outbox.cif.g09.slc.cpg/sg13_29_cif.got.tgz:56469.got - 2010.06.28 04:50:58.
