data_PCOD8122075
_publ_section_title
;
Structure prediction by ZEFSAII (Michael W. Deem and Ramdas Pophale) SiO2 
 PCOD8122075
Probable space group: P 2/C
;
_chemical_formula_sum "Si O2"
_cell_formula_units_Z 16
_cell_length_a 21.497058
_cell_length_b 5.436707
_cell_length_c 8.924938
_cell_angle_alpha 90.000000
_cell_angle_beta 138.383227
_cell_angle_gamma 90.000000
_cell_volume 692.760530
_symmetry_space_group_name_H-M "P 2/C"
_symmetry_group_IT_number 13
_symmetry_cell_setting 'monoclinic'
loop_
_space_group_symop_operation_xyz
x,y,z
-x,y,1/2-z
-x,-y,-z
x,-y,1/2+z
loop_
_atom_site_type_symbol
_atom_site_label
_atom_site_fract_x
_atom_site_fract_y
_atom_site_fract_z
Si Si1 0.403457 0.829561 0.610322
Si Si2 0.653851 0.482792 0.236963
Si Si3 0.966222 0.246756 0.519134
Si Si4 0.251182 0.218470 0.334781
O O1 0.500000 0.983821 0.750000
O O2 0.412577 0.608204 0.505740
O O3 0.403141 0.732656 0.780887
O O4 0.304252 0.961334 0.398646
O O5 0.743122 0.372675 0.308383
O O6 0.690756 0.671288 0.424729
O O7 0.855607 0.206290 0.311242
O O8 0.000000 0.254784 0.750000
O O9 0.000000 0.500000 0.500000
O O10 0.000000 0.000000 0.500000
#
# Coordination Sequence:
#
# PCOD8122075 Si02
#       4
#     4   4   4   4
#     4  11  24  42  68 102 140 187 237 291 360 434
#     4  10  24  42  68  95 142 181 235 288 363 422
#     4  12  29  49  79 111 151 197 254 313 385 450
#     4  11  25  43  71  97 140 180 238 296 358 434
#
# _framework density 23.096005000000002
#
# number of rings (size 3 to 8) (size 9 to 14) (size 15 to 20)
#    0.000    1.000    0.000    4.500   14.000    8.000 
#    0.000    0.000    0.000    0.000    0.000    0.000 
#    0.000    0.000    0.000    0.000    0.000    0.000 
#
# Total GULP energy -198254.717961 kJ/mol
# GULP energy per Si atom -12390.919873 kJ/mol
# Density = 2.304344 g / cm^3
# Si number density = 23.096005 Si / 1000 Ang^3
#
#
#
# Elastic Constant Matrix: (Units=GPa)
#
#
# Indices 1 2 3 4 5 6 
#
# 1 167.1353 62.5893 67.6213 0.0000 15.3845 0.0000
# 2 62.5893 119.3341 28.1105 0.0000 1.4795 0.0000
# 3 67.6213 28.1105 79.7141 0.0000 3.1956 0.0000
# 4 0.0000 0.0000 0.0000 16.3817 0.0000 2.7645
# 5 15.3845 1.4795 3.1956 0.0000 70.7798 0.0000
# 6 0.0000 0.0000 0.0000 2.7645 0.0000 39.8411
#
#
#
# Elastic Compliance Matrix: (Units=1/GPa)
#
#
# Indices 1 2 3 4 5 6 
#
# 1 0.010658 -0.003768 -0.007637 0.000000 -0.001893 0.000000
# 2 -0.003768 0.010471 -0.000521 0.000000 0.000624 0.000000
# 3 -0.007637 -0.000521 0.019175 0.000000 0.000805 0.000000
# 4 0.000000 0.000000 0.000000 0.061767 0.000000 -0.004286
# 5 -0.001893 0.000624 0.000805 0.000000 0.014490 0.000000
# 6 0.000000 0.000000 0.000000 -0.004286 0.000000 0.025397
#
#
# Mechanical properties :
#
#
# Convention : Reuss Voigt Hill
#
# Bulk Modulus (GPa) = 60.78226 75.86952 68.32589
# Shear Modulus (GPa) = 29.18960 39.25802 34.22381
#
# Velocity S-wave (km/s) = 3.55891 4.12731 3.85360
# Velocity P-wave (km/s) = 6.57739 7.45881 7.03192
#
# Compressibility (1/GPa) = 0.01645217
#
# Stress axis : x y z
#
# Youngs Moduli (GPa) = 93.82542 95.50168 52.15220
#
# Poissons Ratio (x) = 0.35982 0.39827
# Poissons Ratio (y) = 0.35350 0.02719
# Poissons Ratio (z) = 0.71652 0.04980
#
# Static dielectric constant tensor:
#      x y z
#    x 4.750830 0.000000 -0.048260 
#    y 0.000000 4.277650 0.000000 
#    z -0.048260 0.000000 4.021560 
# 
# 
# High freq. dielectric constant tensor:
#      x y z
#    x 1.946390 0.000000 -0.012330 
#    y 0.000000 1.910690 0.000000 
#    z -0.012330 0.000000 1.909440 
# 
# From -- ./inp_files/17579.got.cif
#   From: 2010.06.25/outbox.cif.g09.slc.cpg/sg13_9_cif.got.tgz:17579.got - 2010.06.28 04:50:58.
