data_PCOD8122109
_publ_section_title
;
Structure prediction by ZEFSAII (Michael W. Deem and Ramdas Pophale) SiO2 
 PCOD8122109
Probable space group: P 2/C
;
_chemical_formula_sum "Si O2"
_cell_formula_units_Z 20
_cell_length_a 9.129588
_cell_length_b 5.091790
_cell_length_c 23.404869
_cell_angle_alpha 90.000000
_cell_angle_beta 127.448440
_cell_angle_gamma 90.000000
_cell_volume 863.762088
_symmetry_space_group_name_H-M "P 2/C"
_symmetry_group_IT_number 13
_symmetry_cell_setting 'monoclinic'
loop_
_space_group_symop_operation_xyz
x,y,z
-x,y,1/2-z
-x,-y,-z
x,-y,1/2+z
loop_
_atom_site_type_symbol
_atom_site_label
_atom_site_fract_x
_atom_site_fract_y
_atom_site_fract_z
Si Si1 0.179682 0.267247 0.941579
Si Si2 0.370733 0.857191 0.597794
Si Si3 0.303590 0.811693 0.347558
Si Si4 0.064517 0.229545 0.113265
Si Si5 0.265784 0.310841 0.277511
O O1 0.280799 0.306598 0.905202
O O2 0.022445 0.483255 0.916558
O O3 0.332250 0.277134 0.027382
O O4 0.097904 0.976229 0.918482
O O5 0.179537 0.875702 0.586295
O O6 0.510052 0.677076 0.668011
O O7 0.475861 0.138542 0.612321
O O8 0.205007 0.601573 0.281874
O O9 0.200829 0.090003 0.309051
O O10 0.196317 0.234313 0.199103
#
# Coordination Sequence:
#
# PCOD8122109 Si02
#       5
#     4   4   4   4   4
#     4  12  26  42  70  99 137 171 224 281 337 388
#     4  10  26  45  69  96 134 180 226 267 333 407
#     4  10  24  43  71  93 132 178 226 267 330 405
#     4  12  26  43  67 102 136 173 219 286 337 387
#     4  10  24  43  70  93 134 176 227 266 333 405
#
# _framework density 23.154522
#
# number of rings (size 3 to 8) (size 9 to 14) (size 15 to 20)
#    1.200    0.000    0.000    4.800    5.600    5.600 
#    3.600    0.000    0.000    0.000    0.000    0.000 
#    0.000    0.000    0.000    0.000    0.000    0.000 
#
# Total GULP energy -247831.112054 kJ/mol
# GULP energy per Si atom -12391.555603 kJ/mol
# Density = 2.310182 g / cm^3
# Si number density = 23.154522 Si / 1000 Ang^3
#
#
#
# Elastic Constant Matrix: (Units=GPa)
#
#
# Indices 1 2 3 4 5 6 
#
# 1 87.1919 15.3196 5.0064 0.0000 -17.8849 0.0000
# 2 15.3196 113.1082 12.3869 0.0000 1.2852 0.0000
# 3 5.0064 12.3869 115.4046 0.0000 4.4982 0.0000
# 4 0.0000 0.0000 0.0000 27.0314 0.0000 -1.8984
# 5 -17.8849 1.2852 4.4982 0.0000 28.9236 0.0000
# 6 0.0000 0.0000 0.0000 -1.8984 0.0000 23.3160
#
#
#
# Elastic Compliance Matrix: (Units=1/GPa)
#
#
# Indices 1 2 3 4 5 6 
#
# 1 0.013603 -0.001861 -0.000726 0.000000 0.008607 0.000000
# 2 -0.001861 0.009203 -0.000851 0.000000 -0.001427 0.000000
# 3 -0.000726 -0.000851 0.008858 0.000000 -0.001789 0.000000
# 4 0.000000 0.000000 0.000000 0.037207 0.000000 0.003029
# 5 0.008607 -0.001427 -0.001789 0.000000 0.040238 0.000000
# 6 0.000000 0.000000 0.000000 0.003029 0.000000 0.043136
#
#
# Mechanical properties :
#
#
# Convention : Reuss Voigt Hill
#
# Bulk Modulus (GPa) = 40.34317 42.34783 41.34550
# Shear Modulus (GPa) = 29.87179 34.72031 32.29605
#
# Velocity S-wave (km/s) = 3.59570 3.87654 3.73876
# Velocity P-wave (km/s) = 5.89067 6.19401 6.04424
#
# Compressibility (1/GPa) = 0.02478734
#
# Stress axis : x y z
#
# Youngs Moduli (GPa) = 73.51286 108.66526 112.89546
#
# Poissons Ratio (x) = 0.20220 0.08195
# Poissons Ratio (y) = 0.13679 0.09612
# Poissons Ratio (z) = 0.05336 0.09252
#
# Static dielectric constant tensor:
#      x y z
#    x 3.923070 0.000000 -0.027410 
#    y 0.000000 4.082500 0.000000 
#    z -0.027410 0.000000 4.205550 
# 
# 
# High freq. dielectric constant tensor:
#      x y z
#    x 1.898880 0.000000 0.001670 
#    y 0.000000 1.915010 0.000000 
#    z 0.001670 0.000000 1.928010 
# 
# From -- ./inp_files/84207.got.cif
#   From: 2010.06.25/outbox.cif.g09.slc.cpg/sg13_43_cif.got.tgz:84207.got - 2010.06.28 04:50:58.
