data_PCOD8122889
_publ_section_title
;
Structure prediction by ZEFSAII (Michael W. Deem and Ramdas Pophale) SiO2 
 PCOD8122889
Probable space group: P 2/C
;
_chemical_formula_sum "Si O2"
_cell_formula_units_Z 16
_cell_length_a 8.795546
_cell_length_b 6.974650
_cell_length_c 21.194501
_cell_angle_alpha 90.000000
_cell_angle_beta 153.762963
_cell_angle_gamma 90.000000
_cell_volume 574.797604
_symmetry_space_group_name_H-M "P 2/C"
_symmetry_group_IT_number 13
_symmetry_cell_setting 'monoclinic'
loop_
_space_group_symop_operation_xyz
x,y,z
-x,y,1/2-z
-x,-y,-z
x,-y,1/2+z
loop_
_atom_site_type_symbol
_atom_site_label
_atom_site_fract_x
_atom_site_fract_y
_atom_site_fract_z
Si Si1 0.682022 0.854943 0.384074
Si Si2 0.889478 0.372214 0.374391
Si Si3 0.173141 0.367773 0.881027
Si Si4 0.972347 0.965260 0.808767
O O1 0.500000 0.820287 0.250000
O O2 0.400303 0.931538 0.328004
O O3 0.843735 0.648919 0.467182
O O4 0.000000 0.000000 0.500000
O O5 0.500000 0.339960 0.250000
O O6 0.933970 0.567602 0.351553
O O7 0.011512 0.194366 0.376047
O O8 0.000000 0.400445 0.750000
O O9 0.250812 0.141004 0.920710
O O10 0.500000 0.500000 0.000000
O O11 0.000000 0.868524 0.750000
#
# Coordination Sequence:
#
# PCOD8122889 Si02
#       4
#     4   4   4   4
#     4  12  23  47  71 105 155 189 248 312 366 451
#     4  12  25  46  78 109 148 199 249 305 381 447
#     4  11  27  50  73 110 154 195 252 309 374 450
#     4  11  24  45  77 107 149 194 246 308 371 443
#
# _framework density 27.835887
#
# number of rings (size 3 to 8) (size 9 to 14) (size 15 to 20)
#    0.000    0.500    5.000    3.750    0.000   10.000 
#    0.000    3.750    0.000    0.000    0.000    0.000 
#    0.000    0.000    0.000    0.000    0.000    0.000 
#
# Total GULP energy -198426.386173 kJ/mol
# GULP energy per Si atom -12401.649136 kJ/mol
# Density = 2.777253 g / cm^3
# Si number density = 27.835887 Si / 1000 Ang^3
#
#
#
# Elastic Constant Matrix: (Units=GPa)
#
#
# Indices 1 2 3 4 5 6 
#
# 1 130.3021 8.6143 33.1566 0.0000 -20.8335 0.0000
# 2 8.6143 111.0659 9.9939 0.0000 -14.6406 0.0000
# 3 33.1566 9.9939 123.2940 0.0000 -38.6630 0.0000
# 4 0.0000 0.0000 0.0000 4.6754 0.0000 31.2772
# 5 -20.8335 -14.6406 -38.6630 0.0000 40.5215 0.0000
# 6 0.0000 0.0000 0.0000 31.2772 0.0000 32.8544
#
#
#
# Elastic Compliance Matrix: (Units=1/GPa)
#
#
# Indices 1 2 3 4 5 6 
#
# 1 0.008509 -0.000137 -0.001314 0.000000 0.003072 0.000000
# 2 -0.000137 0.009472 0.000457 0.000000 0.003788 0.000000
# 3 -0.001314 0.000457 0.011796 0.000000 0.010745 0.000000
# 4 0.000000 0.000000 0.000000 -0.039840 0.000000 0.037928
# 5 0.003072 0.003788 0.010745 0.000000 0.037878 0.000000
# 6 0.000000 0.000000 0.000000 0.037928 0.000000 -0.005670
#
#
# Mechanical properties :
#
#
# Convention : Reuss Voigt Hill
#
# Bulk Modulus (GPa) = 35.98419 52.02130 44.00274
# Shear Modulus (GPa) = 149.71185 36.47008 93.09097
#
# Velocity S-wave (km/s) = 7.34170 3.62357 5.78925
# Velocity P-wave (km/s) = 9.20992 6.01965 7.78007
#
# Compressibility (1/GPa) = 0.02778998
#
# Stress axis : x y z
#
# Youngs Moduli (GPa) = 117.52297 105.56878 84.77135
#
# Poissons Ratio (x) = 0.01444 0.11139
# Poissons Ratio (y) = 0.01608 -0.03873
# Poissons Ratio (z) = 0.15442 -0.04823
#
# Static dielectric constant tensor:
#      x y z
#    x 6.394970 0.000000 -0.251880 
#    y 0.000000 5.830020 0.000000 
#    z -0.251880 0.000000 5.419300 
# 
# 
# High freq. dielectric constant tensor:
#      x y z
#    x 2.154360 0.000000 0.004130 
#    y 0.000000 2.132010 0.000000 
#    z 0.004130 0.000000 2.127460 
# 
# From -- ./inp_files/75892.got.cif
#   From: 2010.06.25/outbox.cif.g09.slc.cpg/sg13_38_cif.got.tgz:75892.got - 2010.06.28 04:50:58.
