data_PCOD8122860
_publ_section_title
;
Structure prediction by ZEFSAII (Michael W. Deem and Ramdas Pophale) SiO2 
 PCOD8122860
Probable space group: P 2/C
;
_chemical_formula_sum "Si O2"
_cell_formula_units_Z 12
_cell_length_a 10.012054
_cell_length_b 7.080585
_cell_length_c 7.255813
_cell_angle_alpha 90.000000
_cell_angle_beta 58.354136
_cell_angle_gamma 90.000000
_cell_volume 437.889693
_symmetry_space_group_name_H-M "P 2/C"
_symmetry_group_IT_number 13
_symmetry_cell_setting 'monoclinic'
loop_
_space_group_symop_operation_xyz
x,y,z
-x,y,1/2-z
-x,-y,-z
x,-y,1/2+z
loop_
_atom_site_type_symbol
_atom_site_label
_atom_site_fract_x
_atom_site_fract_y
_atom_site_fract_z
Si Si1 0.865795 0.706494 0.196382
Si Si2 0.833771 0.286400 0.214732
Si Si3 0.315775 0.981569 0.379945
O O1 0.778985 0.504542 0.259621
O O2 0.738919 0.879857 0.278685
O O3 0.000000 0.725148 0.250000
O O4 0.974362 0.722532 0.927154
O O5 0.741561 0.176021 0.438115
O O6 0.768713 0.188501 0.067490
O O7 0.500000 0.006927 0.250000
#
# Coordination Sequence:
#
# PCOD8122860 Si02
#       3
#     4   4   4
#     4  11  24  45  71  97 132 183 236 280 328 399
#     4  11  24  44  69 100 137 182 231 278 333 404
#     4  12  26  44  71 105 142 179 219 282 351 408
#
# _framework density 27.404163
#
# number of rings (size 3 to 8) (size 9 to 14) (size 15 to 20)
#    0.000    0.667    0.000    9.000    0.000    4.000 
#    0.000    0.000    0.000    0.000    0.000    0.000 
#    0.000    0.000    0.000    0.000    0.000    0.000 
#
# Total GULP energy -148733.229386 kJ/mol
# GULP energy per Si atom -12394.435782 kJ/mol
# Density = 2.734179 g / cm^3
# Si number density = 27.404163 Si / 1000 Ang^3
#
#
#
# Elastic Constant Matrix: (Units=GPa)
#
#
# Indices 1 2 3 4 5 6 
#
# 1 134.7370 106.2797 28.4711 0.0000 -32.5928 0.0000
# 2 106.2797 238.7283 38.6504 0.0000 -45.5260 0.0000
# 3 28.4711 38.6504 68.3901 0.0000 -29.4145 0.0000
# 4 0.0000 0.0000 0.0000 21.8743 0.0000 -10.7707
# 5 -32.5928 -45.5260 -29.4145 0.0000 49.5473 0.0000
# 6 0.0000 0.0000 0.0000 -10.7707 0.0000 14.5526
#
#
#
# Elastic Compliance Matrix: (Units=1/GPa)
#
#
# Indices 1 2 3 4 5 6 
#
# 1 0.012008 -0.004590 -0.001103 0.000000 0.003026 0.000000
# 2 -0.004590 0.006903 -0.000753 0.000000 0.002876 0.000000
# 3 -0.001103 -0.000753 0.020005 0.000000 0.010459 0.000000
# 4 0.000000 0.000000 0.000000 0.071929 0.000000 0.053236
# 5 0.003026 0.002876 0.010459 0.000000 0.031025 0.000000
# 6 0.000000 0.000000 0.000000 0.053236 0.000000 0.108118
#
#
# Mechanical properties :
#
#
# Convention : Reuss Voigt Hill
#
# Bulk Modulus (GPa) = 38.42801 87.62862 63.02832
# Shear Modulus (GPa) = 18.41252 35.09179 26.75216
#
# Velocity S-wave (km/s) = 2.59489 3.58233 3.12782
# Velocity P-wave (km/s) = 4.79907 7.01118 6.00781
#
# Compressibility (1/GPa) = 0.02602269
#
# Stress axis : x y z
#
# Youngs Moduli (GPa) = 83.28095 144.87188 49.98704
#
# Poissons Ratio (x) = 0.66495 0.05514
# Poissons Ratio (y) = 0.38225 0.03765
# Poissons Ratio (z) = 0.09187 0.10913
#
# Static dielectric constant tensor:
#      x y z
#    x 6.794870 0.000000 2.146760 
#    y 0.000000 5.282040 0.000000 
#    z 2.146760 0.000000 6.871010 
# 
# 
# High freq. dielectric constant tensor:
#      x y z
#    x 2.109860 0.000000 0.063510 
#    y 0.000000 2.119970 0.000000 
#    z 0.063510 0.000000 2.149170 
# 
# From -- ./inp_files/10504.got.cif
#   From: 2010.06.25/outbox.cif.g09.slc.cpg/sg13_6_cif.got.tgz:10504.got - 2010.06.28 04:50:58.
