data_PCOD8122925
_publ_section_title
;
Structure prediction by ZEFSAII (Michael W. Deem and Ramdas Pophale) SiO2 
 PCOD8122925
Probable space group: P 2/C
;
_chemical_formula_sum "Si O2"
_cell_formula_units_Z 24
_cell_length_a 8.976621
_cell_length_b 8.792946
_cell_length_c 14.919178
_cell_angle_alpha 90.000000
_cell_angle_beta 71.456638
_cell_angle_gamma 90.000000
_cell_volume 1116.448417
_symmetry_space_group_name_H-M "P 2/C"
_symmetry_group_IT_number 13
_symmetry_cell_setting 'monoclinic'
loop_
_space_group_symop_operation_xyz
x,y,z
-x,y,1/2-z
-x,-y,-z
x,-y,1/2+z
loop_
_atom_site_type_symbol
_atom_site_label
_atom_site_fract_x
_atom_site_fract_y
_atom_site_fract_z
Si Si1 0.118628 0.792203 0.654686
Si Si2 0.421797 0.837840 0.028132
Si Si3 0.453498 0.706294 0.660709
Si Si4 0.100009 0.648277 0.466393
Si Si5 0.068557 0.860948 0.143384
Si Si6 0.444178 0.628232 0.353262
O O1 0.291055 0.788319 0.665660
O O2 0.131710 0.703955 0.560170
O O3 0.000000 0.715907 0.750000
O O4 0.047818 0.957706 0.644213
O O5 0.253539 0.832095 0.105913
O O6 0.536809 0.742367 0.068659
O O7 0.410255 0.760863 0.932824
O O8 0.500000 0.000000 0.000000
O O9 0.500000 0.763540 0.750000
O O10 0.449077 0.523131 0.656095
O O11 0.258547 0.594398 0.385998
O O12 0.000000 0.500000 0.500000
O O13 0.016323 0.779038 0.423487
O O14 0.000000 0.795491 0.250000
O O15 0.500000 0.707195 0.250000
#
# Coordination Sequence:
#
# PCOD8122925 Si02
#       6
#     4   4   4   4   4   4
#     4  11  26  46  67 101 139 181 230 286 344 412
#     4  12  23  44  69 101 133 179 229 284 340 408
#     4  11  25  45  69  99 138 180 232 285 346 408
#     4  12  26  44  70 102 136 185 226 284 348 411
#     4  11  25  46  68 101 139 181 227 280 347 410
#     4  11  25  44  68 100 137 178 228 286 342 408
#
# _framework density 21.496738000000001
#
# number of rings (size 3 to 8) (size 9 to 14) (size 15 to 20)
#    0.000    0.667    3.333    3.000    9.333    1.333 
#    3.000    0.000    0.000    0.000    0.000    0.000 
#    0.000    0.000    0.000    0.000    0.000    0.000 
#
# Total GULP energy -297593.396773 kJ/mol
# GULP energy per Si atom -12399.724866 kJ/mol
# Density = 2.144781 g / cm^3
# Si number density = 21.496738 Si / 1000 Ang^3
#
#
#
# Elastic Constant Matrix: (Units=GPa)
#
#
# Indices 1 2 3 4 5 6 
#
# 1 125.5310 34.7998 69.7517 0.0000 -12.7184 0.0000
# 2 34.7998 88.1399 52.9454 0.0000 11.6020 0.0000
# 3 69.7517 52.9454 188.1837 0.0000 -4.6238 0.0000
# 4 0.0000 0.0000 0.0000 25.0210 0.0000 -10.6422
# 5 -12.7184 11.6020 -4.6238 0.0000 50.8360 0.0000
# 6 0.0000 0.0000 0.0000 -10.6422 0.0000 24.5688
#
#
#
# Elastic Compliance Matrix: (Units=1/GPa)
#
#
# Indices 1 2 3 4 5 6 
#
# 1 0.010791 -0.002772 -0.003145 0.000000 0.003046 0.000000
# 2 -0.002772 0.015006 -0.003303 0.000000 -0.004419 0.000000
# 3 -0.003145 -0.003303 0.007425 0.000000 0.000642 0.000000
# 4 0.000000 0.000000 0.000000 0.048993 0.000000 0.021221
# 5 0.003046 -0.004419 0.000642 0.000000 0.021500 0.000000
# 6 0.000000 0.000000 0.000000 0.021221 0.000000 0.049894
#
#
# Mechanical properties :
#
#
# Convention : Reuss Voigt Hill
#
# Bulk Modulus (GPa) = 67.65363 79.64983 73.65173
# Shear Modulus (GPa) = 28.25250 36.37568 32.31409
#
# Velocity S-wave (km/s) = 3.62922 4.11804 3.88133
# Velocity P-wave (km/s) = 7.00725 7.72939 7.37716
#
# Compressibility (1/GPa) = 0.01478117
#
# Stress axis : x y z
#
# Youngs Moduli (GPa) = 92.67149 66.64054 134.68637
#
# Poissons Ratio (x) = 0.18475 0.42357
# Poissons Ratio (y) = 0.25692 0.44485
# Poissons Ratio (z) = 0.29144 0.22010
#
# Static dielectric constant tensor:
#      x y z
#    x 3.935480 0.000000 -0.290520 
#    y 0.000000 3.894370 0.000000 
#    z -0.290520 0.000000 3.812700 
# 
# 
# High freq. dielectric constant tensor:
#      x y z
#    x 1.844410 0.000000 -0.013330 
#    y 0.000000 1.839100 0.000000 
#    z -0.013330 0.000000 1.873790 
# 
# From -- ./inp_files/46012.got.cif
#   From: 2010.06.25/outbox.cif.g09.slc.cpg/sg13_24_cif.got.tgz:46012.got - 2010.06.28 04:50:58.
