data_PCOD8122861
_publ_section_title
;
Structure prediction by ZEFSAII (Michael W. Deem and Ramdas Pophale) SiO2 
 PCOD8122861
Probable space group: P 2/C
;
_chemical_formula_sum "Si O2"
_cell_formula_units_Z 20
_cell_length_a 12.455759
_cell_length_b 10.771047
_cell_length_c 14.487524
_cell_angle_alpha 90.000000
_cell_angle_beta 153.296739
_cell_angle_gamma 90.000000
_cell_volume 873.426192
_symmetry_space_group_name_H-M "P 2/C"
_symmetry_group_IT_number 13
_symmetry_cell_setting 'monoclinic'
loop_
_space_group_symop_operation_xyz
x,y,z
-x,y,1/2-z
-x,-y,-z
x,-y,1/2+z
loop_
_atom_site_type_symbol
_atom_site_label
_atom_site_fract_x
_atom_site_fract_y
_atom_site_fract_z
Si Si1 0.265643 0.009314 0.437984
Si Si2 0.680209 0.389874 0.141963
Si Si3 0.500000 0.822068 0.750000
Si Si4 0.635478 0.172761 0.643358
Si Si5 0.000000 0.496079 0.250000
Si Si6 0.088422 0.340638 0.001357
O O1 0.316625 0.904445 0.551441
O O2 0.264716 0.942744 0.337756
O O3 0.000000 0.065933 0.250000
O O4 0.473575 0.114766 0.602068
O O5 0.801573 0.400353 0.134146
O O6 0.866296 0.418010 0.368909
O O7 0.500000 0.500000 0.000000
O O8 0.547558 0.259149 0.054480
O O9 0.329538 0.739231 0.682003
O O10 0.857555 0.256028 0.846701
O O11 0.930802 0.582445 0.108921
#
# Coordination Sequence:
#
# PCOD8122861 Si02
#       6
#     4   4   2   4   2   4
#     4  11  24  44  70 101 140 181 242 296 353 428
#     4  12  26  47  71 105 143 190 241 299 357 428
#     4  12  22  40  74 102 128 198 238 280 364 430
#     4  11  25  45  68 101 143 183 234 304 354 419
#     4  12  26  44  72 104 140 192 234 294 362 426
#     4  12  24  47  72 103 148 189 244 291 359 438
#
# _framework density 22.898330000000001
#
# number of rings (size 3 to 8) (size 9 to 14) (size 15 to 20)
#    0.000    0.400    6.000    3.000    1.400    2.400 
#    0.000    0.000    0.000    0.000    0.000    0.000 
#    0.000    0.000    0.000    0.000    0.000    0.000 
#
# Total GULP energy -247801.985511 kJ/mol
# GULP energy per Si atom -12390.099276 kJ/mol
# Density = 2.284621 g / cm^3
# Si number density = 22.898330 Si / 1000 Ang^3
#
#
#
# Elastic Constant Matrix: (Units=GPa)
#
#
# Indices 1 2 3 4 5 6 
#
# 1 131.2935 35.9310 64.3847 0.0000 19.4507 0.0000
# 2 35.9310 66.6440 38.4633 0.0000 2.8365 0.0000
# 3 64.3847 38.4633 123.7544 0.0000 21.2127 0.0000
# 4 0.0000 0.0000 0.0000 41.9441 0.0000 13.8066
# 5 19.4507 2.8365 21.2127 0.0000 45.0338 0.0000
# 6 0.0000 0.0000 0.0000 13.8066 0.0000 22.0848
#
#
#
# Elastic Compliance Matrix: (Units=1/GPa)
#
#
# Indices 1 2 3 4 5 6 
#
# 1 0.010993 -0.003375 -0.004235 0.000000 -0.002541 0.000000
# 2 -0.003375 0.019436 -0.004705 0.000000 0.002450 0.000000
# 3 -0.004235 -0.004705 0.012382 0.000000 -0.003707 0.000000
# 4 0.000000 0.000000 0.000000 0.030019 0.000000 -0.018766
# 5 -0.002541 0.002450 -0.003707 0.000000 0.024895 0.000000
# 6 0.000000 0.000000 0.000000 -0.018766 0.000000 0.057012
#
#
# Mechanical properties :
#
#
# Convention : Reuss Voigt Hill
#
# Bulk Modulus (GPa) = 55.00132 66.58332 60.79232
# Shear Modulus (GPa) = 26.96507 34.00674 30.48590
#
# Velocity S-wave (km/s) = 3.43534 3.85790 3.65274
# Velocity P-wave (km/s) = 6.30931 6.99896 6.66306
#
# Compressibility (1/GPa) = 0.01818138
#
# Stress axis : x y z
#
# Youngs Moduli (GPa) = 90.96490 51.45178 80.76566
#
# Poissons Ratio (x) = 0.17363 0.34204
# Poissons Ratio (y) = 0.30697 0.37999
# Poissons Ratio (z) = 0.38524 0.24207
#
# Static dielectric constant tensor:
#      x y z
#    x 4.937620 0.000000 -0.371860 
#    y 0.000000 3.987530 0.000000 
#    z -0.371860 0.000000 4.687330 
# 
# 
# High freq. dielectric constant tensor:
#      x y z
#    x 1.908300 0.000000 0.019100 
#    y 0.000000 1.905460 0.000000 
#    z 0.019100 0.000000 1.907530 
# 
# From -- ./inp_files/50761.got.cif
#   From: 2010.06.25/outbox.cif.g09.slc.cpg/sg13_26_cif.got.tgz:50761.got - 2010.06.28 04:50:58.
