data_PCOD8122162
_publ_section_title
;
Structure prediction by ZEFSAII (Michael W. Deem and Ramdas Pophale) SiO2 
 PCOD8122162
Probable space group: P 2/C
;
_chemical_formula_sum "Si O2"
_cell_formula_units_Z 20
_cell_length_a 5.302172
_cell_length_b 18.909452
_cell_length_c 8.474199
_cell_angle_alpha 90.000000
_cell_angle_beta 87.119851
_cell_angle_gamma 90.000000
_cell_volume 848.559846
_symmetry_space_group_name_H-M "P 2/C"
_symmetry_group_IT_number 13
_symmetry_cell_setting 'monoclinic'
loop_
_space_group_symop_operation_xyz
x,y,z
-x,y,1/2-z
-x,-y,-z
x,-y,1/2+z
loop_
_atom_site_type_symbol
_atom_site_label
_atom_site_fract_x
_atom_site_fract_y
_atom_site_fract_z
Si Si1 0.174781 0.307216 0.021403
Si Si2 0.500000 0.377299 0.250000
Si Si3 0.031078 0.153773 0.936709
Si Si4 0.519502 0.078916 0.061126
Si Si5 0.179418 0.433875 0.519521
Si Si6 0.500000 0.627171 0.250000
O O1 0.395160 0.319803 0.885938
O O2 0.047874 0.230965 0.013243
O O3 0.286785 0.323821 0.190963
O O4 0.953237 0.360440 0.000381
O O5 0.407472 0.432835 0.386299
O O6 0.000000 0.158317 0.750000
O O7 0.789356 0.112713 0.010942
O O8 0.291565 0.117444 0.979172
O O9 0.500000 0.081978 0.250000
O O10 0.500000 0.000000 0.000000
O O11 0.289469 0.428102 0.692553
O O12 0.000000 0.500000 0.500000
#
# Coordination Sequence:
#
# PCOD8122162 Si02
#       6
#     4   2   4   4   4   2
#     4  11  26  44  73 105 145 189 251 303 383 449
#     4  10  26  45  70 100 147 184 254 316 381 454
#     4  12  27  47  81 114 158 207 258 319 384 459
#     4  12  28  51  80 117 159 205 257 315 383 460
#     4  11  25  45  69 100 140 192 249 314 382 454
#     4  10  24  45  70 100 141 188 254 308 381 456
#
# _framework density 23.569344999999998
#
# number of rings (size 3 to 8) (size 9 to 14) (size 15 to 20)
#    0.000    0.800    0.000    5.400    9.800    9.600 
#    0.000    3.000    0.000    0.000    0.000    0.000 
#    0.000    0.000    0.000    0.000    0.000    0.000 
#
# Total GULP energy -247965.150211 kJ/mol
# GULP energy per Si atom -12398.257511 kJ/mol
# Density = 2.351570 g / cm^3
# Si number density = 23.569345 Si / 1000 Ang^3
#
#
#
# Elastic Constant Matrix: (Units=GPa)
#
#
# Indices 1 2 3 4 5 6 
#
# 1 111.1221 45.4504 8.1933 0.0000 28.1524 0.0000
# 2 45.4504 170.1418 21.9108 0.0000 17.6379 0.0000
# 3 8.1933 21.9108 100.8516 0.0000 34.0698 0.0000
# 4 0.0000 0.0000 0.0000 29.2760 0.0000 10.0560
# 5 28.1524 17.6379 34.0698 0.0000 55.7382 0.0000
# 6 0.0000 0.0000 0.0000 10.0560 0.0000 56.8204
#
#
#
# Elastic Compliance Matrix: (Units=1/GPa)
#
#
# Indices 1 2 3 4 5 6 
#
# 1 0.011478 -0.002661 0.001663 0.000000 -0.005972 0.000000
# 2 -0.002661 0.006752 -0.001239 0.000000 -0.000035 0.000000
# 3 0.001663 -0.001239 0.012855 0.000000 -0.008306 0.000000
# 4 0.000000 0.000000 0.000000 0.036368 0.000000 -0.006436
# 5 -0.005972 -0.000035 -0.008306 0.000000 0.026045 0.000000
# 6 0.000000 0.000000 0.000000 -0.006436 0.000000 0.018738
#
#
# Mechanical properties :
#
#
# Convention : Reuss Voigt Hill
#
# Bulk Modulus (GPa) = 37.57843 59.24717 48.41280
# Shear Modulus (GPa) = 39.81489 48.80433 44.30961
#
# Velocity S-wave (km/s) = 4.11453 4.55540 4.34056
# Velocity P-wave (km/s) = 6.20893 7.27054 6.76061
#
# Compressibility (1/GPa) = 0.02661101
#
# Stress axis : x y z
#
# Youngs Moduli (GPa) = 87.12424 148.11484 77.78798
#
# Poissons Ratio (x) = 0.39417 -0.12937
# Poissons Ratio (y) = 0.23186 0.09636
# Poissons Ratio (z) = -0.14489 0.18348
#
# Static dielectric constant tensor:
#      x y z
#    x 4.597760 0.000000 0.023950 
#    y 0.000000 4.156280 0.000000 
#    z 0.023950 0.000000 5.529950 
# 
# 
# High freq. dielectric constant tensor:
#      x y z
#    x 1.959510 0.000000 0.007490 
#    y 0.000000 1.933420 0.000000 
#    z 0.007490 0.000000 1.957000 
# 
# From -- ./inp_files/9537.got.cif
#   From: 2010.06.25/outbox.cif.g09.slc.cpg/sg13_5_cif.got.tgz:9537.got - 2010.06.28 04:50:58.
