data_PCOD8122340
_publ_section_title
;
Structure prediction by ZEFSAII (Michael W. Deem and Ramdas Pophale) SiO2 
 PCOD8122340
Probable space group: P 2/C
;
_chemical_formula_sum "Si O2"
_cell_formula_units_Z 16
_cell_length_a 15.839247
_cell_length_b 8.800989
_cell_length_c 8.918834
_cell_angle_alpha 90.000000
_cell_angle_beta 149.776367
_cell_angle_gamma 90.000000
_cell_volume 625.845215
_symmetry_space_group_name_H-M "P 2/C"
_symmetry_group_IT_number 13
_symmetry_cell_setting 'monoclinic'
loop_
_space_group_symop_operation_xyz
x,y,z
-x,y,1/2-z
-x,-y,-z
x,-y,1/2+z
loop_
_atom_site_type_symbol
_atom_site_label
_atom_site_fract_x
_atom_site_fract_y
_atom_site_fract_z
Si Si1 0.500000 0.534944 0.750000
Si Si2 0.877812 0.887298 0.398147
Si Si3 0.685452 0.057044 0.327502
Si Si4 0.290862 0.619157 0.701069
Si Si5 0.000000 0.608688 0.750000
O O1 0.434417 0.630216 0.791922
O O2 0.353042 0.430381 0.459639
O O3 0.945540 0.714033 0.522840
O O4 0.823457 0.932384 0.484607
O O5 0.706529 0.900222 0.035821
O O6 0.000000 0.000000 0.500000
O O7 0.753466 0.204945 0.341029
O O8 0.500000 0.000000 0.000000
O O9 0.147418 0.504589 0.424335
#
# Coordination Sequence:
#
# PCOD8122340 Si02
#       5
#     2   4   4   4   2
#     4  10  26  48  74 110 146 192 254 306 384 438
#     4  12  27  50  76 111 154 199 255 313 385 459
#     4  12  29  48  78 111 151 202 255 315 386 452
#     4  11  28  47  79 108 153 197 254 316 379 454
#     4  12  28  50  78 114 154 200 258 312 384 462
#
# _framework density 25.565427
#
# number of rings (size 3 to 8) (size 9 to 14) (size 15 to 20)
#    0.000    0.500    2.500    2.250   21.000    2.000 
#    0.000    0.000    0.000    0.000    0.000    0.000 
#    0.000    0.000    0.000    0.000    0.000    0.000 
#
# Total GULP energy -198231.005338 kJ/mol
# GULP energy per Si atom -12389.437834 kJ/mol
# Density = 2.550724 g / cm^3
# Si number density = 25.565427 Si / 1000 Ang^3
#
#
#
# Elastic Constant Matrix: (Units=GPa)
#
#
# Indices 1 2 3 4 5 6 
#
# 1 74.6300 15.5522 27.3844 0.0000 4.0249 0.0000
# 2 15.5522 160.0046 56.8997 0.0000 19.7904 0.0000
# 3 27.3844 56.8997 142.8351 0.0000 -15.3533 0.0000
# 4 0.0000 0.0000 0.0000 -7.7125 0.0000 34.7041
# 5 4.0249 19.7904 -15.3533 0.0000 41.7771 0.0000
# 6 0.0000 0.0000 0.0000 34.7041 0.0000 17.6041
#
#
#
# Elastic Compliance Matrix: (Units=1/GPa)
#
#
# Indices 1 2 3 4 5 6 
#
# 1 0.014669 -0.000018 -0.003078 0.000000 -0.002536 0.000000
# 2 -0.000018 0.008291 -0.003874 0.000000 -0.005350 0.000000
# 3 -0.003078 -0.003874 0.009749 0.000000 0.005715 0.000000
# 4 0.000000 0.000000 0.000000 -0.013136 0.000000 0.025896
# 5 -0.002536 -0.005350 0.005715 0.000000 0.028815 0.000000
# 6 0.000000 0.000000 0.000000 0.025896 0.000000 0.005755
#
#
# Mechanical properties :
#
#
# Convention : Reuss Voigt Hill
#
# Bulk Modulus (GPa) = 53.27900 64.12691 58.70296
# Shear Modulus (GPa) = 67.25835 28.84263 48.05049
#
# Velocity S-wave (km/s) = 5.13473 3.36250 4.34004
# Velocity P-wave (km/s) = 7.48595 6.34138 6.93731
#
# Compressibility (1/GPa) = 0.01876912
#
# Stress axis : x y z
#
# Youngs Moduli (GPa) = 68.16948 120.61204 102.57556
#
# Poissons Ratio (x) = 0.00212 0.31573
# Poissons Ratio (y) = 0.00120 0.39743
# Poissons Ratio (z) = 0.20983 0.46731
#
# Static dielectric constant tensor:
#      x y z
#    x 4.228320 0.000000 -0.254970 
#    y 0.000000 4.780130 0.000000 
#    z -0.254970 0.000000 5.370000 
# 
# 
# High freq. dielectric constant tensor:
#      x y z
#    x 2.005330 0.000000 -0.006230 
#    y 0.000000 2.027560 0.000000 
#    z -0.006230 0.000000 2.044640 
# 
# From -- ./inp_files/10832.got.cif
#   From: 2010.06.25/outbox.cif.g09.slc.cpg/sg13_6_cif.got.tgz:10832.got - 2010.06.28 04:50:58.
