data_PCOD8122810
_publ_section_title
;
Structure prediction by ZEFSAII (Michael W. Deem and Ramdas Pophale) SiO2 
 PCOD8122810
Probable space group: P 2/C
;
_chemical_formula_sum "Si O2"
_cell_formula_units_Z 12
_cell_length_a 8.183839
_cell_length_b 7.053880
_cell_length_c 8.501294
_cell_angle_alpha 90.000000
_cell_angle_beta 53.908680
_cell_angle_gamma 90.000000
_cell_volume 396.573849
_symmetry_space_group_name_H-M "P 2/C"
_symmetry_group_IT_number 13
_symmetry_cell_setting 'monoclinic'
loop_
_space_group_symop_operation_xyz
x,y,z
-x,y,1/2-z
-x,-y,-z
x,-y,1/2+z
loop_
_atom_site_type_symbol
_atom_site_label
_atom_site_fract_x
_atom_site_fract_y
_atom_site_fract_z
Si Si1 0.128160 0.350803 0.327736
Si Si2 0.481174 0.705997 0.429804
Si Si3 0.789468 0.077737 0.943938
O O1 0.177887 0.162916 0.399349
O O2 0.000000 0.289093 0.250000
O O3 0.000000 0.500000 0.500000
O O4 0.346352 0.424310 0.130439
O O5 0.500000 0.602159 0.250000
O O6 0.693093 0.760396 0.388226
O O7 0.351378 0.895146 0.463848
O O8 0.000000 0.020806 0.750000
#
# Coordination Sequence:
#
# PCOD8122810 Si02
#       3
#     4   4   4
#     4  12  27  49  75 111 161 211 259 319 399 482
#     4  11  24  45  79 116 153 201 263 334 395 466
#     4  11  23  46  79 117 156 199 262 331 397 467
#
# _framework density 30.259183
#
# number of rings (size 3 to 8) (size 9 to 14) (size 15 to 20)
#    0.000    0.667    0.000    9.000    0.000    4.000 
#    0.000   23.333    0.000    0.000    0.000    0.000 
#    0.000    0.000    0.000    0.000    0.000    0.000 
#
# Total GULP energy -148848.588715 kJ/mol
# GULP energy per Si atom -12404.049060 kJ/mol
# Density = 3.019031 g / cm^3
# Si number density = 30.259183 Si / 1000 Ang^3
#
#
#
# Elastic Constant Matrix: (Units=GPa)
#
#
# Indices 1 2 3 4 5 6 
#
# 1 193.4599 42.3080 77.6067 0.0000 29.1411 0.0000
# 2 42.3080 145.4933 54.9313 0.0000 22.4787 0.0000
# 3 77.6067 54.9313 248.4127 0.0000 0.5612 0.0000
# 4 0.0000 0.0000 0.0000 42.6078 0.0000 15.9524
# 5 29.1411 22.4787 0.5612 0.0000 81.0856 0.0000
# 6 0.0000 0.0000 0.0000 15.9524 0.0000 22.5633
#
#
#
# Elastic Compliance Matrix: (Units=1/GPa)
#
#
# Indices 1 2 3 4 5 6 
#
# 1 0.006388 -0.000862 -0.001800 0.000000 -0.002044 0.000000
# 2 -0.000862 0.007979 -0.001491 0.000000 -0.001892 0.000000
# 3 -0.001800 -0.001491 0.004915 0.000000 0.001026 0.000000
# 4 0.000000 0.000000 0.000000 0.031919 0.000000 -0.022567
# 5 -0.002044 -0.001892 0.001026 0.000000 0.013585 0.000000
# 6 0.000000 0.000000 0.000000 -0.022567 0.000000 0.060275
#
#
# Mechanical properties :
#
#
# Convention : Reuss Voigt Hill
#
# Bulk Modulus (GPa) = 91.10972 104.11755 97.61363
# Shear Modulus (GPa) = 36.48971 56.75266 46.62118
#
# Velocity S-wave (km/s) = 3.47638 4.33546 3.92947
# Velocity P-wave (km/s) = 6.80359 7.71654 7.27440
#
# Compressibility (1/GPa) = 0.01097578
#
# Stress axis : x y z
#
# Youngs Moduli (GPa) = 156.55178 125.32954 203.44392
#
# Poissons Ratio (x) = 0.10802 0.36627
# Poissons Ratio (y) = 0.13493 0.30330
# Poissons Ratio (z) = 0.28185 0.18685
#
# Static dielectric constant tensor:
#      x y z
#    x 6.680990 0.000000 -0.292000 
#    y 0.000000 5.647620 0.000000 
#    z -0.292000 0.000000 6.619210 
# 
# 
# High freq. dielectric constant tensor:
#      x y z
#    x 2.270910 0.000000 0.000420 
#    y 0.000000 2.274890 0.000000 
#    z 0.000420 0.000000 2.261040 
# 
# From -- ./inp_files/10792.got.cif
#   From: 2010.06.25/outbox.cif.g09.slc.cpg/sg13_6_cif.got.tgz:10792.got - 2010.06.28 04:50:58.
