data_PCOD8122814
_publ_section_title
;
Structure prediction by ZEFSAII (Michael W. Deem and Ramdas Pophale) SiO2 
 PCOD8122814
Probable space group: P 2/C
;
_chemical_formula_sum "Si O2"
_cell_formula_units_Z 22
_cell_length_a 21.705098
_cell_length_b 6.247937
_cell_length_c 14.177282
_cell_angle_alpha 90.000000
_cell_angle_beta 150.482235
_cell_angle_gamma 90.000000
_cell_volume 947.257631
_symmetry_space_group_name_H-M "P 2/C"
_symmetry_group_IT_number 13
_symmetry_cell_setting 'monoclinic'
loop_
_space_group_symop_operation_xyz
x,y,z
-x,y,1/2-z
-x,-y,-z
x,-y,1/2+z
loop_
_atom_site_type_symbol
_atom_site_label
_atom_site_fract_x
_atom_site_fract_y
_atom_site_fract_z
Si Si1 0.951616 0.112230 0.816826
Si Si2 0.000000 0.270420 0.250000
Si Si3 0.214020 0.580421 0.519810
Si Si4 0.800853 0.949637 0.777598
Si Si5 0.361782 0.968371 0.778154
Si Si6 0.641020 0.258846 0.907349
O O1 0.888844 0.259862 0.657352
O O2 0.871725 0.119810 0.806348
O O3 0.957800 0.870853 0.783462
O O4 0.092453 0.193951 0.027359
O O5 0.124105 0.403260 0.448464
O O6 0.313188 0.718974 0.714501
O O7 0.300912 0.475859 0.555358
O O8 0.723644 0.079724 0.754980
O O9 0.711115 0.802377 0.596130
O O10 0.346210 0.070524 0.654127
O O11 0.500000 0.000000 0.000000
O O12 0.500000 0.302761 0.750000
#
# Coordination Sequence:
#
# PCOD8122814 Si02
#       6
#     4   2   4   4   4   4
#     4  11  24  44  73 105 146 191 229 310 369 424
#     4  12  22  46  74 108 152 180 248 302 356 440
#     4  12  25  45  74 108 143 188 245 303 360 427
#     4  11  23  47  71 103 143 191 237 289 375 422
#     4  12  26  48  73 101 150 193 237 297 360 426
#     4  12  26  49  71 106 147 192 249 298 350 442
#
# _framework density 23.224938999999999
#
# number of rings (size 3 to 8) (size 9 to 14) (size 15 to 20)
#    0.000    0.364    5.455    3.818    0.000    3.636 
#    9.818    0.000    0.000    0.000    0.000    0.000 
#    0.000    0.000    0.000    0.000    0.000    0.000 
#
# Total GULP energy -272623.360735 kJ/mol
# GULP energy per Si atom -12391.970943 kJ/mol
# Density = 2.317208 g / cm^3
# Si number density = 23.224939 Si / 1000 Ang^3
#
#
#
# Elastic Constant Matrix: (Units=GPa)
#
#
# Indices 1 2 3 4 5 6 
#
# 1 149.0939 33.9447 43.5342 0.0000 21.8942 0.0000
# 2 33.9447 97.8752 53.2560 0.0000 9.3883 0.0000
# 3 43.5342 53.2560 174.9464 0.0000 14.8166 0.0000
# 4 0.0000 0.0000 0.0000 24.5947 0.0000 10.9329
# 5 21.8942 9.3883 14.8166 0.0000 48.7703 0.0000
# 6 0.0000 0.0000 0.0000 10.9329 0.0000 14.9263
#
#
#
# Elastic Compliance Matrix: (Units=1/GPa)
#
#
# Indices 1 2 3 4 5 6 
#
# 1 0.007879 -0.001827 -0.001165 0.000000 -0.002832 0.000000
# 2 -0.001827 0.012745 -0.003373 0.000000 -0.000608 0.000000
# 3 -0.001165 -0.003373 0.007117 0.000000 -0.000990 0.000000
# 4 0.000000 0.000000 0.000000 0.060289 0.000000 -0.044159
# 5 -0.002832 -0.000608 -0.000990 0.000000 0.022193 0.000000
# 6 0.000000 0.000000 0.000000 -0.044159 0.000000 0.099340
#
#
# Mechanical properties :
#
#
# Convention : Reuss Voigt Hill
#
# Bulk Modulus (GPa) = 66.62350 75.93170 71.27760
# Shear Modulus (GPa) = 21.99769 37.07029 29.53399
#
# Velocity S-wave (km/s) = 3.08093 3.99951 3.56989
# Velocity P-wave (km/s) = 6.43465 7.35480 6.91006
#
# Compressibility (1/GPa) = 0.01500972
#
# Stress axis : x y z
#
# Youngs Moduli (GPa) = 126.91852 78.46380 140.51679
#
# Poissons Ratio (x) = 0.14338 0.16364
# Poissons Ratio (y) = 0.23192 0.47403
# Poissons Ratio (z) = 0.14781 0.26469
#
# Static dielectric constant tensor:
#      x y z
#    x 4.498620 0.000000 0.164230 
#    y 0.000000 4.084310 0.000000 
#    z 0.164230 0.000000 4.498800 
# 
# 
# High freq. dielectric constant tensor:
#      x y z
#    x 1.945040 0.000000 0.014780 
#    y 0.000000 1.881580 0.000000 
#    z 0.014780 0.000000 1.938450 
# 
# From -- ./inp_files/58284.got.cif
#   From: 2010.06.25/outbox.cif.g09.slc.cpg/sg13_30_cif.got.tgz:58284.got - 2010.06.28 04:50:58.
