data_PCOD8122059
_publ_section_title
;
Structure prediction by ZEFSAII (Michael W. Deem and Ramdas Pophale) SiO2 
 PCOD8122059
Probable space group: P 2/C
;
_chemical_formula_sum "Si O2"
_cell_formula_units_Z 28
_cell_length_a 8.984217
_cell_length_b 5.217246
_cell_length_c 26.287010
_cell_angle_alpha 90.000000
_cell_angle_beta 59.203557
_cell_angle_gamma 90.000000
_cell_volume 1058.404548
_symmetry_space_group_name_H-M "P 2/C"
_symmetry_group_IT_number 13
_symmetry_cell_setting 'monoclinic'
loop_
_space_group_symop_operation_xyz
x,y,z
-x,y,1/2-z
-x,-y,-z
x,-y,1/2+z
loop_
_atom_site_type_symbol
_atom_site_label
_atom_site_fract_x
_atom_site_fract_y
_atom_site_fract_z
Si Si1 0.354508 0.814354 0.045429
Si Si2 0.562738 0.423396 0.069110
Si Si3 0.209145 0.758047 0.275377
Si Si4 0.500000 0.573651 0.750000
Si Si5 0.892273 0.460067 0.569006
Si Si6 0.000000 0.401851 0.250000
Si Si7 0.013727 0.960864 0.887654
Si Si8 0.646574 0.871078 0.819638
O O1 0.419372 0.641550 0.081439
O O2 0.186848 0.979646 0.090225
O O3 0.321730 0.635153 0.001340
O O4 0.500000 0.000000 0.000000
O O5 0.689165 0.520707 0.091233
O O6 0.462666 0.168254 0.109049
O O7 0.334556 0.606329 0.292087
O O8 0.130755 0.011780 0.316105
O O9 0.048937 0.577774 0.289476
O O10 0.320493 0.836831 0.205144
O O11 0.541576 0.738266 0.792273
O O12 0.921657 0.174035 0.583966
O O13 0.000000 0.500000 0.500000
O O14 0.956161 0.674485 0.598001
O O15 0.837446 0.237749 0.296507
#
# Coordination Sequence:
#
# PCOD8122059 Si02
#       8
#     4   4   4   2   4   2   4   4
#     4  11  26  47  71 107 143 199 248 314 373 454
#     4  11  26  44  74 104 150 191 252 310 381 442
#     4  11  25  44  70 103 141 193 237 298 363 442
#     4  10  24  42  66 102 142 178 242 292 364 436
#     4  12  26  49  75 111 142 195 243 311 372 447
#     4  10  24  44  66  98 142 184 250 292 356 440
#     4  12  28  46  79 106 151 190 250 304 376 442
#     4  11  24  44  70  99 144 187 240 303 367 444
#
# _framework density 26.454910000000002
#
# number of rings (size 3 to 8) (size 9 to 14) (size 15 to 20)
#    0.000    0.857    1.429    3.857   12.000    4.571 
#    0.000    0.000    0.000    0.000    0.000    0.000 
#    0.000    0.000    0.000    0.000    0.000    0.000 
#
# Total GULP energy -347188.380122 kJ/mol
# GULP energy per Si atom -12399.585004 kJ/mol
# Density = 2.639470 g / cm^3
# Si number density = 26.454910 Si / 1000 Ang^3
#
#
#
# Elastic Constant Matrix: (Units=GPa)
#
#
# Indices 1 2 3 4 5 6 
#
# 1 153.1992 19.2254 12.9553 0.0000 -12.3431 0.0000
# 2 19.2254 57.7570 -9.4320 0.0000 6.9311 0.0000
# 3 12.9553 -9.4320 91.6639 0.0000 0.3013 0.0000
# 4 0.0000 0.0000 0.0000 42.0064 0.0000 -1.9792
# 5 -12.3431 6.9311 0.3013 0.0000 18.5832 0.0000
# 6 0.0000 0.0000 0.0000 -1.9792 0.0000 15.2099
#
#
#
# Elastic Compliance Matrix: (Units=1/GPa)
#
#
# Indices 1 2 3 4 5 6 
#
# 1 0.007611 -0.003540 -0.001461 0.000000 0.006399 0.000000
# 2 -0.003540 0.020104 0.002601 0.000000 -0.009892 0.000000
# 3 -0.001461 0.002601 0.011391 0.000000 -0.002125 0.000000
# 4 0.000000 0.000000 0.000000 0.023953 0.000000 0.003117
# 5 0.006399 -0.009892 -0.002125 0.000000 0.061786 0.000000
# 6 0.000000 0.000000 0.000000 0.003117 0.000000 0.066152
#
#
# Mechanical properties :
#
#
# Convention : Reuss Voigt Hill
#
# Bulk Modulus (GPa) = 29.14875 38.67973 33.91424
# Shear Modulus (GPa) = 24.12770 33.81801 28.97285
#
# Velocity S-wave (km/s) = 3.02326 3.57925 3.31294
# Velocity P-wave (km/s) = 4.81965 5.63330 5.24229
#
# Compressibility (1/GPa) = 0.03430679
#
# Stress axis : x y z
#
# Youngs Moduli (GPa) = 131.39241 49.74106 87.79188
#
# Poissons Ratio (x) = 0.17608 0.12826
# Poissons Ratio (y) = 0.46511 -0.22839
# Poissons Ratio (z) = 0.19196 -0.12940
#
# Static dielectric constant tensor:
#      x y z
#    x 5.353570 0.000000 0.252690 
#    y 0.000000 4.811330 0.000000 
#    z 0.252690 0.000000 5.197910 
# 
# 
# High freq. dielectric constant tensor:
#      x y z
#    x 2.083580 0.000000 0.001500 
#    y 0.000000 2.058300 0.000000 
#    z 0.001500 0.000000 2.061770 
# 
# From -- ./inp_files/95610.got.cif
#   From: 2010.06.25/outbox.cif.g09.slc.cpg/sg13_48_cif.got.tgz:95610.got - 2010.06.28 04:50:58.
