data_PCOD8122089
_publ_section_title
;
Structure prediction by ZEFSAII (Michael W. Deem and Ramdas Pophale) SiO2 
 PCOD8122089
Probable space group: P 2/C
;
_chemical_formula_sum "Si O2"
_cell_formula_units_Z 20
_cell_length_a 9.874074
_cell_length_b 8.672765
_cell_length_c 10.021342
_cell_angle_alpha 90.000000
_cell_angle_beta 77.184845
_cell_angle_gamma 90.000000
_cell_volume 836.806150
_symmetry_space_group_name_H-M "P 2/C"
_symmetry_group_IT_number 13
_symmetry_cell_setting 'monoclinic'
loop_
_space_group_symop_operation_xyz
x,y,z
-x,y,1/2-z
-x,-y,-z
x,-y,1/2+z
loop_
_atom_site_type_symbol
_atom_site_label
_atom_site_fract_x
_atom_site_fract_y
_atom_site_fract_z
Si Si1 0.000000 0.787100 0.250000
Si Si2 0.814371 0.548046 0.389531
Si Si3 0.000000 0.292702 0.250000
Si Si4 0.356334 0.582904 0.340903
Si Si5 0.871389 0.032548 0.120248
Si Si6 0.586283 0.067170 0.602687
O O1 0.071788 0.684827 0.115856
O O2 0.126970 0.892499 0.274260
O O3 0.903227 0.391558 0.369233
O O4 0.749365 0.588041 0.259238
O O5 0.702174 0.534776 0.533025
O O6 0.889651 0.194456 0.189901
O O7 0.500000 0.515658 0.250000
O O8 0.383945 0.748844 0.405203
O O9 0.728971 0.028999 0.069918
O O10 0.000000 0.000000 0.000000
O O11 0.500000 0.020792 0.750000
O O12 0.500000 0.000000 0.500000
#
# Coordination Sequence:
#
# PCOD8122089 Si02
#       6
#     2   4   2   4   4   4
#     4  10  24  42  76 106 144 196 242 322 370 436
#     4  11  24  46  73 107 149 185 254 307 373 440
#     4  10  26  40  72 114 140 194 246 316 376 440
#     4  11  25  47  72 105 146 202 242 300 374 455
#     4  11  24  44  75 107 149 192 255 308 374 442
#     4  11  27  49  74 108 152 196 247 305 376 443
#
# _framework density 23.900397999999999
#
# number of rings (size 3 to 8) (size 9 to 14) (size 15 to 20)
#    0.000    1.200    2.000    1.800   11.200    1.600 
#    3.600    0.000    0.000    0.000    0.000    0.000 
#    0.000    0.000    0.000    0.000    0.000    0.000 
#
# Total GULP energy -247950.403526 kJ/mol
# GULP energy per Si atom -12397.520176 kJ/mol
# Density = 2.384600 g / cm^3
# Si number density = 23.900398 Si / 1000 Ang^3
#
#
#
# Elastic Constant Matrix: (Units=GPa)
#
#
# Indices 1 2 3 4 5 6 
#
# 1 160.6249 49.9398 47.6347 0.0000 4.0413 0.0000
# 2 49.9398 114.7072 37.8179 0.0000 5.0686 0.0000
# 3 47.6347 37.8179 120.8532 0.0000 -4.2304 0.0000
# 4 0.0000 0.0000 0.0000 17.8387 0.0000 -1.2813
# 5 4.0413 5.0686 -4.2304 0.0000 57.6337 0.0000
# 6 0.0000 0.0000 0.0000 -1.2813 0.0000 29.9027
#
#
#
# Elastic Compliance Matrix: (Units=1/GPa)
#
#
# Indices 1 2 3 4 5 6 
#
# 1 0.007710 -0.002596 -0.002243 0.000000 -0.000477 0.000000
# 2 -0.002596 0.010662 -0.002346 0.000000 -0.000928 0.000000
# 3 -0.002243 -0.002346 0.009931 0.000000 0.001093 0.000000
# 4 0.000000 0.000000 0.000000 0.056231 0.000000 0.002409
# 5 -0.000477 -0.000928 0.001093 0.000000 0.017546 0.000000
# 6 0.000000 0.000000 0.000000 0.002409 0.000000 0.033545
#
#
# Mechanical properties :
#
#
# Convention : Reuss Voigt Hill
#
# Bulk Modulus (GPa) = 71.77044 74.10778 72.93911
# Shear Modulus (GPa) = 32.33305 38.46121 35.39713
#
# Velocity S-wave (km/s) = 3.68207 4.01587 3.85259
# Velocity P-wave (km/s) = 6.94053 7.25101 7.09747
#
# Compressibility (1/GPa) = 0.01393331
#
# Stress axis : x y z
#
# Youngs Moduli (GPa) = 129.70014 93.78690 100.69482
#
# Poissons Ratio (x) = 0.24348 0.22589
# Poissons Ratio (y) = 0.33671 0.23621
# Poissons Ratio (z) = 0.29096 0.22000
#
# Static dielectric constant tensor:
#      x y z
#    x 6.670690 0.000000 0.869970 
#    y 0.000000 4.743870 0.000000 
#    z 0.869970 0.000000 4.424530 
# 
# 
# High freq. dielectric constant tensor:
#      x y z
#    x 1.959360 0.000000 -0.004220 
#    y 0.000000 1.951430 0.000000 
#    z -0.004220 0.000000 1.944550 
# 
# From -- ./inp_files/14896.got.cif
#   From: 2010.06.25/outbox.cif.g09.slc.cpg/sg13_8_cif.got.tgz:14896.got - 2010.06.28 04:50:58.
