data_PCOD8122370
_publ_section_title
;
Structure prediction by ZEFSAII (Michael W. Deem and Ramdas Pophale) SiO2 
 PCOD8122370
Probable space group: P 2/C
;
_chemical_formula_sum "Si O2"
_cell_formula_units_Z 24
_cell_length_a 15.445021
_cell_length_b 9.288453
_cell_length_c 15.782614
_cell_angle_alpha 90.000000
_cell_angle_beta 141.299421
_cell_angle_gamma 90.000000
_cell_volume 1415.679371
_symmetry_space_group_name_H-M "P 2/C"
_symmetry_group_IT_number 13
_symmetry_cell_setting 'monoclinic'
loop_
_space_group_symop_operation_xyz
x,y,z
-x,y,1/2-z
-x,-y,-z
x,-y,1/2+z
loop_
_atom_site_type_symbol
_atom_site_label
_atom_site_fract_x
_atom_site_fract_y
_atom_site_fract_z
Si Si1 0.101411 0.580667 0.189239
Si Si2 0.846861 0.676661 0.665013
Si Si3 0.189317 0.582611 0.588623
Si Si4 0.164465 0.837036 0.138075
Si Si5 0.851472 0.161205 0.339154
Si Si6 0.339390 0.326241 0.636842
O O1 0.166592 0.491557 0.316749
O O2 0.132664 0.498436 0.126940
O O3 0.162666 0.741983 0.223839
O O4 0.934803 0.585890 0.075396
O O5 0.812692 0.782830 0.716594
O O6 0.734552 0.708530 0.507945
O O7 0.000000 0.712575 0.750000
O O8 0.228057 0.744157 0.649127
O O9 0.316531 0.494009 0.645607
O O10 0.281235 0.780805 0.163616
O O11 0.200893 0.998798 0.191947
O O12 0.016313 0.823944 0.978716
O O13 0.500000 0.295601 0.750000
#
# Coordination Sequence:
#
# PCOD8122370 Si02
#       6
#     4   4   4   4   4   4
#     4   8  14  27  51  71  94 122 162 206 235 287
#     4  11  17  31  52  78  97 125 173 214 248 278
#     4   8  14  29  48  71  94 127 161 194 246 291
#     4   9  17  33  51  77 103 132 165 199 257 301
#     4   9  17  31  56  75  98 133 169 207 242 303
#     4  11  21  33  50  74 104 132 164 210 255 294
#
# _framework density 16.952991000000001
#
# number of rings (size 3 to 8) (size 9 to 14) (size 15 to 20)
#    0.000    2.667    3.333    2.000    0.000    0.000 
#    0.000   11.667    0.000    0.000    0.000    0.000 
#    0.000    0.000    0.000    0.000    0.000    0.000 
#
# Total GULP energy -297413.629046 kJ/mol
# GULP energy per Si atom -12392.234544 kJ/mol
# Density = 1.691441 g / cm^3
# Si number density = 16.952991 Si / 1000 Ang^3
#
#
#
# Elastic Constant Matrix: (Units=GPa)
#
#
# Indices 1 2 3 4 5 6 
#
# 1 77.2283 43.1656 41.9717 0.0000 6.5936 0.0000
# 2 43.1656 140.9526 29.9558 0.0000 -1.3153 0.0000
# 3 41.9717 29.9558 78.1902 0.0000 2.2939 0.0000
# 4 0.0000 0.0000 0.0000 12.0443 0.0000 -3.1313
# 5 6.5936 -1.3153 2.2939 0.0000 21.7669 0.0000
# 6 0.0000 0.0000 0.0000 -3.1313 0.0000 22.3196
#
#
#
# Elastic Compliance Matrix: (Units=1/GPa)
#
#
# Indices 1 2 3 4 5 6 
#
# 1 0.021067 -0.004503 -0.009417 0.000000 -0.005661 0.000000
# 2 -0.004503 0.008699 -0.000974 0.000000 0.001992 0.000000
# 3 -0.009417 -0.000974 0.018192 0.000000 0.000877 0.000000
# 4 0.000000 0.000000 0.000000 0.086170 0.000000 0.012089
# 5 -0.005661 0.001992 0.000877 0.000000 0.047684 0.000000
# 6 0.000000 0.000000 0.000000 0.012089 0.000000 0.046500
#
#
# Mechanical properties :
#
#
# Convention : Reuss Voigt Hill
#
# Bulk Modulus (GPa) = 55.03782 58.50637 56.77209
# Shear Modulus (GPa) = 18.92817 23.31135 21.11976
#
# Velocity S-wave (km/s) = 3.34505 3.71220 3.53340
# Velocity P-wave (km/s) = 6.88873 7.27735 7.08570
#
# Compressibility (1/GPa) = 0.01816932
#
# Stress axis : x y z
#
# Youngs Moduli (GPa) = 47.46784 114.95307 54.96958
#
# Poissons Ratio (x) = 0.51763 0.51766
# Poissons Ratio (y) = 0.21375 0.05354
# Poissons Ratio (z) = 0.44702 0.11197
#
# Static dielectric constant tensor:
#      x y z
#    x 3.031950 0.000000 -0.200630 
#    y 0.000000 3.587200 0.000000 
#    z -0.200630 0.000000 2.870230 
# 
# 
# High freq. dielectric constant tensor:
#      x y z
#    x 1.636130 0.000000 -0.019200 
#    y 0.000000 1.654850 0.000000 
#    z -0.019200 0.000000 1.617510 
# 
# From -- ./inp_files/49570.got.cif
#   From: 2010.06.25/outbox.cif.g09.slc.cpg/sg13_25_cif.got.tgz:49570.got - 2010.06.28 04:50:58.
