data_PCOD8122200
_publ_section_title
;
Structure prediction by ZEFSAII (Michael W. Deem and Ramdas Pophale) SiO2 
 PCOD8122200
Probable space group: P 2/C
;
_chemical_formula_sum "Si O2"
_cell_formula_units_Z 16
_cell_length_a 18.518115
_cell_length_b 6.427463
_cell_length_c 11.415716
_cell_angle_alpha 90.000000
_cell_angle_beta 28.251678
_cell_angle_gamma 90.000000
_cell_volume 643.158093
_symmetry_space_group_name_H-M "P 2/C"
_symmetry_group_IT_number 13
_symmetry_cell_setting 'monoclinic'
loop_
_space_group_symop_operation_xyz
x,y,z
-x,y,1/2-z
-x,-y,-z
x,-y,1/2+z
loop_
_atom_site_type_symbol
_atom_site_label
_atom_site_fract_x
_atom_site_fract_y
_atom_site_fract_z
Si Si1 0.000000 0.510907 0.250000
Si Si2 0.500000 0.660210 0.250000
Si Si3 0.911611 0.155332 0.710514
Si Si4 0.622278 0.732535 0.488579
Si Si5 0.262821 0.180767 0.914369
O O1 0.982382 0.662179 0.388374
O O2 0.847180 0.376434 0.454310
O O3 0.429959 0.508903 0.451374
O O4 0.634551 0.794253 0.116046
O O5 0.787171 0.270369 0.810804
O O6 0.000000 0.000000 0.500000
O O7 0.837598 0.025556 0.923869
O O8 0.628201 0.847793 0.354724
O O9 0.500000 0.848881 0.750000
#
# Coordination Sequence:
#
# PCOD8122200 Si02
#       5
#     2   2   4   4   4
#     4  12  24  48  72 102 150 188 244 296 358 442
#     4  10  24  46  72 110 140 192 240 300 370 436
#     4  12  27  45  71 111 145 192 247 297 361 434
#     4  10  24  47  69 107 142 188 244 297 365 427
#     4  12  26  47  77 105 147 197 239 305 368 428
#
# _framework density 24.877244999999998
#
# number of rings (size 3 to 8) (size 9 to 14) (size 15 to 20)
#    0.750    0.000    2.500    4.500    5.250    3.000 
#    0.000    0.000    0.000    0.000    0.000    0.000 
#    0.000    0.000    0.000    0.000    0.000    0.000 
#
# Total GULP energy -198350.610995 kJ/mol
# GULP energy per Si atom -12396.913187 kJ/mol
# Density = 2.482062 g / cm^3
# Si number density = 24.877245 Si / 1000 Ang^3
#
#
#
# Elastic Constant Matrix: (Units=GPa)
#
#
# Indices 1 2 3 4 5 6 
#
# 1 125.9031 28.9688 30.7900 0.0000 -16.6193 0.0000
# 2 28.9688 81.1320 9.9600 0.0000 -10.8205 0.0000
# 3 30.7900 9.9600 106.0368 0.0000 13.9602 0.0000
# 4 0.0000 0.0000 0.0000 12.0329 0.0000 -3.8335
# 5 -16.6193 -10.8205 13.9602 0.0000 55.1004 0.0000
# 6 0.0000 0.0000 0.0000 -3.8335 0.0000 42.7260
#
#
#
# Elastic Compliance Matrix: (Units=1/GPa)
#
#
# Indices 1 2 3 4 5 6 
#
# 1 0.009705 -0.002678 -0.002982 0.000000 0.003157 0.000000
# 2 -0.002678 0.013653 -0.000777 0.000000 0.002070 0.000000
# 3 -0.002982 -0.000777 0.010871 0.000000 -0.003806 0.000000
# 4 0.000000 0.000000 0.000000 0.085551 0.000000 0.007676
# 5 0.003157 0.002070 -0.003806 0.000000 0.020472 0.000000
# 6 0.000000 0.000000 0.000000 0.007676 0.000000 0.024094
#
#
# Mechanical properties :
#
#
# Convention : Reuss Voigt Hill
#
# Bulk Modulus (GPa) = 46.82992 50.27882 48.55437
# Shear Modulus (GPa) = 27.12406 38.19540 32.65973
#
# Velocity S-wave (km/s) = 3.30558 3.92261 3.62724
# Velocity P-wave (km/s) = 5.78225 6.38518 6.09118
#
# Compressibility (1/GPa) = 0.02135387
#
# Stress axis : x y z
#
# Youngs Moduli (GPa) = 103.04213 73.24188 91.99021
#
# Poissons Ratio (x) = 0.19615 0.27432
# Poissons Ratio (y) = 0.27595 0.07151
# Poissons Ratio (z) = 0.30727 0.05694
#
# Static dielectric constant tensor:
#      x y z
#    x 4.489590 0.000000 0.171320 
#    y 0.000000 4.390540 0.000000 
#    z 0.171320 0.000000 -0.754620 
# 
# 
# High freq. dielectric constant tensor:
#      x y z
#    x 2.000160 0.000000 -0.009120 
#    y 0.000000 1.991530 0.000000 
#    z -0.009120 0.000000 1.980390 
# 
# From -- ./inp_files/31236.got.cif
#   From: 2010.06.25/outbox.cif.g09.slc.cpg/sg13_16_cif.got.tgz:31236.got - 2010.06.28 04:50:58.
