data_PCOD8122279
_publ_section_title
;
Structure prediction by ZEFSAII (Michael W. Deem and Ramdas Pophale) SiO2 
 PCOD8122279
Probable space group: P 2/C
;
_chemical_formula_sum "Si O2"
_cell_formula_units_Z 22
_cell_length_a 19.626073
_cell_length_b 6.178756
_cell_length_c 9.130920
_cell_angle_alpha 90.000000
_cell_angle_beta 63.128995
_cell_angle_gamma 90.000000
_cell_volume 987.703716
_symmetry_space_group_name_H-M "P 2/C"
_symmetry_group_IT_number 13
_symmetry_cell_setting 'monoclinic'
loop_
_space_group_symop_operation_xyz
x,y,z
-x,y,1/2-z
-x,-y,-z
x,-y,1/2+z
loop_
_atom_site_type_symbol
_atom_site_label
_atom_site_fract_x
_atom_site_fract_y
_atom_site_fract_z
Si Si1 0.298841 0.206588 0.447983
Si Si2 0.000000 0.479779 0.750000
Si Si3 0.871146 0.144980 0.815433
Si Si4 0.942092 0.145655 0.467451
Si Si5 0.639989 0.498144 0.361573
Si Si6 0.584743 0.803820 0.165001
O O1 0.211454 0.134995 0.531579
O O2 0.308954 0.343782 0.290137
O O3 0.309351 0.352299 0.582066
O O4 0.353725 0.996855 0.396412
O O5 0.078279 0.351393 0.693039
O O6 0.017870 0.623611 0.589428
O O7 0.865896 0.145157 0.643924
O O8 0.918289 0.938624 0.830563
O O9 0.000000 0.000000 0.500000
O O10 0.591189 0.654105 0.303315
O O11 0.589247 0.343828 0.514706
O O12 0.500000 0.908193 0.250000
#
# Coordination Sequence:
#
# PCOD8122279 Si02
#       6
#     4   2   4   4   4   4
#     4  11  27  44  69 102 142 183 226 285 347 406
#     4  12  24  44  70  96 132 184 230 274 344 388
#     4  12  28  42  70  98 139 177 226 282 338 409
#     4  12  24  46  66 102 132 175 232 284 334 404
#     4  10  25  46  67 105 138 180 233 275 341 417
#     4  11  24  46  74 103 138 181 227 284 344 407
#
# _framework density 22.273886999999998
#
# number of rings (size 3 to 8) (size 9 to 14) (size 15 to 20)
#    0.000    0.727    3.636    2.182    7.636    7.273 
#    0.000    0.000    0.000    0.000    0.000    0.000 
#    0.000    0.000    0.000    0.000    0.000    0.000 
#
# Total GULP energy -272635.932155 kJ/mol
# GULP energy per Si atom -12392.542371 kJ/mol
# Density = 2.222319 g / cm^3
# Si number density = 22.273887 Si / 1000 Ang^3
#
#
#
# Elastic Constant Matrix: (Units=GPa)
#
#
# Indices 1 2 3 4 5 6 
#
# 1 117.5491 56.4247 54.7872 0.0000 -27.4361 0.0000
# 2 56.4247 131.8071 54.7226 0.0000 -6.2285 0.0000
# 3 54.7872 54.7226 140.1398 0.0000 10.8636 0.0000
# 4 0.0000 0.0000 0.0000 43.1406 0.0000 -2.4146
# 5 -27.4361 -6.2285 10.8636 0.0000 40.3696 0.0000
# 6 0.0000 0.0000 0.0000 -2.4146 0.0000 22.1520
#
#
#
# Elastic Compliance Matrix: (Units=1/GPa)
#
#
# Indices 1 2 3 4 5 6 
#
# 1 0.015590 -0.003857 -0.005478 0.000000 0.011474 0.000000
# 2 -0.003857 0.010242 -0.002462 0.000000 -0.000379 0.000000
# 3 -0.005478 -0.002462 0.010782 0.000000 -0.007004 0.000000
# 4 0.000000 0.000000 0.000000 0.023322 0.000000 0.002542
# 5 0.011474 -0.000379 -0.007004 0.000000 0.034396 0.000000
# 6 0.000000 0.000000 0.000000 0.002542 0.000000 0.045420
#
#
# Mechanical properties :
#
#
# Convention : Reuss Voigt Hill
#
# Bulk Modulus (GPa) = 76.81049 80.15166 78.48108
# Shear Modulus (GPa) = 29.81748 36.03655 32.92701
#
# Velocity S-wave (km/s) = 3.66276 4.02666 3.84901
# Velocity P-wave (km/s) = 7.24204 7.59482 7.42053
#
# Compressibility (1/GPa) = 0.01301906
#
# Stress axis : x y z
#
# Youngs Moduli (GPa) = 64.14376 97.63321 92.74887
#
# Poissons Ratio (x) = 0.37660 0.50809
# Poissons Ratio (y) = 0.24742 0.22836
# Poissons Ratio (z) = 0.35139 0.24039
#
# Static dielectric constant tensor:
#      x y z
#    x 3.684260 0.000000 0.090010 
#    y 0.000000 4.205360 0.000000 
#    z 0.090010 0.000000 5.222960 
# 
# 
# High freq. dielectric constant tensor:
#      x y z
#    x 1.859660 0.000000 0.003490 
#    y 0.000000 1.886310 0.000000 
#    z 0.003490 0.000000 1.911030 
# 
# From -- ./inp_files/22215.got.cif
#   From: 2010.06.25/outbox.cif.g09.slc.cpg/sg13_12_cif.got.tgz:22215.got - 2010.06.28 04:50:58.
