data_PCOD8122809
_publ_section_title
;
Structure prediction by ZEFSAII (Michael W. Deem and Ramdas Pophale) SiO2 
 PCOD8122809
Probable space group: P 2/C
;
_chemical_formula_sum "Si O2"
_cell_formula_units_Z 16
_cell_length_a 13.440341
_cell_length_b 5.045954
_cell_length_c 21.983947
_cell_angle_alpha 90.000000
_cell_angle_beta 152.804018
_cell_angle_gamma 90.000000
_cell_volume 681.411139
_symmetry_space_group_name_H-M "P 2/C"
_symmetry_group_IT_number 13
_symmetry_cell_setting 'monoclinic'
loop_
_space_group_symop_operation_xyz
x,y,z
-x,y,1/2-z
-x,-y,-z
x,-y,1/2+z
loop_
_atom_site_type_symbol
_atom_site_label
_atom_site_fract_x
_atom_site_fract_y
_atom_site_fract_z
Si Si1 0.223859 0.502772 0.993867
Si Si2 0.229167 0.799697 0.385660
Si Si3 0.423480 0.178577 0.865055
Si Si4 0.012190 0.008270 0.934935
O O1 0.158072 0.456191 0.887201
O O2 0.189190 0.231304 0.012593
O O3 0.476421 0.598208 0.125823
O O4 0.078029 0.723789 0.945574
O O5 0.338277 0.700340 0.382472
O O6 0.000000 0.956737 0.250000
O O7 0.391298 0.965885 0.516820
O O8 0.225924 0.053871 0.721282
O O9 0.000000 0.000000 0.000000
#
# Coordination Sequence:
#
# PCOD8122809 Si02
#       4
#     4   4   4   4
#     4  12  25  50  72 113 146 193 248 304 367 440
#     4  11  23  46  77 113 151 187 244 308 376 446
#     4  11  25  47  79 112 147 198 239 309 380 436
#     4  12  29  52  75 108 154 196 254 303 359 442
#
# _framework density 23.480682000000002
#
# number of rings (size 3 to 8) (size 9 to 14) (size 15 to 20)
#    0.000    0.500    5.000    1.500    3.500    6.000 
#    4.500    0.000    0.000    0.000    0.000    0.000 
#    0.000    0.000    0.000    0.000    0.000    0.000 
#
# Total GULP energy -198261.904988 kJ/mol
# GULP energy per Si atom -12391.369062 kJ/mol
# Density = 2.342724 g / cm^3
# Si number density = 23.480682 Si / 1000 Ang^3
#
#
#
# Elastic Constant Matrix: (Units=GPa)
#
#
# Indices 1 2 3 4 5 6 
#
# 1 208.1270 62.7690 79.4254 0.0000 -7.4411 0.0000
# 2 62.7690 94.0316 20.6093 0.0000 -5.7227 0.0000
# 3 79.4254 20.6093 59.4982 0.0000 -5.1217 0.0000
# 4 0.0000 0.0000 0.0000 -5.8004 0.0000 -17.9811
# 5 -7.4411 -5.7227 -5.1217 0.0000 38.9007 0.0000
# 6 0.0000 0.0000 0.0000 -17.9811 0.0000 20.8496
#
#
#
# Elastic Compliance Matrix: (Units=1/GPa)
#
#
# Indices 1 2 3 4 5 6 
#
# 1 0.011394 -0.004637 -0.013629 0.000000 -0.000297 0.000000
# 2 -0.004637 0.013449 0.001643 0.000000 0.001308 0.000000
# 3 -0.013629 0.001643 0.034621 0.000000 0.002193 0.000000
# 4 0.000000 0.000000 0.000000 -0.046932 0.000000 -0.040475
# 5 -0.000297 0.001308 0.002193 0.000000 0.026131 0.000000
# 6 0.000000 0.000000 0.000000 -0.040475 0.000000 0.013056
#
#
# Mechanical properties :
#
#
# Convention : Reuss Voigt Hill
#
# Bulk Modulus (GPa) = 38.14052 76.36266 57.25159
# Shear Modulus (GPa) = 53.36003 24.04685 38.70344
#
# Velocity S-wave (km/s) = 4.77225 3.20365 4.06434
# Velocity P-wave (km/s) = 6.82968 6.80269 6.81620
#
# Compressibility (1/GPa) = 0.02621883
#
# Stress axis : x y z
#
# Youngs Moduli (GPa) = 87.76854 74.35406 28.88460
#
# Poissons Ratio (x) = 0.34474 0.39367
# Poissons Ratio (y) = 0.40694 -0.04747
# Poissons Ratio (z) = 1.19621 -0.12219
#
# Static dielectric constant tensor:
#      x y z
#    x 4.710690 0.000000 0.334110 
#    y 0.000000 4.174790 0.000000 
#    z 0.334110 0.000000 4.329580 
# 
# 
# High freq. dielectric constant tensor:
#      x y z
#    x 1.957780 0.000000 0.021780 
#    y 0.000000 1.920430 0.000000 
#    z 0.021780 0.000000 1.920230 
# 
# From -- ./inp_files/31485.got.cif
#   From: 2010.06.25/outbox.cif.g09.slc.cpg/sg13_16_cif.got.tgz:31485.got - 2010.06.28 04:50:58.
