data_PCOD8122538
_publ_section_title
;
Structure prediction by ZEFSAII (Michael W. Deem and Ramdas Pophale) SiO2 
 PCOD8122538
Probable space group: P 2/C
;
_chemical_formula_sum "Si O2"
_cell_formula_units_Z 32
_cell_length_a 12.242949
_cell_length_b 11.792654
_cell_length_c 11.213351
_cell_angle_alpha 90.000000
_cell_angle_beta 73.292683
_cell_angle_gamma 90.000000
_cell_volume 1550.605795
_symmetry_space_group_name_H-M "P 2/C"
_symmetry_group_IT_number 13
_symmetry_cell_setting 'monoclinic'
loop_
_space_group_symop_operation_xyz
x,y,z
-x,y,1/2-z
-x,-y,-z
x,-y,1/2+z
loop_
_atom_site_type_symbol
_atom_site_label
_atom_site_fract_x
_atom_site_fract_y
_atom_site_fract_z
Si Si1 0.993217 0.314393 0.617265
Si Si2 0.622411 0.238980 0.534279
Si Si3 0.635251 0.275453 0.864640
Si Si4 0.310059 0.063437 0.788161
Si Si5 0.948290 0.050690 0.638070
Si Si6 0.756433 0.663645 0.564354
Si Si7 0.237757 0.407330 0.881210
Si Si8 0.382845 0.180995 0.235752
O O1 0.954554 0.185289 0.630106
O O2 0.898519 0.388752 0.578855
O O3 0.000000 0.360923 0.750000
O O4 0.112720 0.325096 0.513494
O O5 0.499690 0.287503 0.612099
O O6 0.660316 0.133817 0.603380
O O7 0.712135 0.342022 0.519390
O O8 0.621857 0.193814 0.402764
O O9 0.669199 0.143836 0.833150
O O10 0.702004 0.357264 0.754369
O O11 0.670307 0.310623 0.984868
O O12 0.182606 0.015738 0.823523
O O13 0.387153 0.952173 0.763566
O O14 0.000000 0.007145 0.750000
O O15 0.000000 0.000000 0.500000
O O16 0.732870 0.538854 0.620938
O O17 0.726670 0.754414 0.675802
O O18 0.500000 0.234567 0.250000
#
# Coordination Sequence:
#
# PCOD8122538 Si02
#       8
#     4   4   4   4   4   4   4   4
#     4  11  21  45  69  96 132 181 231 276 339 415
#     4  11  25  45  69  99 137 179 230 277 347 410
#     4  11  22  46  70  95 133 179 228 275 343 409
#     4  11  24  43  70  97 136 180 224 281 345 418
#     4  11  23  40  68 100 138 183 231 283 348 417
#     4  12  26  42  69 102 134 176 232 282 339 404
#     4  11  24  44  70  98 135 180 226 283 337 403
#     4  12  27  43  66 104 139 175 227 288 346 407
#
# _framework density 20.637094999999999
#
# number of rings (size 3 to 8) (size 9 to 14) (size 15 to 20)
#    0.000    0.750    5.000    4.125    5.250    2.500 
#    0.000    0.625    0.000    0.000    0.000    0.000 
#    0.000    0.000    0.000    0.000    0.000    0.000 
#
# Total GULP energy -396850.713920 kJ/mol
# GULP energy per Si atom -12401.584810 kJ/mol
# Density = 2.059012 g / cm^3
# Si number density = 20.637095 Si / 1000 Ang^3
#
#
#
# Elastic Constant Matrix: (Units=GPa)
#
#
# Indices 1 2 3 4 5 6 
#
# 1 141.5027 21.4912 42.0604 0.0000 -6.1980 0.0000
# 2 21.4912 114.2965 33.5558 0.0000 0.6193 0.0000
# 3 42.0604 33.5558 91.5381 0.0000 -0.7478 0.0000
# 4 0.0000 0.0000 0.0000 19.6151 0.0000 -0.6916
# 5 -6.1980 0.6193 -0.7478 0.0000 37.4878 0.0000
# 6 0.0000 0.0000 0.0000 -0.6916 0.0000 18.9828
#
#
#
# Elastic Compliance Matrix: (Units=1/GPa)
#
#
# Indices 1 2 3 4 5 6 
#
# 1 0.008272 -0.000504 -0.003606 0.000000 0.001304 0.000000
# 2 -0.000504 0.009837 -0.003377 0.000000 -0.000313 0.000000
# 3 -0.003606 -0.003377 0.013817 0.000000 -0.000265 0.000000
# 4 0.000000 0.000000 0.000000 0.051047 0.000000 0.001860
# 5 0.001304 -0.000313 -0.000265 0.000000 0.026891 0.000000
# 6 0.000000 0.000000 0.000000 0.001860 0.000000 0.052747
#
#
# Mechanical properties :
#
#
# Convention : Reuss Voigt Hill
#
# Bulk Modulus (GPa) = 58.98620 60.17243 59.57932
# Shear Modulus (GPa) = 27.28732 31.89914 29.59323
#
# Velocity S-wave (km/s) = 3.64021 3.93583 3.79090
# Velocity P-wave (km/s) = 6.80536 7.06223 6.93498
#
# Compressibility (1/GPa) = 0.01695312
#
# Stress axis : x y z
#
# Youngs Moduli (GPa) = 120.88374 101.65620 72.37489
#
# Poissons Ratio (x) = 0.05123 0.26096
# Poissons Ratio (y) = 0.06092 0.24441
# Poissons Ratio (z) = 0.43587 0.34330
#
# Static dielectric constant tensor:
#      x y z
#    x 4.157560 0.000000 -0.046200 
#    y 0.000000 3.682050 0.000000 
#    z -0.046200 0.000000 3.885340 
# 
# 
# High freq. dielectric constant tensor:
#      x y z
#    x 1.827400 0.000000 -0.000990 
#    y 0.000000 1.802280 0.000000 
#    z -0.000990 0.000000 1.807840 
# 
# From -- ./inp_files/34145.got.cif
#   From: 2010.06.25/outbox.cif.g09.slc.cpg/sg13_18_cif.got.tgz:34145.got - 2010.06.28 04:50:58.
