data_PCOD8122170
_publ_section_title
;
Structure prediction by ZEFSAII (Michael W. Deem and Ramdas Pophale) SiO2 
 PCOD8122170
Probable space group: P 2/C
;
_chemical_formula_sum "Si O2"
_cell_formula_units_Z 16
_cell_length_a 24.498783
_cell_length_b 5.729270
_cell_length_c 26.947552
_cell_angle_alpha 90.000000
_cell_angle_beta 9.781093
_cell_angle_gamma 90.000000
_cell_volume 642.564021
_symmetry_space_group_name_H-M "P 2/C"
_symmetry_group_IT_number 13
_symmetry_cell_setting 'monoclinic'
loop_
_space_group_symop_operation_xyz
x,y,z
-x,y,1/2-z
-x,-y,-z
x,-y,1/2+z
loop_
_atom_site_type_symbol
_atom_site_label
_atom_site_fract_x
_atom_site_fract_y
_atom_site_fract_z
Si Si1 0.703489 0.339854 0.114020
Si Si2 0.798347 0.339867 0.384143
Si Si3 0.260226 0.670858 0.739767
Si Si4 0.213759 0.000022 0.190822
O O1 0.500000 0.237770 0.250000
O O2 0.498490 0.499973 0.334329
O O3 0.982107 0.500028 0.845257
O O4 0.872093 0.129445 0.991732
O O5 0.000000 0.237766 0.250000
O O6 0.689128 0.129433 0.447051
O O7 0.500000 0.500000 0.500000
O O8 0.471524 0.835960 0.586121
O O9 0.125611 0.835853 0.816715
O O10 0.000000 0.500000 0.000000
#
# Coordination Sequence:
#
# PCOD8122170 Si02
#       4
#     4   4   4   4
#     4  10  24  45  71 110 152 188 237 297 359 439
#     4  10  24  45  71 110 152 188 237 297 359 439
#     4  11  28  51  73 106 145 189 252 311 357 422
#     4  11  26  48  80 104 144 201 242 296 374 435
#
# _framework density 24.900245000000002
#
# number of rings (size 3 to 8) (size 9 to 14) (size 15 to 20)
#    0.000    1.500    0.000    1.500    0.000   24.000 
#    0.000    8.750    0.000    0.000    0.000    0.000 
#    0.000    0.000    0.000    0.000    0.000    0.000 
#
# Total GULP energy -198291.121921 kJ/mol
# GULP energy per Si atom -12393.195120 kJ/mol
# Density = 2.484357 g / cm^3
# Si number density = 24.900245 Si / 1000 Ang^3
#
#
#
# Elastic Constant Matrix: (Units=GPa)
#
#
# Indices 1 2 3 4 5 6 
#
# 1 182.8685 120.7894 102.0877 0.0000 -16.9362 0.0000
# 2 120.7894 175.2111 101.4151 0.0000 -12.1227 0.0000
# 3 102.0877 101.4151 185.5771 0.0000 18.7678 0.0000
# 4 0.0000 0.0000 0.0000 31.6576 0.0000 -17.2879
# 5 -16.9362 -12.1227 18.7678 0.0000 49.2651 0.0000
# 6 0.0000 0.0000 0.0000 -17.2879 0.0000 59.1980
#
#
#
# Elastic Compliance Matrix: (Units=1/GPa)
#
#
# Indices 1 2 3 4 5 6 
#
# 1 0.011608 -0.005540 -0.003769 0.000000 0.004063 0.000000
# 2 -0.005540 0.011800 -0.003642 0.000000 0.002387 0.000000
# 3 -0.003769 -0.003642 0.010062 0.000000 -0.006025 0.000000
# 4 0.000000 0.000000 0.000000 0.037581 0.000000 0.010975
# 5 0.004063 0.002387 -0.006025 0.000000 0.024578 0.000000
# 6 0.000000 0.000000 0.000000 0.010975 0.000000 0.020098
#
#
# Mechanical properties :
#
#
# Convention : Reuss Voigt Hill
#
# Bulk Modulus (GPa) = 132.14972 132.47123 132.31047
# Shear Modulus (GPa) = 34.68570 42.64846 38.66708
#
# Velocity S-wave (km/s) = 3.73632 4.14306 3.94493
# Velocity P-wave (km/s) = 8.47351 8.72942 8.60242
#
# Compressibility (1/GPa) = 0.00756717
#
# Stress axis : x y z
#
# Youngs Moduli (GPa) = 86.14715 84.74718 99.38393
#
# Poissons Ratio (x) = 0.46947 0.37461
# Poissons Ratio (y) = 0.47722 0.36200
# Poissons Ratio (z) = 0.32472 0.30868
#
# Static dielectric constant tensor:
#      x y z
#    x 4.719420 0.000000 -0.236470 
#    y 0.000000 4.615620 0.000000 
#    z -0.236470 0.000000 4.340320 
# 
# 
# High freq. dielectric constant tensor:
#      x y z
#    x 2.011940 0.000000 -0.005010 
#    y 0.000000 2.002400 0.000000 
#    z -0.005010 0.000000 2.003880 
# 
# From -- ./inp_files/97798.got.cif
#   From: 2010.06.25/outbox.cif.g09.slc.cpg/sg13_49_cif.got.tgz:97798.got - 2010.06.28 04:50:58.
