data_PCOD8122946
_publ_section_title
;
Structure prediction by ZEFSAII (Michael W. Deem and Ramdas Pophale) SiO2 
 PCOD8122946
Probable space group: P 2/C
;
_chemical_formula_sum "Si O2"
_cell_formula_units_Z 12
_cell_length_a 6.028926
_cell_length_b 4.814797
_cell_length_c 20.638537
_cell_angle_alpha 90.000000
_cell_angle_beta 56.781785
_cell_angle_gamma 90.000000
_cell_volume 501.198327
_symmetry_space_group_name_H-M "P 2/C"
_symmetry_group_IT_number 13
_symmetry_cell_setting 'monoclinic'
loop_
_space_group_symop_operation_xyz
x,y,z
-x,y,1/2-z
-x,-y,-z
x,-y,1/2+z
loop_
_atom_site_type_symbol
_atom_site_label
_atom_site_fract_x
_atom_site_fract_y
_atom_site_fract_z
Si Si1 0.067072 0.558896 0.592433
Si Si2 0.291598 0.943411 0.340382
Si Si3 0.529670 0.799844 0.056791
O O1 0.208024 0.612158 0.500172
O O2 0.281142 0.410737 0.605746
O O3 0.808078 0.368824 0.631835
O O4 0.955925 0.855127 0.635983
O O5 0.500000 0.960060 0.250000
O O6 0.436395 0.000129 0.386155
O O7 0.500000 0.000000 0.000000
#
# Coordination Sequence:
#
# PCOD8122946 Si02
#       3
#     4   4   4
#     4  11  25  46  71 100 138 182 235 284 341 423
#     4  12  27  46  68 104 146 181 226 291 357 411
#     4  11  25  45  75 102 132 187 240 284 340 414
#
# _framework density 23.942618
#
# number of rings (size 3 to 8) (size 9 to 14) (size 15 to 20)
#    0.000    0.667    3.333    3.000    9.333    1.333 
#    6.000    0.000    0.000    0.000    0.000    0.000 
#    0.000    0.000    0.000    0.000    0.000    0.000 
#
# Total GULP energy -148717.531900 kJ/mol
# GULP energy per Si atom -12393.127658 kJ/mol
# Density = 2.388812 g / cm^3
# Si number density = 23.942618 Si / 1000 Ang^3
#
#
#
# Elastic Constant Matrix: (Units=GPa)
#
#
# Indices 1 2 3 4 5 6 
#
# 1 95.4143 35.9760 78.0120 0.0000 -2.3737 0.0000
# 2 35.9760 107.1698 47.5728 0.0000 -4.4423 0.0000
# 3 78.0120 47.5728 175.9500 0.0000 -10.9539 0.0000
# 4 0.0000 0.0000 0.0000 30.7645 0.0000 -14.5228
# 5 -2.3737 -4.4423 -10.9539 0.0000 30.1492 0.0000
# 6 0.0000 0.0000 0.0000 -14.5228 0.0000 41.8246
#
#
#
# Elastic Compliance Matrix: (Units=1/GPa)
#
#
# Indices 1 2 3 4 5 6 
#
# 1 0.017174 -0.002735 -0.006974 0.000000 -0.001585 0.000000
# 2 -0.002735 0.011048 -0.001725 0.000000 0.000786 0.000000
# 3 -0.006974 -0.001725 0.009405 0.000000 0.002614 0.000000
# 4 0.000000 0.000000 0.000000 0.038878 0.000000 0.013500
# 5 -0.001585 0.000786 0.002614 0.000000 0.034109 0.000000
# 6 0.000000 0.000000 0.000000 0.013500 0.000000 0.028597
#
#
# Mechanical properties :
#
#
# Convention : Reuss Voigt Hill
#
# Bulk Modulus (GPa) = 67.76079 77.96173 72.86126
# Shear Modulus (GPa) = 29.94039 35.01254 32.47646
#
# Velocity S-wave (km/s) = 3.54009 3.82822 3.68697
# Velocity P-wave (km/s) = 6.71360 7.22308 6.97300
#
# Compressibility (1/GPa) = 0.01475780
#
# Stress axis : x y z
#
# Youngs Moduli (GPa) = 58.22611 90.51696 106.33018
#
# Poissons Ratio (x) = 0.24759 0.74153
# Poissons Ratio (y) = 0.15927 0.18346
# Poissons Ratio (z) = 0.40606 0.15617
#
# Static dielectric constant tensor:
#      x y z
#    x 4.373130 0.000000 -0.262720 
#    y 0.000000 4.570350 0.000000 
#    z -0.262720 0.000000 4.175590 
# 
# 
# High freq. dielectric constant tensor:
#      x y z
#    x 1.944630 0.000000 -0.027860 
#    y 0.000000 1.966760 0.000000 
#    z -0.027860 0.000000 1.928500 
# 
# From -- ./inp_files/60034.got.cif
#   From: 2010.06.25/outbox.cif.g09.slc.cpg/sg13_31_cif.got.tgz:60034.got - 2010.06.28 04:50:58.
