data_PCOD8122559
_publ_section_title
;
Structure prediction by ZEFSAII (Michael W. Deem and Ramdas Pophale) SiO2 
 PCOD8122559
Probable space group: P 2/C
;
_chemical_formula_sum "Si O2"
_cell_formula_units_Z 26
_cell_length_a 18.269694
_cell_length_b 9.784297
_cell_length_c 13.892883
_cell_angle_alpha 90.000000
_cell_angle_beta 147.985222
_cell_angle_gamma 90.000000
_cell_volume 1316.564671
_symmetry_space_group_name_H-M "P 2/C"
_symmetry_group_IT_number 13
_symmetry_cell_setting 'monoclinic'
loop_
_space_group_symop_operation_xyz
x,y,z
-x,y,1/2-z
-x,-y,-z
x,-y,1/2+z
loop_
_atom_site_type_symbol
_atom_site_label
_atom_site_fract_x
_atom_site_fract_y
_atom_site_fract_z
Si Si1 0.500000 0.038430 0.750000
Si Si2 0.444230 0.444108 0.286178
Si Si3 0.661062 0.625898 0.175416
Si Si4 0.171630 0.105860 0.126864
Si Si5 0.536079 0.140875 0.990371
Si Si6 0.127840 0.186710 0.673342
Si Si7 0.727779 0.825856 0.964306
O O1 0.498772 0.139969 0.659779
O O2 0.634454 0.946088 0.900689
O O3 0.500000 0.510866 0.250000
O O4 0.332683 0.537844 0.219025
O O5 0.587765 0.452813 0.506325
O O6 0.369493 0.299323 0.179695
O O7 0.813937 0.682618 0.321044
O O8 0.558460 0.752066 0.063855
O O9 0.304859 0.183488 0.316999
O O10 0.180037 0.112717 0.019856
O O11 0.175860 0.951736 0.173214
O O12 0.038010 0.188808 0.013522
O O13 0.500000 0.000000 0.000000
O O14 0.175290 0.207643 0.836863
#
# Coordination Sequence:
#
# PCOD8122559 Si02
#       7
#     2   4   4   4   4   4   4
#     4  12  20  30  62  90 120 156 202 260 316 364
#     4  11  22  37  64  91 119 165 217 264 300 354
#     4  11  22  39  62  91 123 160 212 257 308 370
#     4  11  23  36  62  94 128 160 202 255 322 380
#     4  12  20  37  59  93 121 157 199 257 317 369
#     4  11  22  40  60  93 130 165 200 256 318 383
#     4  12  19  38  61  91 124 163 213 251 307 383
#
# _framework density 19.748365
#
# number of rings (size 3 to 8) (size 9 to 14) (size 15 to 20)
#    0.000    0.615    8.462    0.462    1.077    0.000 
#    0.000    0.769    0.000    0.000    0.000    0.000 
#    0.000    0.000    0.000    0.000    0.000    0.000 
#
# Total GULP energy -322195.411891 kJ/mol
# GULP energy per Si atom -12392.131227 kJ/mol
# Density = 1.970342 g / cm^3
# Si number density = 19.748365 Si / 1000 Ang^3
#
#
#
# Elastic Constant Matrix: (Units=GPa)
#
#
# Indices 1 2 3 4 5 6 
#
# 1 101.8651 19.1545 35.4117 0.0000 -13.1039 0.0000
# 2 19.1545 34.9890 10.9671 0.0000 -5.0123 0.0000
# 3 35.4117 10.9671 77.3403 0.0000 -1.2762 0.0000
# 4 0.0000 0.0000 0.0000 20.6794 0.0000 4.5127
# 5 -13.1039 -5.0123 -1.2762 0.0000 46.5262 0.0000
# 6 0.0000 0.0000 0.0000 4.5127 0.0000 36.4596
#
#
#
# Elastic Compliance Matrix: (Units=1/GPa)
#
#
# Indices 1 2 3 4 5 6 
#
# 1 0.012940 -0.005042 -0.005161 0.000000 0.002960 0.000000
# 2 -0.005042 0.032330 -0.002243 0.000000 0.002001 0.000000
# 3 -0.005161 -0.002243 0.015590 0.000000 -0.001268 0.000000
# 4 0.000000 0.000000 0.000000 0.049700 0.000000 -0.006152
# 5 0.002960 0.002001 -0.001268 0.000000 0.022508 0.000000
# 6 0.000000 0.000000 0.000000 -0.006152 0.000000 0.028189
#
#
# Mechanical properties :
#
#
# Convention : Reuss Voigt Hill
#
# Bulk Modulus (GPa) = 27.80218 38.36230 33.08224
# Shear Modulus (GPa) = 25.23491 30.64379 27.93935
#
# Velocity S-wave (km/s) = 3.57854 3.94345 3.76542
# Velocity P-wave (km/s) = 5.58421 6.34052 5.97434
#
# Compressibility (1/GPa) = 0.03596840
#
# Stress axis : x y z
#
# Youngs Moduli (GPa) = 77.28051 30.93058 64.14357
#
# Poissons Ratio (x) = 0.15596 0.33104
# Poissons Ratio (y) = 0.38966 0.14387
# Poissons Ratio (z) = 0.39884 0.06937
#
# Static dielectric constant tensor:
#      x y z
#    x 4.048010 0.000000 0.259130 
#    y 0.000000 3.439160 0.000000 
#    z 0.259130 0.000000 6.155190 
# 
# 
# High freq. dielectric constant tensor:
#      x y z
#    x 1.792020 0.000000 -0.009800 
#    y 0.000000 1.746840 0.000000 
#    z -0.009800 0.000000 1.757870 
# 
# From -- ./inp_files/57313.got.cif
#   From: 2010.06.25/outbox.cif.g09.slc.cpg/sg13_29_cif.got.tgz:57313.got - 2010.06.28 04:50:58.
