data_PCOD8122923
_publ_section_title
;
Structure prediction by ZEFSAII (Michael W. Deem and Ramdas Pophale) SiO2 
 PCOD8122923
Probable space group: P 2/C
;
_chemical_formula_sum "Si O2"
_cell_formula_units_Z 30
_cell_length_a 16.408620
_cell_length_b 13.577227
_cell_length_c 11.330918
_cell_angle_alpha 90.000000
_cell_angle_beta 31.137863
_cell_angle_gamma 90.000000
_cell_volume 1305.335012
_symmetry_space_group_name_H-M "P 2/C"
_symmetry_group_IT_number 13
_symmetry_cell_setting 'monoclinic'
loop_
_space_group_symop_operation_xyz
x,y,z
-x,y,1/2-z
-x,-y,-z
x,-y,1/2+z
loop_
_atom_site_type_symbol
_atom_site_label
_atom_site_fract_x
_atom_site_fract_y
_atom_site_fract_z
Si Si1 0.224877 0.198752 0.763219
Si Si2 0.364822 0.738604 0.514121
Si Si3 0.500000 0.393237 0.250000
Si Si4 0.052874 0.609395 0.556813
Si Si5 0.422949 0.779700 0.697762
Si Si6 0.155784 0.915595 0.134551
Si Si7 0.253244 0.529895 0.687574
Si Si8 0.174953 0.139541 0.074530
O O1 0.394177 0.206644 0.488222
O O2 0.123132 0.123063 0.808792
O O3 0.123595 0.299424 0.894153
O O4 0.272072 0.158451 0.834386
O O5 0.500000 0.736290 0.250000
O O6 0.411393 0.798873 0.571724
O O7 0.337646 0.632633 0.607185
O O8 0.214767 0.785301 0.632072
O O9 0.604479 0.329991 0.215680
O O10 0.372922 0.460329 0.471705
O O11 0.193478 0.526904 0.380437
O O12 0.000000 0.647447 0.750000
O O13 0.900241 0.556058 0.696771
O O14 0.302240 0.858338 0.898591
O O15 0.000000 0.898613 0.250000
O O16 0.202809 0.029613 0.085651
O O17 0.000000 0.160806 0.250000
#
# Coordination Sequence:
#
# PCOD8122923 Si02
#       8
#     4   4   2   4   4   4   4   4
#     4  12  23  49  76 101 151 193 237 303 368 434
#     4  12  26  45  71 111 141 190 247 303 359 431
#     4  12  24  50  72 104 152 196 248 294 376 430
#     4  11  25  44  70 106 143 195 246 298 365 434
#     4  12  26  46  72 106 148 192 238 307 364 438
#     4  11  28  47  75 109 143 189 249 303 370 438
#     4  11  25  43  72 104 144 193 246 303 357 439
#     4  11  27  48  74 105 144 193 241 306 366 437
#
# _framework density 22.982605
#
# number of rings (size 3 to 8) (size 9 to 14) (size 15 to 20)
#    0.000    0.533    4.667    2.000    7.467    3.200 
#    0.000    0.000    0.000    0.000    0.000    0.000 
#    0.000    0.000    0.000    0.000    0.000    0.000 
#
# Total GULP energy -371699.023751 kJ/mol
# GULP energy per Si atom -12389.967458 kJ/mol
# Density = 2.293030 g / cm^3
# Si number density = 22.982605 Si / 1000 Ang^3
#
#
#
# Elastic Constant Matrix: (Units=GPa)
#
#
# Indices 1 2 3 4 5 6 
#
# 1 104.2309 37.9673 14.5950 0.0000 9.6521 0.0000
# 2 37.9673 134.4153 37.4481 0.0000 7.1966 0.0000
# 3 14.5950 37.4481 100.7083 0.0000 -2.6914 0.0000
# 4 0.0000 0.0000 0.0000 32.0939 0.0000 -4.6443
# 5 9.6521 7.1966 -2.6914 0.0000 30.6177 0.0000
# 6 0.0000 0.0000 0.0000 -4.6443 0.0000 34.7862
#
#
#
# Elastic Compliance Matrix: (Units=1/GPa)
#
#
# Indices 1 2 3 4 5 6 
#
# 1 0.010955 -0.002764 -0.000636 0.000000 -0.002860 0.000000
# 2 -0.002764 0.009151 -0.003044 0.000000 -0.001547 0.000000
# 3 -0.000636 -0.003044 0.011204 0.000000 0.001901 0.000000
# 4 0.000000 0.000000 0.000000 0.031772 0.000000 0.004242
# 5 -0.002860 -0.001547 0.001901 0.000000 0.034093 0.000000
# 6 0.000000 0.000000 0.000000 0.004242 0.000000 0.029313
#
#
# Mechanical properties :
#
#
# Convention : Reuss Voigt Hill
#
# Bulk Modulus (GPa) = 54.28085 57.70839 55.99462
# Shear Modulus (GPa) = 34.36005 36.12250 35.24128
#
# Velocity S-wave (km/s) = 3.87078 3.96881 3.92010
# Velocity P-wave (km/s) = 6.60657 6.79456 6.70122
#
# Compressibility (1/GPa) = 0.01842270
#
# Stress axis : x y z
#
# Youngs Moduli (GPa) = 91.28426 109.27613 89.25032
#
# Poissons Ratio (x) = 0.30203 0.05679
# Poissons Ratio (y) = 0.25231 0.27164
# Poissons Ratio (z) = 0.05808 0.33259
#
# Static dielectric constant tensor:
#      x y z
#    x 4.556070 0.000000 0.398020 
#    y 0.000000 4.363540 0.000000 
#    z 0.398020 0.000000 4.910820 
# 
# 
# High freq. dielectric constant tensor:
#      x y z
#    x 1.903640 0.000000 0.003420 
#    y 0.000000 1.913300 0.000000 
#    z 0.003420 0.000000 1.929130 
# 
# From -- ./inp_files/39389.got.cif
#   From: 2010.06.25/outbox.cif.g09.slc.cpg/sg13_20_cif.got.tgz:39389.got - 2010.06.28 04:50:58.
