data_PCOD8122566
_publ_section_title
;
Structure prediction by ZEFSAII (Michael W. Deem and Ramdas Pophale) SiO2 
 PCOD8122566
Probable space group: P 2/C
;
_chemical_formula_sum "Si O2"
_cell_formula_units_Z 16
_cell_length_a 8.583093
_cell_length_b 9.406494
_cell_length_c 20.157184
_cell_angle_alpha 90.000000
_cell_angle_beta 149.644376
_cell_angle_gamma 90.000000
_cell_volume 822.445499
_symmetry_space_group_name_H-M "P 2/C"
_symmetry_group_IT_number 13
_symmetry_cell_setting 'monoclinic'
loop_
_space_group_symop_operation_xyz
x,y,z
-x,y,1/2-z
-x,-y,-z
x,-y,1/2+z
loop_
_atom_site_type_symbol
_atom_site_label
_atom_site_fract_x
_atom_site_fract_y
_atom_site_fract_z
Si Si1 0.708361 0.415629 0.525490
Si Si2 0.828129 0.112354 0.257560
Si Si3 0.682360 0.588952 0.749297
Si Si4 0.701130 0.911575 0.022916
O O1 0.500000 0.500000 0.500000
O O2 0.560234 0.434987 0.398800
O O3 0.723811 0.251562 0.553625
O O4 0.057848 0.468708 0.655575
O O5 0.855491 0.259838 0.306925
O O6 0.000000 0.129610 0.250000
O O7 0.466670 0.078078 0.110493
O O8 0.963499 0.986360 0.353466
O O9 0.500000 0.579477 0.750000
O O10 0.500000 0.000000 0.000000
#
# Coordination Sequence:
#
# PCOD8122566 Si02
#       4
#     4   4   4   4
#     4  11  22  38  61  86 111 149 194 233 278 335
#     4   9  18  35  55  78 108 144 185 231 275 327
#     4  11  23  39  56  83 119 151 184 233 286 335
#     4   9  18  32  54  83 107 136 186 235 273 321
#
# _framework density 19.454177999999999
#
# number of rings (size 3 to 8) (size 9 to 14) (size 15 to 20)
#    0.000    2.000    0.000    6.000    0.000    8.000 
#    0.000    6.250    0.000    0.000    0.000    0.000 
#    0.000    0.000    0.000    0.000    0.000    0.000 
#
# Total GULP energy -198340.150062 kJ/mol
# GULP energy per Si atom -12396.259379 kJ/mol
# Density = 1.940990 g / cm^3
# Si number density = 19.454178 Si / 1000 Ang^3
#
#
#
# Elastic Constant Matrix: (Units=GPa)
#
#
# Indices 1 2 3 4 5 6 
#
# 1 88.2362 35.8940 20.3983 0.0000 -2.5937 0.0000
# 2 35.8940 170.6052 81.1028 0.0000 4.7656 0.0000
# 3 20.3983 81.1028 107.1948 0.0000 1.8551 0.0000
# 4 0.0000 0.0000 0.0000 44.7665 0.0000 3.6172
# 5 -2.5937 4.7656 1.8551 0.0000 23.1895 0.0000
# 6 0.0000 0.0000 0.0000 3.6172 0.0000 13.7243
#
#
#
# Elastic Compliance Matrix: (Units=1/GPa)
#
#
# Indices 1 2 3 4 5 6 
#
# 1 0.012505 -0.002402 -0.000596 0.000000 0.001940 0.000000
# 2 -0.002402 0.009656 -0.006819 0.000000 -0.001708 0.000000
# 3 -0.000596 -0.006819 0.014599 0.000000 0.000167 0.000000
# 4 0.000000 0.000000 0.000000 0.022824 0.000000 -0.006015
# 5 0.001940 -0.001708 0.000167 0.000000 0.043677 0.000000
# 6 0.000000 0.000000 0.000000 -0.006015 0.000000 0.074449
#
#
# Mechanical properties :
#
#
# Convention : Reuss Voigt Hill
#
# Bulk Modulus (GPa) = 58.39101 71.20292 64.79697
# Shear Modulus (GPa) = 24.62406 31.57881 28.10144
#
# Velocity S-wave (km/s) = 3.56159 4.03332 3.80477
# Velocity P-wave (km/s) = 6.85515 7.64002 7.25820
#
# Compressibility (1/GPa) = 0.01712592
#
# Stress axis : x y z
#
# Youngs Moduli (GPa) = 79.96756 103.55966 68.49911
#
# Poissons Ratio (x) = 0.24873 0.04082
# Poissons Ratio (y) = 0.19207 0.46711
# Poissons Ratio (z) = 0.04766 0.70620
#
# Static dielectric constant tensor:
#      x y z
#    x 3.155330 0.000000 -0.005290 
#    y 0.000000 3.863860 0.000000 
#    z -0.005290 0.000000 4.618200 
# 
# 
# High freq. dielectric constant tensor:
#      x y z
#    x 1.718000 0.000000 -0.001410 
#    y 0.000000 1.769310 0.000000 
#    z -0.001410 0.000000 1.780160 
# 
# From -- ./inp_files/27244.got.cif
#   From: 2010.06.25/outbox.cif.g09.slc.cpg/sg13_14_cif.got.tgz:27244.got - 2010.06.28 04:50:58.
