data_PCOD8122758
_publ_section_title
;
Structure prediction by ZEFSAII (Michael W. Deem and Ramdas Pophale) SiO2 
 PCOD8122758
Probable space group: P 2/C
;
_chemical_formula_sum "Si O2"
_cell_formula_units_Z 22
_cell_length_a 11.616039
_cell_length_b 11.558049
_cell_length_c 11.781873
_cell_angle_alpha 90.000000
_cell_angle_beta 142.295113
_cell_angle_gamma 90.000000
_cell_volume 967.432156
_symmetry_space_group_name_H-M "P 2/C"
_symmetry_group_IT_number 13
_symmetry_cell_setting 'monoclinic'
loop_
_space_group_symop_operation_xyz
x,y,z
-x,y,1/2-z
-x,-y,-z
x,-y,1/2+z
loop_
_atom_site_type_symbol
_atom_site_label
_atom_site_fract_x
_atom_site_fract_y
_atom_site_fract_z
Si Si1 0.571037 0.673422 0.642473
Si Si2 0.297863 0.086491 0.634305
Si Si3 0.192420 0.158645 0.027520
Si Si4 0.500000 0.527586 0.250000
Si Si5 0.211726 0.303872 0.419237
Si Si6 0.221457 0.205769 0.801133
O O1 0.635399 0.769367 0.784911
O O2 0.576195 0.547688 0.703858
O O3 0.710244 0.691428 0.646751
O O4 0.352991 0.683685 0.431370
O O5 0.500000 0.043786 0.750000
O O6 0.213030 0.175964 0.476317
O O7 0.323765 0.143465 0.777309
O O8 0.172157 0.972050 0.558710
O O9 0.225511 0.132888 0.920217
O O10 0.998277 0.230776 0.900262
O O11 0.674564 0.608777 0.413765
O O12 0.000000 0.349009 0.250000
#
# Coordination Sequence:
#
# PCOD8122758 Si02
#       6
#     4   4   4   2   4   4
#     4  12  24  48  76  99 138 181 235 287 350 408
#     4  12  24  43  70 101 146 184 226 277 348 418
#     4  11  26  40  70 109 135 186 228 276 345 415
#     4  12  26  50  70 104 130 182 242 292 352 402
#     4  12  28  46  72 104 139 186 230 290 348 408
#     4  11  23  44  66 103 143 178 225 281 340 408
#
# _framework density 22.740611999999999
#
# number of rings (size 3 to 8) (size 9 to 14) (size 15 to 20)
#    0.000    0.364    4.545    3.273    5.091    3.636 
#    0.000    0.000    0.000    0.000    0.000    0.000 
#    0.000    0.000    0.000    0.000    0.000    0.000 
#
# Total GULP energy -272699.033439 kJ/mol
# GULP energy per Si atom -12395.410611 kJ/mol
# Density = 2.268885 g / cm^3
# Si number density = 22.740612 Si / 1000 Ang^3
#
#
#
# Elastic Constant Matrix: (Units=GPa)
#
#
# Indices 1 2 3 4 5 6 
#
# 1 113.6275 10.6131 50.1340 0.0000 11.9471 0.0000
# 2 10.6131 107.0499 53.4308 0.0000 16.1811 0.0000
# 3 50.1340 53.4308 141.5342 0.0000 23.2970 0.0000
# 4 0.0000 0.0000 0.0000 189.9973 0.0000 -27.7708
# 5 11.9471 16.1811 23.2970 0.0000 37.3489 0.0000
# 6 0.0000 0.0000 0.0000 -27.7708 0.0000 19.6740
#
#
#
# Elastic Compliance Matrix: (Units=1/GPa)
#
#
# Indices 1 2 3 4 5 6 
#
# 1 0.010584 0.001133 -0.003944 0.000000 -0.001417 0.000000
# 2 0.001133 0.011851 -0.004425 0.000000 -0.002737 0.000000
# 3 -0.003944 -0.004425 0.010709 0.000000 -0.003501 0.000000
# 4 0.000000 0.000000 0.000000 0.006631 0.000000 0.009361
# 5 -0.001417 -0.002737 -0.003501 0.000000 0.030598 0.000000
# 6 0.000000 0.000000 0.000000 0.009361 0.000000 0.064041
#
#
# Mechanical properties :
#
#
# Convention : Reuss Voigt Hill
#
# Bulk Modulus (GPa) = 53.55166 65.61861 59.58514
# Shear Modulus (GPa) = 32.23527 65.93962 49.08745
#
# Velocity S-wave (km/s) = 3.76908 5.39067 4.65109
# Velocity P-wave (km/s) = 6.52237 8.22580 7.42311
#
# Compressibility (1/GPa) = 0.01867356
#
# Stress axis : x y z
#
# Youngs Moduli (GPa) = 94.48457 84.37866 93.37839
#
# Poissons Ratio (x) = -0.09561 0.36824
# Poissons Ratio (y) = -0.10706 0.41319
# Poissons Ratio (z) = 0.37261 0.37337
#
# Static dielectric constant tensor:
#      x y z
#    x 4.269470 0.000000 -0.122310 
#    y 0.000000 3.871530 0.000000 
#    z -0.122310 0.000000 4.545270 
# 
# 
# High freq. dielectric constant tensor:
#      x y z
#    x 1.916650 0.000000 -0.006270 
#    y 0.000000 1.874540 0.000000 
#    z -0.006270 0.000000 1.913180 
# 
# From -- ./inp_files/34050.got.cif
#   From: 2010.06.25/outbox.cif.g09.slc.cpg/sg13_18_cif.got.tgz:34050.got - 2010.06.28 04:50:58.
