data_PCOD8122572
_publ_section_title
;
Structure prediction by ZEFSAII (Michael W. Deem and Ramdas Pophale) SiO2 
 PCOD8122572
Probable space group: P 2/C
;
_chemical_formula_sum "Si O2"
_cell_formula_units_Z 32
_cell_length_a 13.495590
_cell_length_b 12.123905
_cell_length_c 15.574729
_cell_angle_alpha 90.000000
_cell_angle_beta 143.641243
_cell_angle_gamma 90.000000
_cell_volume 1510.747628
_symmetry_space_group_name_H-M "P 2/C"
_symmetry_group_IT_number 13
_symmetry_cell_setting 'monoclinic'
loop_
_space_group_symop_operation_xyz
x,y,z
-x,y,1/2-z
-x,-y,-z
x,-y,1/2+z
loop_
_atom_site_type_symbol
_atom_site_label
_atom_site_fract_x
_atom_site_fract_y
_atom_site_fract_z
Si Si1 0.145642 0.678666 0.498479
Si Si2 0.182468 0.346690 0.216601
Si Si3 0.692626 0.461741 0.896219
Si Si4 0.395119 0.897116 0.092559
Si Si5 0.620179 0.844759 0.913465
Si Si6 0.211973 0.403506 0.726096
Si Si7 0.875346 0.728039 0.586541
Si Si8 0.500851 0.754426 0.011653
O O1 0.233923 0.672108 0.653731
O O2 0.218136 0.569688 0.501802
O O3 0.202138 0.787879 0.486200
O O4 0.944847 0.675015 0.360385
O O5 0.182826 0.475083 0.245385
O O6 0.310921 0.286948 0.370406
O O7 0.998219 0.291317 0.091574
O O8 0.500000 0.487535 0.750000
O O9 0.778048 0.421768 0.868186
O O10 0.723228 0.360818 0.983289
O O11 0.500000 0.866494 0.250000
O O12 0.497211 0.850114 0.081692
O O13 0.360605 0.025676 0.060440
O O14 0.208905 0.847580 0.972057
O O15 0.500000 0.816262 0.750000
O O16 0.555546 0.800107 0.958281
O O17 0.378871 0.346159 0.878069
O O18 0.000000 0.705743 0.750000
#
# Coordination Sequence:
#
# PCOD8122572 Si02
#       8
#     4   4   4   4   4   4   4   4
#     4  11  22  44  66  96 138 179 218 273 335 404
#     4  11  22  41  66  98 140 174 216 272 338 413
#     4  11  22  38  67  98 136 180 219 268 338 405
#     4  11  26  47  69  97 130 176 234 287 336 398
#     4  11  25  47  70  95 132 182 234 279 333 401
#     4  11  23  41  64 102 140 172 218 275 336 409
#     4  12  22  39  63  97 133 170 219 277 335 400
#     4  12  24  44  70  98 135 176 228 282 340 396
#
# _framework density 21.181564999999999
#
# number of rings (size 3 to 8) (size 9 to 14) (size 15 to 20)
#    0.000    0.750    5.000    3.750    1.750    1.500 
#    2.250    0.625    0.000    0.000    0.000    0.000 
#    0.000    0.000    0.000    0.000    0.000    0.000 
#
# Total GULP energy -396752.664508 kJ/mol
# GULP energy per Si atom -12398.520766 kJ/mol
# Density = 2.113336 g / cm^3
# Si number density = 21.181565 Si / 1000 Ang^3
#
#
#
# Elastic Constant Matrix: (Units=GPa)
#
#
# Indices 1 2 3 4 5 6 
#
# 1 102.2665 57.7420 26.7174 0.0000 8.0926 0.0000
# 2 57.7420 98.8401 28.5535 0.0000 -1.6317 0.0000
# 3 26.7174 28.5535 83.5297 0.0000 11.0978 0.0000
# 4 0.0000 0.0000 0.0000 22.0912 0.0000 10.1015
# 5 8.0926 -1.6317 11.0978 0.0000 41.9150 0.0000
# 6 0.0000 0.0000 0.0000 10.1015 0.0000 26.2714
#
#
#
# Elastic Compliance Matrix: (Units=1/GPa)
#
#
# Indices 1 2 3 4 5 6 
#
# 1 0.015199 -0.008467 -0.001589 0.000000 -0.002843 0.000000
# 2 -0.008467 0.016035 -0.003185 0.000000 0.003102 0.000000
# 3 -0.001589 -0.003185 0.014039 0.000000 -0.003534 0.000000
# 4 0.000000 0.000000 0.000000 0.054924 0.000000 -0.021118
# 5 -0.002843 0.003102 -0.003534 0.000000 0.025463 0.000000
# 6 0.000000 0.000000 0.000000 -0.021118 0.000000 0.046184
#
#
# Mechanical properties :
#
#
# Convention : Reuss Voigt Hill
#
# Bulk Modulus (GPa) = 53.22182 56.74025 54.98103
# Shear Modulus (GPa) = 24.43896 29.49708 26.96802
#
# Velocity S-wave (km/s) = 3.40043 3.73578 3.57204
# Velocity P-wave (km/s) = 6.37167 6.74194 6.55942
#
# Compressibility (1/GPa) = 0.01878928
#
# Stress axis : x y z
#
# Youngs Moduli (GPa) = 65.79212 62.36251 71.23222
#
# Poissons Ratio (x) = 0.52804 0.11322
# Poissons Ratio (y) = 0.55708 0.22690
# Poissons Ratio (z) = 0.10457 0.19865
#
# Static dielectric constant tensor:
#      x y z
#    x 4.115550 0.000000 0.073960 
#    y 0.000000 3.776750 0.000000 
#    z 0.073960 0.000000 3.847780 
# 
# 
# High freq. dielectric constant tensor:
#      x y z
#    x 1.840860 0.000000 0.000310 
#    y 0.000000 1.818760 0.000000 
#    z 0.000310 0.000000 1.835970 
# 
# From -- ./inp_files/68697.got.cif
#   From: 2010.06.25/outbox.cif.g09.slc.cpg/sg13_35_cif.got.tgz:68697.got - 2010.06.28 04:50:58.
