data_PCOD8122147
_publ_section_title
;
Structure prediction by ZEFSAII (Michael W. Deem and Ramdas Pophale) SiO2 
 PCOD8122147
Probable space group: P 2/C
;
_chemical_formula_sum "Si O2"
_cell_formula_units_Z 20
_cell_length_a 15.843025
_cell_length_b 6.347379
_cell_length_c 9.838689
_cell_angle_alpha 90.000000
_cell_angle_beta 116.761924
_cell_angle_gamma 90.000000
_cell_volume 883.416326
_symmetry_space_group_name_H-M "P 2/C"
_symmetry_group_IT_number 13
_symmetry_cell_setting 'monoclinic'
loop_
_space_group_symop_operation_xyz
x,y,z
-x,y,1/2-z
-x,-y,-z
x,-y,1/2+z
loop_
_atom_site_type_symbol
_atom_site_label
_atom_site_fract_x
_atom_site_fract_y
_atom_site_fract_z
Si Si1 0.645799 0.139480 0.506630
Si Si2 0.000000 0.020397 0.250000
Si Si3 0.844037 0.316110 0.693754
Si Si4 0.597427 0.828097 0.268080
Si Si5 0.080606 0.379685 0.477855
Si Si6 0.500000 0.420779 0.250000
O O1 0.740253 0.275748 0.561260
O O2 0.628459 0.069863 0.648910
O O3 0.554953 0.279996 0.398937
O O4 0.666289 0.925164 0.434272
O O5 0.038407 0.155633 0.404314
O O6 0.912387 0.883466 0.237222
O O7 0.834640 0.366084 0.849219
O O8 0.887113 0.505605 0.636468
O O9 0.500000 0.933697 0.250000
O O10 0.582227 0.574474 0.245315
O O11 0.000000 0.500000 0.500000
#
# Coordination Sequence:
#
# PCOD8122147 Si02
#       6
#     4   2   4   4   4   2
#     4  12  26  45  69 109 140 181 241 286 352 415
#     4  12  24  46  76 100 144 194 226 296 356 412
#     4  12  29  43  74 108 142 188 237 300 347 426
#     4  10  25  45  71  97 139 184 232 283 349 420
#     4  12  24  50  70 103 143 186 244 284 355 425
#     4  10  24  44  74  94 138 186 226 292 356 410
#
# _framework density 22.639381
#
# number of rings (size 3 to 8) (size 9 to 14) (size 15 to 20)
#    0.600    0.000    5.000    1.800    5.600    0.000 
#    0.000    0.000    0.000    0.000    0.000    0.000 
#    0.000    0.000    0.000    0.000    0.000    0.000 
#
# Total GULP energy -247800.381635 kJ/mol
# GULP energy per Si atom -12390.019082 kJ/mol
# Density = 2.258785 g / cm^3
# Si number density = 22.639381 Si / 1000 Ang^3
#
#
#
# Elastic Constant Matrix: (Units=GPa)
#
#
# Indices 1 2 3 4 5 6 
#
# 1 75.8040 26.9758 39.6579 0.0000 -10.8929 0.0000
# 2 26.9758 98.4571 31.8485 0.0000 -5.2919 0.0000
# 3 39.6579 31.8485 104.2036 0.0000 -19.5901 0.0000
# 4 0.0000 0.0000 0.0000 46.1186 0.0000 -0.3213
# 5 -10.8929 -5.2919 -19.5901 0.0000 48.0435 0.0000
# 6 0.0000 0.0000 0.0000 -0.3213 0.0000 0.6650
#
#
#
# Elastic Compliance Matrix: (Units=1/GPa)
#
#
# Indices 1 2 3 4 5 6 
#
# 1 0.017260 -0.002901 -0.005422 0.000000 0.001383 0.000000
# 2 -0.002901 0.011760 -0.002567 0.000000 -0.000409 0.000000
# 3 -0.005422 -0.002567 0.013170 0.000000 0.003858 0.000000
# 4 0.000000 0.000000 0.000000 0.021756 0.000000 0.010512
# 5 0.001383 -0.000409 0.003858 0.000000 0.022656 0.000000
# 6 0.000000 0.000000 0.000000 0.010512 0.000000 1.508809
#
#
# Mechanical properties :
#
#
# Convention : Reuss Voigt Hill
#
# Bulk Modulus (GPa) = 48.99675 52.82545 50.91110
# Shear Modulus (GPa) = 3.07883 30.96426 17.02154
#
# Velocity S-wave (km/s) = 1.16743 3.70228 2.74497
# Velocity P-wave (km/s) = 4.84834 6.45445 5.70817
#
# Compressibility (1/GPa) = 0.02040952
#
# Stress axis : x y z
#
# Youngs Moduli (GPa) = 57.93908 85.03488 75.92943
#
# Poissons Ratio (x) = 0.24665 0.41170
# Poissons Ratio (y) = 0.16806 0.19493
# Poissons Ratio (z) = 0.31415 0.21831
#
# Static dielectric constant tensor:
#      x y z
#    x 3.822670 0.000000 0.031350 
#    y 0.000000 4.164070 0.000000 
#    z 0.031350 0.000000 4.882560 
# 
# 
# High freq. dielectric constant tensor:
#      x y z
#    x 1.877590 0.000000 -0.002520 
#    y 0.000000 1.893210 0.000000 
#    z -0.002520 0.000000 1.908960 
# 
# From -- ./inp_files/38011.got.cif
#   From: 2010.06.25/outbox.cif.g09.slc.cpg/sg13_20_cif.got.tgz:38011.got - 2010.06.28 04:50:58.
