data_PCOD8122571
_publ_section_title
;
Structure prediction by ZEFSAII (Michael W. Deem and Ramdas Pophale) SiO2 
 PCOD8122571
Probable space group: P 2/C
;
_chemical_formula_sum "Si O2"
_cell_formula_units_Z 32
_cell_length_a 8.840246
_cell_length_b 11.108996
_cell_length_c 29.863229
_cell_angle_alpha 90.000000
_cell_angle_beta 30.871281
_cell_angle_gamma 90.000000
_cell_volume 1504.829606
_symmetry_space_group_name_H-M "P 2/C"
_symmetry_group_IT_number 13
_symmetry_cell_setting 'monoclinic'
loop_
_space_group_symop_operation_xyz
x,y,z
-x,y,1/2-z
-x,-y,-z
x,-y,1/2+z
loop_
_atom_site_type_symbol
_atom_site_label
_atom_site_fract_x
_atom_site_fract_y
_atom_site_fract_z
Si Si1 0.122839 0.697320 0.026343
Si Si2 0.806766 0.145841 0.909469
Si Si3 0.606474 0.140139 0.173022
Si Si4 0.796973 0.083555 0.473253
Si Si5 0.738652 0.908716 0.086052
Si Si6 0.440748 0.455520 0.815829
Si Si7 0.650977 0.331354 0.325691
Si Si8 0.208275 0.757671 0.235316
O O1 0.188242 0.737412 0.060374
O O2 0.986270 0.811427 0.035822
O O3 0.897791 0.583148 0.086513
O O4 0.437060 0.664519 0.923453
O O5 0.050410 0.151073 0.809318
O O6 0.856524 0.021107 0.922449
O O7 0.497476 0.152363 0.962813
O O8 0.500000 0.150044 0.250000
O O9 0.402423 0.209674 0.189463
O O10 0.946678 0.186294 0.090793
O O11 0.651079 0.000292 0.147740
O O12 0.811262 0.023281 0.520112
O O13 0.449313 0.832916 0.147294
O O14 0.500000 0.499421 0.750000
O O15 0.548030 0.559753 0.821116
O O16 0.652808 0.343212 0.768893
O O17 0.000000 0.337919 0.250000
O O18 0.000000 0.700204 0.250000
#
# Coordination Sequence:
#
# PCOD8122571 Si02
#       8
#     4   4   4   4   4   4   4   4
#     4  11  23  45  75  99 133 176 230 277 341 400
#     4  11  22  38  65 103 136 174 223 276 329 397
#     4  12  25  42  63  92 139 188 224 268 337 411
#     4  11  22  39  62  96 143 176 216 271 330 400
#     4  11  22  40  66  98 134 179 221 271 335 403
#     4  11  24  47  77  99 126 171 228 293 339 394
#     4  12  28  48  67  98 139 179 226 279 345 411
#     4  11  22  40  67 100 132 167 222 283 336 389
#
# _framework density 21.264866999999999
#
# number of rings (size 3 to 8) (size 9 to 14) (size 15 to 20)
#    0.000    0.750    5.000    3.000    1.750    0.500 
#    0.000    0.625    0.000    0.000    0.000    0.000 
#    0.000    0.000    0.000    0.000    0.000    0.000 
#
# Total GULP energy -396573.692707 kJ/mol
# GULP energy per Si atom -12392.927897 kJ/mol
# Density = 2.121647 g / cm^3
# Si number density = 21.264867 Si / 1000 Ang^3
#
#
#
# Elastic Constant Matrix: (Units=GPa)
#
#
# Indices 1 2 3 4 5 6 
#
# 1 125.9030 20.2981 56.7878 0.0000 -6.8285 0.0000
# 2 20.2981 65.2160 31.9852 0.0000 -7.0594 0.0000
# 3 56.7878 31.9852 130.3500 0.0000 -7.1257 0.0000
# 4 0.0000 0.0000 0.0000 25.7578 0.0000 -3.6410
# 5 -6.8285 -7.0594 -7.1257 0.0000 43.8330 0.0000
# 6 0.0000 0.0000 0.0000 -3.6410 0.0000 20.5202
#
#
#
# Elastic Compliance Matrix: (Units=1/GPa)
#
#
# Indices 1 2 3 4 5 6 
#
# 1 0.009977 -0.001039 -0.004052 0.000000 0.000728 0.000000
# 2 -0.001039 0.017739 -0.003786 0.000000 0.002080 0.000000
# 3 -0.004052 -0.003786 0.010390 0.000000 0.000448 0.000000
# 4 0.000000 0.000000 0.000000 0.039822 0.000000 0.007066
# 5 0.000728 0.002080 0.000448 0.000000 0.023335 0.000000
# 6 0.000000 0.000000 0.000000 0.007066 0.000000 0.049986
#
#
# Mechanical properties :
#
#
# Convention : Reuss Voigt Hill
#
# Bulk Modulus (GPa) = 49.13539 59.95679 54.54609
# Shear Modulus (GPa) = 28.44319 32.18206 30.31262
#
# Velocity S-wave (km/s) = 3.66124 3.89445 3.77965
# Velocity P-wave (km/s) = 6.40543 6.96267 6.68985
#
# Compressibility (1/GPa) = 0.02035193
#
# Stress axis : x y z
#
# Youngs Moduli (GPa) = 100.22828 56.37212 96.24229
#
# Poissons Ratio (x) = 0.05859 0.38996
# Poissons Ratio (y) = 0.10417 0.36441
# Poissons Ratio (z) = 0.40611 0.21345
#
# Static dielectric constant tensor:
#      x y z
#    x 4.124930 0.000000 -0.241390 
#    y 0.000000 3.635590 0.000000 
#    z -0.241390 0.000000 4.168590 
# 
# 
# High freq. dielectric constant tensor:
#      x y z
#    x 1.854600 0.000000 -0.001590 
#    y 0.000000 1.808110 0.000000 
#    z -0.001590 0.000000 1.854480 
# 
# From -- ./inp_files/96137.got.cif
#   From: 2010.06.25/outbox.cif.g09.slc.cpg/sg13_49_cif.got.tgz:96137.got - 2010.06.28 04:50:58.
