data_PCOD8122791
_publ_section_title
;
Structure prediction by ZEFSAII (Michael W. Deem and Ramdas Pophale) SiO2 
 PCOD8122791
Probable space group: P 2/C
;
_chemical_formula_sum "Si O2"
_cell_formula_units_Z 24
_cell_length_a 14.745437
_cell_length_b 9.096020
_cell_length_c 17.200188
_cell_angle_alpha 90.000000
_cell_angle_beta 29.219441
_cell_angle_gamma 90.000000
_cell_volume 1126.161618
_symmetry_space_group_name_H-M "P 2/C"
_symmetry_group_IT_number 13
_symmetry_cell_setting 'monoclinic'
loop_
_space_group_symop_operation_xyz
x,y,z
-x,y,1/2-z
-x,-y,-z
x,-y,1/2+z
loop_
_atom_site_type_symbol
_atom_site_label
_atom_site_fract_x
_atom_site_fract_y
_atom_site_fract_z
Si Si1 0.319968 0.704604 0.333428
Si Si2 0.337835 0.394467 0.645553
Si Si3 0.948523 0.497740 0.371161
Si Si4 0.482244 0.881108 0.946541
Si Si5 0.192714 0.970184 0.894656
Si Si6 0.827661 0.185144 0.931614
O O1 0.500000 0.675678 0.250000
O O2 0.349663 0.630792 0.228167
O O3 0.291442 0.878076 0.343931
O O4 0.147550 0.626050 0.504681
O O5 0.500000 0.500000 0.500000
O O6 0.133065 0.449922 0.777690
O O7 0.385757 0.253297 0.560279
O O8 0.000000 0.422785 0.250000
O O9 0.813701 0.636888 0.451434
O O10 0.348036 0.902813 0.972584
O O11 0.500000 0.000000 0.000000
O O12 0.685319 0.869953 0.755756
O O13 0.142431 0.873527 0.005391
O O14 0.000000 0.000000 0.000000
O O15 0.000000 0.140496 0.750000
#
# Coordination Sequence:
#
# PCOD8122791 Si02
#       6
#     4   4   4   4   4   4
#     4  12  27  46  69 105 148 183 243 303 363 435
#     4  12  26  45  72 105 139 189 237 294 364 428
#     4  11  24  48  71 106 144 189 238 294 363 434
#     4  12  24  46  72  99 144 183 239 296 351 429
#     4  12  27  45  69 106 140 190 239 297 366 422
#     4  11  23  45  72 101 139 185 238 288 357 431
#
# _framework density 21.311328
#
# number of rings (size 3 to 8) (size 9 to 14) (size 15 to 20)
#    0.000    0.333    5.000    5.000    4.667    0.667 
#    0.000    0.000    0.000    0.000    0.000    0.000 
#    0.000    0.000    0.000    0.000    0.000    0.000 
#
# Total GULP energy -297487.043304 kJ/mol
# GULP energy per Si atom -12395.293471 kJ/mol
# Density = 2.126282 g / cm^3
# Si number density = 21.311328 Si / 1000 Ang^3
#
#
#
# Elastic Constant Matrix: (Units=GPa)
#
#
# Indices 1 2 3 4 5 6 
#
# 1 124.6866 6.7092 49.8148 0.0000 4.8938 0.0000
# 2 6.7092 53.0520 29.5673 0.0000 2.8536 0.0000
# 3 49.8148 29.5673 141.2766 0.0000 14.4053 0.0000
# 4 0.0000 0.0000 0.0000 44.2129 0.0000 3.4291
# 5 4.8938 2.8536 14.4053 0.0000 57.2514 0.0000
# 6 0.0000 0.0000 0.0000 3.4291 0.0000 17.7587
#
#
#
# Elastic Compliance Matrix: (Units=1/GPa)
#
#
# Indices 1 2 3 4 5 6 
#
# 1 0.009361 0.000742 -0.003460 0.000000 0.000033 0.000000
# 2 0.000742 0.021397 -0.004747 0.000000 0.000064 0.000000
# 3 -0.003460 -0.004747 0.009480 0.000000 -0.001853 0.000000
# 4 0.000000 0.000000 0.000000 0.022962 0.000000 -0.004434
# 5 0.000033 0.000064 -0.001853 0.000000 0.017927 0.000000
# 6 0.000000 0.000000 0.000000 -0.004434 0.000000 0.057167
#
#
# Mechanical properties :
#
#
# Convention : Reuss Voigt Hill
#
# Bulk Modulus (GPa) = 39.50736 54.57752 47.04244
# Shear Modulus (GPa) = 30.92935 39.37286 35.15111
#
# Velocity S-wave (km/s) = 3.81374 4.30293 4.06570
# Velocity P-wave (km/s) = 6.16208 7.09592 6.64543
#
# Compressibility (1/GPa) = 0.02531174
#
# Stress axis : x y z
#
# Youngs Moduli (GPa) = 106.82630 46.73452 105.47969
#
# Poissons Ratio (x) = -0.03470 0.36491
# Poissons Ratio (y) = -0.07931 0.50067
# Poissons Ratio (z) = 0.36957 0.22183
#
# Static dielectric constant tensor:
#      x y z
#    x 4.116700 0.000000 0.166990 
#    y 0.000000 3.624220 0.000000 
#    z 0.166990 0.000000 4.062300 
# 
# 
# High freq. dielectric constant tensor:
#      x y z
#    x 1.865440 0.000000 0.009350 
#    y 0.000000 1.827110 0.000000 
#    z 0.009350 0.000000 1.853580 
# 
# From -- ./inp_files/68088.got.cif
#   From: 2010.06.25/outbox.cif.g09.slc.cpg/sg13_35_cif.got.tgz:68088.got - 2010.06.28 04:50:58.
