data_PCOD8122949
_publ_section_title
;
Structure prediction by ZEFSAII (Michael W. Deem and Ramdas Pophale) SiO2 
 PCOD8122949
Probable space group: P 2/C
;
_chemical_formula_sum "Si O2"
_cell_formula_units_Z 32
_cell_length_a 13.989460
_cell_length_b 11.584767
_cell_length_c 9.141439
_cell_angle_alpha 90.000000
_cell_angle_beta 91.040762
_cell_angle_gamma 90.000000
_cell_volume 1481.259561
_symmetry_space_group_name_H-M "P 2/C"
_symmetry_group_IT_number 13
_symmetry_cell_setting 'monoclinic'
loop_
_space_group_symop_operation_xyz
x,y,z
-x,y,1/2-z
-x,-y,-z
x,-y,1/2+z
loop_
_atom_site_type_symbol
_atom_site_label
_atom_site_fract_x
_atom_site_fract_y
_atom_site_fract_z
Si Si1 0.776943 0.399936 0.882911
Si Si2 0.931000 0.799021 0.868743
Si Si3 0.315014 0.983226 0.253118
Si Si4 0.179440 0.992545 0.003676
Si Si5 0.597304 0.750656 0.326290
Si Si6 0.225512 0.361924 0.277717
Si Si7 0.591941 0.786691 0.666524
Si Si8 0.936711 0.773973 0.383851
O O1 0.677830 0.347165 0.822607
O O2 0.777163 0.529654 0.828482
O O3 0.866190 0.326160 0.822864
O O4 0.789464 0.401677 0.057301
O O5 0.857359 0.721042 0.779925
O O6 0.000000 0.856968 0.750000
O O7 0.886132 0.899798 0.963252
O O8 0.993091 0.724797 0.987337
O O9 0.282469 0.997616 0.084987
O O10 0.366298 0.859439 0.268987
O O11 0.213153 0.998317 0.336008
O O12 0.391070 0.079862 0.295895
O O13 0.126573 0.874010 0.041920
O O14 0.500000 0.703358 0.250000
O O15 0.576148 0.780307 0.493437
O O16 0.323592 0.292424 0.269639
O O17 0.500000 0.741526 0.750000
O O18 0.000000 0.819900 0.250000
#
# Coordination Sequence:
#
# PCOD8122949 Si02
#       8
#     4   4   4   4   4   4   4   4
#     4  11  26  49  69  96 136 173 229 284 336 394
#     4  12  24  42  70 100 136 182 225 271 336 398
#     4  12  22  41  71 100 140 181 216 271 335 404
#     4  12  23  41  69 100 141 182 220 270 336 398
#     4  11  26  45  70 102 137 175 221 277 337 405
#     4  11  26  47  71  98 131 179 224 284 335 398
#     4  11  25  46  69 102 138 174 221 274 340 406
#     4  12  25  44  66 103 139 179 228 279 331 398
#
# _framework density 21.603235999999999
#
# number of rings (size 3 to 8) (size 9 to 14) (size 15 to 20)
#    0.000    0.500    5.000    3.375    3.500    3.500 
#    0.000    2.500    0.000    0.000    0.000    0.000 
#    0.000    0.000    0.000    0.000    0.000    0.000 
#
# Total GULP energy -396842.963904 kJ/mol
# GULP energy per Si atom -12401.342622 kJ/mol
# Density = 2.155407 g / cm^3
# Si number density = 21.603236 Si / 1000 Ang^3
#
#
#
# Elastic Constant Matrix: (Units=GPa)
#
#
# Indices 1 2 3 4 5 6 
#
# 1 128.8025 34.8013 47.5059 0.0000 8.0368 0.0000
# 2 34.8013 99.1996 28.1686 0.0000 -1.5242 0.0000
# 3 47.5059 28.1686 79.6705 0.0000 4.4967 0.0000
# 4 0.0000 0.0000 0.0000 33.8026 0.0000 -3.7188
# 5 8.0368 -1.5242 4.4967 0.0000 48.8702 0.0000
# 6 0.0000 0.0000 0.0000 -3.7188 0.0000 35.1064
#
#
#
# Elastic Compliance Matrix: (Units=1/GPa)
#
#
# Indices 1 2 3 4 5 6 
#
# 1 0.010405 -0.002144 -0.005374 0.000000 -0.001284 0.000000
# 2 -0.002144 0.011673 -0.002904 0.000000 0.000984 0.000000
# 3 -0.005374 -0.002904 0.016825 0.000000 -0.000755 0.000000
# 4 0.000000 0.000000 0.000000 0.029932 0.000000 0.003171
# 5 -0.001284 0.000984 -0.000755 0.000000 0.020774 0.000000
# 6 0.000000 0.000000 0.000000 0.003171 0.000000 0.028821
#
#
# Mechanical properties :
#
#
# Convention : Reuss Voigt Hill
#
# Bulk Modulus (GPa) = 55.37360 58.73601 57.05480
# Shear Modulus (GPa) = 34.41299 36.70230 35.55764
#
# Velocity S-wave (km/s) = 3.99551 4.12627 4.06142
# Velocity P-wave (km/s) = 6.85370 7.06747 6.96140
#
# Compressibility (1/GPa) = 0.01805915
#
# Stress axis : x y z
#
# Youngs Moduli (GPa) = 96.10496 85.67042 59.43384
#
# Poissons Ratio (x) = 0.18369 0.31939
# Poissons Ratio (y) = 0.20606 0.17260
# Poissons Ratio (z) = 0.51646 0.24879
#
# Static dielectric constant tensor:
#      x y z
#    x 4.181190 0.000000 0.043140 
#    y 0.000000 3.707850 0.000000 
#    z 0.043140 0.000000 4.084480 
# 
# 
# High freq. dielectric constant tensor:
#      x y z
#    x 1.864770 0.000000 0.006530 
#    y 0.000000 1.830040 0.000000 
#    z 0.006530 0.000000 1.864370 
# 
# From -- ./inp_files/19036.got.cif
#   From: 2010.06.25/outbox.cif.g09.slc.cpg/sg13_10_cif.got.tgz:19036.got - 2010.06.28 04:50:58.
