data_PCOD8122503
_publ_section_title
;
Structure prediction by ZEFSAII (Michael W. Deem and Ramdas Pophale) SiO2 
 PCOD8122503
Probable space group: P 2/C
;
_chemical_formula_sum "Si O2"
_cell_formula_units_Z 28
_cell_length_a 15.723097
_cell_length_b 8.066088
_cell_length_c 21.167606
_cell_angle_alpha 90.000000
_cell_angle_beta 26.967097
_cell_angle_gamma 90.000000
_cell_volume 1217.390011
_symmetry_space_group_name_H-M "P 2/C"
_symmetry_group_IT_number 13
_symmetry_cell_setting 'monoclinic'
loop_
_space_group_symop_operation_xyz
x,y,z
-x,y,1/2-z
-x,-y,-z
x,-y,1/2+z
loop_
_atom_site_type_symbol
_atom_site_label
_atom_site_fract_x
_atom_site_fract_y
_atom_site_fract_z
Si Si1 0.695540 0.573538 0.146236
Si Si2 0.856098 0.967018 0.892194
Si Si3 0.958877 0.288442 0.143624
Si Si4 0.823139 0.769849 0.521051
Si Si5 0.203327 0.055264 0.342593
Si Si6 0.219446 0.618289 0.266386
Si Si7 0.485575 0.882448 0.070457
O O1 0.500000 0.648715 0.250000
O O2 0.729232 0.410906 0.079924
O O3 0.711652 0.545953 0.211067
O O4 0.860116 0.701694 0.021729
O O5 0.975594 0.811992 0.838974
O O6 0.000000 0.060182 0.750000
O O7 0.688212 0.877638 0.966787
O O8 0.787787 0.111396 0.984457
O O9 0.803269 0.181405 0.211417
O O10 0.861641 0.466030 0.222191
O O11 0.711212 0.855487 0.652788
O O12 0.047413 0.750967 0.386073
O O13 0.345834 0.918644 0.222282
O O14 0.000000 0.000000 0.500000
O O15 0.397089 0.701733 0.111224
O O16 0.500000 0.000000 0.000000
#
# Coordination Sequence:
#
# PCOD8122503 Si02
#       7
#     4   4   4   4   4   4   4
#     4  11  22  37  63 105 141 175 233 296 349 417
#     4  12  27  46  66 100 141 183 238 291 350 428
#     4  11  21  40  69  96 137 182 228 290 357 417
#     4  11  22  40  68  98 136 180 231 288 347 410
#     4  12  20  40  71 102 132 183 235 285 350 414
#     4  11  21  43  68 100 135 181 227 284 358 416
#     4  12  27  46  70 102 144 188 235 289 355 424
#
# _framework density 23.000024
#
# number of rings (size 3 to 8) (size 9 to 14) (size 15 to 20)
#    0.000    0.571    5.714    3.429    2.000    0.000 
#    0.000    8.571    0.000    0.000    0.000    0.000 
#    0.000    0.000    0.000    0.000    0.000    0.000 
#
# Total GULP energy -346893.108545 kJ/mol
# GULP energy per Si atom -12389.039591 kJ/mol
# Density = 2.294768 g / cm^3
# Si number density = 23.000024 Si / 1000 Ang^3
#
#
#
# Elastic Constant Matrix: (Units=GPa)
#
#
# Indices 1 2 3 4 5 6 
#
# 1 102.2536 34.4276 23.3669 0.0000 0.6531 0.0000
# 2 34.4276 89.1300 24.6853 0.0000 0.8787 0.0000
# 3 23.3669 24.6853 92.9085 0.0000 -0.3892 0.0000
# 4 0.0000 0.0000 0.0000 28.1771 0.0000 3.7830
# 5 0.6531 0.8787 -0.3892 0.0000 29.2066 0.0000
# 6 0.0000 0.0000 0.0000 3.7830 0.0000 11.9399
#
#
#
# Elastic Compliance Matrix: (Units=1/GPa)
#
#
# Indices 1 2 3 4 5 6 
#
# 1 0.011530 -0.003939 -0.001854 0.000000 -0.000164 0.000000
# 2 -0.003939 0.013461 -0.002587 0.000000 -0.000351 0.000000
# 3 -0.001854 -0.002587 0.011918 0.000000 0.000278 0.000000
# 4 0.000000 0.000000 0.000000 0.037067 0.000000 -0.011744
# 5 -0.000164 -0.000351 0.000278 0.000000 0.034257 0.000000
# 6 0.000000 0.000000 0.000000 -0.011744 0.000000 0.087474
#
#
# Mechanical properties :
#
#
# Convention : Reuss Voigt Hill
#
# Bulk Modulus (GPa) = 49.62965 49.91687 49.77326
# Shear Modulus (GPa) = 22.81186 27.31885 25.06536
#
# Velocity S-wave (km/s) = 3.15273 3.45015 3.30479
# Velocity P-wave (km/s) = 5.90575 6.13363 6.02077
#
# Compressibility (1/GPa) = 0.02014925
#
# Stress axis : x y z
#
# Youngs Moduli (GPa) = 86.72677 74.28873 83.90506
#
# Poissons Ratio (x) = 0.29260 0.15557
# Poissons Ratio (y) = 0.34159 0.21710
# Poissons Ratio (z) = 0.16081 0.19221
#
# Static dielectric constant tensor:
#      x y z
#    x 3.765450 0.000000 0.065950 
#    y 0.000000 4.097310 0.000000 
#    z 0.065950 0.000000 4.175470 
# 
# 
# High freq. dielectric constant tensor:
#      x y z
#    x 1.897560 0.000000 -0.009400 
#    y 0.000000 1.910890 0.000000 
#    z -0.009400 0.000000 1.902150 
# 
# From -- ./inp_files/79942.got.cif
#   From: 2010.06.25/outbox.cif.g09.slc.cpg/sg13_40_cif.got.tgz:79942.got - 2010.06.28 04:50:58.
