data_PCOD8122325
_publ_section_title
;
Structure prediction by ZEFSAII (Michael W. Deem and Ramdas Pophale) SiO2 
 PCOD8122325
Probable space group: P 2/C
;
_chemical_formula_sum "Si O2"
_cell_formula_units_Z 22
_cell_length_a 11.972703
_cell_length_b 11.860729
_cell_length_c 14.138824
_cell_angle_alpha 90.000000
_cell_angle_beta 151.557876
_cell_angle_gamma 90.000000
_cell_volume 956.248654
_symmetry_space_group_name_H-M "P 2/C"
_symmetry_group_IT_number 13
_symmetry_cell_setting 'monoclinic'
loop_
_space_group_symop_operation_xyz
x,y,z
-x,y,1/2-z
-x,-y,-z
x,-y,1/2+z
loop_
_atom_site_type_symbol
_atom_site_label
_atom_site_fract_x
_atom_site_fract_y
_atom_site_fract_z
Si Si1 0.053743 0.893024 0.599494
Si Si2 0.245169 0.625229 0.968975
Si Si3 0.764336 0.384840 0.624712
Si Si4 0.259849 0.317919 0.684837
Si Si5 0.450994 0.165691 0.102521
Si Si6 0.000000 0.990219 0.250000
O O1 0.329159 0.871605 0.796002
O O2 0.894813 0.793301 0.439231
O O3 0.978111 0.921804 0.648728
O O4 0.000000 0.000000 0.500000
O O5 0.308092 0.509483 0.961918
O O6 0.000000 0.677315 0.750000
O O7 0.458973 0.710922 0.105076
O O8 0.217759 0.602952 0.061322
O O9 0.805627 0.383911 0.768483
O O10 0.574294 0.295035 0.448874
O O11 0.000000 0.346144 0.750000
O O12 0.500000 0.157329 0.250000
O O13 0.227509 0.089582 0.909166
#
# Coordination Sequence:
#
# PCOD8122325 Si02
#       6
#     4   4   4   4   4   2
#     4  12  27  48  76 105 145 202 239 309 373 426
#     4  10  26  47  74 107 147 199 241 303 378 433
#     4  11  24  47  75 106 148 196 249 301 372 443
#     4  11  26  48  71 108 153 184 255 304 360 448
#     4  12  25  46  76 107 147 193 252 308 368 445
#     4  12  26  50  76 108 148 192 256 308 370 438
#
# _framework density 23.006568000000001
#
# number of rings (size 3 to 8) (size 9 to 14) (size 15 to 20)
#    0.000    0.727    2.727    3.273    6.364    7.273 
#    0.000    0.000    0.000    0.000    0.000    0.000 
#    0.000    0.000    0.000    0.000    0.000    0.000 
#
# Total GULP energy -272757.652275 kJ/mol
# GULP energy per Si atom -12398.075103 kJ/mol
# Density = 2.295420 g / cm^3
# Si number density = 23.006568 Si / 1000 Ang^3
#
#
#
# Elastic Constant Matrix: (Units=GPa)
#
#
# Indices 1 2 3 4 5 6 
#
# 1 168.7913 42.1936 59.1845 0.0000 -13.6969 0.0000
# 2 42.1936 104.9676 49.4670 0.0000 6.1681 0.0000
# 3 59.1845 49.4670 153.1145 0.0000 23.7672 0.0000
# 4 0.0000 0.0000 0.0000 39.5739 0.0000 -8.2265
# 5 -13.6969 6.1681 23.7672 0.0000 58.2760 0.0000
# 6 0.0000 0.0000 0.0000 -8.2265 0.0000 31.2970
#
#
#
# Elastic Compliance Matrix: (Units=1/GPa)
#
#
# Indices 1 2 3 4 5 6 
#
# 1 0.007653 -0.001931 -0.002824 0.000000 0.003155 0.000000
# 2 -0.001931 0.011730 -0.002968 0.000000 -0.000485 0.000000
# 3 -0.002824 -0.002968 0.009220 0.000000 -0.004110 0.000000
# 4 0.000000 0.000000 0.000000 0.026730 0.000000 0.007026
# 5 0.003155 -0.000485 -0.004110 0.000000 0.019629 0.000000
# 6 0.000000 0.000000 0.000000 0.007026 0.000000 0.033799
#
#
# Mechanical properties :
#
#
# Convention : Reuss Voigt Hill
#
# Bulk Modulus (GPa) = 76.00661 80.95151 78.47906
# Shear Modulus (GPa) = 38.88257 44.23126 41.55692
#
# Velocity S-wave (km/s) = 4.11550 4.38945 4.25468
# Velocity P-wave (km/s) = 7.46269 7.80719 7.63689
#
# Compressibility (1/GPa) = 0.01315675
#
# Stress axis : x y z
#
# Youngs Moduli (GPa) = 130.65974 85.25065 108.46476
#
# Poissons Ratio (x) = 0.16461 0.30634
# Poissons Ratio (y) = 0.25229 0.32193
# Poissons Ratio (z) = 0.36902 0.25303
#
# Static dielectric constant tensor:
#      x y z
#    x 4.402100 0.000000 0.018930 
#    y 0.000000 3.761620 0.000000 
#    z 0.018930 0.000000 4.319270 
# 
# 
# High freq. dielectric constant tensor:
#      x y z
#    x 1.933330 0.000000 -0.000940 
#    y 0.000000 1.899330 0.000000 
#    z -0.000940 0.000000 1.923900 
# 
# From -- ./inp_files/51264.got.cif
#   From: 2010.06.25/outbox.cif.g09.slc.cpg/sg13_26_cif.got.tgz:51264.got - 2010.06.28 04:50:58.
