data_PCOD8122019
_publ_section_title
;
Structure prediction by ZEFSAII (Michael W. Deem and Ramdas Pophale) SiO2 
 PCOD8122019
Probable space group: P 2/C
;
_chemical_formula_sum "Si O2"
_cell_formula_units_Z 32
_cell_length_a 13.334185
_cell_length_b 14.416897
_cell_length_c 19.171320
_cell_angle_alpha 90.000000
_cell_angle_beta 27.023103
_cell_angle_gamma 90.000000
_cell_volume 1674.482333
_symmetry_space_group_name_H-M "P 2/C"
_symmetry_group_IT_number 13
_symmetry_cell_setting 'monoclinic'
loop_
_space_group_symop_operation_xyz
x,y,z
-x,y,1/2-z
-x,-y,-z
x,-y,1/2+z
loop_
_atom_site_type_symbol
_atom_site_label
_atom_site_fract_x
_atom_site_fract_y
_atom_site_fract_z
Si Si1 0.835850 0.448153 0.153620
Si Si2 0.444995 0.393427 0.706817
Si Si3 0.497111 0.900539 0.085070
Si Si4 0.632827 0.895806 0.846818
Si Si5 0.925778 0.643973 0.872200
Si Si6 0.102865 0.155330 0.069819
Si Si7 0.680375 0.249888 0.198508
Si Si8 0.172056 0.210511 0.878138
O O1 0.636804 0.520696 0.289719
O O2 0.725988 0.354580 0.193491
O O3 0.970661 0.432128 0.140870
O O4 0.000000 0.500000 0.000000
O O5 0.500000 0.430366 0.750000
O O6 0.660561 0.351342 0.537327
O O7 0.253886 0.316305 0.831440
O O8 0.292710 0.843083 0.241776
O O9 0.463041 0.008427 0.123393
O O10 0.508766 0.874857 0.996357
O O11 0.728535 0.873914 0.975776
O O12 0.590715 0.812502 0.818354
O O13 0.894643 0.913759 0.696877
O O14 0.010027 0.745387 0.842427
O O15 0.000000 0.615557 0.750000
O O16 0.226400 0.161704 0.918695
O O17 0.500000 0.247724 0.250000
O O18 0.909523 0.207338 0.027436
#
# Coordination Sequence:
#
# PCOD8122019 Si02
#       8
#     4   4   4   4   4   4   4   4
#     4  12  22  39  66  92 125 163 212 256 306 378
#     4  12  20  37  65  93 123 163 209 256 306 364
#     4  11  22  38  67  89 126 162 203 259 310 367
#     4  10  24  41  57  95 126 163 203 251 320 374
#     4  12  24  39  64  96 127 163 209 261 310 361
#     4  11  20  39  65  90 123 160 206 257 308 361
#     4  11  24  41  62  88 129 166 201 251 318 374
#     4  11  21  38  64  97 115 156 218 256 296 370
#
# _framework density 19.110382999999999
#
# number of rings (size 3 to 8) (size 9 to 14) (size 15 to 20)
#    0.000    0.750    7.500    1.875    0.000    4.500 
#    0.000    1.875    0.000    0.000    0.000    0.000 
#    0.000    0.000    0.000    0.000    0.000    0.000 
#
# Total GULP energy -396865.633443 kJ/mol
# GULP energy per Si atom -12402.051045 kJ/mol
# Density = 1.906689 g / cm^3
# Si number density = 19.110383 Si / 1000 Ang^3
#
#
#
# Elastic Constant Matrix: (Units=GPa)
#
#
# Indices 1 2 3 4 5 6 
#
# 1 107.5140 48.9319 49.8540 0.0000 1.8886 0.0000
# 2 48.9319 107.2209 37.9829 0.0000 9.4547 0.0000
# 3 49.8540 37.9829 77.7212 0.0000 11.6489 0.0000
# 4 0.0000 0.0000 0.0000 15.6786 0.0000 -5.5343
# 5 1.8886 9.4547 11.6489 0.0000 29.4957 0.0000
# 6 0.0000 0.0000 0.0000 -5.5343 0.0000 34.3768
#
#
#
# Elastic Compliance Matrix: (Units=1/GPa)
#
#
# Indices 1 2 3 4 5 6 
#
# 1 0.014895 -0.004279 -0.007999 0.000000 0.003577 0.000000
# 2 -0.004279 0.012574 -0.003015 0.000000 -0.002566 0.000000
# 3 -0.007999 -0.003015 0.020461 0.000000 -0.006602 0.000000
# 4 0.000000 0.000000 0.000000 0.067624 0.000000 0.010887
# 5 0.003577 -0.002566 -0.006602 0.000000 0.037104 0.000000
# 6 0.000000 0.000000 0.000000 0.010887 0.000000 0.030842
#
#
# Mechanical properties :
#
#
# Convention : Reuss Voigt Hill
#
# Bulk Modulus (GPa) = 57.66433 62.88818 60.27626
# Shear Modulus (GPa) = 22.74084 26.28936 24.51510
#
# Velocity S-wave (km/s) = 3.45334 3.71301 3.58553
# Velocity P-wave (km/s) = 6.79269 7.16668 6.98219
#
# Compressibility (1/GPa) = 0.01734174
#
# Stress axis : x y z
#
# Youngs Moduli (GPa) = 67.13616 79.52956 48.87400
#
# Poissons Ratio (x) = 0.34033 0.39095
# Poissons Ratio (y) = 0.28730 0.14738
# Poissons Ratio (z) = 0.53704 0.23982
#
# Static dielectric constant tensor:
#      x y z
#    x 3.677460 0.000000 -0.209970 
#    y 0.000000 3.602310 0.000000 
#    z -0.209970 0.000000 3.683900 
# 
# 
# High freq. dielectric constant tensor:
#      x y z
#    x 1.737670 0.000000 -0.004670 
#    y 0.000000 1.742740 0.000000 
#    z -0.004670 0.000000 1.748530 
# 
# From -- ./inp_files/66927.got.cif
#   From: 2010.06.25/outbox.cif.g09.slc.cpg/sg13_34_cif.got.tgz:66927.got - 2010.06.28 04:50:58.
