data_PCOD8122113
_publ_section_title
;
Structure prediction by ZEFSAII (Michael W. Deem and Ramdas Pophale) SiO2 
 PCOD8122113
Probable space group: P 2/C
;
_chemical_formula_sum "Si O2"
_cell_formula_units_Z 22
_cell_length_a 6.365225
_cell_length_b 12.364319
_cell_length_c 12.687474
_cell_angle_alpha 90.000000
_cell_angle_beta 107.420316
_cell_angle_gamma 90.000000
_cell_volume 952.727289
_symmetry_space_group_name_H-M "P 2/C"
_symmetry_group_IT_number 13
_symmetry_cell_setting 'monoclinic'
loop_
_space_group_symop_operation_xyz
x,y,z
-x,y,1/2-z
-x,-y,-z
x,-y,1/2+z
loop_
_atom_site_type_symbol
_atom_site_label
_atom_site_fract_x
_atom_site_fract_y
_atom_site_fract_z
Si Si1 0.500000 0.347139 0.750000
Si Si2 0.196313 0.541694 0.359490
Si Si3 0.172315 0.302917 0.369746
Si Si4 0.057619 0.268569 0.582751
Si Si5 0.839089 0.946309 0.058321
Si Si6 0.427383 0.103280 0.356032
O O1 0.582266 0.419575 0.665002
O O2 0.294868 0.277650 0.675610
O O3 0.253122 0.423622 0.416315
O O4 0.000000 0.523884 0.250000
O O5 0.105173 0.628224 0.429989
O O6 0.077900 0.247139 0.461026
O O7 0.371269 0.230435 0.356148
O O8 0.000000 0.307367 0.250000
O O9 0.945775 0.164017 0.619482
O O10 0.783581 0.028003 0.146148
O O11 0.616145 0.916164 0.967219
O O12 0.000000 0.000000 0.000000
O O13 0.500000 0.072036 0.250000
#
# Coordination Sequence:
#
# PCOD8122113 Si02
#       6
#     2   4   4   4   4   4
#     4  10  24  44  64 104 136 180 226 268 338 400
#     4   9  22  43  66 101 138 177 221 273 338 400
#     4  11  23  44  73 100 137 175 222 283 337 402
#     4  11  23  46  70  97 139 178 225 276 333 401
#     4  11  25  49  66  96 139 175 227 282 331 404
#     4  11  26  46  70 101 130 177 227 278 347 397
#
# _framework density 23.091602999999999
#
# number of rings (size 3 to 8) (size 9 to 14) (size 15 to 20)
#    0.000    1.455    1.818    1.636    3.818    0.727 
#   16.364    0.000    0.000    0.000    0.000    0.000 
#    0.000    0.000    0.000    0.000    0.000    0.000 
#
# Total GULP energy -272782.157605 kJ/mol
# GULP energy per Si atom -12399.188982 kJ/mol
# Density = 2.303905 g / cm^3
# Si number density = 23.091603 Si / 1000 Ang^3
#
#
#
# Elastic Constant Matrix: (Units=GPa)
#
#
# Indices 1 2 3 4 5 6 
#
# 1 135.3115 72.0334 37.0771 0.0000 -17.3948 0.0000
# 2 72.0334 170.4369 31.7617 0.0000 -3.7566 0.0000
# 3 37.0771 31.7617 84.9389 0.0000 -19.6216 0.0000
# 4 0.0000 0.0000 0.0000 -23.1811 0.0000 -46.6730
# 5 -17.3948 -3.7566 -19.6216 0.0000 40.1311 0.0000
# 6 0.0000 0.0000 0.0000 -46.6730 0.0000 2.9390
#
#
#
# Elastic Compliance Matrix: (Units=1/GPa)
#
#
# Indices 1 2 3 4 5 6 
#
# 1 0.010538 -0.003934 -0.002434 0.000000 0.003010 0.000000
# 2 -0.003934 0.007790 -0.001602 0.000000 -0.001759 0.000000
# 3 -0.002434 -0.001602 0.014831 0.000000 0.006047 0.000000
# 4 0.000000 0.000000 0.000000 -0.001308 0.000000 -0.020776
# 5 0.003010 -0.001759 0.006047 0.000000 0.029015 0.000000
# 6 0.000000 0.000000 0.000000 -0.020776 0.000000 0.010319
#
#
# Mechanical properties :
#
#
# Convention : Reuss Voigt Hill
#
# Bulk Modulus (GPa) = 58.07258 74.71462 66.39360
# Shear Modulus (GPa) = 53.84180 20.63215 37.23698
#
# Velocity S-wave (km/s) = 4.83397 2.99238 4.02005
# Velocity P-wave (km/s) = 7.50731 6.66071 7.09665
#
# Compressibility (1/GPa) = 0.01721983
#
# Stress axis : x y z
#
# Youngs Moduli (GPa) = 94.89038 128.37411 67.42420
#
# Poissons Ratio (x) = 0.50503 0.16410
# Poissons Ratio (y) = 0.37331 0.10801
# Poissons Ratio (z) = 0.23095 0.20565
#
# Static dielectric constant tensor:
#      x y z
#    x 4.393200 0.000000 -0.200690 
#    y 0.000000 4.855430 0.000000 
#    z -0.200690 0.000000 3.899420 
# 
# 
# High freq. dielectric constant tensor:
#      x y z
#    x 1.919100 0.000000 -0.006990 
#    y 0.000000 1.926080 0.000000 
#    z -0.006990 0.000000 1.903490 
# 
# From -- ./inp_files/43761.got.cif
#   From: 2010.06.25/outbox.cif.g09.slc.cpg/sg13_22_cif.got.tgz:43761.got - 2010.06.28 04:50:58.
