data_PCOD8122980
_publ_section_title
;
Structure prediction by ZEFSAII (Michael W. Deem and Ramdas Pophale) SiO2 
 PCOD8122980
Probable space group: P 2/C
;
_chemical_formula_sum "Si O2"
_cell_formula_units_Z 20
_cell_length_a 5.099928
_cell_length_b 8.168365
_cell_length_c 21.721333
_cell_angle_alpha 90.000000
_cell_angle_beta 113.658253
_cell_angle_gamma 90.000000
_cell_volume 828.819376
_symmetry_space_group_name_H-M "P 2/C"
_symmetry_group_IT_number 13
_symmetry_cell_setting 'monoclinic'
loop_
_space_group_symop_operation_xyz
x,y,z
-x,y,1/2-z
-x,-y,-z
x,-y,1/2+z
loop_
_atom_site_type_symbol
_atom_site_label
_atom_site_fract_x
_atom_site_fract_y
_atom_site_fract_z
Si Si1 0.292901 0.360638 0.403966
Si Si2 0.211382 0.953465 0.825309
Si Si3 0.741633 0.380666 0.962299
Si Si4 0.191357 0.512048 0.208192
Si Si5 0.767467 0.156376 0.853884
O O1 0.363703 0.207397 0.367108
O O2 0.357263 0.310834 0.480698
O O3 0.488764 0.517586 0.404585
O O4 0.962809 0.417447 0.362770
O O5 0.000000 0.904219 0.750000
O O6 0.458887 0.069961 0.822741
O O7 0.027971 0.035152 0.862925
O O8 0.827159 0.228866 0.927498
O O9 0.000000 0.500000 0.000000
O O10 0.500000 0.429530 0.250000
O O11 0.233587 0.702070 0.196962
O O12 0.000000 0.492108 0.250000
#
# Coordination Sequence:
#
# PCOD8122980 Si02
#       5
#     4   4   4   4   4
#     4  11  27  46  73 108 144 188 246 306 357 424
#     4  12  28  47  70 110 152 186 232 299 371 435
#     4  11  25  49  76 103 142 193 255 299 346 430
#     4  12  24  43  75 106 139 194 249 297 358 430
#     4  12  26  46  72 103 146 190 238 295 362 432
#
# _framework density 24.130710000000001
#
# number of rings (size 3 to 8) (size 9 to 14) (size 15 to 20)
#    0.000    0.400    2.000    6.600    5.600    3.200 
#    0.000    0.000    0.000    0.000    0.000    0.000 
#    0.000    0.000    0.000    0.000    0.000    0.000 
#
# Total GULP energy -248123.495177 kJ/mol
# GULP energy per Si atom -12406.174759 kJ/mol
# Density = 2.407579 g / cm^3
# Si number density = 24.130710 Si / 1000 Ang^3
#
#
#
# Elastic Constant Matrix: (Units=GPa)
#
#
# Indices 1 2 3 4 5 6 
#
# 1 133.0171 27.3944 34.5820 0.0000 3.5114 0.0000
# 2 27.3944 87.7908 45.6045 0.0000 -10.1880 0.0000
# 3 34.5820 45.6045 114.4273 0.0000 0.9784 0.0000
# 4 0.0000 0.0000 0.0000 38.8085 0.0000 3.3135
# 5 3.5114 -10.1880 0.9784 0.0000 43.2191 0.0000
# 6 0.0000 0.0000 0.0000 3.3135 0.0000 28.2000
#
#
#
# Elastic Compliance Matrix: (Units=1/GPa)
#
#
# Indices 1 2 3 4 5 6 
#
# 1 0.008387 -0.001802 -0.001807 0.000000 -0.001065 0.000000
# 2 -0.001802 0.015307 -0.005589 0.000000 0.003881 0.000000
# 3 -0.001807 -0.005589 0.011525 0.000000 -0.001432 0.000000
# 4 0.000000 0.000000 0.000000 0.026029 0.000000 -0.003058
# 5 -0.001065 0.003881 -0.001432 0.000000 0.024172 0.000000
# 6 0.000000 0.000000 0.000000 -0.003058 0.000000 0.035820
#
#
# Mechanical properties :
#
#
# Convention : Reuss Voigt Hill
#
# Bulk Modulus (GPa) = 59.44545 61.15522 60.30033
# Shear Modulus (GPa) = 34.42490 37.22247 35.82369
#
# Velocity S-wave (km/s) = 3.78114 3.93177 3.85719
# Velocity P-wave (km/s) = 6.61445 6.78308 6.69929
#
# Compressibility (1/GPa) = 0.01682215
#
# Stress axis : x y z
#
# Youngs Moduli (GPa) = 119.23319 65.33091 86.76663
#
# Poissons Ratio (x) = 0.11771 0.15683
# Poissons Ratio (y) = 0.21483 0.48495
# Poissons Ratio (z) = 0.21551 0.36514
#
# Static dielectric constant tensor:
#      x y z
#    x 4.521170 0.000000 -0.016880 
#    y 0.000000 4.198660 0.000000 
#    z -0.016880 0.000000 4.726670 
# 
# 
# High freq. dielectric constant tensor:
#      x y z
#    x 1.968520 0.000000 -0.004010 
#    y 0.000000 1.943440 0.000000 
#    z -0.004010 0.000000 1.972260 
# 
# From -- ./inp_files/83243.got.cif
#   From: 2010.06.25/outbox.cif.g09.slc.cpg/sg13_42_cif.got.tgz:83243.got - 2010.06.28 04:50:58.
