data_PCOD8122222
_publ_section_title
;
Structure prediction by ZEFSAII (Michael W. Deem and Ramdas Pophale) SiO2 
 PCOD8122222
Probable space group: P 2/C
;
_chemical_formula_sum "Si O2"
_cell_formula_units_Z 20
_cell_length_a 8.474588
_cell_length_b 5.338785
_cell_length_c 19.448096
_cell_angle_alpha 90.000000
_cell_angle_beta 65.880257
_cell_angle_gamma 90.000000
_cell_volume 803.087812
_symmetry_space_group_name_H-M "P 2/C"
_symmetry_group_IT_number 13
_symmetry_cell_setting 'monoclinic'
loop_
_space_group_symop_operation_xyz
x,y,z
-x,y,1/2-z
-x,-y,-z
x,-y,1/2+z
loop_
_atom_site_type_symbol
_atom_site_label
_atom_site_fract_x
_atom_site_fract_y
_atom_site_fract_z
Si Si1 0.653016 0.148030 0.103920
Si Si2 0.649927 0.757066 0.340915
Si Si3 0.987512 0.875899 0.902684
Si Si4 0.000000 0.955053 0.750000
Si Si5 0.776694 0.612198 0.454704
Si Si6 0.500000 0.555391 0.750000
O O1 0.621919 0.276196 0.182150
O O2 0.848565 0.048041 0.079093
O O3 0.511863 0.936906 0.113824
O O4 0.648940 0.350233 0.042569
O O5 0.669087 0.570675 0.403140
O O6 0.621596 0.607120 0.276474
O O7 0.828380 0.889805 0.293801
O O8 0.895817 0.627694 0.949702
O O9 0.031396 0.800861 0.815067
O O10 0.870630 0.121396 0.927193
#
# Coordination Sequence:
#
# PCOD8122222 Si02
#       6
#     4   4   4   2   4   2
#     4  12  27  48  72 114 147 197 253 318 375 458
#     4  11  27  48  74 109 149 205 250 318 378 456
#     4  11  26  46  78 110 150 200 246 312 379 451
#     4  10  24  48  72 104 150 190 264 298 384 446
#     4  11  28  48  78 109 153 197 253 307 385 450
#     4  12  28  42  78 104 150 194 254 310 384 438
#
# _framework density 24.903877999999999
#
# number of rings (size 3 to 8) (size 9 to 14) (size 15 to 20)
#    0.000    0.800    0.000    4.800   19.600    1.600 
#    0.000    0.000    0.000    0.000    0.000    0.000 
#    0.000    0.000    0.000    0.000    0.000    0.000 
#
# Total GULP energy -247906.550732 kJ/mol
# GULP energy per Si atom -12395.327537 kJ/mol
# Density = 2.484720 g / cm^3
# Si number density = 24.903878 Si / 1000 Ang^3
#
#
#
# Elastic Constant Matrix: (Units=GPa)
#
#
# Indices 1 2 3 4 5 6 
#
# 1 140.3941 28.1017 20.8565 0.0000 -4.0628 0.0000
# 2 28.1017 103.9900 6.9138 0.0000 -14.8112 0.0000
# 3 20.8565 6.9138 91.1352 0.0000 14.9046 0.0000
# 4 0.0000 0.0000 0.0000 83.2361 0.0000 -13.5506
# 5 -4.0628 -14.8112 14.9046 0.0000 45.7049 0.0000
# 6 0.0000 0.0000 0.0000 -13.5506 0.0000 51.3248
#
#
#
# Elastic Compliance Matrix: (Units=1/GPa)
#
#
# Indices 1 2 3 4 5 6 
#
# 1 0.007780 -0.001894 -0.001742 0.000000 0.000646 0.000000
# 2 -0.001894 0.010708 -0.000971 0.000000 0.003618 0.000000
# 3 -0.001742 -0.000971 0.012171 0.000000 -0.004438 0.000000
# 4 0.000000 0.000000 0.000000 0.012554 0.000000 0.003314
# 5 0.000646 0.003618 -0.004438 0.000000 0.024557 0.000000
# 6 0.000000 0.000000 0.000000 0.003314 0.000000 0.020359
#
#
# Mechanical properties :
#
#
# Convention : Reuss Voigt Hill
#
# Bulk Modulus (GPa) = 46.63298 49.69592 48.16445
# Shear Modulus (GPa) = 47.85131 54.69630 51.27381
#
# Velocity S-wave (km/s) = 4.38818 4.69155 4.54240
# Velocity P-wave (km/s) = 6.66638 7.02467 6.84787
#
# Compressibility (1/GPa) = 0.02144405
#
# Stress axis : x y z
#
# Youngs Moduli (GPa) = 128.54260 93.38698 82.16298
#
# Poissons Ratio (x) = 0.17692 0.14315
# Poissons Ratio (y) = 0.24352 0.07974
# Poissons Ratio (z) = 0.22395 0.09063
#
# Static dielectric constant tensor:
#      x y z
#    x 4.873160 0.000000 0.419140 
#    y 0.000000 4.160250 0.000000 
#    z 0.419140 0.000000 5.898200 
# 
# 
# High freq. dielectric constant tensor:
#      x y z
#    x 2.012610 0.000000 0.013240 
#    y 0.000000 1.971370 0.000000 
#    z 0.013240 0.000000 2.022350 
# 
# From -- ./inp_files/74179.got.cif
#   From: 2010.06.25/outbox.cif.g09.slc.cpg/sg13_38_cif.got.tgz:74179.got - 2010.06.28 04:50:58.
