data_PCOD8122396
_publ_section_title
;
Structure prediction by ZEFSAII (Michael W. Deem and Ramdas Pophale) SiO2 
 PCOD8122396
Probable space group: P 2/C
;
_chemical_formula_sum "Si O2"
_cell_formula_units_Z 16
_cell_length_a 10.830235
_cell_length_b 8.077447
_cell_length_c 11.312137
_cell_angle_alpha 90.000000
_cell_angle_beta 52.291587
_cell_angle_gamma 90.000000
_cell_volume 782.900473
_symmetry_space_group_name_H-M "P 2/C"
_symmetry_group_IT_number 13
_symmetry_cell_setting 'monoclinic'
loop_
_space_group_symop_operation_xyz
x,y,z
-x,y,1/2-z
-x,-y,-z
x,-y,1/2+z
loop_
_atom_site_type_symbol
_atom_site_label
_atom_site_fract_x
_atom_site_fract_y
_atom_site_fract_z
Si Si1 0.335190 0.691827 0.298583
Si Si2 0.821819 0.184843 0.387924
Si Si3 0.583764 0.624089 0.862448
Si Si4 0.637427 0.120323 0.954159
O O1 0.500000 0.762760 0.250000
O O2 0.200788 0.730124 0.471562
O O3 0.345393 0.490288 0.282790
O O4 0.295278 0.780471 0.198603
O O5 0.720693 0.274953 0.346740
O O6 0.000000 0.201855 0.250000
O O7 0.776488 0.989588 0.427448
O O8 0.500000 0.500000 0.000000
O O9 0.443495 0.750544 0.905338
O O10 0.500000 0.000000 0.000000
#
# Coordination Sequence:
#
# PCOD8122396 Si02
#       4
#     4   4   4   4
#     4  11  19  37  63  85 116 159 199 240 294 340
#     4  11  23  39  58  90 128 151 188 255 301 340
#     4   9  18  37  60  87 110 152 209 235 273 368
#     4   9  18  37  59  87 111 149 206 239 275 366
#
# _framework density 20.436826
#
# number of rings (size 3 to 8) (size 9 to 14) (size 15 to 20)
#    0.000    2.000    7.500    0.000    0.000    2.000 
#    9.000    5.000    0.000    0.000    0.000    0.000 
#    0.000    0.000    0.000    0.000    0.000    0.000 
#
# Total GULP energy -198218.282292 kJ/mol
# GULP energy per Si atom -12388.642643 kJ/mol
# Density = 2.039031 g / cm^3
# Si number density = 20.436826 Si / 1000 Ang^3
#
#
#
# Elastic Constant Matrix: (Units=GPa)
#
#
# Indices 1 2 3 4 5 6 
#
# 1 50.4737 35.6961 41.3684 0.0000 -13.7678 0.0000
# 2 35.6961 141.7500 75.2558 0.0000 -7.0636 0.0000
# 3 41.3684 75.2558 159.0169 0.0000 -14.2882 0.0000
# 4 0.0000 0.0000 0.0000 31.9223 0.0000 9.3493
# 5 -13.7678 -7.0636 -14.2882 0.0000 33.8995 0.0000
# 6 0.0000 0.0000 0.0000 9.3493 0.0000 27.7249
#
#
#
# Elastic Compliance Matrix: (Units=1/GPa)
#
#
# Indices 1 2 3 4 5 6 
#
# 1 0.029244 -0.004416 -0.004712 0.000000 0.008971 0.000000
# 2 -0.004416 0.010089 -0.003740 0.000000 -0.001267 0.000000
# 3 -0.004712 -0.003740 0.009398 0.000000 0.001268 0.000000
# 4 0.000000 0.000000 0.000000 0.034759 0.000000 -0.011721
# 5 0.008971 -0.001267 0.001268 0.000000 0.033413 0.000000
# 6 0.000000 0.000000 0.000000 -0.011721 0.000000 0.040021
#
#
# Mechanical properties :
#
#
# Convention : Reuss Voigt Hill
#
# Bulk Modulus (GPa) = 43.48514 72.87571 58.18043
# Shear Modulus (GPa) = 26.27079 31.97067 29.12073
#
# Velocity S-wave (km/s) = 3.58923 3.95950 3.77890
# Velocity P-wave (km/s) = 6.20490 7.52595 6.89713
#
# Compressibility (1/GPa) = 0.02299636
#
# Stress axis : x y z
#
# Youngs Moduli (GPa) = 34.19476 99.11798 106.40172
#
# Poissons Ratio (x) = 0.43768 0.50137
# Poissons Ratio (y) = 0.15099 0.39792
# Poissons Ratio (z) = 0.16113 0.37068
#
# Static dielectric constant tensor:
#      x y z
#    x 3.148930 0.000000 -0.014380 
#    y 0.000000 4.087130 0.000000 
#    z -0.014380 0.000000 3.696750 
# 
# 
# High freq. dielectric constant tensor:
#      x y z
#    x 1.750300 0.000000 0.009810 
#    y 0.000000 1.824610 0.000000 
#    z 0.009810 0.000000 1.790090 
# 
# From -- ./inp_files/27560.got.cif
#   From: 2010.06.25/outbox.cif.g09.slc.cpg/sg13_14_cif.got.tgz:27560.got - 2010.06.28 04:50:58.
