data_PCOD8122686
_publ_section_title
;
Structure prediction by ZEFSAII (Michael W. Deem and Ramdas Pophale) SiO2 
 PCOD8122686
Probable space group: P 2/C
;
_chemical_formula_sum "Si O2"
_cell_formula_units_Z 20
_cell_length_a 10.931481
_cell_length_b 9.137464
_cell_length_c 8.664799
_cell_angle_alpha 90.000000
_cell_angle_beta 81.120050
_cell_angle_gamma 90.000000
_cell_volume 855.118397
_symmetry_space_group_name_H-M "P 2/C"
_symmetry_group_IT_number 13
_symmetry_cell_setting 'monoclinic'
loop_
_space_group_symop_operation_xyz
x,y,z
-x,y,1/2-z
-x,-y,-z
x,-y,1/2+z
loop_
_atom_site_type_symbol
_atom_site_label
_atom_site_fract_x
_atom_site_fract_y
_atom_site_fract_z
Si Si1 0.378362 0.411273 0.477297
Si Si2 0.739455 0.364350 0.307974
Si Si3 0.955903 0.663792 0.530421
Si Si4 0.195965 0.862530 0.490136
Si Si5 0.228961 0.826497 0.128292
O O1 0.500000 0.500000 0.500000
O O2 0.368937 0.398919 0.294180
O O3 0.260633 0.502247 0.569081
O O4 0.360773 0.246788 0.549952
O O5 0.869968 0.338122 0.199410
O O6 0.706793 0.219580 0.415171
O O7 0.881620 0.715360 0.392842
O O8 0.000000 0.500000 0.500000
O O9 0.066113 0.778924 0.537507
O O10 0.239547 0.855849 0.306127
O O11 0.193680 0.030295 0.538430
#
# Coordination Sequence:
#
# PCOD8122686 Si02
#       5
#     4   4   4   4   4
#     4  11  23  44  70  97 130 175 230 294 349 399
#     4  11  24  40  64  98 132 175 230 281 342 421
#     4  11  23  40  64  99 141 186 228 279 344 417
#     4  12  24  42  65  99 143 182 223 282 347 420
#     4  11  24  42  65  99 137 182 233 284 342 417
#
# _framework density 23.388574999999999
#
# number of rings (size 3 to 8) (size 9 to 14) (size 15 to 20)
#    0.000    0.800    0.000    9.600    0.000    4.800 
#    0.000    1.000    0.000    4.800    0.000    0.000 
#    0.000    0.000    0.000    0.000    0.000    0.000 
#
# Total GULP energy -247834.117301 kJ/mol
# GULP energy per Si atom -12391.705865 kJ/mol
# Density = 2.333534 g / cm^3
# Si number density = 23.388575 Si / 1000 Ang^3
#
#
#
# Elastic Constant Matrix: (Units=GPa)
#
#
# Indices 1 2 3 4 5 6 
#
# 1 105.8143 67.3086 36.4055 0.0000 18.1886 0.0000
# 2 67.3086 187.1283 63.7214 0.0000 11.4584 0.0000
# 3 36.4055 63.7214 165.0445 0.0000 30.7602 0.0000
# 4 0.0000 0.0000 0.0000 48.3806 0.0000 7.4701
# 5 18.1886 11.4584 30.7602 0.0000 30.3238 0.0000
# 6 0.0000 0.0000 0.0000 7.4701 0.0000 46.7799
#
#
#
# Elastic Compliance Matrix: (Units=1/GPa)
#
#
# Indices 1 2 3 4 5 6 
#
# 1 0.013348 -0.004390 -0.000082 0.000000 -0.006264 0.000000
# 2 -0.004390 0.007597 -0.002368 0.000000 0.002165 0.000000
# 3 -0.000082 -0.002368 0.008404 0.000000 -0.007581 0.000000
# 4 0.000000 0.000000 0.000000 0.021192 0.000000 -0.003384
# 5 -0.006264 0.002165 -0.007581 0.000000 0.043607 0.000000
# 6 0.000000 0.000000 0.000000 -0.003384 0.000000 0.021917
#
#
# Mechanical properties :
#
#
# Convention : Reuss Voigt Hill
#
# Bulk Modulus (GPa) = 63.81904 88.09534 75.95719
# Shear Modulus (GPa) = 37.04599 44.46699 40.75649
#
# Velocity S-wave (km/s) = 3.98419 4.36504 4.17895
# Velocity P-wave (km/s) = 6.96496 7.94685 7.47205
#
# Compressibility (1/GPa) = 0.01566930
#
# Stress axis : x y z
#
# Youngs Moduli (GPa) = 74.91924 131.63635 118.98647
#
# Poissons Ratio (x) = 0.57783 0.00975
# Poissons Ratio (y) = 0.32886 0.28178
# Poissons Ratio (z) = 0.00614 0.31173
#
# Static dielectric constant tensor:
#      x y z
#    x 4.023530 0.000000 0.089240 
#    y 0.000000 4.567130 0.000000 
#    z 0.089240 0.000000 4.635990 
# 
# 
# High freq. dielectric constant tensor:
#      x y z
#    x 1.900420 0.000000 0.012240 
#    y 0.000000 1.937740 0.000000 
#    z 0.012240 0.000000 1.951500 
# 
# From -- ./inp_files/14847.got.cif
#   From: 2010.06.25/outbox.cif.g09.slc.cpg/sg13_8_cif.got.tgz:14847.got - 2010.06.28 04:50:58.
