data_PCOD8122869
_publ_section_title
;
Structure prediction by ZEFSAII (Michael W. Deem and Ramdas Pophale) SiO2 
 PCOD8122869
Probable space group: P 2/C
;
_chemical_formula_sum "Si O2"
_cell_formula_units_Z 30
_cell_length_a 20.960962
_cell_length_b 6.640796
_cell_length_c 19.074892
_cell_angle_alpha 90.000000
_cell_angle_beta 31.246056
_cell_angle_gamma 90.000000
_cell_volume 1377.278441
_symmetry_space_group_name_H-M "P 2/C"
_symmetry_group_IT_number 13
_symmetry_cell_setting 'monoclinic'
loop_
_space_group_symop_operation_xyz
x,y,z
-x,y,1/2-z
-x,-y,-z
x,-y,1/2+z
loop_
_atom_site_type_symbol
_atom_site_label
_atom_site_fract_x
_atom_site_fract_y
_atom_site_fract_z
Si Si1 0.230568 0.230600 0.736187
Si Si2 0.792414 0.684092 0.085798
Si Si3 0.228607 0.036477 0.501001
Si Si4 0.000000 0.298222 0.750000
Si Si5 0.942967 0.487910 0.167339
Si Si6 0.564981 0.492230 0.012240
Si Si7 0.400070 0.380385 0.289243
Si Si8 0.738543 0.838176 0.877806
O O1 0.267983 0.256466 0.782644
O O2 0.095063 0.325206 0.848206
O O3 0.313862 0.359782 0.605745
O O4 0.251107 0.001918 0.693828
O O5 0.711053 0.534735 0.115669
O O6 0.805065 0.880655 0.027598
O O7 0.921628 0.581051 0.981947
O O8 0.106515 0.167136 0.616129
O O9 0.347531 0.166434 0.365458
O O10 0.252922 0.935398 0.553304
O O11 0.062354 0.439498 0.748189
O O12 0.852776 0.299450 0.249669
O O13 0.608888 0.715215 0.996314
O O14 0.500000 0.500000 0.000000
O O15 0.471618 0.369791 0.149027
O O16 0.500000 0.466185 0.250000
#
# Coordination Sequence:
#
# PCOD8122869 Si02
#       8
#     4   4   4   2   4   4   4   4
#     4  11  25  46  73 106 140 187 232 292 355 426
#     4  12  26  44  72 108 142 183 234 292 359 421
#     4  12  26  44  72 106 139 182 239 292 347 424
#     4  12  22  46  72 100 138 188 230 282 360 426
#     4  11  24  44  73 103 146 182 230 290 359 427
#     4  11  25  47  74  98 142 190 235 289 350 417
#     4  12  27  47  70 102 143 183 238 294 349 407
#     4  11  25  45  75 104 138 188 238 286 357 422
#
# _framework density 21.782087000000001
#
# number of rings (size 3 to 8) (size 9 to 14) (size 15 to 20)
#    0.000    0.533    4.000    3.600    3.733    3.733 
#    0.000    0.000    0.000    0.000    0.000    0.000 
#    0.000    0.000    0.000    0.000    0.000    0.000 
#
# Total GULP energy -371990.774905 kJ/mol
# GULP energy per Si atom -12399.692497 kJ/mol
# Density = 2.173251 g / cm^3
# Si number density = 21.782087 Si / 1000 Ang^3
#
#
#
# Elastic Constant Matrix: (Units=GPa)
#
#
# Indices 1 2 3 4 5 6 
#
# 1 94.4737 23.8609 15.6902 0.0000 0.3272 0.0000
# 2 23.8609 100.4977 34.2953 0.0000 -4.3843 0.0000
# 3 15.6902 34.2953 108.1505 0.0000 -3.3455 0.0000
# 4 0.0000 0.0000 0.0000 34.9505 0.0000 6.5979
# 5 0.3272 -4.3843 -3.3455 0.0000 41.1590 0.0000
# 6 0.0000 0.0000 0.0000 6.5979 0.0000 32.2286
#
#
#
# Elastic Compliance Matrix: (Units=1/GPa)
#
#
# Indices 1 2 3 4 5 6 
#
# 1 0.011343 -0.002406 -0.000896 0.000000 -0.000419 0.000000
# 2 -0.002406 0.011702 -0.003331 0.000000 0.000995 0.000000
# 3 -0.000896 -0.003331 0.010448 0.000000 0.000502 0.000000
# 4 0.000000 0.000000 0.000000 0.029762 0.000000 -0.006093
# 5 -0.000419 0.000995 0.000502 0.000000 0.024446 0.000000
# 6 0.000000 0.000000 0.000000 -0.006093 0.000000 0.032276
#
#
# Mechanical properties :
#
#
# Convention : Reuss Voigt Hill
#
# Bulk Modulus (GPa) = 49.43651 50.09056 49.76353
# Shear Modulus (GPa) = 35.71842 36.95267 36.33555
#
# Velocity S-wave (km/s) = 4.05385 4.12329 4.08872
# Velocity P-wave (km/s) = 6.68257 6.76128 6.72204
#
# Compressibility (1/GPa) = 0.02022796
#
# Stress axis : x y z
#
# Youngs Moduli (GPa) = 88.16194 85.45728 95.71122
#
# Poissons Ratio (x) = 0.20559 0.08573
# Poissons Ratio (y) = 0.21209 0.31881
# Poissons Ratio (z) = 0.07896 0.28465
#
# Static dielectric constant tensor:
#      x y z
#    x 3.902060 0.000000 -0.232760 
#    y 0.000000 4.144870 0.000000 
#    z -0.232760 0.000000 3.935700 
# 
# 
# High freq. dielectric constant tensor:
#      x y z
#    x 1.872320 0.000000 -0.001060 
#    y 0.000000 1.860140 0.000000 
#    z -0.001060 0.000000 1.863680 
# 
# From -- ./inp_files/82008.got.cif
#   From: 2010.06.25/outbox.cif.g09.slc.cpg/sg13_42_cif.got.tgz:82008.got - 2010.06.28 04:50:58.
