data_PCOD8122705
_publ_section_title
;
Structure prediction by ZEFSAII (Michael W. Deem and Ramdas Pophale) SiO2 
 PCOD8122705
Probable space group: P 2/C
;
_chemical_formula_sum "Si O2"
_cell_formula_units_Z 20
_cell_length_a 8.614074
_cell_length_b 11.635642
_cell_length_c 9.698664
_cell_angle_alpha 90.000000
_cell_angle_beta 101.609143
_cell_angle_gamma 90.000000
_cell_volume 952.213720
_symmetry_space_group_name_H-M "P 2/C"
_symmetry_group_IT_number 13
_symmetry_cell_setting 'monoclinic'
loop_
_space_group_symop_operation_xyz
x,y,z
-x,y,1/2-z
-x,-y,-z
x,-y,1/2+z
loop_
_atom_site_type_symbol
_atom_site_label
_atom_site_fract_x
_atom_site_fract_y
_atom_site_fract_z
Si Si1 0.680384 0.886799 0.743889
Si Si2 0.845711 0.352411 0.304992
Si Si3 0.867498 0.705546 0.113986
Si Si4 0.829352 0.034228 0.528933
Si Si5 0.605714 0.539730 0.147717
O O1 0.500000 0.853497 0.750000
O O2 0.786937 0.774257 0.760915
O O3 0.733392 0.949252 0.612810
O O4 0.720835 0.969939 0.876179
O O5 0.902838 0.355900 0.474211
O O6 0.708579 0.438028 0.233236
O O7 0.000000 0.387382 0.250000
O O8 0.846874 0.842085 0.103009
O O9 0.701564 0.652779 0.127601
O O10 0.000000 0.672460 0.250000
O O11 0.000000 0.000000 0.500000
O O12 0.500000 0.588315 0.250000
O O13 0.500000 0.500000 0.000000
#
# Coordination Sequence:
#
# PCOD8122705 Si02
#       5
#     4   4   4   4   4
#     4  11  23  41  67  98 134 174 224 283 343 404
#     4  11  25  44  69  94 133 183 224 275 343 413
#     4  11  25  43  68  99 134 176 230 275 338 411
#     4  11  23  44  68  99 136 179 225 280 341 414
#     4  12  26  46  68  98 137 177 225 285 342 405
#
# _framework density 21.003689999999999
#
# number of rings (size 3 to 8) (size 9 to 14) (size 15 to 20)
#    0.000    0.800    2.000    6.000    5.600    2.400 
#    0.000    0.000    0.000    0.000    0.000    0.000 
#    0.000    0.000    0.000    0.000    0.000    0.000 
#
# Total GULP energy -247814.904711 kJ/mol
# GULP energy per Si atom -12390.745236 kJ/mol
# Density = 2.095588 g / cm^3
# Si number density = 21.003690 Si / 1000 Ang^3
#
#
#
# Elastic Constant Matrix: (Units=GPa)
#
#
# Indices 1 2 3 4 5 6 
#
# 1 111.2062 28.8768 36.4877 0.0000 -19.1577 0.0000
# 2 28.8768 90.0505 38.5309 0.0000 -9.4733 0.0000
# 3 36.4877 38.5309 127.7643 0.0000 -7.5831 0.0000
# 4 0.0000 0.0000 0.0000 -0.2260 0.0000 -78.4851
# 5 -19.1577 -9.4733 -7.5831 0.0000 48.4581 0.0000
# 6 0.0000 0.0000 0.0000 -78.4851 0.0000 -118.5156
#
#
#
# Elastic Compliance Matrix: (Units=1/GPa)
#
#
# Indices 1 2 3 4 5 6 
#
# 1 0.010901 -0.002160 -0.002252 0.000000 0.003535 0.000000
# 2 -0.002160 0.013356 -0.003338 0.000000 0.001235 0.000000
# 3 -0.002252 -0.003338 0.009473 0.000000 -0.000060 0.000000
# 4 0.000000 0.000000 0.000000 0.019324 0.000000 -0.012797
# 5 0.003535 0.001235 -0.000060 0.000000 0.022266 0.000000
# 6 0.000000 0.000000 0.000000 -0.012797 0.000000 0.000037
#
#
# Mechanical properties :
#
#
# Convention : Reuss Voigt Hill
#
# Bulk Modulus (GPa) = 54.85390 59.64576 57.24983
# Shear Modulus (GPa) = 51.58237 0.95167 26.26702
#
# Velocity S-wave (km/s) = 4.96105 0.67386 3.54021
# Velocity P-wave (km/s) = 7.68043 5.39118 6.63528
#
# Compressibility (1/GPa) = 0.01823024
#
# Stress axis : x y z
#
# Youngs Moduli (GPa) = 91.73379 74.87517 105.56360
#
# Poissons Ratio (x) = 0.16175 0.23772
# Poissons Ratio (y) = 0.19817 0.35232
# Poissons Ratio (z) = 0.20658 0.24990
#
# Static dielectric constant tensor:
#      x y z
#    x 3.529280 0.000000 -0.313010 
#    y 0.000000 3.697710 0.000000 
#    z -0.313010 0.000000 3.974670 
# 
# 
# High freq. dielectric constant tensor:
#      x y z
#    x 1.838290 0.000000 -0.003960 
#    y 0.000000 1.827020 0.000000 
#    z -0.003960 0.000000 1.846120 
# 
# From -- ./inp_files/11784.got.cif
#   From: 2010.06.25/outbox.cif.g09.slc.cpg/sg13_6_cif.got.tgz:11784.got - 2010.06.28 04:50:58.
