data_PCOD8122855
_publ_section_title
;
Structure prediction by ZEFSAII (Michael W. Deem and Ramdas Pophale) SiO2 
 PCOD8122855
Probable space group: P 2/C
;
_chemical_formula_sum "Si O2"
_cell_formula_units_Z 28
_cell_length_a 22.907443
_cell_length_b 5.357578
_cell_length_c 11.936560
_cell_angle_alpha 90.000000
_cell_angle_beta 129.758062
_cell_angle_gamma 90.000000
_cell_volume 1126.186914
_symmetry_space_group_name_H-M "P 2/C"
_symmetry_group_IT_number 13
_symmetry_cell_setting 'monoclinic'
loop_
_space_group_symop_operation_xyz
x,y,z
-x,y,1/2-z
-x,-y,-z
x,-y,1/2+z
loop_
_atom_site_type_symbol
_atom_site_label
_atom_site_fract_x
_atom_site_fract_y
_atom_site_fract_z
Si Si1 0.086193 0.937098 0.323928
Si Si2 0.195339 0.199853 0.145027
Si Si3 0.448926 0.342395 0.588868
Si Si4 0.322109 0.978310 0.429534
Si Si5 0.705253 0.563329 0.920355
Si Si6 0.410953 0.738146 0.358092
Si Si7 0.854872 0.428643 0.210407
O O1 0.135999 0.955922 0.498314
O O2 0.112032 0.698006 0.282482
O O3 0.000000 0.892548 0.250000
O O4 0.093127 0.198193 0.266951
O O5 0.261486 0.309124 0.149635
O O6 0.150890 0.416112 0.160655
O O7 0.234023 0.034254 0.291848
O O8 0.500000 0.459830 0.750000
O O9 0.424226 0.562052 0.479762
O O10 0.508920 0.162003 0.594484
O O11 0.373411 0.202454 0.543014
O O12 0.324360 0.757349 0.522340
O O13 0.359341 0.948648 0.350833
O O14 0.634105 0.399751 0.796652
O O15 0.770846 0.390954 0.054480
#
# Coordination Sequence:
#
# PCOD8122855 Si02
#       7
#     4   4   4   4   4   4   4
#     4  11  26  48  77 112 151 192 240 295 359 437
#     4  11  24  44  72 105 145 191 238 300 359 432
#     4  11  26  41  65  98 136 183 241 306 373 441
#     4  12  25  43  69  99 136 189 243 302 367 434
#     4  11  24  43  75  99 139 186 244 301 358 436
#     4  11  24  45  65  94 137 187 241 309 372 432
#     4  11  25  46  73 113 147 192 242 295 361 435
#
# _framework density 24.862658
#
# number of rings (size 3 to 8) (size 9 to 14) (size 15 to 20)
#    0.000    0.857    1.429    5.143    4.000    7.429 
#    0.000    0.000    0.000    0.000    0.000    0.000 
#    0.000    0.000    0.000    0.000    0.000    0.000 
#
# Total GULP energy -347047.350369 kJ/mol
# GULP energy per Si atom -12394.548227 kJ/mol
# Density = 2.480607 g / cm^3
# Si number density = 24.862658 Si / 1000 Ang^3
#
#
#
# Elastic Constant Matrix: (Units=GPa)
#
#
# Indices 1 2 3 4 5 6 
#
# 1 125.9355 12.2041 39.6546 0.0000 1.6898 0.0000
# 2 12.2041 62.8444 19.2394 0.0000 -5.6899 0.0000
# 3 39.6546 19.2394 76.6543 0.0000 -2.0513 0.0000
# 4 0.0000 0.0000 0.0000 23.3424 0.0000 -1.5820
# 5 1.6898 -5.6899 -2.0513 0.0000 45.3188 0.0000
# 6 0.0000 0.0000 0.0000 -1.5820 0.0000 35.5976
#
#
#
# Elastic Compliance Matrix: (Units=1/GPa)
#
#
# Indices 1 2 3 4 5 6 
#
# 1 0.009511 -0.000425 -0.004830 0.000000 -0.000627 0.000000
# 2 -0.000425 0.017433 -0.004102 0.000000 0.002019 0.000000
# 3 -0.004830 -0.004102 0.016585 0.000000 0.000416 0.000000
# 4 0.000000 0.000000 0.000000 0.042970 0.000000 0.001910
# 5 -0.000627 0.002019 0.000416 0.000000 0.022362 0.000000
# 6 0.000000 0.000000 0.000000 0.001910 0.000000 0.028177
#
#
# Mechanical properties :
#
#
# Convention : Reuss Voigt Hill
#
# Bulk Modulus (GPa) = 40.29755 45.29228 42.79491
# Shear Modulus (GPa) = 30.48341 33.80751 32.14546
#
# Velocity S-wave (km/s) = 3.50533 3.69151 3.59962
# Velocity P-wave (km/s) = 5.71195 6.03541 5.87591
#
# Compressibility (1/GPa) = 0.02481540
#
# Stress axis : x y z
#
# Youngs Moduli (GPa) = 105.13971 57.36125 60.29530
#
# Poissons Ratio (x) = 0.02438 0.29125
# Poissons Ratio (y) = 0.04468 0.24731
# Poissons Ratio (z) = 0.50787 0.23528
#
# Static dielectric constant tensor:
#      x y z
#    x 4.899120 0.000000 -0.154890 
#    y 0.000000 4.131560 0.000000 
#    z -0.154890 0.000000 4.582490 
# 
# 
# High freq. dielectric constant tensor:
#      x y z
#    x 2.016900 0.000000 -0.015750 
#    y 0.000000 1.968600 0.000000 
#    z -0.015750 0.000000 1.999410 
# 
# From -- ./inp_files/40200.got.cif
#   From: 2010.06.25/outbox.cif.g09.slc.cpg/sg13_21_cif.got.tgz:40200.got - 2010.06.28 04:50:58.
