data_PCOD8122375
_publ_section_title
;
Structure prediction by ZEFSAII (Michael W. Deem and Ramdas Pophale) SiO2 
 PCOD8122375
Probable space group: P 2/C
;
_chemical_formula_sum "Si O2"
_cell_formula_units_Z 32
_cell_length_a 17.948842
_cell_length_b 12.071825
_cell_length_c 13.955943
_cell_angle_alpha 90.000000
_cell_angle_beta 32.631771
_cell_angle_gamma 90.000000
_cell_volume 1630.605566
_symmetry_space_group_name_H-M "P 2/C"
_symmetry_group_IT_number 13
_symmetry_cell_setting 'monoclinic'
loop_
_space_group_symop_operation_xyz
x,y,z
-x,y,1/2-z
-x,-y,-z
x,-y,1/2+z
loop_
_atom_site_type_symbol
_atom_site_label
_atom_site_fract_x
_atom_site_fract_y
_atom_site_fract_z
Si Si1 0.278739 0.223621 0.078099
Si Si2 0.510169 0.698339 0.470445
Si Si3 0.369581 0.927170 0.155757
Si Si4 0.641162 0.393411 0.650066
Si Si5 0.133589 0.072486 0.362664
Si Si6 0.617486 0.641833 0.696237
Si Si7 0.352204 0.986600 0.388194
Si Si8 0.844168 0.830454 0.451696
O O1 0.373504 0.271725 0.059420
O O2 0.138799 0.172825 0.278347
O O3 0.247433 0.315211 0.028043
O O4 0.355486 0.116302 0.955575
O O5 0.594105 0.804093 0.418817
O O6 0.621171 0.632389 0.284549
O O7 0.456850 0.629635 0.619703
O O8 0.328627 0.930432 0.310877
O O9 0.252769 0.981107 0.215292
O O10 0.500000 0.000000 0.000000
O O11 0.500000 0.361934 0.750000
O O12 0.678118 0.522192 0.598937
O O13 0.151796 0.128329 0.444984
O O14 0.000000 0.000000 0.500000
O O15 0.500000 0.682033 0.750000
O O16 0.749022 0.721698 0.551847
O O17 0.500000 0.046682 0.250000
O O18 0.228158 0.075641 0.536677
O O19 0.000000 0.803571 0.250000
#
# Coordination Sequence:
#
# PCOD8122375 Si02
#       8
#     4   4   4   4   4   4   4   4
#     4  11  18  36  62  91 124 159 194 248 313 362
#     4  11  18  35  60  92 122 153 199 254 309 359
#     4  11  19  31  54  89 124 154 196 236 307 368
#     4   9  20  35  63  94 117 155 204 261 309 353
#     4  11  23  37  57  90 127 163 200 248 303 379
#     4  11  23  40  59  90 120 158 213 260 302 358
#     4  11  18  32  57  89 121 154 194 243 299 368
#     4  11  24  39  57  82 123 171 201 244 309 364
#
# _framework density 19.624611000000002
#
# number of rings (size 3 to 8) (size 9 to 14) (size 15 to 20)
#    0.000    1.250    5.000    2.625    0.000    2.000 
#    0.000    0.000    2.750    0.750    0.000    0.000 
#    0.000    0.000    0.000    0.000    0.000    0.000 
#
# Total GULP energy -396516.672028 kJ/mol
# GULP energy per Si atom -12391.146001 kJ/mol
# Density = 1.957994 g / cm^3
# Si number density = 19.624611 Si / 1000 Ang^3
#
#
#
# Elastic Constant Matrix: (Units=GPa)
#
#
# Indices 1 2 3 4 5 6 
#
# 1 74.1524 40.5107 39.9469 0.0000 5.6353 0.0000
# 2 40.5107 118.0305 51.3450 0.0000 -4.8338 0.0000
# 3 39.9469 51.3450 99.2851 0.0000 -6.3556 0.0000
# 4 0.0000 0.0000 0.0000 32.2136 0.0000 5.9022
# 5 5.6353 -4.8338 -6.3556 0.0000 32.8870 0.0000
# 6 0.0000 0.0000 0.0000 5.9022 0.0000 26.6270
#
#
#
# Elastic Compliance Matrix: (Units=1/GPa)
#
#
# Indices 1 2 3 4 5 6 
#
# 1 0.019406 -0.004298 -0.005912 0.000000 -0.005099 0.000000
# 2 -0.004298 0.011892 -0.004315 0.000000 0.001650 0.000000
# 3 -0.005912 -0.004315 0.014891 0.000000 0.003256 0.000000
# 4 0.000000 0.000000 0.000000 0.032357 0.000000 -0.007172
# 5 -0.005099 0.001650 0.003256 0.000000 0.032153 0.000000
# 6 0.000000 0.000000 0.000000 -0.007172 0.000000 0.039146
#
#
# Mechanical properties :
#
#
# Convention : Reuss Voigt Hill
#
# Bulk Modulus (GPa) = 58.34503 61.67478 60.00990
# Shear Modulus (GPa) = 27.08459 28.98988 28.03723
#
# Velocity S-wave (km/s) = 3.71905 3.84763 3.78388
# Velocity P-wave (km/s) = 6.94527 7.15783 7.05235
#
# Compressibility (1/GPa) = 0.01713942
#
# Stress axis : x y z
#
# Youngs Moduli (GPa) = 51.53062 84.08858 67.15621
#
# Poissons Ratio (x) = 0.36138 0.39701
# Poissons Ratio (y) = 0.22146 0.28979
# Poissons Ratio (z) = 0.30464 0.36286
#
# Static dielectric constant tensor:
#      x y z
#    x 3.299340 0.000000 0.394970 
#    y 0.000000 3.643300 0.000000 
#    z 0.394970 0.000000 3.556320 
# 
# 
# High freq. dielectric constant tensor:
#      x y z
#    x 1.759440 0.000000 0.030450 
#    y 0.000000 1.762960 0.000000 
#    z 0.030450 0.000000 1.745250 
# 
# From -- ./inp_files/55783.got.cif
#   From: 2010.06.25/outbox.cif.g09.slc.cpg/sg13_28_cif.got.tgz:55783.got - 2010.06.28 04:50:58.
