data_PCOD8122359
_publ_section_title
;
Structure prediction by ZEFSAII (Michael W. Deem and Ramdas Pophale) SiO2 
 PCOD8122359
Probable space group: P 2/C
;
_chemical_formula_sum "Si O2"
_cell_formula_units_Z 20
_cell_length_a 14.907664
_cell_length_b 5.280249
_cell_length_c 21.078726
_cell_angle_alpha 90.000000
_cell_angle_beta 151.885463
_cell_angle_gamma 90.000000
_cell_volume 781.891553
_symmetry_space_group_name_H-M "P 2/C"
_symmetry_group_IT_number 13
_symmetry_cell_setting 'monoclinic'
loop_
_space_group_symop_operation_xyz
x,y,z
-x,y,1/2-z
-x,-y,-z
x,-y,1/2+z
loop_
_atom_site_type_symbol
_atom_site_label
_atom_site_fract_x
_atom_site_fract_y
_atom_site_fract_z
Si Si1 0.697406 0.901587 0.596355
Si Si2 0.289643 0.412107 0.285018
Si Si3 0.807485 0.080818 0.846596
Si Si4 0.000000 0.723852 0.250000
Si Si5 0.682748 0.443914 0.982284
Si Si6 0.500000 0.749829 0.250000
O O1 0.746248 0.625675 0.661298
O O2 0.679831 0.840082 0.510419
O O3 0.500000 0.000000 0.500000
O O4 0.861983 0.106820 0.707963
O O5 0.183460 0.647021 0.184605
O O6 0.513666 0.406565 0.411222
O O7 0.219382 0.137276 0.220366
O O8 0.635191 0.081126 0.789896
O O9 0.000000 0.000000 0.000000
O O10 0.114217 0.567344 0.375199
O O11 0.640686 0.425064 0.880701
#
# Coordination Sequence:
#
# PCOD8122359 Si02
#       6
#     4   4   4   2   4   2
#     4  12  25  50  75 116 161 206 270 342 407 479
#     4  11  25  49  80 111 159 207 266 335 402 468
#     4  11  26  50  78 116 158 215 267 317 407 487
#     4  12  28  44  82 118 156 208 280 328 412 488
#     4  11  26  51  76 117 156 212 267 330 413 474
#     4  10  26  52  78 112 166 204 262 334 400 486
#
# _framework density 25.578996
#
# number of rings (size 3 to 8) (size 9 to 14) (size 15 to 20)
#    0.000    0.800    2.000    4.200    2.800    6.400 
#    7.200    0.000    0.000    0.000    0.000    0.000 
#    0.000    0.000    0.000    0.000    0.000    0.000 
#
# Total GULP energy -247864.285480 kJ/mol
# GULP energy per Si atom -12393.214274 kJ/mol
# Density = 2.552078 g / cm^3
# Si number density = 25.578996 Si / 1000 Ang^3
#
#
#
# Elastic Constant Matrix: (Units=GPa)
#
#
# Indices 1 2 3 4 5 6 
#
# 1 78.6685 34.8233 47.2275 0.0000 -14.5621 0.0000
# 2 34.8233 147.3342 68.8229 0.0000 -9.7050 0.0000
# 3 47.2275 68.8229 193.7001 0.0000 -5.9652 0.0000
# 4 0.0000 0.0000 0.0000 45.4846 0.0000 10.0860
# 5 -14.5621 -9.7050 -5.9652 0.0000 50.2218 0.0000
# 6 0.0000 0.0000 0.0000 10.0860 0.0000 28.4429
#
#
#
# Elastic Compliance Matrix: (Units=1/GPa)
#
#
# Indices 1 2 3 4 5 6 
#
# 1 0.016233 -0.002141 -0.003076 0.000000 0.003928 0.000000
# 2 -0.002141 0.008497 -0.002475 0.000000 0.000727 0.000000
# 3 -0.003076 -0.002475 0.006775 0.000000 -0.000566 0.000000
# 4 0.000000 0.000000 0.000000 0.023862 0.000000 -0.008462
# 5 0.003928 0.000727 -0.000566 0.000000 0.021124 0.000000
# 6 0.000000 0.000000 0.000000 -0.008462 0.000000 0.038159
#
#
# Mechanical properties :
#
#
# Convention : Reuss Voigt Hill
#
# Bulk Modulus (GPa) = 62.03131 80.16112 71.09622
# Shear Modulus (GPa) = 36.92570 42.75178 39.83874
#
# Velocity S-wave (km/s) = 3.80359 4.09267 3.95077
# Velocity P-wave (km/s) = 6.60252 7.33075 6.97614
#
# Compressibility (1/GPa) = 0.01612089
#
# Stress axis : x y z
#
# Youngs Moduli (GPa) = 61.60223 117.68527 147.61206
#
# Poissons Ratio (x) = 0.25198 0.45409
# Poissons Ratio (y) = 0.13190 0.36529
# Poissons Ratio (z) = 0.18950 0.29123
#
# Static dielectric constant tensor:
#      x y z
#    x 4.079110 0.000000 1.389590 
#    y 0.000000 4.886360 0.000000 
#    z 1.389590 0.000000 0.753130 
# 
# 
# High freq. dielectric constant tensor:
#      x y z
#    x 2.022690 0.000000 -0.006050 
#    y 0.000000 2.024320 0.000000 
#    z -0.006050 0.000000 2.041150 
# 
# From -- ./inp_files/56405.got.cif
#   From: 2010.06.25/outbox.cif.g09.slc.cpg/sg13_29_cif.got.tgz:56405.got - 2010.06.28 04:50:58.
