data_PCOD8122475
_publ_section_title
;
Structure prediction by ZEFSAII (Michael W. Deem and Ramdas Pophale) SiO2 
 PCOD8122475
Probable space group: P 2/C
;
_chemical_formula_sum "Si O2"
_cell_formula_units_Z 24
_cell_length_a 6.526644
_cell_length_b 13.688577
_cell_length_c 13.735904
_cell_angle_alpha 90.000000
_cell_angle_beta 68.165073
_cell_angle_gamma 90.000000
_cell_volume 1139.133884
_symmetry_space_group_name_H-M "P 2/C"
_symmetry_group_IT_number 13
_symmetry_cell_setting 'monoclinic'
loop_
_space_group_symop_operation_xyz
x,y,z
-x,y,1/2-z
-x,-y,-z
x,-y,1/2+z
loop_
_atom_site_type_symbol
_atom_site_label
_atom_site_fract_x
_atom_site_fract_y
_atom_site_fract_z
Si Si1 0.971338 0.609210 0.470135
Si Si2 0.000000 0.984978 0.250000
Si Si3 0.291681 0.249711 0.007732
Si Si4 0.588196 0.259288 0.125646
Si Si5 0.918312 0.908611 0.577350
Si Si6 0.347486 0.170109 0.688714
Si Si7 0.000000 0.327658 0.750000
O O1 0.767326 0.658985 0.562980
O O2 0.937008 0.610396 0.358023
O O3 0.000000 0.500000 0.500000
O O4 0.200228 0.660056 0.461733
O O5 0.195336 0.916767 0.173266
O O6 0.115717 0.052483 0.308515
O O7 0.515912 0.207846 0.925141
O O8 0.364754 0.277208 0.103747
O O9 0.114205 0.166384 0.040202
O O10 0.500000 0.274738 0.250000
O O11 0.694224 0.150276 0.089067
O O12 0.000000 0.000000 0.500000
O O13 0.500000 0.132265 0.750000
O O14 0.198951 0.259595 0.752958
#
# Coordination Sequence:
#
# PCOD8122475 Si02
#       7
#     4   2   4   4   4   4   2
#     4  11  26  46  71 102 132 168 222 282 337 405
#     4  11  24  36  59  96 136 174 225 272 321 390
#     4  11  23  42  66  92 130 177 220 272 335 391
#     4  11  25  45  66  94 138 181 222 274 340 401
#     4  11  24  39  60  95 134 177 224 274 323 392
#     4  11  21  38  67  95 127 174 220 276 328 383
#     4  11  22  44  69  98 132 164 217 280 329 388
#
# _framework density 21.068636999999999
#
# number of rings (size 3 to 8) (size 9 to 14) (size 15 to 20)
#    0.000    1.000    3.333    3.000    4.667   10.000 
#    3.000    0.000    0.000    0.000    0.000    0.000 
#    0.000    0.000    0.000    0.000    0.000    0.000 
#
# Total GULP energy -297475.813291 kJ/mol
# GULP energy per Si atom -12394.825554 kJ/mol
# Density = 2.102068 g / cm^3
# Si number density = 21.068637 Si / 1000 Ang^3
#
#
#
# Elastic Constant Matrix: (Units=GPa)
#
#
# Indices 1 2 3 4 5 6 
#
# 1 105.0133 43.3348 30.7018 0.0000 12.0409 0.0000
# 2 43.3348 130.2701 47.7283 0.0000 4.4745 0.0000
# 3 30.7018 47.7283 126.9662 0.0000 5.5166 0.0000
# 4 0.0000 0.0000 0.0000 27.3702 0.0000 10.5557
# 5 12.0409 4.4745 5.5166 0.0000 41.1688 0.0000
# 6 0.0000 0.0000 0.0000 10.5557 0.0000 26.9620
#
#
#
# Elastic Compliance Matrix: (Units=1/GPa)
#
#
# Indices 1 2 3 4 5 6 
#
# 1 0.011610 -0.003225 -0.001471 0.000000 -0.002848 0.000000
# 2 -0.003225 0.009810 -0.002919 0.000000 0.000268 0.000000
# 3 -0.001471 -0.002919 0.009351 0.000000 -0.000505 0.000000
# 4 0.000000 0.000000 0.000000 0.043034 0.000000 -0.016848
# 5 -0.002848 0.000268 -0.000505 0.000000 0.025162 0.000000
# 6 0.000000 0.000000 0.000000 -0.016848 0.000000 0.043685
#
#
# Mechanical properties :
#
#
# Convention : Reuss Voigt Hill
#
# Bulk Modulus (GPa) = 64.35299 67.30882 65.83091
# Shear Modulus (GPa) = 30.66293 35.13252 32.89773
#
# Velocity S-wave (km/s) = 3.81909 4.08797 3.95581
# Velocity P-wave (km/s) = 7.07517 7.36877 7.22346
#
# Compressibility (1/GPa) = 0.01553929
#
# Stress axis : x y z
#
# Youngs Moduli (GPa) = 86.13059 101.94058 106.93739
#
# Poissons Ratio (x) = 0.32879 0.15734
# Poissons Ratio (y) = 0.27780 0.31218
# Poissons Ratio (z) = 0.12672 0.29760
#
# Static dielectric constant tensor:
#      x y z
#    x 12.222170 0.000000 -4.015330 
#    y 0.000000 4.019840 0.000000 
#    z -4.015330 0.000000 6.039560 
# 
# 
# High freq. dielectric constant tensor:
#      x y z
#    x 1.838480 0.000000 0.003730 
#    y 0.000000 1.810730 0.000000 
#    z 0.003730 0.000000 1.834330 
# 
# From -- ./inp_files/44005.got.cif
#   From: 2010.06.25/outbox.cif.g09.slc.cpg/sg13_23_cif.got.tgz:44005.got - 2010.06.28 04:50:58.
