data_PCOD8122486
_publ_section_title
;
Structure prediction by ZEFSAII (Michael W. Deem and Ramdas Pophale) SiO2 
 PCOD8122486
Probable space group: P 2/C
;
_chemical_formula_sum "Si O2"
_cell_formula_units_Z 20
_cell_length_a 9.663826
_cell_length_b 12.114557
_cell_length_c 16.883226
_cell_angle_alpha 90.000000
_cell_angle_beta 27.255568
_cell_angle_gamma 90.000000
_cell_volume 905.190342
_symmetry_space_group_name_H-M "P 2/C"
_symmetry_group_IT_number 13
_symmetry_cell_setting 'monoclinic'
loop_
_space_group_symop_operation_xyz
x,y,z
-x,y,1/2-z
-x,-y,-z
x,-y,1/2+z
loop_
_atom_site_type_symbol
_atom_site_label
_atom_site_fract_x
_atom_site_fract_y
_atom_site_fract_z
Si Si1 0.901939 0.861151 0.459181
Si Si2 0.795668 0.806390 0.044670
Si Si3 0.966767 0.622960 0.174239
Si Si4 0.355147 0.572791 0.407028
Si Si5 0.510786 0.974553 0.402116
O O1 0.916845 0.738687 0.417563
O O2 0.937192 0.857711 0.537024
O O3 0.153542 0.938503 0.290594
O O4 0.579664 0.914873 0.600747
O O5 0.500000 0.805797 0.250000
O O6 0.866928 0.679344 0.986399
O O7 0.731061 0.878740 0.999218
O O8 0.000000 0.619252 0.250000
O O9 0.615438 0.605434 0.335853
O O10 0.161291 0.528227 0.035269
O O11 0.500000 0.538898 0.250000
O O12 0.500000 0.000000 0.500000
#
# Coordination Sequence:
#
# PCOD8122486 Si02
#       5
#     4   4   4   4   4
#     4  11  23  42  65  89 130 170 214 264 327 388
#     4   9  19  40  64  86 125 169 204 264 320 376
#     4  12  24  43  67 100 136 172 215 277 335 383
#     4  11  22  44  71  93 133 175 223 269 325 396
#     4  11  21  39  64  91 123 165 209 264 324 380
#
# _framework density 22.094801
#
# number of rings (size 3 to 8) (size 9 to 14) (size 15 to 20)
#    0.000    1.200    6.000    3.600    0.000    0.000 
#    3.600    3.000    0.000    0.000    0.000    0.000 
#    0.000    0.000    0.000    0.000    0.000    0.000 
#
# Total GULP energy -247999.992398 kJ/mol
# GULP energy per Si atom -12399.999620 kJ/mol
# Density = 2.204451 g / cm^3
# Si number density = 22.094801 Si / 1000 Ang^3
#
#
#
# Elastic Constant Matrix: (Units=GPa)
#
#
# Indices 1 2 3 4 5 6 
#
# 1 186.9157 62.7334 44.7600 0.0000 6.2561 0.0000
# 2 62.7334 178.7474 57.3751 0.0000 -1.3479 0.0000
# 3 44.7600 57.3751 52.8846 0.0000 5.9286 0.0000
# 4 0.0000 0.0000 0.0000 35.0678 0.0000 -5.7060
# 5 6.2561 -1.3479 5.9286 0.0000 19.1127 0.0000
# 6 0.0000 0.0000 0.0000 -5.7060 0.0000 16.6715
#
#
#
# Elastic Compliance Matrix: (Units=1/GPa)
#
#
# Indices 1 2 3 4 5 6 
#
# 1 0.006801 -0.000883 -0.004705 0.000000 -0.000829 0.000000
# 2 -0.000883 0.008947 -0.009389 0.000000 0.003832 0.000000
# 3 -0.004705 -0.009389 0.034168 0.000000 -0.009721 0.000000
# 4 0.000000 0.000000 0.000000 0.030198 0.000000 0.010335
# 5 -0.000829 0.003832 -0.009721 0.000000 0.055878 0.000000
# 6 0.000000 0.000000 0.000000 0.010335 0.000000 0.063520
#
#
# Mechanical properties :
#
#
# Convention : Reuss Voigt Hill
#
# Bulk Modulus (GPa) = 50.09794 83.14275 66.62035
# Shear Modulus (GPa) = 21.17570 31.08236 26.12903
#
# Velocity S-wave (km/s) = 3.09916 3.75477 3.44261
# Velocity P-wave (km/s) = 5.96068 7.51727 6.78377
#
# Compressibility (1/GPa) = 0.01996090
#
# Stress axis : x y z
#
# Youngs Moduli (GPa) = 147.04175 111.76974 29.26727
#
# Poissons Ratio (x) = 0.09866 0.13772
# Poissons Ratio (y) = 0.12979 0.27480
# Poissons Ratio (z) = 0.69190 1.04943
#
# Static dielectric constant tensor:
#      x y z
#    x 4.354490 0.000000 -0.361350 
#    y 0.000000 4.336050 0.000000 
#    z -0.361350 0.000000 3.549430 
# 
# 
# High freq. dielectric constant tensor:
#      x y z
#    x 1.889600 0.000000 -0.014440 
#    y 0.000000 1.890170 0.000000 
#    z -0.014440 0.000000 1.833250 
# 
# From -- ./inp_files/64412.got.cif
#   From: 2010.06.25/outbox.cif.g09.slc.cpg/sg13_33_cif.got.tgz:64412.got - 2010.06.28 04:50:58.
