data_PCOD8122649
_publ_section_title
;
Structure prediction by ZEFSAII (Michael W. Deem and Ramdas Pophale) SiO2 
 PCOD8122649
Probable space group: P 2/C
;
_chemical_formula_sum "Si O2"
_cell_formula_units_Z 20
_cell_length_a 20.576492
_cell_length_b 6.652588
_cell_length_c 14.893746
_cell_angle_alpha 90.000000
_cell_angle_beta 26.293710
_cell_angle_gamma 90.000000
_cell_volume 903.114756
_symmetry_space_group_name_H-M "P 2/C"
_symmetry_group_IT_number 13
_symmetry_cell_setting 'monoclinic'
loop_
_space_group_symop_operation_xyz
x,y,z
-x,y,1/2-z
-x,-y,-z
x,-y,1/2+z
loop_
_atom_site_type_symbol
_atom_site_label
_atom_site_fract_x
_atom_site_fract_y
_atom_site_fract_z
Si Si1 0.341081 0.861722 0.928358
Si Si2 0.163797 0.847320 0.519494
Si Si3 0.420053 0.201249 0.059565
Si Si4 0.359819 0.504641 0.292637
Si Si5 0.168615 0.041557 0.811282
O O1 0.500000 0.965248 0.750000
O O2 0.376504 0.631338 0.859294
O O3 0.238572 0.834310 0.142695
O O4 0.262960 0.984323 0.945342
O O5 0.203676 0.618896 0.496268
O O6 0.185837 0.848468 0.384929
O O7 0.000000 0.897959 0.750000
O O8 0.371687 0.354521 0.195315
O O9 0.269765 0.156804 0.191820
O O10 0.524425 0.313477 0.859449
O O11 0.500000 0.000000 0.000000
O O12 0.000000 0.000000 0.000000
#
# Coordination Sequence:
#
# PCOD8122649 Si02
#       5
#     4   4   4   4   4
#     4  12  27  46  76 112 149 195 256 310 374 449
#     4  12  26  50  72 107 155 199 240 312 380 440
#     4  11  22  45  78 101 139 194 244 304 372 430
#     4  11  24  43  77 105 144 189 250 306 372 435
#     4  12  25  47  77 106 151 203 242 302 380 448
#
# _framework density 22.145579000000001
#
# number of rings (size 3 to 8) (size 9 to 14) (size 15 to 20)
#    0.000    0.400    6.000    2.400    2.800    4.800 
#    0.000    2.000    0.000    0.000    0.000    0.000 
#    0.000    0.000    0.000    0.000    0.000    0.000 
#
# Total GULP energy -247851.000172 kJ/mol
# GULP energy per Si atom -12392.550009 kJ/mol
# Density = 2.209517 g / cm^3
# Si number density = 22.145579 Si / 1000 Ang^3
#
#
#
# Elastic Constant Matrix: (Units=GPa)
#
#
# Indices 1 2 3 4 5 6 
#
# 1 130.6238 53.2119 73.6570 0.0000 -7.9787 0.0000
# 2 53.2119 134.8596 61.5060 0.0000 -9.0611 0.0000
# 3 73.6570 61.5060 166.8824 0.0000 -7.3018 0.0000
# 4 0.0000 0.0000 0.0000 26.7222 0.0000 2.3414
# 5 -7.9787 -9.0611 -7.3018 0.0000 59.7742 0.0000
# 6 0.0000 0.0000 0.0000 2.3414 0.0000 31.0382
#
#
#
# Elastic Compliance Matrix: (Units=1/GPa)
#
#
# Indices 1 2 3 4 5 6 
#
# 1 0.010884 -0.002494 -0.003858 0.000000 0.000603 0.000000
# 2 -0.002494 0.009540 -0.002379 0.000000 0.000823 0.000000
# 3 -0.003858 -0.002379 0.008579 0.000000 0.000172 0.000000
# 4 0.000000 0.000000 0.000000 0.037671 0.000000 -0.002842
# 5 0.000603 0.000823 0.000172 0.000000 0.016956 0.000000
# 6 0.000000 0.000000 0.000000 -0.002842 0.000000 0.032433
#
#
# Mechanical properties :
#
#
# Convention : Reuss Voigt Hill
#
# Bulk Modulus (GPa) = 86.65456 89.90171 88.27813
# Shear Modulus (GPa) = 36.39728 39.77296 38.08512
#
# Velocity S-wave (km/s) = 4.05847 4.24250 4.15150
# Velocity P-wave (km/s) = 7.82151 8.04253 7.93279
#
# Compressibility (1/GPa) = 0.01154007
#
# Stress axis : x y z
#
# Youngs Moduli (GPa) = 91.87652 104.82626 116.55732
#
# Poissons Ratio (x) = 0.26148 0.44970
# Poissons Ratio (y) = 0.22918 0.27728
# Poissons Ratio (z) = 0.35448 0.24938
#
# Static dielectric constant tensor:
#      x y z
#    x 4.386070 0.000000 -0.314510 
#    y 0.000000 4.135590 0.000000 
#    z -0.314510 0.000000 4.742520 
# 
# 
# High freq. dielectric constant tensor:
#      x y z
#    x 1.874640 0.000000 0.006110 
#    y 0.000000 1.863800 0.000000 
#    z 0.006110 0.000000 1.892950 
# 
# From -- ./inp_files/56370.got.cif
#   From: 2010.06.25/outbox.cif.g09.slc.cpg/sg13_29_cif.got.tgz:56370.got - 2010.06.28 04:50:58.
