data_PCOD8122858
_publ_section_title
;
Structure prediction by ZEFSAII (Michael W. Deem and Ramdas Pophale) SiO2 
 PCOD8122858
Probable space group: P 2/C
;
_chemical_formula_sum "Si O2"
_cell_formula_units_Z 24
_cell_length_a 22.088296
_cell_length_b 10.528859
_cell_length_c 22.649678
_cell_angle_alpha 90.000000
_cell_angle_beta 167.216708
_cell_angle_gamma 90.000000
_cell_volume 1165.511494
_symmetry_space_group_name_H-M "P 2/C"
_symmetry_group_IT_number 13
_symmetry_cell_setting 'monoclinic'
loop_
_space_group_symop_operation_xyz
x,y,z
-x,y,1/2-z
-x,-y,-z
x,-y,1/2+z
loop_
_atom_site_type_symbol
_atom_site_label
_atom_site_fract_x
_atom_site_fract_y
_atom_site_fract_z
Si Si1 0.860445 0.146091 0.931057
Si Si2 0.000000 0.077671 0.250000
Si Si3 0.998322 0.853910 0.068936
Si Si4 0.721139 0.757952 0.582414
Si Si5 0.705909 0.499999 0.500001
Si Si6 0.443681 0.242041 0.082409
Si Si7 0.500000 0.922341 0.750000
O O1 0.551563 0.178717 0.652704
O O2 0.904804 0.173832 0.904803
O O3 0.056909 0.239907 0.154380
O O4 0.916072 0.000000 0.999990
O O5 0.179606 0.161049 0.378021
O O6 0.222303 0.000007 0.500002
O O7 0.246153 0.821290 0.347294
O O8 0.748143 0.760093 0.845617
O O9 0.677382 0.616629 0.517665
O O10 0.642071 0.383361 0.482348
O O11 0.000000 0.486287 0.750000
O O12 0.500000 0.513720 0.250000
O O13 0.423562 0.161036 0.121977
#
# Coordination Sequence:
#
# PCOD8122858 Si02
#       7
#     4   2   4   4   4   4   2
#     4  11  24  44  68  97 133 172 214 269 329 383
#     4  12  24  38  64  98 132 160 210 278 328 388
#     4  11  24  44  68  97 133 172 214 269 329 383
#     4  12  24  43  66  96 130 174 220 261 327 387
#     4  12  26  46  65  92 135 180 212 264 326 390
#     4  12  24  43  66  96 130 174 220 261 327 387
#     4  12  24  38  64  98 132 160 210 278 328 388
#
# _framework density 20.591816999999999
#
# number of rings (size 3 to 8) (size 9 to 14) (size 15 to 20)
#    0.000    0.333    1.667    9.000    2.333    2.667 
#    0.000    5.000    0.000    0.000    0.000    0.000 
#    0.000    0.000    0.000    0.000    0.000    0.000 
#
# Total GULP energy -297733.570683 kJ/mol
# GULP energy per Si atom -12405.565445 kJ/mol
# Density = 2.054495 g / cm^3
# Si number density = 20.591817 Si / 1000 Ang^3
#
#
#
# Elastic Constant Matrix: (Units=GPa)
#
#
# Indices 1 2 3 4 5 6 
#
# 1 -0.7825 -131.0690 -156.8210 0.0000 -0.7611 0.0000
# 2 -131.0690 -123.4091 -243.3908 0.0000 -4.3296 0.0000
# 3 -156.8210 -243.3908 -168.3928 0.0000 -5.7246 0.0000
# 4 0.0000 0.0000 0.0000 31.8595 0.0000 -0.7749
# 5 -0.7611 -4.3296 -5.7246 0.0000 68.4585 0.0000
# 6 0.0000 0.0000 0.0000 -0.7749 0.0000 52.3374
#
#
#
# Elastic Compliance Matrix: (Units=1/GPa)
#
#
# Indices 1 2 3 4 5 6 
#
# 1 0.009513 -0.003975 -0.003100 0.000000 -0.000405 0.000000
# 2 -0.003975 0.006044 -0.005031 0.000000 -0.000083 0.000000
# 3 -0.003100 -0.005031 0.004220 0.000000 0.000000 0.000000
# 4 0.000000 0.000000 0.000000 0.031399 0.000000 0.000465
# 5 -0.000405 -0.000083 0.000000 0.000000 0.014598 0.000000
# 6 0.000000 0.000000 0.000000 0.000465 0.000000 0.019114
#
#
# Mechanical properties :
#
#
# Convention : Reuss Voigt Hill
#
# Bulk Modulus (GPa) = -225.47111 -150.57176 -188.02143
# Shear Modulus (GPa) = 46.45927 46.44417 46.45172
#
# Velocity S-wave (km/s) = 4.75510 4.75433 4.75471
# Velocity P-wave (km/s) = 8.92105 6.56831 7.83351
#
# Compressibility (1/GPa) = -0.00443516
#
# Stress axis : x y z
#
# Youngs Moduli (GPa) = 105.12292 165.45776 236.94325
#
# Poissons Ratio (x) = 0.65767 0.73455
# Poissons Ratio (y) = 0.41785 1.19209
# Poissons Ratio (z) = 0.32589 0.83244
#
# Static dielectric constant tensor:
#      x y z
#    x 4.142550 0.000000 -0.013290 
#    y 0.000000 3.842780 0.000000 
#    z -0.013290 0.000000 3.790530 
# 
# 
# High freq. dielectric constant tensor:
#      x y z
#    x 1.823520 0.000000 0.000320 
#    y 0.000000 1.800300 0.000000 
#    z 0.000320 0.000000 1.831870 
# 
# From -- ./inp_files/89143.got.cif
#   From: 2010.06.25/outbox.cif.g09.slc.cpg/sg13_45_cif.got.tgz:89143.got - 2010.06.28 04:50:58.
