data_PCOD8122562
_publ_section_title
;
Structure prediction by ZEFSAII (Michael W. Deem and Ramdas Pophale) SiO2 
 PCOD8122562
Probable space group: P 2/C
;
_chemical_formula_sum "Si O2"
_cell_formula_units_Z 18
_cell_length_a 9.952065
_cell_length_b 9.144729
_cell_length_c 19.573435
_cell_angle_alpha 90.000000
_cell_angle_beta 29.682308
_cell_angle_gamma 90.000000
_cell_volume 882.111189
_symmetry_space_group_name_H-M "P 2/C"
_symmetry_group_IT_number 13
_symmetry_cell_setting 'monoclinic'
loop_
_space_group_symop_operation_xyz
x,y,z
-x,y,1/2-z
-x,-y,-z
x,-y,1/2+z
loop_
_atom_site_type_symbol
_atom_site_label
_atom_site_fract_x
_atom_site_fract_y
_atom_site_fract_z
Si Si1 0.384377 0.855201 0.729621
Si Si2 0.286084 0.615746 0.662605
Si Si3 0.188584 0.057108 0.035997
Si Si4 0.556285 0.698925 0.409495
Si Si5 0.000000 0.089793 0.750000
O O1 0.500000 0.796074 0.750000
O O2 0.282999 0.721977 0.728198
O O3 0.112195 0.950149 0.863929
O O4 0.614123 0.949923 0.591627
O O5 0.511394 0.671964 0.510077
O O6 0.369890 0.457177 0.656257
O O7 0.000000 0.606564 0.750000
O O8 0.174188 0.012145 0.122391
O O9 0.301102 0.224327 0.984846
O O10 0.804609 0.810505 0.290577
#
# Coordination Sequence:
#
# PCOD8122562 Si02
#       5
#     4   4   4   4   2
#     4  12  26  44  64  94 134 174 211 260 323 387
#     4  11  22  40  65  93 128 165 214 268 317 375
#     4  12  23  41  67  97 128 168 216 269 315 379
#     4  11  22  37  66  99 123 160 215 275 318 368
#     4  12  20  36  70 102 128 152 222 274 322 362
#
# _framework density 20.40559
#
# number of rings (size 3 to 8) (size 9 to 14) (size 15 to 20)
#    0.000    0.444    7.778    2.667    0.000    0.000 
#    0.000    2.222    0.000    0.000    0.000    0.000 
#    0.000    0.000    0.000    0.000    0.000    0.000 
#
# Total GULP energy -223203.531770 kJ/mol
# GULP energy per Si atom -12400.196209 kJ/mol
# Density = 2.035915 g / cm^3
# Si number density = 20.405590 Si / 1000 Ang^3
#
#
#
# Elastic Constant Matrix: (Units=GPa)
#
#
# Indices 1 2 3 4 5 6 
#
# 1 92.3000 43.3537 42.9260 0.0000 -3.9933 0.0000
# 2 43.3537 116.2372 50.4212 0.0000 -1.8415 0.0000
# 3 42.9260 50.4212 123.2335 0.0000 -18.1711 0.0000
# 4 0.0000 0.0000 0.0000 32.2996 0.0000 -10.8572
# 5 -3.9933 -1.8415 -18.1711 0.0000 21.7372 0.0000
# 6 0.0000 0.0000 0.0000 -10.8572 0.0000 17.0230
#
#
#
# Elastic Compliance Matrix: (Units=1/GPa)
#
#
# Indices 1 2 3 4 5 6 
#
# 1 0.014214 -0.003798 -0.003490 0.000000 -0.000628 0.000000
# 2 -0.003798 0.011657 -0.003882 0.000000 -0.002956 0.000000
# 3 -0.003490 -0.003882 0.012291 0.000000 0.009304 0.000000
# 4 0.000000 0.000000 0.000000 0.039409 0.000000 0.025135
# 5 -0.000628 -0.002956 0.009304 0.000000 0.053416 0.000000
# 6 0.000000 0.000000 0.000000 0.025135 0.000000 0.074775
#
#
# Mechanical properties :
#
#
# Convention : Reuss Voigt Hill
#
# Bulk Modulus (GPa) = 63.20448 67.24137 65.22292
# Shear Modulus (GPa) = 21.42475 27.21663 24.32069
#
# Velocity S-wave (km/s) = 3.24380 3.65606 3.45608
# Velocity P-wave (km/s) = 6.71349 7.13066 6.92522
#
# Compressibility (1/GPa) = 0.01582166
#
# Stress axis : x y z
#
# Youngs Moduli (GPa) = 70.35395 85.78716 81.36182
#
# Poissons Ratio (x) = 0.32578 0.28395
# Poissons Ratio (y) = 0.26717 0.31588
# Poissons Ratio (z) = 0.24553 0.33306
#
# Static dielectric constant tensor:
#      x y z
#    x 3.455390 0.000000 -0.170050 
#    y 0.000000 3.851830 0.000000 
#    z -0.170050 0.000000 3.961070 
# 
# 
# High freq. dielectric constant tensor:
#      x y z
#    x 1.752000 0.000000 -0.016670 
#    y 0.000000 1.803910 0.000000 
#    z -0.016670 0.000000 1.820870 
# 
# From -- ./inp_files/14497.got.cif
#   From: 2010.06.25/outbox.cif.g09.slc.cpg/sg13_8_cif.got.tgz:14497.got - 2010.06.28 04:50:58.
