data_PCOD8122563
_publ_section_title
;
Structure prediction by ZEFSAII (Michael W. Deem and Ramdas Pophale) SiO2 
 PCOD8122563
Probable space group: P 2/C
;
_chemical_formula_sum "Si O2"
_cell_formula_units_Z 28
_cell_length_a 27.158054
_cell_length_b 10.076668
_cell_length_c 9.874475
_cell_angle_alpha 90.000000
_cell_angle_beta 143.537562
_cell_angle_gamma 90.000000
_cell_volume 1605.950575
_symmetry_space_group_name_H-M "P 2/C"
_symmetry_group_IT_number 13
_symmetry_cell_setting 'monoclinic'
loop_
_space_group_symop_operation_xyz
x,y,z
-x,y,1/2-z
-x,-y,-z
x,-y,1/2+z
loop_
_atom_site_type_symbol
_atom_site_label
_atom_site_fract_x
_atom_site_fract_y
_atom_site_fract_z
Si Si1 0.944738 0.024058 0.007653
Si Si2 0.496020 0.121847 0.893384
Si Si3 0.853631 0.240676 0.394014
Si Si4 0.940405 0.498776 0.494000
Si Si5 0.325798 0.863051 0.696472
Si Si6 0.839115 0.261600 0.676275
Si Si7 0.317089 0.118005 0.487716
O O1 0.872609 0.125193 0.811959
O O2 0.906134 0.888408 0.976091
O O3 0.000000 0.086222 0.250000
O O4 0.000000 0.000000 0.000000
O O5 0.500000 0.065944 0.750000
O O6 0.406088 0.192947 0.714680
O O7 0.581455 0.203456 0.110720
O O8 0.500000 0.000000 0.000000
O O9 0.890384 0.361361 0.389323
O O10 0.864585 0.275786 0.575931
O O11 0.757657 0.217392 0.139682
O O12 0.872430 0.614533 0.334301
O O13 0.000000 0.525501 0.750000
O O14 0.000000 0.500000 0.500000
O O15 0.260348 0.745311 0.524505
O O16 0.312106 0.982861 0.561637
O O17 0.310200 0.920153 0.813579
#
# Coordination Sequence:
#
# PCOD8122563 Si02
#       7
#     4   4   4   4   4   4   4
#     4  12  22  35  55  77 107 136 173 225 276 314
#     4   8  14  26  48  76 107 140 166 201 260 319
#     4  11  22  39  55  79 111 136 180 229 264 319
#     4  12  24  43  59  73 105 146 189 227 271 320
#     4   9  17  31  51  80 111 136 172 214 261 318
#     4  11  22  38  56  80 107 140 181 224 266 320
#     4   9  17  31  52  79 110 139 169 214 264 316
#
# _framework density 17.435157
#
# number of rings (size 3 to 8) (size 9 to 14) (size 15 to 20)
#    0.000    1.714    4.286    1.714    0.000    0.000 
#    2.571    0.000    0.000    0.857    0.000    0.000 
#    0.000    0.000    0.000    0.000    0.000    0.000 
#
# Total GULP energy -346939.950017 kJ/mol
# GULP energy per Si atom -12390.712501 kJ/mol
# Density = 1.739547 g / cm^3
# Si number density = 17.435157 Si / 1000 Ang^3
#
#
#
# Elastic Constant Matrix: (Units=GPa)
#
#
# Indices 1 2 3 4 5 6 
#
# 1 87.0393 22.6528 55.1723 0.0000 19.0410 0.0000
# 2 22.6528 72.1719 36.7579 0.0000 14.7441 0.0000
# 3 55.1723 36.7579 123.1414 0.0000 24.1736 0.0000
# 4 0.0000 0.0000 0.0000 23.5453 0.0000 1.7523
# 5 19.0410 14.7441 24.1736 0.0000 36.1031 0.0000
# 6 0.0000 0.0000 0.0000 1.7523 0.0000 21.5581
#
#
#
# Elastic Compliance Matrix: (Units=1/GPa)
#
#
# Indices 1 2 3 4 5 6 
#
# 1 0.016702 -0.001185 -0.006327 0.000000 -0.004089 0.000000
# 2 -0.001185 0.016921 -0.003784 0.000000 -0.003752 0.000000
# 3 -0.006327 -0.003784 0.012810 0.000000 -0.003695 0.000000
# 4 0.000000 0.000000 0.000000 0.042730 0.000000 -0.003473
# 5 -0.004089 -0.003752 -0.003695 0.000000 0.033862 0.000000
# 6 0.000000 0.000000 0.000000 -0.003473 0.000000 0.046668
#
#
# Mechanical properties :
#
#
# Convention : Reuss Voigt Hill
#
# Bulk Modulus (GPa) = 41.94062 56.83539 49.38800
# Shear Modulus (GPa) = 24.97097 27.42594 26.19845
#
# Velocity S-wave (km/s) = 3.78857 3.97044 3.88057
# Velocity P-wave (km/s) = 6.57610 7.32722 6.96180
#
# Compressibility (1/GPa) = 0.02384323
#
# Stress axis : x y z
#
# Youngs Moduli (GPa) = 59.87141 59.09732 78.06168
#
# Poissons Ratio (x) = 0.07001 0.49390
# Poissons Ratio (y) = 0.07093 0.29536
# Poissons Ratio (z) = 0.37881 0.22360
#
# Static dielectric constant tensor:
#      x y z
#    x 3.642010 0.000000 0.297820 
#    y 0.000000 2.919280 0.000000 
#    z 0.297820 0.000000 3.831340 
# 
# 
# High freq. dielectric constant tensor:
#      x y z
#    x 1.690340 0.000000 0.008960 
#    y 0.000000 1.621170 0.000000 
#    z 0.008960 0.000000 1.699910 
# 
# From -- ./inp_files/24596.got.cif
#   From: 2010.06.25/outbox.cif.g09.slc.cpg/sg13_13_cif.got.tgz:24596.got - 2010.06.28 04:50:58.
