data_PCOD8122468
_publ_section_title
;
Structure prediction by ZEFSAII (Michael W. Deem and Ramdas Pophale) SiO2 
 PCOD8122468
Probable space group: P 2/C
;
_chemical_formula_sum "Si O2"
_cell_formula_units_Z 24
_cell_length_a 11.507506
_cell_length_b 9.908934
_cell_length_c 12.317334
_cell_angle_alpha 90.000000
_cell_angle_beta 127.070472
_cell_angle_gamma 90.000000
_cell_volume 1120.651147
_symmetry_space_group_name_H-M "P 2/C"
_symmetry_group_IT_number 13
_symmetry_cell_setting 'monoclinic'
loop_
_space_group_symop_operation_xyz
x,y,z
-x,y,1/2-z
-x,-y,-z
x,-y,1/2+z
loop_
_atom_site_type_symbol
_atom_site_label
_atom_site_fract_x
_atom_site_fract_y
_atom_site_fract_z
Si Si1 0.854814 0.505923 0.982080
Si Si2 0.799338 0.853807 0.248774
Si Si3 0.769084 0.792015 0.472722
Si Si4 0.505669 0.279878 0.557769
Si Si5 0.403698 0.435586 0.294617
Si Si6 0.000000 0.070191 0.250000
Si Si7 0.000000 0.650677 0.250000
O O1 0.775256 0.366056 0.955430
O O2 0.878124 0.566635 0.115703
O O3 0.757097 0.590307 0.842862
O O4 0.000000 0.500000 0.000000
O O5 0.772455 0.874248 0.361808
O O6 0.914268 0.734177 0.292812
O O7 0.873556 0.985624 0.239256
O O8 0.642857 0.817561 0.106620
O O9 0.613334 0.811032 0.444579
O O10 0.912189 0.836125 0.618265
O O11 0.427895 0.333071 0.406232
O O12 0.565313 0.408136 0.658422
O O13 0.500000 0.387144 0.250000
#
# Coordination Sequence:
#
# PCOD8122468 Si02
#       7
#     4   4   4   4   4   2   2
#     4  12  23  37  65 102 139 171 210 267 341 409
#     4  11  23  47  65  89 132 180 223 278 334 379
#     4  12  24  43  67  97 131 175 223 276 336 391
#     4  11  23  39  68  95 134 172 217 271 339 401
#     4  11  21  38  60 104 137 170 206 263 338 419
#     4  11  29  44  68  92 127 181 244 282 310 389
#     4  11  23  38  64  98 137 177 212 262 336 407
#
# _framework density 21.416119999999999
#
# number of rings (size 3 to 8) (size 9 to 14) (size 15 to 20)
#    0.000    0.667    5.000    2.500    7.000    0.667 
#    0.000    1.667    0.000    0.000    0.000    0.000 
#    0.000    0.000    0.000    0.000    0.000    0.000 
#
# Total GULP energy -297521.556504 kJ/mol
# GULP energy per Si atom -12396.731521 kJ/mol
# Density = 2.136738 g / cm^3
# Si number density = 21.416120 Si / 1000 Ang^3
#
#
#
# Elastic Constant Matrix: (Units=GPa)
#
#
# Indices 1 2 3 4 5 6 
#
# 1 144.3659 20.2075 46.8487 0.0000 11.2284 0.0000
# 2 20.2075 33.7401 29.6741 0.0000 1.7807 0.0000
# 3 46.8487 29.6741 188.3014 0.0000 9.1000 0.0000
# 4 0.0000 0.0000 0.0000 24.3410 0.0000 9.7980
# 5 11.2284 1.7807 9.1000 0.0000 44.2969 0.0000
# 6 0.0000 0.0000 0.0000 9.7980 0.0000 18.0933
#
#
#
# Elastic Compliance Matrix: (Units=1/GPa)
#
#
# Indices 1 2 3 4 5 6 
#
# 1 0.007982 -0.003503 -0.001356 0.000000 -0.001604 0.000000
# 2 -0.003503 0.035948 -0.004814 0.000000 0.000432 0.000000
# 3 -0.001356 -0.004814 0.006445 0.000000 -0.000787 0.000000
# 4 0.000000 0.000000 0.000000 0.052535 0.000000 -0.028449
# 5 -0.001604 0.000432 -0.000787 0.000000 0.023126 0.000000
# 6 0.000000 0.000000 0.000000 -0.028449 0.000000 0.070675
#
#
# Mechanical properties :
#
#
# Convention : Reuss Voigt Hill
#
# Bulk Modulus (GPa) = 32.22984 62.20757 47.21871
# Shear Modulus (GPa) = 22.08487 35.32472 28.70479
#
# Velocity S-wave (km/s) = 3.21476 4.06574 3.66503
# Velocity P-wave (km/s) = 5.37229 7.15196 6.32503
#
# Compressibility (1/GPa) = 0.03102714
#
# Stress axis : x y z
#
# Youngs Moduli (GPa) = 125.28063 27.81826 155.16431
#
# Poissons Ratio (x) = 0.09745 0.21046
# Poissons Ratio (y) = 0.43886 0.74700
# Poissons Ratio (z) = 0.16993 0.13392
#
# Static dielectric constant tensor:
#      x y z
#    x 3.919660 0.000000 -0.116930 
#    y 0.000000 3.483960 0.000000 
#    z -0.116930 0.000000 3.919700 
# 
# 
# High freq. dielectric constant tensor:
#      x y z
#    x 1.862320 0.000000 0.005060 
#    y 0.000000 1.799480 0.000000 
#    z 0.005060 0.000000 1.860000 
# 
# From -- ./inp_files/33978.got.cif
#   From: 2010.06.25/outbox.cif.g09.slc.cpg/sg13_17_cif.got.tgz:33978.got - 2010.06.28 04:50:58.
