data_PCOD8122216
_publ_section_title
;
Structure prediction by ZEFSAII (Michael W. Deem and Ramdas Pophale) SiO2 
 PCOD8122216
Probable space group: P 2/C
;
_chemical_formula_sum "Si O2"
_cell_formula_units_Z 16
_cell_length_a 8.284986
_cell_length_b 5.076758
_cell_length_c 19.262896
_cell_angle_alpha 90.000000
_cell_angle_beta 46.176276
_cell_angle_gamma 90.000000
_cell_volume 584.548096
_symmetry_space_group_name_H-M "P 2/C"
_symmetry_group_IT_number 13
_symmetry_cell_setting 'monoclinic'
loop_
_space_group_symop_operation_xyz
x,y,z
-x,y,1/2-z
-x,-y,-z
x,-y,1/2+z
loop_
_atom_site_type_symbol
_atom_site_label
_atom_site_fract_x
_atom_site_fract_y
_atom_site_fract_z
Si Si1 0.927500 0.258293 0.583352
Si Si2 0.265135 0.735716 0.792159
Si Si3 0.765371 0.049276 0.341128
Si Si4 0.716109 0.865902 0.009884
O O1 0.920384 0.522885 0.630107
O O2 0.828800 0.322013 0.535061
O O3 0.784186 0.024679 0.661964
O O4 0.186478 0.160561 0.501775
O O5 0.500000 0.629926 0.750000
O O6 0.276901 0.733421 0.705222
O O7 0.794292 0.195144 0.407142
O O8 0.000000 0.902407 0.250000
O O9 0.553254 0.851887 0.406222
#
# Coordination Sequence:
#
# PCOD8122216 Si02
#       4
#     4   4   4   4
#     4  11  25  50  77 108 149 197 254 309 373 441
#     4  12  25  48  76 110 149 199 251 307 373 447
#     4  11  23  48  73 115 154 198 250 310 378 446
#     4  10  24  47  80 110 155 196 253 312 377 445
#
# _framework density 27.371569999999998
#
# number of rings (size 3 to 8) (size 9 to 14) (size 15 to 20)
#    0.000    1.000    5.000    0.750    0.000    4.000 
#    4.500    2.500    0.000    0.000    0.000    0.000 
#    0.000    0.000    0.000    0.000    0.000    0.000 
#
# Total GULP energy -198281.841911 kJ/mol
# GULP energy per Si atom -12392.615119 kJ/mol
# Density = 2.730927 g / cm^3
# Si number density = 27.371570 Si / 1000 Ang^3
#
#
#
# Elastic Constant Matrix: (Units=GPa)
#
#
# Indices 1 2 3 4 5 6 
#
# 1 192.8117 13.6625 78.0890 0.0000 27.3588 0.0000
# 2 13.6625 69.5090 26.5961 0.0000 28.4846 0.0000
# 3 78.0890 26.5961 189.4057 0.0000 12.5824 0.0000
# 4 0.0000 0.0000 0.0000 37.3395 0.0000 1.8671
# 5 27.3588 28.4846 12.5824 0.0000 81.2398 0.0000
# 6 0.0000 0.0000 0.0000 1.8671 0.0000 21.6347
#
#
#
# Elastic Compliance Matrix: (Units=1/GPa)
#
#
# Indices 1 2 3 4 5 6 
#
# 1 0.006488 0.000533 -0.002619 0.000000 -0.001966 0.000000
# 2 0.000533 0.017620 -0.002295 0.000000 -0.006002 0.000000
# 3 -0.002619 -0.002295 0.006638 0.000000 0.000659 0.000000
# 4 0.000000 0.000000 0.000000 0.026897 0.000000 -0.002321
# 5 -0.001966 -0.006002 0.000659 0.000000 0.014974 0.000000
# 6 0.000000 0.000000 0.000000 -0.002321 0.000000 0.046422
#
#
# Mechanical properties :
#
#
# Convention : Reuss Voigt Hill
#
# Bulk Modulus (GPa) = 45.49022 76.49129 60.99076
# Shear Modulus (GPa) = 37.00131 50.26806 43.63468
#
# Velocity S-wave (km/s) = 3.68069 4.29010 3.99703
# Velocity P-wave (km/s) = 5.89228 7.24887 6.60549
#
# Compressibility (1/GPa) = 0.02198275
#
# Stress axis : x y z
#
# Youngs Moduli (GPa) = 154.11982 56.75505 150.64654
#
# Poissons Ratio (x) = -0.03023 0.39458
# Poissons Ratio (y) = -0.08208 0.34573
# Poissons Ratio (z) = 0.40368 0.13025
#
# Static dielectric constant tensor:
#      x y z
#    x 5.653150 0.000000 0.087140 
#    y 0.000000 4.130760 0.000000 
#    z 0.087140 0.000000 5.527400 
# 
# 
# High freq. dielectric constant tensor:
#      x y z
#    x 2.131410 0.000000 0.005730 
#    y 0.000000 2.045310 0.000000 
#    z 0.005730 0.000000 2.134650 
# 
# From -- ./inp_files/74360.got.cif
#   From: 2010.06.25/outbox.cif.g09.slc.cpg/sg13_38_cif.got.tgz:74360.got - 2010.06.28 04:50:58.
