data_PCOD8122537
_publ_section_title
;
Structure prediction by ZEFSAII (Michael W. Deem and Ramdas Pophale) SiO2 
 PCOD8122537
Probable space group: P 2/C
;
_chemical_formula_sum "Si O2"
_cell_formula_units_Z 32
_cell_length_a 13.121664
_cell_length_b 12.092101
_cell_length_c 15.963502
_cell_angle_alpha 90.000000
_cell_angle_beta 145.479170
_cell_angle_gamma 90.000000
_cell_volume 1435.411815
_symmetry_space_group_name_H-M "P 2/C"
_symmetry_group_IT_number 13
_symmetry_cell_setting 'monoclinic'
loop_
_space_group_symop_operation_xyz
x,y,z
-x,y,1/2-z
-x,-y,-z
x,-y,1/2+z
loop_
_atom_site_type_symbol
_atom_site_label
_atom_site_fract_x
_atom_site_fract_y
_atom_site_fract_z
Si Si1 0.186583 0.664284 0.514386
Si Si2 0.246821 0.326401 0.244212
Si Si3 0.700078 0.435844 0.910859
Si Si4 0.382045 0.923004 0.090325
Si Si5 0.794883 0.863279 0.100346
Si Si6 0.197317 0.424356 0.702632
Si Si7 0.912981 0.760402 0.603723
Si Si8 0.554888 0.761279 0.071196
O O1 0.280660 0.684528 0.667930
O O2 0.288016 0.558310 0.540598
O O3 0.219280 0.768684 0.479004
O O4 0.975208 0.636094 0.375562
O O5 0.228037 0.453628 0.262116
O O6 0.404583 0.265721 0.400574
O O7 0.062398 0.261012 0.135618
O O8 0.500000 0.402228 0.750000
O O9 0.828142 0.437160 0.914826
O O10 0.780672 0.345210 0.028660
O O11 0.500000 0.953247 0.250000
O O12 0.481290 0.842232 0.092701
O O13 0.204094 0.863814 0.006274
O O14 0.330578 0.035390 0.009838
O O15 0.722964 0.819767 0.140173
O O16 0.000000 0.902557 0.250000
O O17 0.375508 0.352131 0.840124
O O18 0.000000 0.791354 0.750000
#
# Coordination Sequence:
#
# PCOD8122537 Si02
#       8
#     4   4   4   4   4   4   4   4
#     4  11  24  45  69 100 146 191 231 285 354 430
#     4  11  24  41  71 109 151 184 231 285 352 437
#     4  11  23  38  68 104 149 189 236 286 351 424
#     4  12  29  50  75 103 137 183 246 302 360 425
#     4  12  29  51  74 100 141 187 246 300 357 423
#     4  11  21  45  66 105 146 186 230 285 354 429
#     4  12  22  42  68 103 142 187 232 291 352 419
#     4  12  26  47  73 105 145 183 238 303 353 418
#
# _framework density 22.293256
#
# number of rings (size 3 to 8) (size 9 to 14) (size 15 to 20)
#    0.000    0.500    5.000    3.750    5.250    1.500 
#    0.000    1.250    0.000    0.000    0.000    0.000 
#    0.000    0.000    0.000    0.000    0.000    0.000 
#
# Total GULP energy -396967.715081 kJ/mol
# GULP energy per Si atom -12405.241096 kJ/mol
# Density = 2.224252 g / cm^3
# Si number density = 22.293256 Si / 1000 Ang^3
#
#
#
# Elastic Constant Matrix: (Units=GPa)
#
#
# Indices 1 2 3 4 5 6 
#
# 1 62.0343 28.7800 7.9013 0.0000 4.6083 0.0000
# 2 28.7800 94.3310 22.2898 0.0000 -3.7111 0.0000
# 3 7.9013 22.2898 104.4234 0.0000 -0.0832 0.0000
# 4 0.0000 0.0000 0.0000 42.9282 0.0000 -2.9428
# 5 4.6083 -3.7111 -0.0832 0.0000 32.4613 0.0000
# 6 0.0000 0.0000 0.0000 -2.9428 0.0000 21.6180
#
#
#
# Elastic Compliance Matrix: (Units=1/GPa)
#
#
# Indices 1 2 3 4 5 6 
#
# 1 0.019148 -0.005932 -0.000185 0.000000 -0.003397 0.000000
# 2 -0.005932 0.013054 -0.002336 0.000000 0.002329 0.000000
# 3 -0.000185 -0.002336 0.010089 0.000000 -0.000215 0.000000
# 4 0.000000 0.000000 0.000000 0.023514 0.000000 0.003201
# 5 -0.003397 0.002329 -0.000215 0.000000 0.031554 0.000000
# 6 0.000000 0.000000 0.000000 0.003201 0.000000 0.046693
#
#
# Mechanical properties :
#
#
# Convention : Reuss Voigt Hill
#
# Bulk Modulus (GPa) = 39.39312 42.08121 40.73717
# Shear Modulus (GPa) = 29.51241 32.85603 31.18422
#
# Velocity S-wave (km/s) = 3.64239 3.84319 3.74414
# Velocity P-wave (km/s) = 5.94963 6.21375 6.08312
#
# Compressibility (1/GPa) = 0.02538514
#
# Stress axis : x y z
#
# Youngs Moduli (GPa) = 52.22465 76.60316 99.11931
#
# Poissons Ratio (x) = 0.45440 0.01837
# Poissons Ratio (y) = 0.30979 0.23153
# Poissons Ratio (z) = 0.00968 0.17893
#
# Static dielectric constant tensor:
#      x y z
#    x 4.025600 0.000000 0.177880 
#    y 0.000000 4.057370 0.000000 
#    z 0.177880 0.000000 4.089700 
# 
# 
# High freq. dielectric constant tensor:
#      x y z
#    x 1.872600 0.000000 0.012000 
#    y 0.000000 1.877460 0.000000 
#    z 0.012000 0.000000 1.891900 
# 
# From -- ./inp_files/68698.got.cif
#   From: 2010.06.25/outbox.cif.g09.slc.cpg/sg13_35_cif.got.tgz:68698.got - 2010.06.28 04:50:58.
