data_PCOD8122680
_publ_section_title
;
Structure prediction by ZEFSAII (Michael W. Deem and Ramdas Pophale) SiO2 
 PCOD8122680
Probable space group: P 2/C
;
_chemical_formula_sum "Si O2"
_cell_formula_units_Z 28
_cell_length_a 19.562945
_cell_length_b 9.284982
_cell_length_c 9.792610
_cell_angle_alpha 90.000000
_cell_angle_beta 127.365834
_cell_angle_gamma 90.000000
_cell_volume 1413.705232
_symmetry_space_group_name_H-M "P 2/C"
_symmetry_group_IT_number 13
_symmetry_cell_setting 'monoclinic'
loop_
_space_group_symop_operation_xyz
x,y,z
-x,y,1/2-z
-x,-y,-z
x,-y,1/2+z
loop_
_atom_site_type_symbol
_atom_site_label
_atom_site_fract_x
_atom_site_fract_y
_atom_site_fract_z
Si Si1 0.789399 0.480988 0.963254
Si Si2 0.827503 0.005656 0.991878
Si Si3 0.910306 0.572989 0.355126
Si Si4 0.701083 0.231489 0.271732
Si Si5 0.692183 0.789885 0.447130
Si Si6 0.924127 0.098995 0.856420
Si Si7 0.560563 0.017847 0.200434
O O1 0.842403 0.439055 0.894256
O O2 0.726161 0.616531 0.867922
O O3 0.720323 0.356247 0.908164
O O4 0.861053 0.501663 0.167471
O O5 0.767695 0.095318 0.020895
O O6 0.851275 0.094885 0.885546
O O7 0.786914 0.860788 0.885259
O O8 0.905507 0.961715 0.183662
O O9 0.942385 0.733234 0.359921
O O10 0.000000 0.500000 0.500000
O O11 0.625874 0.151502 0.263694
O O12 0.672895 0.245604 0.080916
O O13 0.607637 0.863767 0.279452
O O14 0.000000 0.000000 0.000000
O O15 0.500000 0.061994 0.250000
O O16 0.500000 0.000000 0.000000
#
# Coordination Sequence:
#
# PCOD8122680 Si02
#       7
#     4   4   4   4   4   4   4
#     4  12  25  44  68  94 136 179 232 270 334 410
#     4  11  23  40  63  91 120 172 225 274 321 393
#     4  12  28  42  62  93 136 183 228 288 343 382
#     4  11  23  42  71  98 130 174 216 270 330 397
#     4  11  23  42  71  98 131 173 220 267 332 392
#     4  12  26  39  60  90 127 170 228 283 335 383
#     4  11  24  45  75 105 138 169 211 268 334 404
#
# _framework density 19.806108999999999
#
# number of rings (size 3 to 8) (size 9 to 14) (size 15 to 20)
#    0.000    0.571    7.143    0.857    4.000    3.429 
#    0.000    1.429    0.000    0.000    0.000    0.000 
#    0.000    0.000    0.000    0.000    0.000    0.000 
#
# Total GULP energy -347094.288533 kJ/mol
# GULP energy per Si atom -12396.224590 kJ/mol
# Density = 1.976103 g / cm^3
# Si number density = 19.806109 Si / 1000 Ang^3
#
#
#
# Elastic Constant Matrix: (Units=GPa)
#
#
# Indices 1 2 3 4 5 6 
#
# 1 79.1867 24.1391 19.5724 0.0000 0.1326 0.0000
# 2 24.1391 120.7198 37.6253 0.0000 12.9739 0.0000
# 3 19.5724 37.6253 123.7219 0.0000 7.0386 0.0000
# 4 0.0000 0.0000 0.0000 29.7442 0.0000 1.3185
# 5 0.1326 12.9739 7.0386 0.0000 36.0064 0.0000
# 6 0.0000 0.0000 0.0000 1.3185 0.0000 34.8827
#
#
#
# Elastic Compliance Matrix: (Units=1/GPa)
#
#
# Indices 1 2 3 4 5 6 
#
# 1 0.013729 -0.002395 -0.001507 0.000000 0.001107 0.000000
# 2 -0.002395 0.009853 -0.002443 0.000000 -0.003064 0.000000
# 3 -0.001507 -0.002443 0.009115 0.000000 -0.000896 0.000000
# 4 0.000000 0.000000 0.000000 0.033676 0.000000 -0.001273
# 5 0.001107 -0.003064 -0.000896 0.000000 0.029048 0.000000
# 6 0.000000 0.000000 0.000000 -0.001273 0.000000 0.028716
#
#
# Mechanical properties :
#
#
# Convention : Reuss Voigt Hill
#
# Bulk Modulus (GPa) = 49.97997 54.03355 52.00676
# Shear Modulus (GPa) = 34.84431 36.27946 35.56188
#
# Velocity S-wave (km/s) = 4.19892 4.28452 4.24193
# Velocity P-wave (km/s) = 6.98550 7.19837 7.09274
#
# Compressibility (1/GPa) = 0.02000802
#
# Stress axis : x y z
#
# Youngs Moduli (GPa) = 72.83920 101.48901 109.70913
#
# Poissons Ratio (x) = 0.24303 0.16529
# Poissons Ratio (y) = 0.17442 0.26806
# Poissons Ratio (z) = 0.10974 0.24798
#
# Static dielectric constant tensor:
#      x y z
#    x 3.988110 0.000000 -0.376040 
#    y 0.000000 3.762870 0.000000 
#    z -0.376040 0.000000 4.019230 
# 
# 
# High freq. dielectric constant tensor:
#      x y z
#    x 1.776960 0.000000 -0.011890 
#    y 0.000000 1.778390 0.000000 
#    z -0.011890 0.000000 1.783380 
# 
# From -- ./inp_files/23016.got.cif
#   From: 2010.06.25/outbox.cif.g09.slc.cpg/sg13_12_cif.got.tgz:23016.got - 2010.06.28 04:50:58.
