data_PCOD8122403
_publ_section_title
;
Structure prediction by ZEFSAII (Michael W. Deem and Ramdas Pophale) SiO2 
 PCOD8122403
Probable space group: P 2/C
;
_chemical_formula_sum "Si O2"
_cell_formula_units_Z 32
_cell_length_a 21.713874
_cell_length_b 11.084417
_cell_length_c 21.767355
_cell_angle_alpha 90.000000
_cell_angle_beta 19.114026
_cell_angle_gamma 90.000000
_cell_volume 1715.535777
_symmetry_space_group_name_H-M "P 2/C"
_symmetry_group_IT_number 13
_symmetry_cell_setting 'monoclinic'
loop_
_space_group_symop_operation_xyz
x,y,z
-x,y,1/2-z
-x,-y,-z
x,-y,1/2+z
loop_
_atom_site_type_symbol
_atom_site_label
_atom_site_fract_x
_atom_site_fract_y
_atom_site_fract_z
Si Si1 0.609032 0.403802 0.465995
Si Si2 0.066926 0.298739 0.423870
Si Si3 0.546168 0.758165 0.139464
Si Si4 0.311402 0.087940 0.612581
Si Si5 0.128307 0.058032 0.183026
Si Si6 0.276763 0.359067 0.689482
Si Si7 0.155506 0.149890 0.958739
Si Si8 0.257530 0.937427 0.783209
O O1 0.771202 0.362840 0.266481
O O2 0.622009 0.344945 0.521290
O O3 0.409464 0.370278 0.624450
O O4 0.644750 0.548247 0.436409
O O5 0.162192 0.192966 0.373718
O O6 0.943032 0.386347 0.585248
O O7 0.903311 0.249838 0.534308
O O8 0.500000 0.700593 0.250000
O O9 0.363964 0.821300 0.283865
O O10 0.700013 0.862313 0.004181
O O11 0.276462 0.225021 0.663284
O O12 0.530247 0.070286 0.394274
O O13 0.202604 0.054079 0.652877
O O14 0.242578 0.995250 0.729658
O O15 0.000000 0.001907 0.250000
O O16 0.995940 0.151115 0.344401
O O17 0.146336 0.018132 0.936566
#
# Coordination Sequence:
#
# PCOD8122403 Si02
#       8
#     4   4   4   4   4   4   4   4
#     4  11  23  39  58  90 120 156 204 251 291 350
#     4  12  20  35  59  91 123 156 191 236 308 365
#     4  12  23  39  60  85 120 155 201 251 295 347
#     4  11  20  36  58  87 126 154 190 241 296 366
#     4  12  24  38  60  87 120 158 198 241 299 360
#     4  11  23  38  60  87 125 159 194 249 306 342
#     4  12  21  34  57  90 124 150 184 243 302 363
#     4  11  20  32  59  92 121 156 184 237 311 361
#
# _framework density 18.653065000000002
#
# number of rings (size 3 to 8) (size 9 to 14) (size 15 to 20)
#    0.000    0.500    8.750    1.500    0.000    0.000 
#    0.000    0.000    0.000    4.500    0.000    0.000 
#    0.000    0.000    0.000    0.000    0.000    0.000 
#
# Total GULP energy -396728.945403 kJ/mol
# GULP energy per Si atom -12397.779544 kJ/mol
# Density = 1.861061 g / cm^3
# Si number density = 18.653065 Si / 1000 Ang^3
#
#
#
# Elastic Constant Matrix: (Units=GPa)
#
#
# Indices 1 2 3 4 5 6 
#
# 1 93.7430 30.6796 17.7867 0.0000 -6.5595 0.0000
# 2 30.6796 70.8226 19.7835 0.0000 5.4106 0.0000
# 3 17.7867 19.7835 100.1140 0.0000 -9.0872 0.0000
# 4 0.0000 0.0000 0.0000 25.9765 0.0000 5.6644
# 5 -6.5595 5.4106 -9.0872 0.0000 35.4629 0.0000
# 6 0.0000 0.0000 0.0000 5.6644 0.0000 19.1401
#
#
#
# Elastic Compliance Matrix: (Units=1/GPa)
#
#
# Indices 1 2 3 4 5 6 
#
# 1 0.012866 -0.005545 -0.000919 0.000000 0.002990 0.000000
# 2 -0.005545 0.017677 -0.002914 0.000000 -0.004469 0.000000
# 3 -0.000919 -0.002914 0.011009 0.000000 0.003096 0.000000
# 4 0.000000 0.000000 0.000000 0.041152 0.000000 -0.012179
# 5 0.002990 -0.004469 0.003096 0.000000 0.030227 0.000000
# 6 0.000000 0.000000 0.000000 -0.012179 0.000000 0.055851
#
#
# Mechanical properties :
#
#
# Convention : Reuss Voigt Hill
#
# Bulk Modulus (GPa) = 43.86601 44.57547 44.22074
# Shear Modulus (GPa) = 25.62330 29.21122 27.41726
#
# Velocity S-wave (km/s) = 3.71034 3.96160 3.83803
# Velocity P-wave (km/s) = 6.47482 6.69886 6.58779
#
# Compressibility (1/GPa) = 0.02279669
#
# Stress axis : x y z
#
# Youngs Moduli (GPa) = 77.72549 56.56987 90.83841
#
# Poissons Ratio (x) = 0.31369 0.08344
# Poissons Ratio (y) = 0.43100 0.26467
# Poissons Ratio (z) = 0.07140 0.16483
#
# Static dielectric constant tensor:
#      x y z
#    x 3.323390 0.000000 -0.053480 
#    y 0.000000 3.343460 0.000000 
#    z -0.053480 0.000000 3.823290 
# 
# 
# High freq. dielectric constant tensor:
#      x y z
#    x 1.698010 0.000000 -0.012190 
#    y 0.000000 1.706100 0.000000 
#    z -0.012190 0.000000 1.757920 
# 
# From -- ./inp_files/81814.got.cif
#   From: 2010.06.25/outbox.cif.g09.slc.cpg/sg13_41_cif.got.tgz:81814.got - 2010.06.28 04:50:58.
