data_PCOD8122144
_publ_section_title
;
Structure prediction by ZEFSAII (Michael W. Deem and Ramdas Pophale) SiO2 
 PCOD8122144
Probable space group: P 2/C
;
_chemical_formula_sum "Si O2"
_cell_formula_units_Z 18
_cell_length_a 17.737290
_cell_length_b 7.605548
_cell_length_c 12.515323
_cell_angle_alpha 90.000000
_cell_angle_beta 28.469773
_cell_angle_gamma 90.000000
_cell_volume 804.823217
_symmetry_space_group_name_H-M "P 2/C"
_symmetry_group_IT_number 13
_symmetry_cell_setting 'monoclinic'
loop_
_space_group_symop_operation_xyz
x,y,z
-x,y,1/2-z
-x,-y,-z
x,-y,1/2+z
loop_
_atom_site_type_symbol
_atom_site_label
_atom_site_fract_x
_atom_site_fract_y
_atom_site_fract_z
Si Si1 0.388391 0.754925 0.592496
Si Si2 0.847296 0.968637 0.761527
Si Si3 0.300166 0.572378 0.315390
Si Si4 0.657634 0.757416 0.615346
Si Si5 0.000000 0.253391 0.250000
O O1 0.294688 0.868876 0.622664
O O2 0.576467 0.736791 0.331922
O O3 0.331055 0.549405 0.671586
O O4 0.359590 0.845550 0.744572
O O5 0.888182 0.855662 0.812817
O O6 0.000000 0.000000 0.500000
O O7 0.795962 0.157477 0.871948
O O8 0.312917 0.451923 0.407092
O O9 0.120101 0.634833 0.527934
O O10 0.500000 0.797851 0.750000
#
# Coordination Sequence:
#
# PCOD8122144 Si02
#       5
#     4   4   4   4   2
#     4   9  23  45  74  98 134 179 239 272 349 403
#     4  12  28  43  69 103 146 178 222 284 354 412
#     4   9  24  46  71  99 133 180 234 288 328 419
#     4  10  24  44  73  96 134 180 231 283 337 408
#     4  12  28  40  72  98 142 178 230 278 352 402
#
# _framework density 22.365161000000001
#
# number of rings (size 3 to 8) (size 9 to 14) (size 15 to 20)
#    1.333    0.444    0.000    1.333   12.444    1.778 
#    0.000    0.000    0.000    0.000    0.000    0.000 
#    0.000    0.000    0.000    0.000    0.000    0.000 
#
# Total GULP energy -223049.073269 kJ/mol
# GULP energy per Si atom -12391.615182 kJ/mol
# Density = 2.231426 g / cm^3
# Si number density = 22.365161 Si / 1000 Ang^3
#
#
#
# Elastic Constant Matrix: (Units=GPa)
#
#
# Indices 1 2 3 4 5 6 
#
# 1 101.1905 18.2183 6.8994 0.0000 -3.1111 0.0000
# 2 18.2183 63.1948 37.8258 0.0000 0.9508 0.0000
# 3 6.8994 37.8258 148.0247 0.0000 -2.1264 0.0000
# 4 0.0000 0.0000 0.0000 32.4261 0.0000 20.6401
# 5 -3.1111 0.9508 -2.1264 0.0000 28.9894 0.0000
# 6 0.0000 0.0000 0.0000 20.6401 0.0000 27.3930
#
#
#
# Elastic Compliance Matrix: (Units=1/GPa)
#
#
# Indices 1 2 3 4 5 6 
#
# 1 0.010483 -0.003258 0.000362 0.000000 0.001258 0.000000
# 2 -0.003258 0.019721 -0.004907 0.000000 -0.001356 0.000000
# 3 0.000362 -0.004907 0.008004 0.000000 0.000787 0.000000
# 4 0.000000 0.000000 0.000000 0.059262 0.000000 -0.044653
# 5 0.001258 -0.001356 0.000787 0.000000 0.034733 0.000000
# 6 0.000000 0.000000 0.000000 -0.044653 0.000000 0.070151
#
#
# Mechanical properties :
#
#
# Convention : Reuss Voigt Hill
#
# Bulk Modulus (GPa) = 44.24365 48.69968 46.47167
# Shear Modulus (GPa) = 22.17362 34.39280 28.28321
#
# Velocity S-wave (km/s) = 3.15212 3.92571 3.55999
# Velocity P-wave (km/s) = 5.75093 6.50925 6.14181
#
# Compressibility (1/GPa) = 0.02260211
#
# Stress axis : x y z
#
# Youngs Moduli (GPa) = 95.39371 50.70786 124.93761
#
# Poissons Ratio (x) = 0.16519 -0.04522
# Poissons Ratio (y) = 0.31076 0.61307
# Poissons Ratio (z) = -0.03453 0.24883
#
# Static dielectric constant tensor:
#      x y z
#    x 3.791930 0.000000 0.029040 
#    y 0.000000 3.939260 0.000000 
#    z 0.029040 0.000000 4.105630 
# 
# 
# High freq. dielectric constant tensor:
#      x y z
#    x 1.870310 0.000000 0.000900 
#    y 0.000000 1.870080 0.000000 
#    z 0.000900 0.000000 1.891940 
# 
# From -- ./inp_files/57117.got.cif
#   From: 2010.06.25/outbox.cif.g09.slc.cpg/sg13_29_cif.got.tgz:57117.got - 2010.06.28 04:50:58.
