data_PCOD8122991
_publ_section_title
;
Structure prediction by ZEFSAII (Michael W. Deem and Ramdas Pophale) SiO2 
 PCOD8122991
Probable space group: P 2/C
;
_chemical_formula_sum "Si O2"
_cell_formula_units_Z 12
_cell_length_a 14.968142
_cell_length_b 4.891631
_cell_length_c 20.502172
_cell_angle_alpha 90.000000
_cell_angle_beta 19.401725
_cell_angle_gamma 90.000000
_cell_volume 498.663287
_symmetry_space_group_name_H-M "P 2/C"
_symmetry_group_IT_number 13
_symmetry_cell_setting 'monoclinic'
loop_
_space_group_symop_operation_xyz
x,y,z
-x,y,1/2-z
-x,-y,-z
x,-y,1/2+z
loop_
_atom_site_type_symbol
_atom_site_label
_atom_site_fract_x
_atom_site_fract_y
_atom_site_fract_z
Si Si1 0.490251 0.791874 0.067244
Si Si2 0.037282 0.486754 0.315526
Si Si3 0.326920 0.984969 0.930391
O O1 0.237207 0.587791 0.235773
O O2 0.471898 0.942222 0.149050
O O3 0.770603 0.618870 0.875850
O O4 0.500000 0.000000 0.000000
O O5 0.853013 0.241313 0.469181
O O6 0.859073 0.741244 0.415238
O O7 0.500000 0.882215 0.750000
#
# Coordination Sequence:
#
# PCOD8122991 Si02
#       3
#     4   4   4
#     4  11  26  45  75 103 136 187 240 282 343 413
#     4  11  26  46  72 102 139 186 234 285 341 422
#     4  12  28  46  71 106 146 182 227 292 355 407
#
# _framework density 24.064336000000001
#
# number of rings (size 3 to 8) (size 9 to 14) (size 15 to 20)
#    0.000    0.667    3.333    2.000   14.000    2.667 
#    0.000    0.000    0.000    0.000    0.000    0.000 
#    0.000    0.000    0.000    0.000    0.000    0.000 
#
# Total GULP energy -148847.750715 kJ/mol
# GULP energy per Si atom -12403.979226 kJ/mol
# Density = 2.400956 g / cm^3
# Si number density = 24.064336 Si / 1000 Ang^3
#
#
#
# Elastic Constant Matrix: (Units=GPa)
#
#
# Indices 1 2 3 4 5 6 
#
# 1 110.7873 23.5431 35.9867 0.0000 25.5189 0.0000
# 2 23.5431 137.8094 28.3380 0.0000 -0.3579 0.0000
# 3 35.9867 28.3380 64.9119 0.0000 -1.4382 0.0000
# 4 0.0000 0.0000 0.0000 52.2594 0.0000 -17.6996
# 5 25.5189 -0.3579 -1.4382 0.0000 26.5061 0.0000
# 6 0.0000 0.0000 0.0000 -17.6996 0.0000 39.8162
#
#
#
# Elastic Compliance Matrix: (Units=1/GPa)
#
#
# Indices 1 2 3 4 5 6 
#
# 1 0.015571 -0.000939 -0.008565 0.000000 -0.015469 0.000000
# 2 -0.000939 0.008029 -0.002966 0.000000 0.000852 0.000000
# 3 -0.008565 -0.002966 0.021657 0.000000 0.009381 0.000000
# 4 0.000000 0.000000 0.000000 0.022527 0.000000 0.010014
# 5 -0.015469 0.000852 0.009381 0.000000 0.053140 0.000000
# 6 0.000000 0.000000 0.000000 0.010014 0.000000 0.029567
#
#
# Mechanical properties :
#
#
# Convention : Reuss Voigt Hill
#
# Bulk Modulus (GPa) = 49.22073 54.36048 51.79061
# Shear Modulus (GPa) = 27.44194 38.75907 33.10050
#
# Velocity S-wave (km/s) = 3.38058 4.01764 3.71280
# Velocity P-wave (km/s) = 5.97796 6.64534 6.32046
#
# Compressibility (1/GPa) = 0.02031664
#
# Stress axis : x y z
#
# Youngs Moduli (GPa) = 64.22117 124.55072 46.17530
#
# Poissons Ratio (x) = 0.11696 0.39551
# Poissons Ratio (y) = 0.06031 0.13694
# Poissons Ratio (z) = 0.55008 0.36937
#
# Static dielectric constant tensor:
#      x y z
#    x 3.962300 0.000000 -0.470130 
#    y 0.000000 4.711120 0.000000 
#    z -0.470130 0.000000 4.345360 
# 
# 
# High freq. dielectric constant tensor:
#      x y z
#    x 1.945740 0.000000 -0.032100 
#    y 0.000000 1.976560 0.000000 
#    z -0.032100 0.000000 1.942590 
# 
# From -- ./inp_files/26945.got.cif
#   From: 2010.06.25/outbox.cif.g09.slc.cpg/sg13_14_cif.got.tgz:26945.got - 2010.06.28 04:50:58.
