data_PCOD8122794
_publ_section_title
;
Structure prediction by ZEFSAII (Michael W. Deem and Ramdas Pophale) SiO2 
 PCOD8122794
Probable space group: P 2/C
;
_chemical_formula_sum "Si O2"
_cell_formula_units_Z 20
_cell_length_a 18.774455
_cell_length_b 8.962633
_cell_length_c 13.068898
_cell_angle_alpha 90.000000
_cell_angle_beta 156.033123
_cell_angle_gamma 90.000000
_cell_volume 893.286712
_symmetry_space_group_name_H-M "P 2/C"
_symmetry_group_IT_number 13
_symmetry_cell_setting 'monoclinic'
loop_
_space_group_symop_operation_xyz
x,y,z
-x,y,1/2-z
-x,-y,-z
x,-y,1/2+z
loop_
_atom_site_type_symbol
_atom_site_label
_atom_site_fract_x
_atom_site_fract_y
_atom_site_fract_z
Si Si1 0.021244 0.830723 0.562069
Si Si2 0.871723 0.345666 0.677374
Si Si3 0.580363 0.888288 0.748982
Si Si4 0.289668 0.163814 0.702076
Si Si5 0.691913 0.347557 0.963188
O O1 0.969249 0.724605 0.401447
O O2 0.904689 0.811395 0.510346
O O3 0.219780 0.788340 0.855883
O O4 0.000000 0.000000 0.500000
O O5 0.697120 0.255887 0.421321
O O6 0.818348 0.511389 0.639675
O O7 0.000000 0.347777 0.750000
O O8 0.500000 0.950097 0.750000
O O9 0.421048 0.838108 0.469037
O O10 0.698304 0.013251 0.849216
O O11 0.331628 0.304451 0.686195
O O12 0.500000 0.386758 0.750000
#
# Coordination Sequence:
#
# PCOD8122794 Si02
#       5
#     4   4   4   4   4
#     4  12  26  48  76 107 144 188 242 299 356 427
#     4  12  26  47  73 103 148 191 241 294 365 425
#     4  11  23  45  73 112 141 189 241 298 355 427
#     4  11  25  44  75 104 149 184 243 296 358 423
#     4  12  29  47  72 106 146 192 241 295 362 429
#
# _framework density 22.389226000000001
#
# number of rings (size 3 to 8) (size 9 to 14) (size 15 to 20)
#    0.000    0.400    2.000    6.000    8.400    0.800 
#    0.000    0.000    0.000    0.000    0.000    0.000 
#    0.000    0.000    0.000    0.000    0.000    0.000 
#
# Total GULP energy -248137.596836 kJ/mol
# GULP energy per Si atom -12406.879842 kJ/mol
# Density = 2.233827 g / cm^3
# Si number density = 22.389226 Si / 1000 Ang^3
#
#
#
# Elastic Constant Matrix: (Units=GPa)
#
#
# Indices 1 2 3 4 5 6 
#
# 1 168.6719 51.7292 49.8504 0.0000 2.1812 0.0000
# 2 51.7292 78.3737 41.1268 0.0000 -9.0525 0.0000
# 3 49.8504 41.1268 83.2997 0.0000 -11.1727 0.0000
# 4 0.0000 0.0000 0.0000 42.9558 0.0000 4.6368
# 5 2.1812 -9.0525 -11.1727 0.0000 46.5313 0.0000
# 6 0.0000 0.0000 0.0000 4.6368 0.0000 30.8341
#
#
#
# Elastic Compliance Matrix: (Units=1/GPa)
#
#
# Indices 1 2 3 4 5 6 
#
# 1 0.008084 -0.003890 -0.003171 0.000000 -0.001897 0.000000
# 2 -0.003890 0.019176 -0.006835 0.000000 0.002272 0.000000
# 3 -0.003171 -0.006835 0.017688 0.000000 0.003066 0.000000
# 4 0.000000 0.000000 0.000000 0.023664 0.000000 -0.003559
# 5 -0.001897 0.002272 0.003066 0.000000 0.022758 0.000000
# 6 0.000000 0.000000 0.000000 -0.003559 0.000000 0.032967
#
#
# Mechanical properties :
#
#
# Convention : Reuss Voigt Hill
#
# Bulk Modulus (GPa) = 58.29114 68.41754 63.35434
# Shear Modulus (GPa) = 31.67600 36.57350 34.12475
#
# Velocity S-wave (km/s) = 3.76545 4.04608 3.90828
# Velocity P-wave (km/s) = 6.70796 7.24239 6.98029
#
# Compressibility (1/GPa) = 0.01715527
#
# Stress axis : x y z
#
# Youngs Moduli (GPa) = 123.70704 52.14805 56.53430
#
# Poissons Ratio (x) = 0.20288 0.17929
# Poissons Ratio (y) = 0.48128 0.38640
# Poissons Ratio (z) = 0.39231 0.35642
#
# Static dielectric constant tensor:
#      x y z
#    x 4.327170 0.000000 -0.011790 
#    y 0.000000 4.125490 0.000000 
#    z -0.011790 0.000000 4.145110 
# 
# 
# High freq. dielectric constant tensor:
#      x y z
#    x 1.902680 0.000000 -0.003720 
#    y 0.000000 1.885320 0.000000 
#    z -0.003720 0.000000 1.895440 
# 
# From -- ./inp_files/57396.got.cif
#   From: 2010.06.25/outbox.cif.g09.slc.cpg/sg13_29_cif.got.tgz:57396.got - 2010.06.28 04:50:58.
