data_PCOD8122844
_publ_section_title
;
Structure prediction by ZEFSAII (Michael W. Deem and Ramdas Pophale) SiO2 
 PCOD8122844
Probable space group: P 2/C
;
_chemical_formula_sum "Si O2"
_cell_formula_units_Z 24
_cell_length_a 20.017219
_cell_length_b 5.095884
_cell_length_c 11.819400
_cell_angle_alpha 90.000000
_cell_angle_beta 123.122486
_cell_angle_gamma 90.000000
_cell_volume 1009.731178
_symmetry_space_group_name_H-M "P 2/C"
_symmetry_group_IT_number 13
_symmetry_cell_setting 'monoclinic'
loop_
_space_group_symop_operation_xyz
x,y,z
-x,y,1/2-z
-x,-y,-z
x,-y,1/2+z
loop_
_atom_site_type_symbol
_atom_site_label
_atom_site_fract_x
_atom_site_fract_y
_atom_site_fract_z
Si Si1 0.574172 0.601370 0.997294
Si Si2 0.373889 0.114486 0.564509
Si Si3 0.790844 0.860870 0.716054
Si Si4 0.845997 0.517633 0.952557
Si Si5 0.296695 0.760454 0.209281
Si Si6 0.089749 0.029740 0.373223
O O1 0.580870 0.390797 0.902869
O O2 0.650837 0.609439 0.150067
O O3 0.568150 0.885602 0.930578
O O4 0.500000 0.500000 0.000000
O O5 0.296003 0.158073 0.417862
O O6 0.352198 0.066988 0.676373
O O7 0.827953 0.591303 0.803324
O O8 0.853690 0.952322 0.682559
O O9 0.775547 0.065919 0.804616
O O10 0.755360 0.449652 0.914037
O O11 0.902294 0.266727 0.028843
O O12 0.888624 0.757112 0.050433
O O13 0.000000 0.019437 0.250000
#
# Coordination Sequence:
#
# PCOD8122844 Si02
#       6
#     4   4   4   4   4   4
#     4  11  26  46  70 107 145 180 228 294 353 412
#     4  11  24  42  74  99 140 184 234 285 344 420
#     4  11  24  44  74 101 140 182 243 292 350 427
#     4  12  24  46  70 102 137 185 243 285 357 431
#     4  11  25  44  73 108 134 193 243 284 349 430
#     4  12  29  46  70 106 145 183 235 304 365 420
#
# _framework density 23.768704
#
# number of rings (size 3 to 8) (size 9 to 14) (size 15 to 20)
#    0.000    0.667    5.000    1.000    9.333    2.000 
#    0.000    1.667    0.000    0.000    0.000    0.000 
#    0.000    0.000    0.000    0.000    0.000    0.000 
#
# Total GULP energy -297315.207224 kJ/mol
# GULP energy per Si atom -12388.133634 kJ/mol
# Density = 2.371461 g / cm^3
# Si number density = 23.768704 Si / 1000 Ang^3
#
#
#
# Elastic Constant Matrix: (Units=GPa)
#
#
# Indices 1 2 3 4 5 6 
#
# 1 -10.7557 -17.7265 -32.8412 0.0000 22.2331 0.0000
# 2 -17.7265 115.6004 7.7276 0.0000 12.1533 0.0000
# 3 -32.8412 7.7276 24.7717 0.0000 8.5652 0.0000
# 4 0.0000 0.0000 0.0000 29.5947 0.0000 5.1523
# 5 22.2331 12.1533 8.5652 0.0000 28.1222 0.0000
# 6 0.0000 0.0000 0.0000 5.1523 0.0000 58.0843
#
#
#
# Elastic Compliance Matrix: (Units=1/GPa)
#
#
# Indices 1 2 3 4 5 6 
#
# 1 -0.009724 -0.001787 -0.017056 0.000000 0.013655 0.000000
# 2 -0.001787 0.008794 -0.004791 0.000000 -0.000929 0.000000
# 3 -0.017056 -0.004791 0.015505 0.000000 0.010832 0.000000
# 4 0.000000 0.000000 0.000000 0.034320 0.000000 -0.003044
# 5 0.013655 -0.000929 0.010832 0.000000 0.021866 0.000000
# 6 0.000000 0.000000 0.000000 -0.003044 0.000000 0.017486
#
#
# Mechanical properties :
#
#
# Convention : Reuss Voigt Hill
#
# Bulk Modulus (GPa) = -30.58875 4.88181 -12.85347
# Shear Modulus (GPa) = 40.12280 34.65734 37.39007
#
# Velocity S-wave (km/s) = 4.11305 3.82266 3.97051
# Velocity P-wave (km/s) = 3.10788 4.64133 3.94974
#
# Compressibility (1/GPa) = -0.03269175
#
# Stress axis : x y z
#
# Youngs Moduli (GPa) = -102.83400 113.70802 64.49405
#
# Poissons Ratio (x) = 0.20315 1.10002
# Poissons Ratio (y) = -0.18372 0.30898
# Poissons Ratio (z) = -1.75396 0.54475
#
# Static dielectric constant tensor:
#      x y z
#    x 3.230790 0.000000 0.548240 
#    y 0.000000 4.809980 0.000000 
#    z 0.548240 0.000000 4.216030 
# 
# 
# High freq. dielectric constant tensor:
#      x y z
#    x 1.926620 0.000000 0.007480 
#    y 0.000000 1.952120 0.000000 
#    z 0.007480 0.000000 1.953510 
# 
# From -- ./inp_files/38239.got.cif
#   From: 2010.06.25/outbox.cif.g09.slc.cpg/sg13_20_cif.got.tgz:38239.got - 2010.06.28 04:50:58.
