data_PCOD8122550
_publ_section_title
;
Structure prediction by ZEFSAII (Michael W. Deem and Ramdas Pophale) SiO2 
 PCOD8122550
Probable space group: P 2/C
;
_chemical_formula_sum "Si O2"
_cell_formula_units_Z 28
_cell_length_a 14.657213
_cell_length_b 12.122823
_cell_length_c 8.925706
_cell_angle_alpha 90.000000
_cell_angle_beta 113.019063
_cell_angle_gamma 90.000000
_cell_volume 1459.696144
_symmetry_space_group_name_H-M "P 2/C"
_symmetry_group_IT_number 13
_symmetry_cell_setting 'monoclinic'
loop_
_space_group_symop_operation_xyz
x,y,z
-x,y,1/2-z
-x,-y,-z
x,-y,1/2+z
loop_
_atom_site_type_symbol
_atom_site_label
_atom_site_fract_x
_atom_site_fract_y
_atom_site_fract_z
Si Si1 0.096703 0.132315 0.484385
Si Si2 0.401676 0.366708 0.119543
Si Si3 0.782590 0.273798 0.350941
Si Si4 0.071843 0.446102 0.929246
Si Si5 0.794186 0.345336 0.022388
Si Si6 0.599151 0.395855 0.737075
Si Si7 0.127371 0.065137 0.190339
O O1 0.126489 0.260872 0.500723
O O2 0.150215 0.070954 0.380352
O O3 0.979337 0.121418 0.404313
O O4 0.135810 0.063539 0.652529
O O5 0.500000 0.308181 0.250000
O O6 0.309008 0.289681 0.096335
O O7 0.388647 0.478742 0.204072
O O8 0.409751 0.388847 0.947798
O O9 0.878814 0.335452 0.477267
O O10 0.762226 0.317212 0.170257
O O11 0.798609 0.142166 0.356836
O O12 0.158444 0.532776 0.941621
O O13 0.000000 0.410093 0.750000
O O14 0.000000 0.500000 0.000000
O O15 0.697301 0.333816 0.856258
O O16 0.500000 0.344634 0.750000
#
# Coordination Sequence:
#
# PCOD8122550 Si02
#       7
#     4   4   4   4   4   4   4
#     4   9  19  36  57  78 111 149 191 232 276 322
#     4  11  22  37  57  81 112 146 187 232 278 335
#     4  11  22  38  56  82 114 150 188 229 283 330
#     4  12  24  36  51  78 117 153 187 220 274 335
#     4  11  22  37  58  80 115 152 185 231 283 333
#     4  11  22  37  57  82 111 146 188 229 280 336
#     4   9  19  37  55  80 110 149 191 234 272 327
#
# _framework density 19.182072000000002
#
# number of rings (size 3 to 8) (size 9 to 14) (size 15 to 20)
#    0.000    1.429    2.857    4.286    4.000    1.143 
#    5.143    0.000    0.000    0.857    0.000    6.000 
#    0.000    0.000    0.000    0.000    0.000    0.000 
#
# Total GULP energy -347104.314101 kJ/mol
# GULP energy per Si atom -12396.582646 kJ/mol
# Density = 1.913841 g / cm^3
# Si number density = 19.182072 Si / 1000 Ang^3
#
#
#
# Elastic Constant Matrix: (Units=GPa)
#
#
# Indices 1 2 3 4 5 6 
#
# 1 92.3266 2.7585 31.5115 0.0000 -4.8407 0.0000
# 2 2.7585 36.6788 7.0296 0.0000 -3.9325 0.0000
# 3 31.5115 7.0296 117.1025 0.0000 2.7012 0.0000
# 4 0.0000 0.0000 0.0000 21.3121 0.0000 -3.9775
# 5 -4.8407 -3.9325 2.7012 0.0000 34.0731 0.0000
# 6 0.0000 0.0000 0.0000 -3.9775 0.0000 22.1444
#
#
#
# Elastic Compliance Matrix: (Units=1/GPa)
#
#
# Indices 1 2 3 4 5 6 
#
# 1 0.012058 -0.000066 -0.003286 0.000000 0.001966 0.000000
# 2 -0.000066 0.027962 -0.001738 0.000000 0.003356 0.000000
# 3 -0.003286 -0.001738 0.009561 0.000000 -0.001425 0.000000
# 4 0.000000 0.000000 0.000000 0.048549 0.000000 0.008720
# 5 0.001966 0.003356 -0.001425 0.000000 0.030128 0.000000
# 6 0.000000 0.000000 0.000000 0.008720 0.000000 0.046724
#
#
# Mechanical properties :
#
#
# Convention : Reuss Voigt Hill
#
# Bulk Modulus (GPa) = 25.38104 36.52302 30.95203
# Shear Modulus (GPa) = 25.21484 29.15981 27.18732
#
# Velocity S-wave (km/s) = 3.62954 3.90315 3.76883
# Velocity P-wave (km/s) = 5.55203 6.27649 5.92534
#
# Compressibility (1/GPa) = 0.03939949
#
# Stress axis : x y z
#
# Youngs Moduli (GPa) = 82.93459 35.76341 104.59168
#
# Poissons Ratio (x) = 0.00237 0.34369
# Poissons Ratio (y) = 0.00550 0.18179
# Poissons Ratio (z) = 0.27252 0.06216
#
# Static dielectric constant tensor:
#      x y z
#    x 3.715660 0.000000 0.034950 
#    y 0.000000 3.459080 0.000000 
#    z 0.034950 0.000000 3.650830 
# 
# 
# High freq. dielectric constant tensor:
#      x y z
#    x 1.745870 0.000000 -0.008400 
#    y 0.000000 1.715230 0.000000 
#    z -0.008400 0.000000 1.755660 
# 
# From -- ./inp_files/18737.got.cif
#   From: 2010.06.25/outbox.cif.g09.slc.cpg/sg13_10_cif.got.tgz:18737.got - 2010.06.28 04:50:58.
