data_PCOD8122067
_publ_section_title
;
Structure prediction by ZEFSAII (Michael W. Deem and Ramdas Pophale) SiO2 
 PCOD8122067
Probable space group: P 2/C
;
_chemical_formula_sum "Si O2"
_cell_formula_units_Z 16
_cell_length_a 9.034804
_cell_length_b 4.742747
_cell_length_c 17.996384
_cell_angle_alpha 90.000000
_cell_angle_beta 51.435123
_cell_angle_gamma 90.000000
_cell_volume 602.957494
_symmetry_space_group_name_H-M "P 2/C"
_symmetry_group_IT_number 13
_symmetry_cell_setting 'monoclinic'
loop_
_space_group_symop_operation_xyz
x,y,z
-x,y,1/2-z
-x,-y,-z
x,-y,1/2+z
loop_
_atom_site_type_symbol
_atom_site_label
_atom_site_fract_x
_atom_site_fract_y
_atom_site_fract_z
Si Si1 0.687708 0.575146 0.584706
Si Si2 0.098126 0.283240 0.109882
Si Si3 0.721481 0.723947 0.796100
Si Si4 0.801483 0.073985 0.641601
O O1 0.791097 0.502484 0.475818
O O2 0.462472 0.524155 0.646813
O O3 0.723179 0.898181 0.595232
O O4 0.774349 0.398643 0.627126
O O5 0.235641 0.176159 0.132938
O O6 0.909508 0.437439 0.204484
O O7 0.023471 0.011702 0.085735
O O8 0.685383 0.997561 0.753785
#
# Coordination Sequence:
#
# PCOD8122067 Si02
#       4
#     4   4   4   4
#     4  12  22  44  71  99 136 183 229 288 348 411
#     4   9  21  45  67 103 139 182 231 287 348 415
#     4   9  22  42  69 101 142 177 232 285 347 413
#     4  10  24  42  67 100 137 179 232 285 344 411
#
# _framework density 26.535865999999999
#
# number of rings (size 3 to 8) (size 9 to 14) (size 15 to 20)
#    1.500    0.500    0.000    3.000    0.000    4.000 
#    0.000   15.000    0.000    0.000    0.000    0.000 
#    0.000    0.000    0.000    0.000    0.000    0.000 
#
# Total GULP energy -198234.475283 kJ/mol
# GULP energy per Si atom -12389.654705 kJ/mol
# Density = 2.647547 g / cm^3
# Si number density = 26.535866 Si / 1000 Ang^3
#
#
#
# Elastic Constant Matrix: (Units=GPa)
#
#
# Indices 1 2 3 4 5 6 
#
# 1 138.9748 13.9388 63.0765 0.0000 5.0208 0.0000
# 2 13.9388 36.0502 6.7058 0.0000 -8.4925 0.0000
# 3 63.0765 6.7058 117.2362 0.0000 -5.4892 0.0000
# 4 0.0000 0.0000 0.0000 21.9228 0.0000 -7.8179
# 5 5.0208 -8.4925 -5.4892 0.0000 43.0593 0.0000
# 6 0.0000 0.0000 0.0000 -7.8179 0.0000 16.1338
#
#
#
# Elastic Compliance Matrix: (Units=1/GPa)
#
#
# Indices 1 2 3 4 5 6 
#
# 1 0.010057 -0.003496 -0.005330 0.000000 -0.002542 0.000000
# 2 -0.003496 0.030537 0.000438 0.000000 0.006486 0.000000
# 3 -0.005330 0.000438 0.011474 0.000000 0.002171 0.000000
# 4 0.000000 0.000000 0.000000 0.055143 0.000000 0.026721
# 5 -0.002542 0.006486 0.002171 0.000000 0.025076 0.000000
# 6 0.000000 0.000000 0.000000 0.026721 0.000000 0.074930
#
#
# Mechanical properties :
#
#
# Convention : Reuss Voigt Hill
#
# Bulk Modulus (GPa) = 28.33471 51.07817 39.70644
# Shear Modulus (GPa) = 21.20819 30.12587 25.66703
#
# Velocity S-wave (km/s) = 2.83013 3.37306 3.11345
# Velocity P-wave (km/s) = 4.62391 5.87031 5.28399
#
# Compressibility (1/GPa) = 0.03529240
#
# Stress axis : x y z
#
# Youngs Moduli (GPa) = 99.43152 32.74682 87.15266
#
# Poissons Ratio (x) = 0.11448 0.46453
# Poissons Ratio (y) = 0.34760 -0.03816
# Poissons Ratio (z) = 0.52998 -0.01434
#
# Static dielectric constant tensor:
#      x y z
#    x 4.898090 0.000000 0.029270 
#    y 0.000000 3.892000 0.000000 
#    z 0.029270 0.000000 4.769430 
# 
# 
# High freq. dielectric constant tensor:
#      x y z
#    x 2.077050 0.000000 0.009050 
#    y 0.000000 2.015630 0.000000 
#    z 0.009050 0.000000 2.072170 
# 
# From -- ./inp_files/74137.got.cif
#   From: 2010.06.25/outbox.cif.g09.slc.cpg/sg13_38_cif.got.tgz:74137.got - 2010.06.28 04:50:58.
