data_PCOD8122106
_publ_section_title
;
Structure prediction by ZEFSAII (Michael W. Deem and Ramdas Pophale) SiO2 
 PCOD8122106
Probable space group: P 2/C
;
_chemical_formula_sum "Si O2"
_cell_formula_units_Z 26
_cell_length_a 14.711832
_cell_length_b 8.598225
_cell_length_c 15.467530
_cell_angle_alpha 90.000000
_cell_angle_beta 38.596235
_cell_angle_gamma 90.000000
_cell_volume 1220.566822
_symmetry_space_group_name_H-M "P 2/C"
_symmetry_group_IT_number 13
_symmetry_cell_setting 'monoclinic'
loop_
_space_group_symop_operation_xyz
x,y,z
-x,y,1/2-z
-x,-y,-z
x,-y,1/2+z
loop_
_atom_site_type_symbol
_atom_site_label
_atom_site_fract_x
_atom_site_fract_y
_atom_site_fract_z
Si Si1 0.378420 0.333716 0.090535
Si Si2 0.000000 0.636248 0.750000
Si Si3 0.768492 0.391579 0.867392
Si Si4 0.531109 0.147714 0.825064
Si Si5 0.074241 0.175699 0.348127
Si Si6 0.551806 0.793856 0.617634
Si Si7 0.853481 0.161919 0.662285
O O1 0.367317 0.518895 0.078724
O O2 0.218320 0.276424 0.234521
O O3 0.465927 0.302696 0.111256
O O4 0.444100 0.250991 0.957406
O O5 0.138822 0.524518 0.654978
O O6 0.969499 0.754600 0.851801
O O7 0.854945 0.302148 0.728735
O O8 0.717174 0.265253 0.977671
O O9 0.500000 0.206326 0.750000
O O10 0.703283 0.146643 0.719150
O O11 0.464542 0.976100 0.884844
O O12 0.990406 0.198773 0.500166
O O13 0.116835 0.995141 0.305745
O O14 0.500000 0.741403 0.750000
#
# Coordination Sequence:
#
# PCOD8122106 Si02
#       7
#     4   2   4   4   4   4   4
#     4  11  22  44  65  97 138 176 216 274 342 396
#     4  10  26  46  62 100 130 176 228 278 342 406
#     4  11  25  42  66  97 135 179 220 278 341 402
#     4  11  24  41  70 102 133 178 230 277 327 403
#     4  10  24  43  69  94 132 179 224 279 331 397
#     4  11  23  40  65  98 132 175 227 275 329 398
#     4  11  23  44  68  99 132 180 225 274 339 394
#
# _framework density 21.301577000000002
#
# number of rings (size 3 to 8) (size 9 to 14) (size 15 to 20)
#    0.000    1.231    3.077    1.846    4.308    6.154 
#    2.769    0.000    0.000    0.000    0.000    0.000 
#    0.000    0.000    0.000    0.000    0.000    0.000 
#
# Total GULP energy -322287.321198 kJ/mol
# GULP energy per Si atom -12395.666200 kJ/mol
# Density = 2.125309 g / cm^3
# Si number density = 21.301577 Si / 1000 Ang^3
#
#
#
# Elastic Constant Matrix: (Units=GPa)
#
#
# Indices 1 2 3 4 5 6 
#
# 1 97.7345 48.3680 41.7039 0.0000 19.7189 0.0000
# 2 48.3680 108.9061 57.6845 0.0000 16.7569 0.0000
# 3 41.7039 57.6845 128.5831 0.0000 14.0632 0.0000
# 4 0.0000 0.0000 0.0000 9.9567 0.0000 0.3177
# 5 19.7189 16.7569 14.0632 0.0000 29.4128 0.0000
# 6 0.0000 0.0000 0.0000 0.3177 0.0000 41.2011
#
#
#
# Elastic Compliance Matrix: (Units=1/GPa)
#
#
# Indices 1 2 3 4 5 6 
#
# 1 0.014556 -0.004412 -0.002057 0.000000 -0.006262 0.000000
# 2 -0.004412 0.013977 -0.004529 0.000000 -0.002840 0.000000
# 3 -0.002057 -0.004529 0.010597 0.000000 -0.001107 0.000000
# 4 0.000000 0.000000 0.000000 0.100459 0.000000 -0.000775
# 5 -0.006262 -0.002840 -0.001107 0.000000 0.040344 0.000000
# 6 0.000000 0.000000 0.000000 -0.000775 0.000000 0.024277
#
#
# Mechanical properties :
#
#
# Convention : Reuss Voigt Hill
#
# Bulk Modulus (GPa) = 58.35935 70.08187 64.22061
# Shear Modulus (GPa) = 21.55923 28.61195 25.08559
#
# Velocity S-wave (km/s) = 3.18480 3.66892 3.43540
# Velocity P-wave (km/s) = 6.40157 7.13577 6.77862
#
# Compressibility (1/GPa) = 0.01713522
#
# Stress axis : x y z
#
# Youngs Moduli (GPa) = 68.69877 71.54366 94.36484
#
# Poissons Ratio (x) = 0.31564 0.19411
# Poissons Ratio (y) = 0.30308 0.42738
# Poissons Ratio (z) = 0.14132 0.32402
#
# Static dielectric constant tensor:
#      x y z
#    x 4.438010 0.000000 -0.423410 
#    y 0.000000 4.054360 0.000000 
#    z -0.423410 0.000000 4.840690 
# 
# 
# High freq. dielectric constant tensor:
#      x y z
#    x 1.834580 0.000000 -0.003500 
#    y 0.000000 1.852140 0.000000 
#    z -0.003500 0.000000 1.848300 
# 
# From -- ./inp_files/53305.got.cif
#   From: 2010.06.25/outbox.cif.g09.slc.cpg/sg13_27_cif.got.tgz:53305.got - 2010.06.28 04:50:58.
