data_PCOD8122811
_publ_section_title
;
Structure prediction by ZEFSAII (Michael W. Deem and Ramdas Pophale) SiO2 
 PCOD8122811
Probable space group: P 2/C
;
_chemical_formula_sum "Si O2"
_cell_formula_units_Z 32
_cell_length_a 14.845988
_cell_length_b 9.327072
_cell_length_c 24.127372
_cell_angle_alpha 90.000000
_cell_angle_beta 153.052216
_cell_angle_gamma 90.000000
_cell_volume 1514.026794
_symmetry_space_group_name_H-M "P 2/C"
_symmetry_group_IT_number 13
_symmetry_cell_setting 'monoclinic'
loop_
_space_group_symop_operation_xyz
x,y,z
-x,y,1/2-z
-x,-y,-z
x,-y,1/2+z
loop_
_atom_site_type_symbol
_atom_site_label
_atom_site_fract_x
_atom_site_fract_y
_atom_site_fract_z
Si Si1 0.811711 0.593003 0.911481
Si Si2 0.018735 0.873834 0.052753
Si Si3 0.531344 0.782853 0.204330
Si Si4 0.891945 0.181855 0.243295
Si Si5 0.306512 0.926754 0.416007
Si Si6 0.194759 0.033652 0.472788
Si Si7 0.509185 0.639879 0.966029
Si Si8 0.458171 0.522491 0.637342
O O1 0.650609 0.581694 0.774635
O O2 0.733366 0.549165 0.929353
O O3 0.000000 0.500000 0.000000
O O4 0.881836 0.754673 0.950710
O O5 0.245787 0.829845 0.186072
O O6 0.929284 0.914860 0.062839
O O7 0.000000 0.000000 0.000000
O O8 0.500000 0.729425 0.250000
O O9 0.483056 0.647019 0.139039
O O10 0.380366 0.912286 0.110760
O O11 0.701768 0.277178 0.153667
O O12 0.000000 0.256277 0.250000
O O13 0.050009 0.170446 0.380195
O O14 0.859585 0.010191 0.211065
O O15 0.326072 0.753116 0.419450
O O16 0.500000 0.000000 0.500000
O O17 0.286357 0.959779 0.469459
O O18 0.570501 0.597526 0.937619
O O19 0.500000 0.500000 0.000000
#
# Coordination Sequence:
#
# PCOD8122811 Si02
#       8
#     4   4   4   4   4   4   4   4
#     4  11  23  47  66  98 141 186 226 269 348 413
#     4  12  26  40  69 104 136 174 232 284 335 406
#     4  12  24  45  66 104 139 182 227 284 341 406
#     4   9  22  45  68  95 131 182 227 279 342 403
#     4   9  21  44  69  93 133 175 226 280 338 399
#     4  11  25  42  73  98 136 180 231 281 341 402
#     4  11  25  42  68 108 135 175 229 287 340 409
#     4  11  25  42  74  96 144 186 225 278 346 413
#
# _framework density 21.135687999999998
#
# number of rings (size 3 to 8) (size 9 to 14) (size 15 to 20)
#    0.000    1.250    3.750    0.750   10.500    2.000 
#    0.000    1.875    0.000    0.000    0.000    0.000 
#    0.000    0.000    0.000    0.000    0.000    0.000 
#
# Total GULP energy -396660.144910 kJ/mol
# GULP energy per Si atom -12395.629528 kJ/mol
# Density = 2.108758 g / cm^3
# Si number density = 21.135688 Si / 1000 Ang^3
#
#
#
# Elastic Constant Matrix: (Units=GPa)
#
#
# Indices 1 2 3 4 5 6 
#
# 1 146.6358 53.2361 38.1284 0.0000 9.5342 0.0000
# 2 53.2361 134.8621 33.6014 0.0000 6.9491 0.0000
# 3 38.1284 33.6014 76.0139 0.0000 15.7346 0.0000
# 4 0.0000 0.0000 0.0000 26.3530 0.0000 1.3535
# 5 9.5342 6.9491 15.7346 0.0000 35.9527 0.0000
# 6 0.0000 0.0000 0.0000 1.3535 0.0000 33.0163
#
#
#
# Elastic Compliance Matrix: (Units=1/GPa)
#
#
# Indices 1 2 3 4 5 6 
#
# 1 0.008591 -0.002605 -0.003069 0.000000 -0.000432 0.000000
# 2 -0.002605 0.009122 -0.002753 0.000000 0.000133 0.000000
# 3 -0.003069 -0.002753 0.017191 0.000000 -0.006177 0.000000
# 4 0.000000 0.000000 0.000000 0.038026 0.000000 -0.001559
# 5 -0.000432 0.000133 -0.006177 0.000000 0.030607 0.000000
# 6 0.000000 0.000000 0.000000 -0.001559 0.000000 0.030352
#
#
# Mechanical properties :
#
#
# Convention : Reuss Voigt Hill
#
# Bulk Modulus (GPa) = 55.39901 67.49374 61.44637
# Shear Modulus (GPa) = 31.89604 34.56747 33.23176
#
# Velocity S-wave (km/s) = 3.88894 4.04852 3.96953
# Velocity P-wave (km/s) = 6.81419 7.33873 7.08132
#
# Compressibility (1/GPa) = 0.01805086
#
# Stress axis : x y z
#
# Youngs Moduli (GPa) = 116.39865 109.62143 58.17151
#
# Poissons Ratio (x) = 0.28551 0.17851
# Poissons Ratio (y) = 0.30316 0.16017
# Poissons Ratio (z) = 0.35718 0.30184
#
# Static dielectric constant tensor:
#      x y z
#    x 4.095120 0.000000 0.318100 
#    y 0.000000 4.027960 0.000000 
#    z 0.318100 0.000000 4.277650 
# 
# 
# High freq. dielectric constant tensor:
#      x y z
#    x 1.846430 0.000000 0.013750 
#    y 0.000000 1.828290 0.000000 
#    z 0.013750 0.000000 1.825390 
# 
# From -- ./inp_files/87459.got.cif
#   From: 2010.06.25/outbox.cif.g09.slc.cpg/sg13_44_cif.got.tgz:87459.got - 2010.06.28 04:50:58.
