data_PCOD8122717
_publ_section_title
;
Structure prediction by ZEFSAII (Michael W. Deem and Ramdas Pophale) SiO2 
 PCOD8122717
Probable space group: P 2/C
;
_chemical_formula_sum "Si O2"
_cell_formula_units_Z 20
_cell_length_a 18.676851
_cell_length_b 8.638892
_cell_length_c 13.176734
_cell_angle_alpha 90.000000
_cell_angle_beta 25.653330
_cell_angle_gamma 90.000000
_cell_volume 920.411669
_symmetry_space_group_name_H-M "P 2/C"
_symmetry_group_IT_number 13
_symmetry_cell_setting 'monoclinic'
loop_
_space_group_symop_operation_xyz
x,y,z
-x,y,1/2-z
-x,-y,-z
x,-y,1/2+z
loop_
_atom_site_type_symbol
_atom_site_label
_atom_site_fract_x
_atom_site_fract_y
_atom_site_fract_z
Si Si1 0.055437 0.185497 0.788370
Si Si2 0.348819 0.359137 0.515173
Si Si3 0.756215 0.312336 0.302347
Si Si4 0.446777 0.170584 0.587160
Si Si5 0.848777 0.840366 0.885540
O O1 0.228244 0.259283 0.599148
O O2 0.000000 0.249841 0.750000
O O3 0.083216 0.001021 0.749154
O O4 0.912244 0.235312 0.048365
O O5 0.246649 0.501400 0.694521
O O6 0.415762 0.256271 0.521263
O O7 0.500000 0.414587 0.250000
O O8 0.584507 0.260679 0.473814
O O9 0.766735 0.264668 0.405565
O O10 0.500000 0.000000 0.500000
O O11 0.283359 0.141033 0.858590
O O12 0.000000 0.754909 0.750000
#
# Coordination Sequence:
#
# PCOD8122717 Si02
#       5
#     4   4   4   4   4
#     4  11  24  44  67  94 129 173 221 273 328 392
#     4  12  25  43  66  98 135 175 218 271 332 396
#     4  12  25  43  66  97 133 173 218 273 333 394
#     4  12  24  42  67  96 131 175 221 273 327 390
#     4  11  23  42  66  95 127 170 223 274 325 392
#
# _framework density 21.729406000000001
#
# number of rings (size 3 to 8) (size 9 to 14) (size 15 to 20)
#    0.000    0.400    0.000   10.800    0.000    2.400 
#    0.000    0.000    0.000    0.000    0.000    0.000 
#    0.000    0.000    0.000    0.000    0.000    0.000 
#
# Total GULP energy -248021.252158 kJ/mol
# GULP energy per Si atom -12401.062608 kJ/mol
# Density = 2.167995 g / cm^3
# Si number density = 21.729406 Si / 1000 Ang^3
#
#
#
# Elastic Constant Matrix: (Units=GPa)
#
#
# Indices 1 2 3 4 5 6 
#
# 1 193.0109 55.3934 27.0660 0.0000 -15.0168 0.0000
# 2 55.3934 109.2310 17.0445 0.0000 4.4606 0.0000
# 3 27.0660 17.0445 129.5760 0.0000 5.2210 0.0000
# 4 0.0000 0.0000 0.0000 36.6076 0.0000 1.5091
# 5 -15.0168 4.4606 5.2210 0.0000 41.6411 0.0000
# 6 0.0000 0.0000 0.0000 1.5091 0.0000 55.1479
#
#
#
# Elastic Compliance Matrix: (Units=1/GPa)
#
#
# Indices 1 2 3 4 5 6 
#
# 1 0.006474 -0.003236 -0.001040 0.000000 0.002812 0.000000
# 2 -0.003236 0.010994 -0.000679 0.000000 -0.002259 0.000000
# 3 -0.001040 -0.000679 0.008077 0.000000 -0.001315 0.000000
# 4 0.000000 0.000000 0.000000 0.027348 0.000000 -0.000748
# 5 0.002812 -0.002259 -0.001315 0.000000 0.025436 0.000000
# 6 0.000000 0.000000 0.000000 -0.000748 0.000000 0.018154
#
#
# Mechanical properties :
#
#
# Convention : Reuss Voigt Hill
#
# Bulk Modulus (GPa) = 63.95755 70.09172 67.02464
# Shear Modulus (GPa) = 44.80119 48.83359 46.81739
#
# Velocity S-wave (km/s) = 4.54561 4.74577 4.64676
# Velocity P-wave (km/s) = 7.55298 7.89660 7.72671
#
# Compressibility (1/GPa) = 0.01563537
#
# Stress axis : x y z
#
# Youngs Moduli (GPa) = 154.45603 90.95774 123.80752
#
# Poissons Ratio (x) = 0.29432 0.12876
# Poissons Ratio (y) = 0.49979 0.08409
# Poissons Ratio (z) = 0.16064 0.06178
#
# Static dielectric constant tensor:
#      x y z
#    x 4.851560 0.000000 -0.129050 
#    y 0.000000 3.771220 0.000000 
#    z -0.129050 0.000000 4.021350 
# 
# 
# High freq. dielectric constant tensor:
#      x y z
#    x 1.882770 0.000000 -0.005280 
#    y 0.000000 1.853410 0.000000 
#    z -0.005280 0.000000 1.871440 
# 
# From -- ./inp_files/32427.got.cif
#   From: 2010.06.25/outbox.cif.g09.slc.cpg/sg13_17_cif.got.tgz:32427.got - 2010.06.28 04:50:58.
