data_PCOD8122618
_publ_section_title
;
Structure prediction by ZEFSAII (Michael W. Deem and Ramdas Pophale) SiO2 
 PCOD8122618
Probable space group: P 2/C
;
_chemical_formula_sum "Si O2"
_cell_formula_units_Z 26
_cell_length_a 15.040006
_cell_length_b 14.406441
_cell_length_c 9.208678
_cell_angle_alpha 90.000000
_cell_angle_beta 39.578742
_cell_angle_gamma 90.000000
_cell_volume 1271.263437
_symmetry_space_group_name_H-M "P 2/C"
_symmetry_group_IT_number 13
_symmetry_cell_setting 'monoclinic'
loop_
_space_group_symop_operation_xyz
x,y,z
-x,y,1/2-z
-x,-y,-z
x,-y,1/2+z
loop_
_atom_site_type_symbol
_atom_site_label
_atom_site_fract_x
_atom_site_fract_y
_atom_site_fract_z
Si Si1 0.092229 0.942557 0.994075
Si Si2 0.727133 0.778260 0.759917
Si Si3 0.155356 0.585414 0.891438
Si Si4 0.500000 0.160096 0.750000
Si Si5 0.835346 0.405239 0.781266
Si Si6 0.362255 0.936857 0.186224
Si Si7 0.655131 0.229769 0.024118
O O1 0.000000 0.917055 0.250000
O O2 0.149924 0.848539 0.844410
O O3 0.226124 0.002118 0.867730
O O4 0.000000 0.000000 0.000000
O O5 0.762147 0.675020 0.764219
O O6 0.720371 0.798801 0.596203
O O7 0.574746 0.787369 0.023763
O O8 0.221647 0.494640 0.733406
O O9 0.177478 0.573021 0.033760
O O10 0.997749 0.605815 0.038675
O O11 0.626259 0.104985 0.666713
O O12 0.748480 0.314033 0.841305
O O13 0.348109 0.859280 0.077790
O O14 0.500000 0.000000 0.000000
O O15 0.500000 0.267892 0.250000
#
# Coordination Sequence:
#
# PCOD8122618 Si02
#       7
#     4   4   4   2   4   4   4
#     4  12  26  42  65  99 130 169 217 279 327 381
#     4  11  24  41  65  94 130 168 218 265 327 388
#     4   9  20  40  64  94 122 169 204 263 327 388
#     4  12  24  42  62  92 126 176 218 264 316 388
#     4   9  20  39  66  91 126 162 213 256 328 395
#     4  12  26  43  67  91 135 177 223 265 330 398
#     4  11  22  42  65  94 122 175 218 263 322 390
#
# _framework density 20.452095
#
# number of rings (size 3 to 8) (size 9 to 14) (size 15 to 20)
#    0.000    1.231    3.077    1.846    9.692    1.231 
#    1.385    1.538    0.000    0.000    0.000    0.000 
#    0.000    0.000    0.000    0.000    0.000    0.000 
#
# Total GULP energy -322269.870272 kJ/mol
# GULP energy per Si atom -12394.995010 kJ/mol
# Density = 2.040555 g / cm^3
# Si number density = 20.452095 Si / 1000 Ang^3
#
#
#
# Elastic Constant Matrix: (Units=GPa)
#
#
# Indices 1 2 3 4 5 6 
#
# 1 73.9990 50.4093 18.7681 0.0000 -8.4153 0.0000
# 2 50.4093 154.0362 59.6351 0.0000 -4.2757 0.0000
# 3 18.7681 59.6351 104.0556 0.0000 -13.6423 0.0000
# 4 0.0000 0.0000 0.0000 33.3070 0.0000 -4.6363
# 5 -8.4153 -4.2757 -13.6423 0.0000 29.6093 0.0000
# 6 0.0000 0.0000 0.0000 -4.6363 0.0000 38.0810
#
#
#
# Elastic Compliance Matrix: (Units=1/GPa)
#
#
# Indices 1 2 3 4 5 6 
#
# 1 0.017965 -0.006080 0.000850 0.000000 0.004620 0.000000
# 2 -0.006080 0.010432 -0.005227 0.000000 -0.002630 0.000000
# 3 0.000850 -0.005227 0.013182 0.000000 0.005560 0.000000
# 4 0.000000 0.000000 0.000000 0.030541 0.000000 0.003718
# 5 0.004620 -0.002630 0.005560 0.000000 0.037268 0.000000
# 6 0.000000 0.000000 0.000000 0.003718 0.000000 0.026713
#
#
# Mechanical properties :
#
#
# Convention : Reuss Voigt Hill
#
# Bulk Modulus (GPa) = 48.39151 65.52398 56.95775
# Shear Modulus (GPa) = 30.50570 33.75137 32.12854
#
# Velocity S-wave (km/s) = 3.86627 4.06675 3.96778
# Velocity P-wave (km/s) = 6.60629 7.35925 6.99291
#
# Compressibility (1/GPa) = 0.02066478
#
# Stress axis : x y z
#
# Youngs Moduli (GPa) = 55.66280 95.85561 75.86348
#
# Poissons Ratio (x) = 0.58281 -0.06447
# Poissons Ratio (y) = 0.33843 0.39654
# Poissons Ratio (z) = -0.04730 0.50104
#
# Static dielectric constant tensor:
#      x y z
#    x 3.567580 0.000000 0.164240 
#    y 0.000000 3.911340 0.000000 
#    z 0.164240 0.000000 3.705660 
# 
# 
# High freq. dielectric constant tensor:
#      x y z
#    x 1.803080 0.000000 -0.005050 
#    y 0.000000 1.802300 0.000000 
#    z -0.005050 0.000000 1.799200 
# 
# From -- ./inp_files/19857.got.cif
#   From: 2010.06.25/outbox.cif.g09.slc.cpg/sg13_10_cif.got.tgz:19857.got - 2010.06.28 04:50:58.
