data_PCOD8122654
_publ_section_title
;
Structure prediction by ZEFSAII (Michael W. Deem and Ramdas Pophale) SiO2 
 PCOD8122654
Probable space group: P 2/C
;
_chemical_formula_sum "Si O2"
_cell_formula_units_Z 20
_cell_length_a 8.767352
_cell_length_b 7.938439
_cell_length_c 24.565923
_cell_angle_alpha 90.000000
_cell_angle_beta 149.566966
_cell_angle_gamma 90.000000
_cell_volume 866.049350
_symmetry_space_group_name_H-M "P 2/C"
_symmetry_group_IT_number 13
_symmetry_cell_setting 'monoclinic'
loop_
_space_group_symop_operation_xyz
x,y,z
-x,y,1/2-z
-x,-y,-z
x,-y,1/2+z
loop_
_atom_site_type_symbol
_atom_site_label
_atom_site_fract_x
_atom_site_fract_y
_atom_site_fract_z
Si Si1 0.301601 0.602852 0.095896
Si Si2 0.871067 0.766523 0.152190
Si Si3 0.184882 0.896518 0.146415
Si Si4 0.072529 0.590555 0.712766
Si Si5 0.231736 0.811118 0.969747
O O1 0.241738 0.741182 0.123736
O O2 0.586966 0.478721 0.192870
O O3 0.349541 0.686963 0.052477
O O4 0.000000 0.500000 0.000000
O O5 0.000000 0.822639 0.250000
O O6 0.114622 0.826076 0.184144
O O7 0.840307 0.564750 0.137182
O O8 0.551124 0.855330 0.039478
O O9 0.500000 0.996513 0.250000
O O10 0.924554 0.028043 0.049153
O O11 0.000000 0.672419 0.750000
O O12 0.000424 0.728788 0.644473
#
# Coordination Sequence:
#
# PCOD8122654 Si02
#       5
#     4   4   4   4   4
#     4  12  27  45  74 103 142 185 239 294 355 427
#     4  11  22  47  72 100 143 190 235 288 354 430
#     4  12  26  45  70 104 149 182 233 302 361 419
#     4  11  24  46  74 106 140 189 243 294 348 432
#     4  12  26  45  72 104 141 189 236 293 365 425
#
# _framework density 23.093374000000001
#
# number of rings (size 3 to 8) (size 9 to 14) (size 15 to 20)
#    0.000    0.400    6.000    3.000    5.600    0.800 
#    0.000    0.000    0.000    0.000    0.000    0.000 
#    0.000    0.000    0.000    0.000    0.000    0.000 
#
# Total GULP energy -247877.627005 kJ/mol
# GULP energy per Si atom -12393.881350 kJ/mol
# Density = 2.304081 g / cm^3
# Si number density = 23.093374 Si / 1000 Ang^3
#
#
#
# Elastic Constant Matrix: (Units=GPa)
#
#
# Indices 1 2 3 4 5 6 
#
# 1 141.8868 40.2810 66.5338 0.0000 10.5983 0.0000
# 2 40.2810 61.4257 53.2442 0.0000 8.9923 0.0000
# 3 66.5338 53.2442 139.8585 0.0000 24.2528 0.0000
# 4 0.0000 0.0000 0.0000 -17.0618 0.0000 46.7500
# 5 10.5983 8.9923 24.2528 0.0000 50.9496 0.0000
# 6 0.0000 0.0000 0.0000 46.7500 0.0000 -10.3018
#
#
#
# Elastic Compliance Matrix: (Units=1/GPa)
#
#
# Indices 1 2 3 4 5 6 
#
# 1 0.009543 -0.003466 -0.003251 0.000000 0.000174 0.000000
# 2 -0.003466 0.025558 -0.008092 0.000000 0.000062 0.000000
# 3 -0.003251 -0.008092 0.012439 0.000000 -0.003817 0.000000
# 4 0.000000 0.000000 0.000000 0.005126 0.000000 0.023261
# 5 0.000174 0.000062 -0.003817 0.000000 0.021397 0.000000
# 6 0.000000 0.000000 0.000000 0.023261 0.000000 0.008489
#
#
# Mechanical properties :
#
#
# Convention : Reuss Voigt Hill
#
# Bulk Modulus (GPa) = 55.79386 73.69879 64.74633
# Shear Modulus (GPa) = 42.32186 16.92465 29.62326
#
# Velocity S-wave (km/s) = 4.28558 2.71011 3.58545
# Velocity P-wave (km/s) = 6.97860 6.46341 6.72594
#
# Compressibility (1/GPa) = 0.01792312
#
# Stress axis : x y z
#
# Youngs Moduli (GPa) = 104.78787 39.12740 80.39345
#
# Poissons Ratio (x) = 0.13561 0.26132
# Poissons Ratio (y) = 0.36319 0.65052
# Poissons Ratio (z) = 0.34062 0.31661
#
# Static dielectric constant tensor:
#      x y z
#    x 4.276930 0.000000 0.342830 
#    y 0.000000 3.992380 0.000000 
#    z 0.342830 0.000000 4.520820 
# 
# 
# High freq. dielectric constant tensor:
#      x y z
#    x 1.941240 0.000000 0.014750 
#    y 0.000000 1.893020 0.000000 
#    z 0.014750 0.000000 1.919700 
# 
# From -- ./inp_files/28126.got.cif
#   From: 2010.06.25/outbox.cif.g09.slc.cpg/sg13_15_cif.got.tgz:28126.got - 2010.06.28 04:50:58.
