data_PCOD8122070
_publ_section_title
;
Structure prediction by ZEFSAII (Michael W. Deem and Ramdas Pophale) SiO2 
 PCOD8122070
Probable space group: P 2/C
;
_chemical_formula_sum "Si O2"
_cell_formula_units_Z 26
_cell_length_a 23.713611
_cell_length_b 5.361120
_cell_length_c 8.902284
_cell_angle_alpha 90.000000
_cell_angle_beta 93.036929
_cell_angle_gamma 90.000000
_cell_volume 1130.171394
_symmetry_space_group_name_H-M "P 2/C"
_symmetry_group_IT_number 13
_symmetry_cell_setting 'monoclinic'
loop_
_space_group_symop_operation_xyz
x,y,z
-x,y,1/2-z
-x,-y,-z
x,-y,1/2+z
loop_
_atom_site_type_symbol
_atom_site_label
_atom_site_fract_x
_atom_site_fract_y
_atom_site_fract_z
Si Si1 0.000000 0.993907 0.250000
Si Si2 0.050456 0.307815 0.506784
Si Si3 0.342551 0.197049 0.223177
Si Si4 0.605643 0.492913 0.029721
Si Si5 0.561544 0.181215 0.763510
Si Si6 0.177587 0.684107 0.010174
Si Si7 0.214635 0.811879 0.677886
O O1 0.955251 0.841085 0.340139
O O2 0.043117 0.145169 0.357889
O O3 0.113185 0.417879 0.510192
O O4 0.000000 0.500000 0.500000
O O5 0.342572 0.389826 0.361743
O O6 0.279537 0.097759 0.192246
O O7 0.386209 0.985889 0.280468
O O8 0.365783 0.304824 0.071788
O O9 0.558910 0.601389 0.137772
O O10 0.573381 0.281516 0.931808
O O11 0.500000 0.046780 0.750000
O O12 0.193077 0.745563 0.840965
O O13 0.211701 0.443501 0.078053
O O14 0.183304 0.943490 0.105409
#
# Coordination Sequence:
#
# PCOD8122070 Si02
#       7
#     2   4   4   4   4   4   4
#     4  10  24  42  70 104 146 186 234 294 364 434
#     4  11  25  43  74 103 147 187 242 295 370 432
#     4  11  25  43  71  95 138 182 236 292 360 425
#     4  10  24  42  67  97 138 178 235 284 369 421
#     4  11  24  42  68 101 138 180 235 294 361 432
#     4  12  29  49  78 110 151 197 253 307 371 444
#     4  12  29  49  77 109 153 197 255 309 371 444
#
# _framework density 23.005361000000001
#
# number of rings (size 3 to 8) (size 9 to 14) (size 15 to 20)
#    0.000    0.923    0.000    4.615   17.231    4.923 
#    0.000    0.000    0.000    0.000    0.000    0.000 
#    0.000    0.000    0.000    0.000    0.000    0.000 
#
# Total GULP energy -322279.135288 kJ/mol
# GULP energy per Si atom -12395.351357 kJ/mol
# Density = 2.295300 g / cm^3
# Si number density = 23.005361 Si / 1000 Ang^3
#
#
#
# Elastic Constant Matrix: (Units=GPa)
#
#
# Indices 1 2 3 4 5 6 
#
# 1 158.7888 29.3684 24.2668 0.0000 2.8136 0.0000
# 2 29.3684 104.5842 37.7280 0.0000 1.4265 0.0000
# 3 24.2668 37.7280 147.5656 0.0000 -3.2549 0.0000
# 4 0.0000 0.0000 0.0000 36.1713 0.0000 6.4579
# 5 2.8136 1.4265 -3.2549 0.0000 14.5726 0.0000
# 6 0.0000 0.0000 0.0000 6.4579 0.0000 36.4638
#
#
#
# Elastic Compliance Matrix: (Units=1/GPa)
#
#
# Indices 1 2 3 4 5 6 
#
# 1 0.006729 -0.001611 -0.000724 0.000000 -0.001303 0.000000
# 2 -0.001611 0.010958 -0.002566 0.000000 -0.001335 0.000000
# 3 -0.000724 -0.002566 0.007598 0.000000 0.002088 0.000000
# 4 0.000000 0.000000 0.000000 0.028549 0.000000 -0.005056
# 5 -0.001303 -0.001335 0.002088 0.000000 0.069471 0.000000
# 6 0.000000 0.000000 0.000000 -0.005056 0.000000 0.028320
#
#
# Mechanical properties :
#
#
# Convention : Reuss Voigt Hill
#
# Bulk Modulus (GPa) = 64.58313 65.96279 65.27296
# Shear Modulus (GPa) = 30.01438 38.74658 34.38048
#
# Velocity S-wave (km/s) = 3.61594 4.10840 3.87001
# Velocity P-wave (km/s) = 6.75036 7.15824 6.95729
#
# Compressibility (1/GPa) = 0.01548392
#
# Stress axis : x y z
#
# Youngs Moduli (GPa) = 148.60451 91.25788 131.61762
#
# Poissons Ratio (x) = 0.14701 0.09523
# Poissons Ratio (y) = 0.23938 0.33775
# Poissons Ratio (z) = 0.10752 0.23418
#
# Static dielectric constant tensor:
#      x y z
#    x 4.021800 0.000000 0.082990 
#    y 0.000000 8.259460 0.000000 
#    z 0.082990 0.000000 4.424130 
# 
# 
# High freq. dielectric constant tensor:
#      x y z
#    x 1.908760 0.000000 0.001770 
#    y 0.000000 1.904240 0.000000 
#    z 0.001770 0.000000 1.938270 
# 
# From -- ./inp_files/23749.got.cif
#   From: 2010.06.25/outbox.cif.g09.slc.cpg/sg13_12_cif.got.tgz:23749.got - 2010.06.28 04:50:58.
