data_PCOD8122958
_publ_section_title
;
Structure prediction by ZEFSAII (Michael W. Deem and Ramdas Pophale) SiO2 
 PCOD8122958
Probable space group: P 2/C
;
_chemical_formula_sum "Si O2"
_cell_formula_units_Z 20
_cell_length_a 8.262837
_cell_length_b 12.143594
_cell_length_c 17.133007
_cell_angle_alpha 90.000000
_cell_angle_beta 148.776636
_cell_angle_gamma 90.000000
_cell_volume 891.157993
_symmetry_space_group_name_H-M "P 2/C"
_symmetry_group_IT_number 13
_symmetry_cell_setting 'monoclinic'
loop_
_space_group_symop_operation_xyz
x,y,z
-x,y,1/2-z
-x,-y,-z
x,-y,1/2+z
loop_
_atom_site_type_symbol
_atom_site_label
_atom_site_fract_x
_atom_site_fract_y
_atom_site_fract_z
Si Si1 0.684014 0.814998 0.013477
Si Si2 0.402879 0.628338 0.796927
Si Si3 0.686019 0.554066 0.502390
Si Si4 0.336284 0.993811 0.108499
Si Si5 0.622865 0.218400 0.664727
O O1 0.617874 0.831837 0.076571
O O2 0.041137 0.773389 0.154478
O O3 0.448838 0.729110 0.875884
O O4 0.618180 0.934302 0.949997
O O5 0.500000 0.666814 0.750000
O O6 0.050499 0.582686 0.666248
O O7 0.655539 0.534586 0.921155
O O8 0.500000 0.500000 0.500000
O O9 0.517331 0.660783 0.398506
O O10 0.500000 0.048995 0.250000
O O11 0.419923 0.865911 0.131257
O O12 0.000000 0.000000 0.000000
#
# Coordination Sequence:
#
# PCOD8122958 Si02
#       5
#     4   4   4   4   4
#     4  11  25  47  72 105 146 194 249 301 366 450
#     4  12  27  46  74 108 147 194 249 314 377 443
#     4  12  26  47  74 108 149 194 247 307 373 448
#     4  12  26  48  73 107 151 191 242 309 375 440
#     4  11  26  46  75 103 145 197 245 299 371 447
#
# _framework density 22.442709000000001
#
# number of rings (size 3 to 8) (size 9 to 14) (size 15 to 20)
#    0.000    0.400    4.000    3.600    8.400    0.800 
#    0.000    0.000    0.000    0.000    0.000    0.000 
#    0.000    0.000    0.000    0.000    0.000    0.000 
#
# Total GULP energy -247838.656946 kJ/mol
# GULP energy per Si atom -12391.932847 kJ/mol
# Density = 2.239163 g / cm^3
# Si number density = 22.442709 Si / 1000 Ang^3
#
#
#
# Elastic Constant Matrix: (Units=GPa)
#
#
# Indices 1 2 3 4 5 6 
#
# 1 89.4004 17.7555 41.6131 0.0000 7.3229 0.0000
# 2 17.7555 109.6990 30.3521 0.0000 -4.2618 0.0000
# 3 41.6131 30.3521 130.5510 0.0000 4.1922 0.0000
# 4 0.0000 0.0000 0.0000 40.5456 0.0000 -4.8650
# 5 7.3229 -4.2618 4.1922 0.0000 42.4486 0.0000
# 6 0.0000 0.0000 0.0000 -4.8650 0.0000 25.7404
#
#
#
# Elastic Compliance Matrix: (Units=1/GPa)
#
#
# Indices 1 2 3 4 5 6 
#
# 1 0.013418 -0.001161 -0.003942 0.000000 -0.002042 0.000000
# 2 -0.001161 0.009905 -0.001978 0.000000 0.001390 0.000000
# 3 -0.003942 -0.001978 0.009390 0.000000 -0.000446 0.000000
# 4 0.000000 0.000000 0.000000 0.025236 0.000000 0.004770
# 5 -0.002042 0.001390 -0.000446 0.000000 0.024094 0.000000
# 6 0.000000 0.000000 0.000000 0.004770 0.000000 0.039751
#
#
# Mechanical properties :
#
#
# Convention : Reuss Voigt Hill
#
# Bulk Modulus (GPa) = 53.89707 56.56576 55.23141
# Shear Modulus (GPa) = 35.17713 37.74223 36.45968
#
# Velocity S-wave (km/s) = 3.96336 4.10532 4.03496
# Velocity P-wave (km/s) = 6.70909 6.90875 6.80965
#
# Compressibility (1/GPa) = 0.01855388
#
# Stress axis : x y z
#
# Youngs Moduli (GPa) = 74.52619 100.96076 106.49272
#
# Poissons Ratio (x) = 0.11717 0.41975
# Poissons Ratio (y) = 0.08649 0.21059
# Poissons Ratio (z) = 0.29375 0.19965
#
# Static dielectric constant tensor:
#      x y z
#    x 3.999970 0.000000 -0.107890 
#    y 0.000000 2.464280 0.000000 
#    z -0.107890 0.000000 4.403210 
# 
# 
# High freq. dielectric constant tensor:
#      x y z
#    x 1.883930 0.000000 -0.010710 
#    y 0.000000 1.892830 0.000000 
#    z -0.010710 0.000000 1.906580 
# 
# From -- ./inp_files/11654.got.cif
#   From: 2010.06.25/outbox.cif.g09.slc.cpg/sg13_6_cif.got.tgz:11654.got - 2010.06.28 04:50:58.
