data_PCOD8122399
_publ_section_title
;
Structure prediction by ZEFSAII (Michael W. Deem and Ramdas Pophale) SiO2 
 PCOD8122399
Probable space group: P 2/C
;
_chemical_formula_sum "Si O2"
_cell_formula_units_Z 24
_cell_length_a 12.202474
_cell_length_b 11.434770
_cell_length_c 17.001619
_cell_angle_alpha 90.000000
_cell_angle_beta 151.042171
_cell_angle_gamma 90.000000
_cell_volume 1148.575815
_symmetry_space_group_name_H-M "P 2/C"
_symmetry_group_IT_number 13
_symmetry_cell_setting 'monoclinic'
loop_
_space_group_symop_operation_xyz
x,y,z
-x,y,1/2-z
-x,-y,-z
x,-y,1/2+z
loop_
_atom_site_type_symbol
_atom_site_label
_atom_site_fract_x
_atom_site_fract_y
_atom_site_fract_z
Si Si1 0.754842 0.274440 0.427780
Si Si2 0.523032 0.730181 0.009104
Si Si3 0.768653 0.086833 0.558186
Si Si4 0.057223 0.558984 0.202793
Si Si5 0.785748 0.177138 0.059761
Si Si6 0.920351 0.326428 0.364243
O O1 0.500000 0.312691 0.250000
O O2 0.771659 0.144192 0.473198
O O3 0.909050 0.289833 0.447946
O O4 0.852172 0.351676 0.559891
O O5 0.597734 0.847689 0.010139
O O6 0.708842 0.630338 0.141862
O O7 0.428683 0.758784 0.036433
O O8 0.319398 0.684456 0.828563
O O9 0.000000 0.092161 0.750000
O O10 0.700452 0.955079 0.492444
O O11 0.037061 0.464866 0.120141
O O12 0.000000 0.495702 0.250000
O O13 0.000000 0.173988 0.250000
O O14 0.871593 0.246971 0.036727
#
# Coordination Sequence:
#
# PCOD8122399 Si02
#       6
#     4   4   4   4   4   4
#     4  12  23  41  62  90 125 165 205 251 313 366
#     4  11  19  40  66  94 119 162 210 254 300 367
#     4  11  20  41  66  89 118 164 214 252 301 370
#     4  12  22  41  66  92 123 166 210 251 300 372
#     4   9  22  38  62  93 125 160 205 261 301 357
#     4  11  24  40  60  96 129 158 202 256 315 360
#
# _framework density 20.895441000000002
#
# number of rings (size 3 to 8) (size 9 to 14) (size 15 to 20)
#    0.000    1.000    5.000    3.000    0.000    2.000 
#    0.000    2.500    0.000    0.000    0.000    0.000 
#    0.000    0.000    0.000    0.000    0.000    0.000 
#
# Total GULP energy -297433.371304 kJ/mol
# GULP energy per Si atom -12393.057138 kJ/mol
# Density = 2.084788 g / cm^3
# Si number density = 20.895441 Si / 1000 Ang^3
#
#
#
# Elastic Constant Matrix: (Units=GPa)
#
#
# Indices 1 2 3 4 5 6 
#
# 1 151.5151 46.0800 15.7004 0.0000 0.4754 0.0000
# 2 46.0800 95.5488 15.7851 0.0000 15.0708 0.0000
# 3 15.7004 15.7851 56.7040 0.0000 4.7930 0.0000
# 4 0.0000 0.0000 0.0000 13.5487 0.0000 -1.3973
# 5 0.4754 15.0708 4.7930 0.0000 27.2117 0.0000
# 6 0.0000 0.0000 0.0000 -1.3973 0.0000 27.2678
#
#
#
# Elastic Compliance Matrix: (Units=1/GPa)
#
#
# Indices 1 2 3 4 5 6 
#
# 1 0.007935 -0.003976 -0.001284 0.000000 0.002289 0.000000
# 2 -0.003976 0.013880 -0.002151 0.000000 -0.007239 0.000000
# 3 -0.001284 -0.002151 0.018767 0.000000 -0.002092 0.000000
# 4 0.000000 0.000000 0.000000 0.074200 0.000000 0.003802
# 5 0.002289 -0.007239 -0.002092 0.000000 0.041087 0.000000
# 6 0.000000 0.000000 0.000000 0.003802 0.000000 0.036868
#
#
# Mechanical properties :
#
#
# Convention : Reuss Voigt Hill
#
# Bulk Modulus (GPa) = 38.81949 50.98877 44.90413
# Shear Modulus (GPa) = 23.13256 28.68579 25.90917
#
# Velocity S-wave (km/s) = 3.33086 3.70919 3.52510
# Velocity P-wave (km/s) = 5.78024 6.54209 6.17293
#
# Compressibility (1/GPa) = 0.02576025
#
# Stress axis : x y z
#
# Youngs Moduli (GPa) = 126.02381 72.04361 53.28628
#
# Poissons Ratio (x) = 0.28643 0.06841
# Poissons Ratio (y) = 0.50105 0.11463
# Poissons Ratio (z) = 0.16179 0.15498
#
# Static dielectric constant tensor:
#      x y z
#    x 3.743520 0.000000 0.100850 
#    y 0.000000 4.008050 0.000000 
#    z 0.100850 0.000000 3.622610 
# 
# 
# High freq. dielectric constant tensor:
#      x y z
#    x 1.826280 0.000000 0.008970 
#    y 0.000000 1.824040 0.000000 
#    z 0.008970 0.000000 1.806700 
# 
# From -- ./inp_files/29347.got.cif
#   From: 2010.06.25/outbox.cif.g09.slc.cpg/sg13_15_cif.got.tgz:29347.got - 2010.06.28 04:50:58.
