data_PCOD8122102
_publ_section_title
;
Structure prediction by ZEFSAII (Michael W. Deem and Ramdas Pophale) SiO2 
 PCOD8122102
Probable space group: P 2/C
;
_chemical_formula_sum "Si O2"
_cell_formula_units_Z 28
_cell_length_a 6.082082
_cell_length_b 14.584759
_cell_length_c 16.946209
_cell_angle_alpha 90.000000
_cell_angle_beta 58.481263
_cell_angle_gamma 90.000000
_cell_volume 1281.453374
_symmetry_space_group_name_H-M "P 2/C"
_symmetry_group_IT_number 13
_symmetry_cell_setting 'monoclinic'
loop_
_space_group_symop_operation_xyz
x,y,z
-x,y,1/2-z
-x,-y,-z
x,-y,1/2+z
loop_
_atom_site_type_symbol
_atom_site_label
_atom_site_fract_x
_atom_site_fract_y
_atom_site_fract_z
Si Si1 0.974568 0.042005 0.091325
Si Si2 0.712743 0.497995 0.342813
Si Si3 0.258906 0.897657 0.140032
Si Si4 0.500000 0.386767 0.750000
Si Si5 0.731396 0.200909 0.509561
Si Si6 0.570776 0.362909 0.001673
Si Si7 0.950353 0.255510 0.624311
Si Si8 0.500000 0.966040 0.250000
O O1 0.037566 0.151617 0.081389
O O2 0.675893 0.033964 0.166917
O O3 0.143390 0.990425 0.125975
O O4 0.000000 0.000000 0.000000
O O5 0.514117 0.547391 0.322168
O O6 0.572068 0.402464 0.393658
O O7 0.708483 0.559333 0.422299
O O8 0.000000 0.484197 0.250000
O O9 0.062320 0.811519 0.169894
O O10 0.325946 0.906608 0.221021
O O11 0.502812 0.872316 0.040844
O O12 0.763521 0.328561 0.701538
O O13 0.655744 0.303590 0.498115
O O14 0.782601 0.198512 0.593702
O O15 0.818006 0.299305 0.972797
#
# Coordination Sequence:
#
# PCOD8122102 Si02
#       8
#     4   4   4   2   4   4   4   2
#     4  12  24  44  67  98 137 186 231 282 339 400
#     4  11  23  45  68 100 133 173 223 275 349 414
#     4  11  24  44  65  99 141 179 227 282 338 406
#     4  12  24  39  68 105 134 174 222 295 348 415
#     4  11  23  43  68  97 135 180 226 282 341 401
#     4  10  24  43  68  95 138 176 218 281 338 417
#     4  11  23  41  65 105 137 171 226 285 350 400
#     4  12  26  41  66 101 132 194 228 279 342 395
#
# _framework density 21.850190000000001
#
# number of rings (size 3 to 8) (size 9 to 14) (size 15 to 20)
#    0.000    0.857    5.714    0.857    0.000    5.143 
#    2.571    2.857    0.000    0.857    0.000    0.000 
#    0.000    0.000    0.000    0.000    0.000    0.000 
#
# Total GULP energy -346927.370691 kJ/mol
# GULP energy per Si atom -12390.263239 kJ/mol
# Density = 2.180046 g / cm^3
# Si number density = 21.850190 Si / 1000 Ang^3
#
#
#
# Elastic Constant Matrix: (Units=GPa)
#
#
# Indices 1 2 3 4 5 6 
#
# 1 103.7990 39.2870 47.8164 0.0000 5.3222 0.0000
# 2 39.2870 92.7579 54.3255 0.0000 -9.7248 0.0000
# 3 47.8164 54.3255 133.1714 0.0000 -21.6195 0.0000
# 4 0.0000 0.0000 0.0000 24.4885 0.0000 -7.2434
# 5 5.3222 -9.7248 -21.6195 0.0000 41.8856 0.0000
# 6 0.0000 0.0000 0.0000 -7.2434 0.0000 31.5746
#
#
#
# Elastic Compliance Matrix: (Units=1/GPa)
#
#
# Indices 1 2 3 4 5 6 
#
# 1 0.013080 -0.003723 -0.003916 0.000000 -0.004548 0.000000
# 2 -0.003723 0.015229 -0.004611 0.000000 0.001629 0.000000
# 3 -0.003916 -0.004611 0.011682 0.000000 0.005457 0.000000
# 4 0.000000 0.000000 0.000000 0.043808 0.000000 0.010050
# 5 -0.004548 0.001629 0.005457 0.000000 0.027647 0.000000
# 6 0.000000 0.000000 0.000000 0.010050 0.000000 0.033977
#
#
# Mechanical properties :
#
#
# Convention : Reuss Voigt Hill
#
# Bulk Modulus (GPa) = 64.55571 68.06512 66.31041
# Shear Modulus (GPa) = 28.55700 32.14303 30.35001
#
# Velocity S-wave (km/s) = 3.61909 3.83961 3.73098
# Velocity P-wave (km/s) = 6.86095 7.13269 6.99814
#
# Compressibility (1/GPa) = 0.01549050
#
# Stress axis : x y z
#
# Youngs Moduli (GPa) = 76.44995 65.66336 85.60067
#
# Poissons Ratio (x) = 0.24449 0.33522
# Poissons Ratio (y) = 0.28466 0.39472
# Poissons Ratio (z) = 0.29938 0.30279
#
# Static dielectric constant tensor:
#      x y z
#    x 4.207650 0.000000 -0.254870 
#    y 0.000000 3.990620 0.000000 
#    z -0.254870 0.000000 4.007510 
# 
# 
# High freq. dielectric constant tensor:
#      x y z
#    x 1.871710 0.000000 -0.015610 
#    y 0.000000 1.846790 0.000000 
#    z -0.015610 0.000000 1.852800 
# 
# From -- ./inp_files/61573.got.cif
#   From: 2010.06.25/outbox.cif.g09.slc.cpg/sg13_31_cif.got.tgz:61573.got - 2010.06.28 04:50:58.
