data_PCOD8122394
_publ_section_title
;
Structure prediction by ZEFSAII (Michael W. Deem and Ramdas Pophale) SiO2 
 PCOD8122394
Probable space group: P 2/C
;
_chemical_formula_sum "Si O2"
_cell_formula_units_Z 30
_cell_length_a 8.756867
_cell_length_b 11.814160
_cell_length_c 15.456165
_cell_angle_alpha 90.000000
_cell_angle_beta 110.137966
_cell_angle_gamma 90.000000
_cell_volume 1501.264137
_symmetry_space_group_name_H-M "P 2/C"
_symmetry_group_IT_number 13
_symmetry_cell_setting 'monoclinic'
loop_
_space_group_symop_operation_xyz
x,y,z
-x,y,1/2-z
-x,-y,-z
x,-y,1/2+z
loop_
_atom_site_type_symbol
_atom_site_label
_atom_site_fract_x
_atom_site_fract_y
_atom_site_fract_z
Si Si1 0.105587 0.118251 0.855634
Si Si2 0.214863 0.156093 0.635007
Si Si3 0.657966 0.737781 0.500297
Si Si4 0.611819 0.057167 0.094284
Si Si5 0.689084 0.610564 0.281431
Si Si6 0.188063 0.481242 0.525361
Si Si7 0.500000 0.987220 0.250000
Si Si8 0.302702 0.347202 0.905847
O O1 0.213104 0.228021 0.895045
O O2 0.000000 0.137123 0.750000
O O3 0.967821 0.103983 0.903763
O O4 0.216106 0.007308 0.870024
O O5 0.292432 0.160766 0.555243
O O6 0.202289 0.282089 0.671279
O O7 0.335407 0.086108 0.719972
O O8 0.643388 0.807893 0.586216
O O9 0.790124 0.637435 0.522479
O O10 0.493028 0.677797 0.439478
O O11 0.513627 0.060115 0.165491
O O12 0.500000 0.000000 0.000000
O O13 0.500000 0.641741 0.250000
O O14 0.731125 0.515385 0.362122
O O15 0.737720 0.582555 0.190968
O O16 0.264623 0.580349 0.483021
O O17 0.000000 0.500000 0.500000
#
# Coordination Sequence:
#
# PCOD8122394 Si02
#       8
#     4   4   4   4   4   4   2   4
#     4  12  23  36  70 103 129 165 228 280 333 388
#     4  11  19  36  62  98 124 162 217 277 315 380
#     4  11  23  43  66  92 135 173 217 274 336 403
#     4  12  24  43  64 100 136 177 224 272 338 404
#     4  11  20  36  66  96 123 167 214 275 333 392
#     4  11  26  41  64 103 133 166 227 284 337 397
#     4  12  20  38  64  92 134 174 218 264 324 408
#     4  12  21  41  70  95 129 171 223 281 332 395
#
# _framework density 19.983160000000002
#
# number of rings (size 3 to 8) (size 9 to 14) (size 15 to 20)
#    0.000    0.533    8.667    2.000    0.000    0.533 
#    0.000    1.333    2.933    0.000    0.000    0.000 
#    0.000    0.000    0.000    0.000    0.000    0.000 
#
# Total GULP energy -371828.772065 kJ/mol
# GULP energy per Si atom -12394.292402 kJ/mol
# Density = 1.993768 g / cm^3
# Si number density = 19.983160 Si / 1000 Ang^3
#
#
#
# Elastic Constant Matrix: (Units=GPa)
#
#
# Indices 1 2 3 4 5 6 
#
# 1 121.4752 29.0076 35.2562 0.0000 -4.1997 0.0000
# 2 29.0076 83.6261 42.3178 0.0000 -3.4732 0.0000
# 3 35.2562 42.3178 99.2717 0.0000 -22.2078 0.0000
# 4 0.0000 0.0000 0.0000 31.8296 0.0000 -3.0038
# 5 -4.1997 -3.4732 -22.2078 0.0000 32.3638 0.0000
# 6 0.0000 0.0000 0.0000 -3.0038 0.0000 26.4981
#
#
#
# Elastic Compliance Matrix: (Units=1/GPa)
#
#
# Indices 1 2 3 4 5 6 
#
# 1 0.009456 -0.001938 -0.002722 0.000000 -0.000849 0.000000
# 2 -0.001938 0.015955 -0.006836 0.000000 -0.003230 0.000000
# 3 -0.002722 -0.006836 0.016197 0.000000 0.010028 0.000000
# 4 0.000000 0.000000 0.000000 0.031757 0.000000 0.003600
# 5 -0.000849 -0.003230 0.010028 0.000000 0.037323 0.000000
# 6 0.000000 0.000000 0.000000 0.003600 0.000000 0.038147
#
#
# Mechanical properties :
#
#
# Convention : Reuss Voigt Hill
#
# Bulk Modulus (GPa) = 53.71415 57.50403 55.60909
# Shear Modulus (GPa) = 28.08499 31.32439 29.70469
#
# Velocity S-wave (km/s) = 3.75298 3.96351 3.85968
# Velocity P-wave (km/s) = 6.76150 7.05582 6.91023
#
# Compressibility (1/GPa) = 0.01861707
#
# Stress axis : x y z
#
# Youngs Moduli (GPa) = 105.75844 62.67581 61.73863
#
# Poissons Ratio (x) = 0.12145 0.16805
# Poissons Ratio (y) = 0.20493 0.42203
# Poissons Ratio (z) = 0.28787 0.42844
#
# Static dielectric constant tensor:
#      x y z
#    x 4.015610 0.000000 -0.108190 
#    y 0.000000 3.196140 0.000000 
#    z -0.108190 0.000000 3.841070 
# 
# 
# High freq. dielectric constant tensor:
#      x y z
#    x 1.802990 0.000000 -0.012030 
#    y 0.000000 1.748330 0.000000 
#    z -0.012030 0.000000 1.771360 
# 
# From -- ./inp_files/47296.got.cif
#   From: 2010.06.25/outbox.cif.g09.slc.cpg/sg13_24_cif.got.tgz:47296.got - 2010.06.28 04:50:58.
