data_PCOD8122979
_publ_section_title
;
Structure prediction by ZEFSAII (Michael W. Deem and Ramdas Pophale) SiO2 
 PCOD8122979
Probable space group: P 2/C
;
_chemical_formula_sum "Si O2"
_cell_formula_units_Z 14
_cell_length_a 9.714732
_cell_length_b 5.426425
_cell_length_c 15.383950
_cell_angle_alpha 90.000000
_cell_angle_beta 134.160206
_cell_angle_gamma 90.000000
_cell_volume 581.795847
_symmetry_space_group_name_H-M "P 2/C"
_symmetry_group_IT_number 13
_symmetry_cell_setting 'monoclinic'
loop_
_space_group_symop_operation_xyz
x,y,z
-x,y,1/2-z
-x,-y,-z
x,-y,1/2+z
loop_
_atom_site_type_symbol
_atom_site_label
_atom_site_fract_x
_atom_site_fract_y
_atom_site_fract_z
Si Si1 0.001018 0.695604 0.924918
Si Si2 0.685441 0.971015 0.880838
Si Si3 0.000000 0.588756 0.250000
Si Si4 0.604622 0.750976 0.017252
O O1 0.955364 0.582340 0.812224
O O2 0.833327 0.890556 0.870919
O O3 0.000000 0.500000 0.000000
O O4 0.211894 0.819898 0.015590
O O5 0.500000 0.079275 0.750000
O O6 0.624579 0.751750 0.920583
O O7 0.816688 0.760669 0.152304
O O8 0.500000 0.500000 0.000000
O O9 0.500000 0.000000 0.000000
#
# Coordination Sequence:
#
# PCOD8122979 Si02
#       4
#     4   4   2   4
#     4  11  25  49  75 112 149 213 256 325 402 458
#     4  11  26  46  76 110 158 200 265 324 392 474
#     4  12  26  52  80 106 166 192 268 328 384 474
#     4  12  28  47  77 116 150 207 258 317 394 460
#
# _framework density 24.063421999999999
#
# number of rings (size 3 to 8) (size 9 to 14) (size 15 to 20)
#    0.000    0.571    2.857    3.429    4.000    5.714 
#    0.000    0.000    0.000    0.000    0.000    0.000 
#    0.000    0.000    0.000    0.000    0.000    0.000 
#
# Total GULP energy -173635.091063 kJ/mol
# GULP energy per Si atom -12402.506505 kJ/mol
# Density = 2.400865 g / cm^3
# Si number density = 24.063422 Si / 1000 Ang^3
#
#
#
# Elastic Constant Matrix: (Units=GPa)
#
#
# Indices 1 2 3 4 5 6 
#
# 1 127.9572 49.2110 66.6859 0.0000 0.6837 0.0000
# 2 49.2110 110.7778 36.1183 0.0000 9.9583 0.0000
# 3 66.6859 36.1183 165.3650 0.0000 16.6474 0.0000
# 4 0.0000 0.0000 0.0000 45.2388 0.0000 9.7636
# 5 0.6837 9.9583 16.6474 0.0000 64.9170 0.0000
# 6 0.0000 0.0000 0.0000 9.7636 0.0000 29.6524
#
#
#
# Elastic Compliance Matrix: (Units=1/GPa)
#
#
# Indices 1 2 3 4 5 6 
#
# 1 0.011320 -0.003902 -0.003861 0.000000 0.001469 0.000000
# 2 -0.003902 0.011124 -0.000707 0.000000 -0.001484 0.000000
# 3 -0.003861 -0.000707 0.007949 0.000000 -0.001889 0.000000
# 4 0.000000 0.000000 0.000000 0.023796 0.000000 -0.007835
# 5 0.001469 -0.001484 -0.001889 0.000000 0.016101 0.000000
# 6 0.000000 0.000000 0.000000 -0.007835 0.000000 0.036304
#
#
# Mechanical properties :
#
#
# Convention : Reuss Voigt Hill
#
# Bulk Modulus (GPa) = 74.32669 78.68114 76.50392
# Shear Modulus (GPa) = 39.05723 44.76729 41.91226
#
# Velocity S-wave (km/s) = 4.03314 4.31790 4.17795
# Velocity P-wave (km/s) = 7.25556 7.59127 7.42531
#
# Compressibility (1/GPa) = 0.01345412
#
# Stress axis : x y z
#
# Youngs Moduli (GPa) = 88.33989 89.89297 125.80791
#
# Poissons Ratio (x) = 0.35077 0.48569
# Poissons Ratio (y) = 0.34471 0.08892
# Poissons Ratio (z) = 0.34104 0.06353
#
# Static dielectric constant tensor:
#      x y z
#    x 4.942060 0.000000 0.128390 
#    y 0.000000 4.431460 0.000000 
#    z 0.128390 0.000000 4.380480 
# 
# 
# High freq. dielectric constant tensor:
#      x y z
#    x 1.979610 0.000000 0.002850 
#    y 0.000000 1.946310 0.000000 
#    z 0.002850 0.000000 1.963780 
# 
# From -- ./inp_files/45080.got.cif
#   From: 2010.06.25/outbox.cif.g09.slc.cpg/sg13_23_cif.got.tgz:45080.got - 2010.06.28 04:50:58.
