data_PCOD8122158
_publ_section_title
;
Structure prediction by ZEFSAII (Michael W. Deem and Ramdas Pophale) SiO2 
 PCOD8122158
Probable space group: P 2/C
;
_chemical_formula_sum "Si O2"
_cell_formula_units_Z 32
_cell_length_a 4.956921
_cell_length_b 8.795980
_cell_length_c 29.211141
_cell_angle_alpha 90.000000
_cell_angle_beta 102.315530
_cell_angle_gamma 90.000000
_cell_volume 1244.325184
_symmetry_space_group_name_H-M "P 2/C"
_symmetry_group_IT_number 13
_symmetry_cell_setting 'monoclinic'
loop_
_space_group_symop_operation_xyz
x,y,z
-x,y,1/2-z
-x,-y,-z
x,-y,1/2+z
loop_
_atom_site_type_symbol
_atom_site_label
_atom_site_fract_x
_atom_site_fract_y
_atom_site_fract_z
Si Si1 0.541378 0.357945 0.936168
Si Si2 0.838575 0.657553 0.151071
Si Si3 0.359994 0.227910 0.292960
Si Si4 0.139672 0.199993 0.432291
Si Si5 0.907862 0.644249 0.837270
Si Si6 0.433738 0.885976 0.299315
Si Si7 0.871026 0.119344 0.896940
Si Si8 0.290164 0.327287 0.020311
O O1 0.429301 0.420813 0.882430
O O2 0.711863 0.201540 0.932876
O O3 0.717908 0.498417 0.962215
O O4 0.306059 0.322986 0.965921
O O5 0.777440 0.752086 0.194612
O O6 0.088785 0.539499 0.167890
O O7 0.887143 0.773514 0.111362
O O8 0.500000 0.277427 0.250000
O O9 0.602381 0.288961 0.334970
O O10 0.065424 0.299869 0.296315
O O11 0.290734 0.050354 0.293862
O O12 0.077732 0.309163 0.387658
O O13 0.999722 0.257247 0.474126
O O14 0.467697 0.217149 0.450767
O O15 0.027299 0.032310 0.417941
O O16 0.500000 0.840652 0.250000
O O17 0.685101 0.901331 0.344110
#
# Coordination Sequence:
#
# PCOD8122158 Si02
#       8
#     4   4   4   4   4   4   4   4
#     4  10  25  44  68  97 139 176 229 281 347 404
#     4  11  25  43  69  97 138 184 223 282 349 409
#     4  11  25  46  71 102 133 179 230 288 343 407
#     4  12  25  43  71 100 136 178 230 277 342 404
#     4  12  24  44  71 100 139 176 231 282 345 409
#     4  10  24  45  68  97 136 181 229 280 344 417
#     4  11  25  43  68  97 136 180 226 282 345 413
#     4  11  26  45  70 102 133 183 229 286 336 414
#
# _framework density 25.716752
#
# number of rings (size 3 to 8) (size 9 to 14) (size 15 to 20)
#    0.000    1.000    2.500    2.625    8.750    3.000 
#    2.250    0.000    0.000    0.000    0.000    0.000 
#    0.000    0.000    0.000    0.000    0.000    0.000 
#
# Total GULP energy -396519.010778 kJ/mol
# GULP energy per Si atom -12391.219087 kJ/mol
# Density = 2.565822 g / cm^3
# Si number density = 25.716752 Si / 1000 Ang^3
#
#
#
# Elastic Constant Matrix: (Units=GPa)
#
#
# Indices 1 2 3 4 5 6 
#
# 1 37.1271 20.3416 -9.5103 0.0000 -11.4288 0.0000
# 2 20.3416 151.7807 40.3572 0.0000 -31.7671 0.0000
# 3 -9.5103 40.3572 101.4034 0.0000 -25.4106 0.0000
# 4 0.0000 0.0000 0.0000 36.3537 0.0000 -13.3301
# 5 -11.4288 -31.7671 -25.4106 0.0000 29.9508 0.0000
# 6 0.0000 0.0000 0.0000 -13.3301 0.0000 29.6685
#
#
#
# Elastic Compliance Matrix: (Units=1/GPa)
#
#
# Indices 1 2 3 4 5 6 
#
# 1 0.037016 -0.003657 0.009518 0.000000 0.018321 0.000000
# 2 -0.003657 0.008994 -0.002390 0.000000 0.006117 0.000000
# 3 0.009518 -0.002390 0.015215 0.000000 0.014006 0.000000
# 4 0.000000 0.000000 0.000000 0.032933 0.000000 0.014797
# 5 0.018321 0.006117 0.014006 0.000000 0.058749 0.000000
# 6 0.000000 0.000000 0.000000 0.014797 0.000000 0.040354
#
#
# Mechanical properties :
#
#
# Convention : Reuss Voigt Hill
#
# Bulk Modulus (GPa) = 14.66961 43.63200 29.15080
# Shear Modulus (GPa) = 23.91858 35.13612 29.52735
#
# Velocity S-wave (km/s) = 3.05303 3.70032 3.39215
# Velocity P-wave (km/s) = 4.25965 5.93799 5.16742
#
# Compressibility (1/GPa) = 0.06816815
#
# Stress axis : x y z
#
# Youngs Moduli (GPa) = 27.01517 111.18304 65.72393
#
# Poissons Ratio (x) = 0.40661 -0.62558
# Poissons Ratio (y) = 0.09880 0.15707
# Poissons Ratio (z) = -0.25714 0.26571
#
# Static dielectric constant tensor:
#      x y z
#    x 4.632200 0.000000 -0.088590 
#    y 0.000000 4.663980 0.000000 
#    z -0.088590 0.000000 4.726260 
# 
# 
# High freq. dielectric constant tensor:
#      x y z
#    x 2.024930 0.000000 -0.005410 
#    y 0.000000 2.028410 0.000000 
#    z -0.005410 0.000000 2.043140 
# 
# From -- ./inp_files/95046.got.cif
#   From: 2010.06.25/outbox.cif.g09.slc.cpg/sg13_48_cif.got.tgz:95046.got - 2010.06.28 04:50:58.
