data_PCOD8122555
_publ_section_title
;
Structure prediction by ZEFSAII (Michael W. Deem and Ramdas Pophale) SiO2 
 PCOD8122555
Probable space group: P 2/C
;
_chemical_formula_sum "Si O2"
_cell_formula_units_Z 18
_cell_length_a 9.667974
_cell_length_b 9.615803
_cell_length_c 12.186628
_cell_angle_alpha 90.000000
_cell_angle_beta 129.028443
_cell_angle_gamma 90.000000
_cell_volume 880.100984
_symmetry_space_group_name_H-M "P 2/C"
_symmetry_group_IT_number 13
_symmetry_cell_setting 'monoclinic'
loop_
_space_group_symop_operation_xyz
x,y,z
-x,y,1/2-z
-x,-y,-z
x,-y,1/2+z
loop_
_atom_site_type_symbol
_atom_site_label
_atom_site_fract_x
_atom_site_fract_y
_atom_site_fract_z
Si Si1 0.070849 0.667006 0.163067
Si Si2 0.632521 0.842475 0.628752
Si Si3 0.000000 0.783382 0.750000
Si Si4 0.398992 0.144434 0.809655
Si Si5 0.162867 0.630012 0.649892
O O1 0.195432 0.801902 0.206482
O O2 0.188374 0.533884 0.183801
O O3 0.000000 0.657756 0.250000
O O4 0.890696 0.670483 0.000514
O O5 0.820740 0.876416 0.660462
O O6 0.489523 0.796908 0.466030
O O7 0.657029 0.711909 0.724447
O O8 0.583909 0.977538 0.674783
O O9 0.002318 0.683385 0.857755
O O10 0.500000 0.193660 0.750000
#
# Coordination Sequence:
#
# PCOD8122555 Si02
#       5
#     4   4   2   4   4
#     4  11  22  37  62  93 117 153 201 238 289 355
#     4   9  21  40  59  80 121 153 196 239 295 343
#     4   8  16  40  64  80 108 166 188 238 288 352
#     4  11  24  38  57  91 123 150 196 250 289 345
#     4   9  20  39  62  85 120 155 196 244 287 350
#
# _framework density 20.452199
#
# number of rings (size 3 to 8) (size 9 to 14) (size 15 to 20)
#    1.333    0.889    1.111    1.333    1.556    5.333 
#    0.000    1.111    0.000    0.000    0.000    0.000 
#    0.000    0.000    0.000    0.000    0.000    0.000 
#
# Total GULP energy -223013.002395 kJ/mol
# GULP energy per Si atom -12389.611244 kJ/mol
# Density = 2.040565 g / cm^3
# Si number density = 20.452199 Si / 1000 Ang^3
#
#
#
# Elastic Constant Matrix: (Units=GPa)
#
#
# Indices 1 2 3 4 5 6 
#
# 1 39.9723 -1.6203 16.5890 0.0000 -11.6814 0.0000
# 2 -1.6203 67.9384 54.9543 0.0000 -2.9270 0.0000
# 3 16.5890 54.9543 117.5250 0.0000 -22.5962 0.0000
# 4 0.0000 0.0000 0.0000 30.3011 0.0000 6.5611
# 5 -11.6814 -2.9270 -22.5962 0.0000 31.4698 0.0000
# 6 0.0000 0.0000 0.0000 6.5611 0.0000 21.9802
#
#
#
# Elastic Compliance Matrix: (Units=1/GPa)
#
#
# Indices 1 2 3 4 5 6 
#
# 1 0.029625 0.005162 -0.005092 0.000000 0.007821 0.000000
# 2 0.005162 0.025843 -0.013901 0.000000 -0.005662 0.000000
# 3 -0.005092 -0.013901 0.017537 0.000000 0.009409 0.000000
# 4 0.000000 0.000000 0.000000 0.035283 0.000000 -0.010532
# 5 0.007821 -0.005662 0.009409 0.000000 0.040909 0.000000
# 6 0.000000 0.000000 0.000000 -0.010532 0.000000 0.048639
#
#
# Mechanical properties :
#
#
# Convention : Reuss Voigt Hill
#
# Bulk Modulus (GPa) = 22.05404 40.58686 31.32045
# Shear Modulus (GPa) = 20.78036 27.11774 23.94905
#
# Velocity S-wave (km/s) = 3.19100 3.64525 3.42567
# Velocity P-wave (km/s) = 4.93795 6.13229 5.56724
#
# Compressibility (1/GPa) = 0.04534316
#
# Stress axis : x y z
#
# Youngs Moduli (GPa) = 33.75495 38.69523 57.02300
#
# Poissons Ratio (x) = -0.19975 0.29035
# Poissons Ratio (y) = -0.17425 0.79269
# Poissons Ratio (z) = 0.17188 0.53791
#
# Static dielectric constant tensor:
#      x y z
#    x 3.300340 0.000000 -0.087050 
#    y 0.000000 3.460420 0.000000 
#    z -0.087050 0.000000 3.711700 
# 
# 
# High freq. dielectric constant tensor:
#      x y z
#    x 1.773850 0.000000 -0.012960 
#    y 0.000000 1.786180 0.000000 
#    z -0.012960 0.000000 1.808820 
# 
# From -- ./inp_files/32839.got.cif
#   From: 2010.06.25/outbox.cif.g09.slc.cpg/sg13_17_cif.got.tgz:32839.got - 2010.06.28 04:50:58.
