data_PCOD8122783
_publ_section_title
;
Structure prediction by ZEFSAII (Michael W. Deem and Ramdas Pophale) SiO2 
 PCOD8122783
Probable space group: P 2/C
;
_chemical_formula_sum "Si O2"
_cell_formula_units_Z 22
_cell_length_a 17.336935
_cell_length_b 12.172647
_cell_length_c 13.473945
_cell_angle_alpha 90.000000
_cell_angle_beta 21.611047
_cell_angle_gamma 90.000000
_cell_volume 1047.269207
_symmetry_space_group_name_H-M "P 2/C"
_symmetry_group_IT_number 13
_symmetry_cell_setting 'monoclinic'
loop_
_space_group_symop_operation_xyz
x,y,z
-x,y,1/2-z
-x,-y,-z
x,-y,1/2+z
loop_
_atom_site_type_symbol
_atom_site_label
_atom_site_fract_x
_atom_site_fract_y
_atom_site_fract_z
Si Si1 0.000000 0.478790 0.750000
Si Si2 0.733129 0.634851 0.935159
Si Si3 0.415542 0.173892 0.578618
Si Si4 0.959272 0.854032 0.690335
Si Si5 0.386896 0.031220 0.986730
Si Si6 0.650037 0.604821 0.810011
O O1 0.891317 0.550303 0.795495
O O2 0.172582 0.406402 0.486280
O O3 0.793184 0.755699 0.900162
O O4 0.756157 0.626925 0.789155
O O5 0.500000 0.607338 0.250000
O O6 0.534058 0.118989 0.528347
O O7 0.513113 0.291572 0.437875
O O8 0.433988 0.093158 0.462431
O O9 0.171974 0.192820 0.890921
O O10 0.000000 0.906504 0.750000
O O11 0.860981 0.947908 0.736627
O O12 0.500000 0.057451 0.750000
O O13 0.500000 0.500000 0.000000
#
# Coordination Sequence:
#
# PCOD8122783 Si02
#       6
#     2   4   4   4   4   4
#     4  12  26  44  70 104 144 190 224 284 358 408
#     4  12  23  43  70 103 138 179 238 286 338 412
#     4  11  25  44  67 101 136 178 228 281 345 408
#     4  12  21  39  73 100 130 177 235 289 336 405
#     4  11  23  45  68  96 137 177 228 286 340 411
#     4  12  25  48  70 100 144 183 230 285 343 412
#
# _framework density 21.007014999999999
#
# number of rings (size 3 to 8) (size 9 to 14) (size 15 to 20)
#    0.000    0.364    6.364    3.818    0.000    0.000 
#    6.545    0.000    0.000    0.000    0.000    0.000 
#    0.000    0.000    0.000    0.000    0.000    0.000 
#
# Total GULP energy -272856.254836 kJ/mol
# GULP energy per Si atom -12402.557038 kJ/mol
# Density = 2.095920 g / cm^3
# Si number density = 21.007015 Si / 1000 Ang^3
#
#
#
# Elastic Constant Matrix: (Units=GPa)
#
#
# Indices 1 2 3 4 5 6 
#
# 1 121.4367 52.5730 48.7146 0.0000 -10.7906 0.0000
# 2 52.5730 144.3732 57.6275 0.0000 -10.1057 0.0000
# 3 48.7146 57.6275 137.1804 0.0000 -1.2501 0.0000
# 4 0.0000 0.0000 0.0000 31.3264 0.0000 -2.4811
# 5 -10.7906 -10.1057 -1.2501 0.0000 41.6149 0.0000
# 6 0.0000 0.0000 0.0000 -2.4811 0.0000 31.8954
#
#
#
# Elastic Compliance Matrix: (Units=1/GPa)
#
#
# Indices 1 2 3 4 5 6 
#
# 1 0.010630 -0.002679 -0.002631 0.000000 0.002027 0.000000
# 2 -0.002679 0.009153 -0.002880 0.000000 0.001441 0.000000
# 3 -0.002631 -0.002880 0.009424 0.000000 -0.001099 0.000000
# 4 0.000000 0.000000 0.000000 0.032120 0.000000 0.002499
# 5 0.002027 0.001441 -0.001099 0.000000 0.024872 0.000000
# 6 0.000000 0.000000 0.000000 0.002499 0.000000 0.031547
#
#
# Mechanical properties :
#
#
# Convention : Reuss Voigt Hill
#
# Bulk Modulus (GPa) = 77.96670 80.09119 79.02895
# Shear Modulus (GPa) = 36.12672 37.23904 36.68288
#
# Velocity S-wave (km/s) = 4.15148 4.21491 4.18331
# Velocity P-wave (km/s) = 7.75725 7.86740 7.81252
#
# Compressibility (1/GPa) = 0.01282599
#
# Stress axis : x y z
#
# Youngs Moduli (GPa) = 94.07322 109.25821 106.11173
#
# Poissons Ratio (x) = 0.29268 0.27919
# Poissons Ratio (y) = 0.25200 0.30565
# Poissons Ratio (z) = 0.24751 0.31472
#
# Static dielectric constant tensor:
#      x y z
#    x 4.295780 0.000000 -0.351250 
#    y 0.000000 3.751460 0.000000 
#    z -0.351250 0.000000 3.966100 
# 
# 
# High freq. dielectric constant tensor:
#      x y z
#    x 1.836030 0.000000 -0.013920 
#    y 0.000000 1.816570 0.000000 
#    z -0.013920 0.000000 1.832740 
# 
# From -- ./inp_files/51115.got.cif
#   From: 2010.06.25/outbox.cif.g09.slc.cpg/sg13_26_cif.got.tgz:51115.got - 2010.06.28 04:50:58.
