data_PCOD8122734
_publ_section_title
;
Structure prediction by ZEFSAII (Michael W. Deem and Ramdas Pophale) SiO2 
 PCOD8122734
Probable space group: P 2/C
;
_chemical_formula_sum "Si O2"
_cell_formula_units_Z 24
_cell_length_a 13.375788
_cell_length_b 9.134298
_cell_length_c 8.792054
_cell_angle_alpha 90.000000
_cell_angle_beta 80.679035
_cell_angle_gamma 90.000000
_cell_volume 1060.016214
_symmetry_space_group_name_H-M "P 2/C"
_symmetry_group_IT_number 13
_symmetry_cell_setting 'monoclinic'
loop_
_space_group_symop_operation_xyz
x,y,z
-x,y,1/2-z
-x,-y,-z
x,-y,1/2+z
loop_
_atom_site_type_symbol
_atom_site_label
_atom_site_fract_x
_atom_site_fract_y
_atom_site_fract_z
Si Si1 0.247398 0.928925 0.142827
Si Si2 0.306711 0.638269 0.596942
Si Si3 0.733703 0.341336 0.038139
Si Si4 0.970718 0.349663 0.931478
Si Si5 0.149290 0.167724 0.973017
Si Si6 0.561998 0.110952 0.382595
O O1 0.189032 0.849398 0.292055
O O2 0.331765 0.036328 0.192353
O O3 0.307525 0.810972 0.022353
O O4 0.164632 0.019696 0.065216
O O5 0.321628 0.472462 0.538494
O O6 0.290366 0.641619 0.780703
O O7 0.208797 0.697625 0.534000
O O8 0.406155 0.739112 0.536292
O O9 0.852747 0.325095 0.980726
O O10 0.000000 0.359320 0.750000
O O11 0.031503 0.215087 0.996482
O O12 0.000000 0.500000 0.000000
O O13 0.500000 0.155978 0.250000
O O14 0.500000 0.000000 0.500000
#
# Coordination Sequence:
#
# PCOD8122734 Si02
#       6
#     4   4   4   4   4   4
#     4  11  23  43  68  98 140 180 227 289 349 405
#     4  11  24  42  69 100 135 182 226 280 356 404
#     4  12  23  42  67 100 143 182 229 282 334 406
#     4  12  24  42  66 100 138 185 244 272 324 400
#     4  11  23  43  65  97 138 188 229 280 340 398
#     4  11  23  45  72  99 130 174 228 285 353 425
#
# _framework density 22.641162000000001
#
# number of rings (size 3 to 8) (size 9 to 14) (size 15 to 20)
#    0.000    0.667    3.333    7.000    0.000    0.667 
#    0.000    4.167    0.000    0.000    0.000    0.000 
#    0.000    0.000    0.000    0.000    0.000    0.000 
#
# Total GULP energy -297629.321661 kJ/mol
# GULP energy per Si atom -12401.221736 kJ/mol
# Density = 2.258963 g / cm^3
# Si number density = 22.641162 Si / 1000 Ang^3
#
#
#
# Elastic Constant Matrix: (Units=GPa)
#
#
# Indices 1 2 3 4 5 6 
#
# 1 102.9384 46.1599 19.6709 0.0000 13.3453 0.0000
# 2 46.1599 149.2490 36.9697 0.0000 19.0305 0.0000
# 3 19.6709 36.9697 107.8935 0.0000 15.1323 0.0000
# 4 0.0000 0.0000 0.0000 35.0335 0.0000 -3.7714
# 5 13.3453 19.0305 15.1323 0.0000 33.7344 0.0000
# 6 0.0000 0.0000 0.0000 -3.7714 0.0000 6.5726
#
#
#
# Elastic Compliance Matrix: (Units=1/GPa)
#
#
# Indices 1 2 3 4 5 6 
#
# 1 0.011556 -0.003080 -0.000698 0.000000 -0.002521 0.000000
# 2 -0.003080 0.008483 -0.001969 0.000000 -0.002684 0.000000
# 3 -0.000698 -0.001969 0.010539 0.000000 -0.003341 0.000000
# 4 0.000000 0.000000 0.000000 0.030423 0.000000 0.017457
# 5 -0.002521 -0.002684 -0.003341 0.000000 0.033653 0.000000
# 6 0.000000 0.000000 0.000000 0.017457 0.000000 0.162164
#
#
# Mechanical properties :
#
#
# Convention : Reuss Voigt Hill
#
# Bulk Modulus (GPa) = 52.39865 62.85355 57.62610
# Shear Modulus (GPa) = 18.20354 32.22013 25.21184
#
# Velocity S-wave (km/s) = 2.83857 3.77646 3.34059
# Velocity P-wave (km/s) = 5.82552 6.84372 6.35505
#
# Compressibility (1/GPa) = 0.01908446
#
# Stress axis : x y z
#
# Youngs Moduli (GPa) = 86.53709 117.88927 94.88793
#
# Poissons Ratio (x) = 0.36305 0.06623
# Poissons Ratio (y) = 0.26650 0.18680
# Poissons Ratio (z) = 0.06040 0.23208
#
# Static dielectric constant tensor:
#      x y z
#    x 4.586170 0.000000 0.205620 
#    y 0.000000 4.654090 0.000000 
#    z 0.205620 0.000000 4.106840 
# 
# 
# High freq. dielectric constant tensor:
#      x y z
#    x 1.888080 0.000000 0.017980 
#    y 0.000000 1.911570 0.000000 
#    z 0.017980 0.000000 1.895290 
# 
# From -- ./inp_files/18051.got.cif
#   From: 2010.06.25/outbox.cif.g09.slc.cpg/sg13_10_cif.got.tgz:18051.got - 2010.06.28 04:50:58.
