data_PCOD8122645
_publ_section_title
;
Structure prediction by ZEFSAII (Michael W. Deem and Ramdas Pophale) SiO2 
 PCOD8122645
Probable space group: P 2/C
;
_chemical_formula_sum "Si O2"
_cell_formula_units_Z 24
_cell_length_a 9.689960
_cell_length_b 13.567046
_cell_length_c 14.827407
_cell_angle_alpha 90.000000
_cell_angle_beta 32.703556
_cell_angle_gamma 90.000000
_cell_volume 1053.177245
_symmetry_space_group_name_H-M "P 2/C"
_symmetry_group_IT_number 13
_symmetry_cell_setting 'monoclinic'
loop_
_space_group_symop_operation_xyz
x,y,z
-x,y,1/2-z
-x,-y,-z
x,-y,1/2+z
loop_
_atom_site_type_symbol
_atom_site_label
_atom_site_fract_x
_atom_site_fract_y
_atom_site_fract_z
Si Si1 0.000000 0.128438 0.250000
Si Si2 0.672009 0.627862 0.336778
Si Si3 0.668210 0.036666 0.988184
Si Si4 0.000000 0.215758 0.750000
Si Si5 0.059458 0.765864 0.896435
Si Si6 0.500000 0.717274 0.250000
Si Si7 0.500000 0.127854 0.250000
Si Si8 0.799419 0.410286 0.283321
O O1 0.864223 0.193699 0.247203
O O2 0.855472 0.054883 0.398037
O O3 0.526453 0.649809 0.323818
O O4 0.818346 0.524717 0.245805
O O5 0.480817 0.620112 0.526678
O O6 0.875078 0.715132 0.242246
O O7 0.787519 0.144618 0.908490
O O8 0.507753 0.049565 0.165529
O O9 0.500000 0.000000 0.000000
O O10 0.244247 0.807924 0.873074
O O11 0.127312 0.650170 0.847689
O O12 0.761051 0.781358 0.089685
O O13 0.000000 0.384801 0.250000
#
# Coordination Sequence:
#
# PCOD8122645 Si02
#       8
#     2   4   4   2   4   2   2   4
#     4  11  24  47  74  96 144 191 232 303 372 450
#     4  11  24  43  72 104 144 188 249 296 363 439
#     4  11  25  46  72 104 143 188 246 307 376 441
#     4  11  24  45  70 104 144 191 242 305 368 444
#     4  12  25  46  74 106 148 188 240 299 375 438
#     4  12  26  40  66 114 144 184 234 306 360 434
#     4  12  26  48  76 110 140 192 250 308 374 440
#     4  11  22  45  73 100 140 203 242 288 364 449
#
# _framework density 22.788188000000002
#
# number of rings (size 3 to 8) (size 9 to 14) (size 15 to 20)
#    0.000    0.667    5.000    2.000    2.333    2.667 
#    0.000    0.000    0.000    0.000    0.000    0.000 
#    0.000    0.000    0.000    0.000    0.000    0.000 
#
# Total GULP energy -297400.411303 kJ/mol
# GULP energy per Si atom -12391.683804 kJ/mol
# Density = 2.273632 g / cm^3
# Si number density = 22.788188 Si / 1000 Ang^3
#
#
#
# Elastic Constant Matrix: (Units=GPa)
#
#
# Indices 1 2 3 4 5 6 
#
# 1 129.5418 40.0188 39.2686 0.0000 -4.8570 0.0000
# 2 40.0188 122.5494 48.0512 0.0000 -3.9348 0.0000
# 3 39.2686 48.0512 111.3079 0.0000 -6.1877 0.0000
# 4 0.0000 0.0000 0.0000 90.9285 0.0000 -30.4902
# 5 -4.8570 -3.9348 -6.1877 0.0000 35.2231 0.0000
# 6 0.0000 0.0000 0.0000 -30.4902 0.0000 47.6603
#
#
#
# Elastic Compliance Matrix: (Units=1/GPa)
#
#
# Indices 1 2 3 4 5 6 
#
# 1 0.009066 -0.002046 -0.002281 0.000000 0.000621 0.000000
# 2 -0.002046 0.010289 -0.003708 0.000000 0.000216 0.000000
# 3 -0.002281 -0.003708 0.011461 0.000000 0.001285 0.000000
# 4 0.000000 0.000000 0.000000 0.014001 0.000000 0.008957
# 5 0.000621 0.000216 0.001285 0.000000 0.028726 0.000000
# 6 0.000000 0.000000 0.000000 0.008957 0.000000 0.026712
#
#
# Mechanical properties :
#
#
# Convention : Reuss Voigt Hill
#
# Bulk Modulus (GPa) = 67.81299 68.67514 68.24406
# Shear Modulus (GPa) = 41.24049 50.49975 45.87012
#
# Velocity S-wave (km/s) = 4.25871 4.71260 4.49139
# Velocity P-wave (km/s) = 7.34879 7.73390 7.54380
#
# Compressibility (1/GPa) = 0.01474644
#
# Stress axis : x y z
#
# Youngs Moduli (GPa) = 110.29832 97.19134 87.25490
#
# Poissons Ratio (x) = 0.19890 0.19899
# Poissons Ratio (y) = 0.22573 0.32352
# Poissons Ratio (z) = 0.25154 0.36036
#
# Static dielectric constant tensor:
#      x y z
#    x 4.077180 0.000000 -0.117260 
#    y 0.000000 3.793830 0.000000 
#    z -0.117260 0.000000 3.833370 
# 
# 
# High freq. dielectric constant tensor:
#      x y z
#    x 1.897210 0.000000 -0.005280 
#    y 0.000000 1.910840 0.000000 
#    z -0.005280 0.000000 1.893870 
# 
# From -- ./inp_files/47606.got.cif
#   From: 2010.06.25/outbox.cif.g09.slc.cpg/sg13_24_cif.got.tgz:47606.got - 2010.06.28 04:50:58.
