data_PCOD8122895
_publ_section_title
;
Structure prediction by ZEFSAII (Michael W. Deem and Ramdas Pophale) SiO2 
 PCOD8122895
Probable space group: P 2/C
;
_chemical_formula_sum "Si O2"
_cell_formula_units_Z 20
_cell_length_a 6.802770
_cell_length_b 11.332144
_cell_length_c 17.055235
_cell_angle_alpha 90.000000
_cell_angle_beta 135.317981
_cell_angle_gamma 90.000000
_cell_volume 924.521259
_symmetry_space_group_name_H-M "P 2/C"
_symmetry_group_IT_number 13
_symmetry_cell_setting 'monoclinic'
loop_
_space_group_symop_operation_xyz
x,y,z
-x,y,1/2-z
-x,-y,-z
x,-y,1/2+z
loop_
_atom_site_type_symbol
_atom_site_label
_atom_site_fract_x
_atom_site_fract_y
_atom_site_fract_z
Si Si1 0.000000 0.711169 0.250000
Si Si2 0.984732 0.672324 0.566920
Si Si3 0.500000 0.842817 0.750000
Si Si4 0.171491 0.592576 0.144637
Si Si5 0.521330 0.183632 0.534973
Si Si6 0.292939 0.958517 0.547703
O O1 0.995352 0.634402 0.326932
O O2 0.725117 0.790421 0.165542
O O3 0.916367 0.672864 0.454536
O O4 0.707101 0.710265 0.537255
O O5 0.226269 0.763652 0.659047
O O6 0.080348 0.542216 0.613967
O O7 0.517821 0.929986 0.680045
O O8 0.500000 0.601919 0.250000
O O9 0.698774 0.159854 0.505174
O O10 0.364191 0.065610 0.512271
O O11 0.000000 0.000000 0.500000
#
# Coordination Sequence:
#
# PCOD8122895 Si02
#       6
#     2   4   2   4   4   4
#     4  12  26  40  72 100 136 190 228 290 352 420
#     4  11  24  46  71 102 143 182 237 290 356 417
#     4  12  24  42  74  98 136 186 218 296 350 406
#     4  11  24  46  70 103 140 187 237 289 351 425
#     4  11  26  44  67 103 136 180 236 286 349 422
#     4  11  26  45  67 101 137 180 235 284 346 424
#
# _framework density 21.632819999999999
#
# number of rings (size 3 to 8) (size 9 to 14) (size 15 to 20)
#    0.000    0.800    5.000    1.200    2.800    3.200 
#    0.000    0.000    0.000    0.000    0.000    0.000 
#    0.000    0.000    0.000    0.000    0.000    0.000 
#
# Total GULP energy -247834.120982 kJ/mol
# GULP energy per Si atom -12391.706049 kJ/mol
# Density = 2.158358 g / cm^3
# Si number density = 21.632820 Si / 1000 Ang^3
#
#
#
# Elastic Constant Matrix: (Units=GPa)
#
#
# Indices 1 2 3 4 5 6 
#
# 1 115.4059 30.9645 40.7972 0.0000 -4.5823 0.0000
# 2 30.9645 50.3736 29.5641 0.0000 -2.6957 0.0000
# 3 40.7972 29.5641 140.7368 0.0000 0.8725 0.0000
# 4 0.0000 0.0000 0.0000 46.7556 0.0000 4.8490
# 5 -4.5823 -2.6957 0.8725 0.0000 44.8575 0.0000
# 6 0.0000 0.0000 0.0000 4.8490 0.0000 24.5995
#
#
#
# Elastic Compliance Matrix: (Units=1/GPa)
#
#
# Indices 1 2 3 4 5 6 
#
# 1 0.010873 -0.005460 -0.002010 0.000000 0.000822 0.000000
# 2 -0.005460 0.025480 -0.003776 0.000000 0.001047 0.000000
# 3 -0.002010 -0.003776 0.008485 0.000000 -0.000597 0.000000
# 4 0.000000 0.000000 0.000000 0.021834 0.000000 -0.004304
# 5 0.000822 0.001047 -0.000597 0.000000 0.022451 0.000000
# 6 0.000000 0.000000 0.000000 -0.004304 0.000000 0.041500
#
#
# Mechanical properties :
#
#
# Convention : Reuss Voigt Hill
#
# Bulk Modulus (GPa) = 44.75111 56.57419 50.66265
# Shear Modulus (GPa) = 31.13998 36.92187 34.03092
#
# Velocity S-wave (km/s) = 3.79816 4.13577 3.97055
# Velocity P-wave (km/s) = 6.32189 7.00106 6.67013
#
# Compressibility (1/GPa) = 0.02234581
#
# Stress axis : x y z
#
# Youngs Moduli (GPa) = 91.96862 39.24606 117.85331
#
# Poissons Ratio (x) = 0.21429 0.23690
# Poissons Ratio (y) = 0.50216 0.44504
# Poissons Ratio (z) = 0.18487 0.14820
#
# Static dielectric constant tensor:
#      x y z
#    x 4.795730 0.000000 -0.348170 
#    y 0.000000 4.102220 0.000000 
#    z -0.348170 0.000000 4.155870 
# 
# 
# High freq. dielectric constant tensor:
#      x y z
#    x 1.851510 0.000000 -0.000190 
#    y 0.000000 1.861050 0.000000 
#    z -0.000190 0.000000 1.860350 
# 
# From -- ./inp_files/37120.got.cif
#   From: 2010.06.25/outbox.cif.g09.slc.cpg/sg13_19_cif.got.tgz:37120.got - 2010.06.28 04:50:58.
