data_PCOD8122148
_publ_section_title
;
Structure prediction by ZEFSAII (Michael W. Deem and Ramdas Pophale) SiO2 
 PCOD8122148
Probable space group: P 2/C
;
_chemical_formula_sum "Si O2"
_cell_formula_units_Z 22
_cell_length_a 7.264614
_cell_length_b 15.343665
_cell_length_c 8.601597
_cell_angle_alpha 90.000000
_cell_angle_beta 80.812257
_cell_angle_gamma 90.000000
_cell_volume 946.483151
_symmetry_space_group_name_H-M "P 2/C"
_symmetry_group_IT_number 13
_symmetry_cell_setting 'monoclinic'
loop_
_space_group_symop_operation_xyz
x,y,z
-x,y,1/2-z
-x,-y,-z
x,-y,1/2+z
loop_
_atom_site_type_symbol
_atom_site_label
_atom_site_fract_x
_atom_site_fract_y
_atom_site_fract_z
Si Si1 0.724462 0.744703 0.924113
Si Si2 0.398917 0.875030 0.007893
Si Si3 0.626918 0.569149 0.080743
Si Si4 0.148299 0.729240 0.940796
Si Si5 0.500000 0.996798 0.250000
Si Si6 0.179690 0.555999 0.123590
O O1 0.606704 0.832443 0.968792
O O2 0.746908 0.727505 0.738201
O O3 0.929924 0.751114 0.968903
O O4 0.607462 0.667700 0.023656
O O5 0.238852 0.803270 0.035071
O O6 0.366526 0.940867 0.868928
O O7 0.372955 0.933346 0.163777
O O8 0.642825 0.564279 0.272594
O O9 0.500000 0.500000 0.000000
O O10 0.824245 0.531837 0.982435
O O11 0.193749 0.637096 0.008776
O O12 0.000000 0.559980 0.250000
#
# Coordination Sequence:
#
# PCOD8122148 Si02
#       6
#     4   4   4   4   2   4
#     4  11  24  43  70 101 138 185 231 285 341 411
#     4  11  23  47  69 102 138 178 223 287 347 422
#     4  12  26  42  66  99 138 185 238 284 344 401
#     4  11  24  43  71 100 138 184 233 281 346 405
#     4  10  24  44  74  98 138 178 218 282 364 414
#     4  12  25  43  65  97 140 185 234 287 339 399
#
# _framework density 23.243943000000002
#
# number of rings (size 3 to 8) (size 9 to 14) (size 15 to 20)
#    0.000    0.727    3.636    3.273    6.364    1.455 
#    0.000    5.455    0.000    0.000    0.000    0.000 
#    0.000    0.000    0.000    0.000    0.000    0.000 
#
# Total GULP energy -272750.588655 kJ/mol
# GULP energy per Si atom -12397.754030 kJ/mol
# Density = 2.319104 g / cm^3
# Si number density = 23.243943 Si / 1000 Ang^3
#
#
#
# Elastic Constant Matrix: (Units=GPa)
#
#
# Indices 1 2 3 4 5 6 
#
# 1 96.3308 30.3498 19.4168 0.0000 9.1676 0.0000
# 2 30.3498 137.6662 54.1902 0.0000 3.1082 0.0000
# 3 19.4168 54.1902 98.5972 0.0000 2.1456 0.0000
# 4 0.0000 0.0000 0.0000 -28.0656 0.0000 4.4407
# 5 9.1676 3.1082 2.1456 0.0000 25.1978 0.0000
# 6 0.0000 0.0000 0.0000 4.4407 0.0000 20.0819
#
#
#
# Elastic Compliance Matrix: (Units=1/GPa)
#
#
# Indices 1 2 3 4 5 6 
#
# 1 0.011613 -0.002049 -0.001076 0.000000 -0.003881 0.000000
# 2 -0.002049 0.009644 -0.004896 0.000000 -0.000027 0.000000
# 3 -0.001076 -0.004896 0.013048 0.000000 -0.000115 0.000000
# 4 0.000000 0.000000 0.000000 -0.034426 0.000000 0.007613
# 5 -0.003881 -0.000027 -0.000115 0.000000 0.041111 0.000000
# 6 0.000000 0.000000 0.000000 0.007613 0.000000 0.048113
#
#
# Mechanical properties :
#
#
# Convention : Reuss Voigt Hill
#
# Bulk Modulus (GPa) = 54.76075 60.05645 57.40860
# Shear Modulus (GPa) = 44.95141 18.68530 31.81836
#
# Velocity S-wave (km/s) = 4.40238 2.83835 3.70386
# Velocity P-wave (km/s) = 7.03218 6.05270 6.56075
#
# Compressibility (1/GPa) = 0.01826126
#
# Stress axis : x y z
#
# Youngs Moduli (GPa) = 86.11292 103.69653 76.64166
#
# Poissons Ratio (x) = 0.21245 0.08250
# Poissons Ratio (y) = 0.17643 0.37525
# Poissons Ratio (z) = 0.09269 0.50771
#
# Static dielectric constant tensor:
#      x y z
#    x 6.435510 0.000000 -0.974260 
#    y 0.000000 4.375260 0.000000 
#    z -0.974260 0.000000 5.611970 
# 
# 
# High freq. dielectric constant tensor:
#      x y z
#    x 1.934880 0.000000 0.001470 
#    y 0.000000 1.921170 0.000000 
#    z 0.001470 0.000000 1.946790 
# 
# From -- ./inp_files/12325.got.cif
#   From: 2010.06.25/outbox.cif.g09.slc.cpg/sg13_7_cif.got.tgz:12325.got - 2010.06.28 04:50:58.
