data_PCOD8122612
_publ_section_title
;
Structure prediction by ZEFSAII (Michael W. Deem and Ramdas Pophale) SiO2 
 PCOD8122612
Probable space group: P 2/C
;
_chemical_formula_sum "Si O2"
_cell_formula_units_Z 24
_cell_length_a 10.370078
_cell_length_b 8.879338
_cell_length_c 20.841444
_cell_angle_alpha 90.000000
_cell_angle_beta 35.588403
_cell_angle_gamma 90.000000
_cell_volume 1116.817845
_symmetry_space_group_name_H-M "P 2/C"
_symmetry_group_IT_number 13
_symmetry_cell_setting 'monoclinic'
loop_
_space_group_symop_operation_xyz
x,y,z
-x,y,1/2-z
-x,-y,-z
x,-y,1/2+z
loop_
_atom_site_type_symbol
_atom_site_label
_atom_site_fract_x
_atom_site_fract_y
_atom_site_fract_z
Si Si1 0.524226 0.907455 0.054326
Si Si2 0.875637 0.268494 0.735727
Si Si3 0.692854 0.380112 0.420506
Si Si4 0.168693 0.411968 0.271839
Si Si5 0.097280 0.908600 0.041241
Si Si6 0.241351 0.161688 0.347982
O O1 0.291735 0.869378 0.182253
O O2 0.643174 0.755687 0.987034
O O3 0.500000 0.000000 0.000000
O O4 0.676987 0.997314 0.042308
O O5 0.741772 0.414197 0.760781
O O6 0.000000 0.319610 0.750000
O O7 0.064579 0.211562 0.610738
O O8 0.500000 0.500000 0.500000
O O9 0.727976 0.326894 0.332127
O O10 0.911326 0.447848 0.364005
O O11 0.214679 0.313430 0.316331
O O12 0.124095 0.814080 0.964603
O O13 0.883480 0.017897 0.131235
O O14 0.500000 0.124396 0.250000
#
# Coordination Sequence:
#
# PCOD8122612 Si02
#       6
#     4   4   4   4   4   4
#     4  12  24  39  72 107 138 176 221 294 356 405
#     4  12  23  42  67 107 138 170 224 289 354 412
#     4  11  22  41  67 104 140 172 221 289 355 409
#     4  11  24  42  68  99 136 180 228 281 343 418
#     4  11  26  45  68 100 140 179 235 286 342 416
#     4  11  26  48  67  93 135 193 237 278 335 417
#
# _framework density 21.489629999999998
#
# number of rings (size 3 to 8) (size 9 to 14) (size 15 to 20)
#    0.000    0.667    6.667    1.000    4.667    0.667 
#    0.000    4.167    0.000    0.000    0.000    0.000 
#    0.000    0.000    0.000    0.000    0.000    0.000 
#
# Total GULP energy -297533.423899 kJ/mol
# GULP energy per Si atom -12397.225996 kJ/mol
# Density = 2.144072 g / cm^3
# Si number density = 21.489630 Si / 1000 Ang^3
#
#
#
# Elastic Constant Matrix: (Units=GPa)
#
#
# Indices 1 2 3 4 5 6 
#
# 1 107.2459 46.0154 40.2821 0.0000 7.0066 0.0000
# 2 46.0154 83.8001 33.3188 0.0000 21.0885 0.0000
# 3 40.2821 33.3188 96.7630 0.0000 9.5726 0.0000
# 4 0.0000 0.0000 0.0000 37.5891 0.0000 5.2603
# 5 7.0066 21.0885 9.5726 0.0000 43.8492 0.0000
# 6 0.0000 0.0000 0.0000 5.2603 0.0000 29.6670
#
#
#
# Elastic Compliance Matrix: (Units=1/GPa)
#
#
# Indices 1 2 3 4 5 6 
#
# 1 0.013233 -0.006294 -0.003508 0.000000 0.001678 0.000000
# 2 -0.006294 0.018390 -0.003002 0.000000 -0.007184 0.000000
# 3 -0.003508 -0.003002 0.012909 0.000000 -0.000814 0.000000
# 4 0.000000 0.000000 0.000000 0.027280 0.000000 -0.004837
# 5 0.001678 -0.007184 -0.000814 0.000000 0.026170 0.000000
# 6 0.000000 0.000000 0.000000 -0.004837 0.000000 0.034565
#
#
# Mechanical properties :
#
#
# Convention : Reuss Voigt Hill
#
# Bulk Modulus (GPa) = 52.83821 58.56016 55.69918
# Shear Modulus (GPa) = 30.40216 33.43391 31.91803
#
# Velocity S-wave (km/s) = 3.76538 3.94866 3.85811
# Velocity P-wave (km/s) = 6.59888 6.93533 6.76920
#
# Compressibility (1/GPa) = 0.01892570
#
# Stress axis : x y z
#
# Youngs Moduli (GPa) = 75.57056 54.37610 77.46654
#
# Poissons Ratio (x) = 0.34224 0.27172
# Poissons Ratio (y) = 0.47564 0.23253
# Poissons Ratio (z) = 0.26507 0.16322
#
# Static dielectric constant tensor:
#      x y z
#    x 3.328750 0.000000 -0.139300 
#    y 0.000000 3.141770 0.000000 
#    z -0.139300 0.000000 4.043590 
# 
# 
# High freq. dielectric constant tensor:
#      x y z
#    x 1.829960 0.000000 0.004170 
#    y 0.000000 1.845050 0.000000 
#    z 0.004170 0.000000 1.860830 
# 
# From -- ./inp_files/86268.got.cif
#   From: 2010.06.25/outbox.cif.g09.slc.cpg/sg13_44_cif.got.tgz:86268.got - 2010.06.28 04:50:58.
