data_PCOD8122730
_publ_section_title
;
Structure prediction by ZEFSAII (Michael W. Deem and Ramdas Pophale) SiO2 
 PCOD8122730
Probable space group: P 2/C
;
_chemical_formula_sum "Si O2"
_cell_formula_units_Z 28
_cell_length_a 14.059393
_cell_length_b 11.266455
_cell_length_c 9.333816
_cell_angle_alpha 90.000000
_cell_angle_beta 68.516082
_cell_angle_gamma 90.000000
_cell_volume 1375.748324
_symmetry_space_group_name_H-M "P 2/C"
_symmetry_group_IT_number 13
_symmetry_cell_setting 'monoclinic'
loop_
_space_group_symop_operation_xyz
x,y,z
-x,y,1/2-z
-x,-y,-z
x,-y,1/2+z
loop_
_atom_site_type_symbol
_atom_site_label
_atom_site_fract_x
_atom_site_fract_y
_atom_site_fract_z
Si Si1 0.387606 0.345548 0.747358
Si Si2 0.575296 0.991642 0.086406
Si Si3 0.310579 0.772979 0.013243
Si Si4 0.899953 0.134771 0.230722
Si Si5 0.900259 0.114263 0.885893
Si Si6 0.302130 0.765850 0.552643
Si Si7 0.390086 0.617145 0.743739
O O1 0.500000 0.323034 0.750000
O O2 0.372105 0.260180 0.621536
O O3 0.371237 0.481479 0.709465
O O4 0.299278 0.312324 0.910041
O O5 0.500000 0.946744 0.250000
O O6 0.632207 0.115089 0.092320
O O7 0.500000 0.000000 0.000000
O O8 0.663169 0.897523 0.006392
O O9 0.193109 0.802573 0.109316
O O10 0.308786 0.661830 0.905919
O O11 0.807156 0.226299 0.308206
O O12 0.000000 0.193090 0.250000
O O13 0.878710 0.015033 0.331773
O O14 0.913783 0.109621 0.052389
O O15 0.000000 0.166953 0.750000
O O16 0.383628 0.698969 0.607890
O O17 0.500000 0.636404 0.750000
#
# Coordination Sequence:
#
# PCOD8122730 Si02
#       7
#     4   4   4   4   4   4   4
#     4  11  25  41  64  94 128 178 228 261 309 376
#     4  12  24  36  57  92 135 166 197 252 326 387
#     4  12  23  40  66  93 131 170 213 270 326 384
#     4  11  24  42  66  96 131 168 212 264 325 395
#     4  11  24  42  67  96 129 169 213 263 326 396
#     4  12  23  40  65  94 131 169 215 263 328 385
#     4  11  23  43  64  90 129 177 225 267 305 380
#
# _framework density 20.35256
#
# number of rings (size 3 to 8) (size 9 to 14) (size 15 to 20)
#    0.000    0.571    2.857    7.714    4.000    2.286 
#    0.000    0.000    0.000    5.143    0.000    0.000 
#    0.000    0.000    0.000    0.000    0.000    0.000 
#
# Total GULP energy -347153.170463 kJ/mol
# GULP energy per Si atom -12398.327517 kJ/mol
# Density = 2.030624 g / cm^3
# Si number density = 20.352560 Si / 1000 Ang^3
#
#
#
# Elastic Constant Matrix: (Units=GPa)
#
#
# Indices 1 2 3 4 5 6 
#
# 1 92.6721 44.3177 34.2665 0.0000 -5.2194 0.0000
# 2 44.3177 90.4995 35.1309 0.0000 -1.6515 0.0000
# 3 34.2665 35.1309 131.3458 0.0000 5.5931 0.0000
# 4 0.0000 0.0000 0.0000 22.8563 0.0000 4.1294
# 5 -5.2194 -1.6515 5.5931 0.0000 43.8697 0.0000
# 6 0.0000 0.0000 0.0000 4.1294 0.0000 17.8265
#
#
#
# Elastic Compliance Matrix: (Units=1/GPa)
#
#
# Indices 1 2 3 4 5 6 
#
# 1 0.014739 -0.006318 -0.002232 0.000000 0.001800 0.000000
# 2 -0.006318 0.015073 -0.002388 0.000000 0.000120 0.000000
# 3 -0.002232 -0.002388 0.008898 0.000000 -0.001490 0.000000
# 4 0.000000 0.000000 0.000000 0.045663 0.000000 -0.010577
# 5 0.001800 0.000120 -0.001490 0.000000 0.023203 0.000000
# 6 0.000000 0.000000 0.000000 -0.010577 0.000000 0.058547
#
#
# Mechanical properties :
#
#
# Convention : Reuss Voigt Hill
#
# Bulk Modulus (GPa) = 59.40748 60.21641 59.81195
# Shear Modulus (GPa) = 25.82493 30.29730 28.06112
#
# Velocity S-wave (km/s) = 3.56600 3.86245 3.71718
# Velocity P-wave (km/s) = 6.79762 7.03863 6.91917
#
# Compressibility (1/GPa) = 0.01683290
#
# Stress axis : x y z
#
# Youngs Moduli (GPa) = 67.84715 66.34260 112.38463
#
# Poissons Ratio (x) = 0.41918 0.25083
# Poissons Ratio (y) = 0.42869 0.26841
# Poissons Ratio (z) = 0.15143 0.15845
#
# Static dielectric constant tensor:
#      x y z
#    x 3.744170 0.000000 0.017300 
#    y 0.000000 3.595930 0.000000 
#    z 0.017300 0.000000 3.951370 
# 
# 
# High freq. dielectric constant tensor:
#      x y z
#    x 1.789310 0.000000 0.007480 
#    y 0.000000 1.780990 0.000000 
#    z 0.007480 0.000000 1.815430 
# 
# From -- ./inp_files/18841.got.cif
#   From: 2010.06.25/outbox.cif.g09.slc.cpg/sg13_10_cif.got.tgz:18841.got - 2010.06.28 04:50:58.
