data_PCOD8122933
_publ_section_title
;
Structure prediction by ZEFSAII (Michael W. Deem and Ramdas Pophale) SiO2 
 PCOD8122933
Probable space group: P 2/C
;
_chemical_formula_sum "Si O2"
_cell_formula_units_Z 28
_cell_length_a 6.673319
_cell_length_b 12.358696
_cell_length_c 17.926097
_cell_angle_alpha 90.000000
_cell_angle_beta 111.855467
_cell_angle_gamma 90.000000
_cell_volume 1372.167595
_symmetry_space_group_name_H-M "P 2/C"
_symmetry_group_IT_number 13
_symmetry_cell_setting 'monoclinic'
loop_
_space_group_symop_operation_xyz
x,y,z
-x,y,1/2-z
-x,-y,-z
x,-y,1/2+z
loop_
_atom_site_type_symbol
_atom_site_label
_atom_site_fract_x
_atom_site_fract_y
_atom_site_fract_z
Si Si1 0.256206 0.964622 0.961695
Si Si2 0.766313 0.867801 0.691120
Si Si3 0.667184 0.535379 0.961695
Si Si4 0.000000 0.474447 0.750000
Si Si5 0.081176 0.622528 0.102579
Si Si6 0.615929 0.632199 0.691120
Si Si7 0.876016 0.122528 0.897420
Si Si8 0.500000 0.974448 0.250000
O O1 0.237628 0.867849 0.899090
O O2 0.190138 0.917562 0.030957
O O3 0.103558 0.063266 0.911430
O O4 0.500000 0.000000 0.000000
O O5 0.715974 0.750000 0.715972
O O6 0.588205 0.951453 0.695688
O O7 0.000000 0.905614 0.750000
O O8 0.719303 0.436736 0.911430
O O9 0.560549 0.632153 0.899090
O O10 0.500000 0.500000 0.000000
O O11 0.871774 0.582441 0.030956
O O12 0.072202 0.402578 0.689527
O O13 0.196829 0.548546 0.804311
O O14 0.096258 0.750000 0.096255
O O15 0.500000 0.594387 0.750000
O O16 0.693149 0.097421 0.810473
#
# Coordination Sequence:
#
# PCOD8122933 Si02
#       8
#     4   4   4   2   4   4   4   2
#     4  11  25  45  68  99 139 171 225 282 333 401
#     4  12  25  42  70 100 133 177 221 279 341 391
#     4  11  25  45  68  99 139 171 225 282 333 401
#     4  12  24  46  64 100 140 170 230 278 324 410
#     4  11  27  44  69 101 135 179 226 275 336 402
#     4  12  25  42  70 100 133 177 221 279 341 391
#     4  11  27  44  69 101 135 179 226 275 336 402
#     4  12  24  46  64 100 140 170 230 278 324 410
#
# _framework density 20.405671000000002
#
# number of rings (size 3 to 8) (size 9 to 14) (size 15 to 20)
#    0.000    0.571    7.143    0.000    4.000    3.429 
#    0.000    0.000    0.000    0.000    0.000    0.000 
#    0.000    0.000    0.000    0.000    0.000    0.000 
#
# Total GULP energy -347267.640483 kJ/mol
# GULP energy per Si atom -12402.415732 kJ/mol
# Density = 2.035923 g / cm^3
# Si number density = 20.405671 Si / 1000 Ang^3
#
#
#
# Elastic Constant Matrix: (Units=GPa)
#
#
# Indices 1 2 3 4 5 6 
#
# 1 120.3501 41.9037 41.7076 0.0000 0.2718 0.0000
# 2 41.9037 123.4856 30.9080 0.0000 0.3782 0.0000
# 3 41.7076 30.9080 124.3290 0.0000 -0.4025 0.0000
# 4 0.0000 0.0000 0.0000 29.7310 0.0000 -0.3648
# 5 0.2718 0.3782 -0.4025 0.0000 35.4038 0.0000
# 6 0.0000 0.0000 0.0000 -0.3648 0.0000 19.0171
#
#
#
# Elastic Compliance Matrix: (Units=1/GPa)
#
#
# Indices 1 2 3 4 5 6 
#
# 1 0.010228 -0.002785 -0.002739 0.000000 -0.000080 0.000000
# 2 -0.002785 0.009394 -0.001401 0.000000 -0.000095 0.000000
# 3 -0.002739 -0.001401 0.009311 0.000000 0.000142 0.000000
# 4 0.000000 0.000000 0.000000 0.033643 0.000000 0.000645
# 5 -0.000080 -0.000095 0.000142 0.000000 0.028249 0.000000
# 6 0.000000 0.000000 0.000000 0.000645 0.000000 0.052597
#
#
# Mechanical properties :
#
#
# Convention : Reuss Voigt Hill
#
# Bulk Modulus (GPa) = 66.30305 66.35595 66.32950
# Shear Modulus (GPa) = 30.80712 33.74006 32.27359
#
# Velocity S-wave (km/s) = 3.88974 4.07069 3.98125
# Velocity P-wave (km/s) = 7.26199 7.39480 7.32869
#
# Compressibility (1/GPa) = 0.01508226
#
# Stress axis : x y z
#
# Youngs Moduli (GPa) = 97.76888 106.44808 107.40114
#
# Poissons Ratio (x) = 0.29646 0.29418
# Poissons Ratio (y) = 0.27229 0.15052
# Poissons Ratio (z) = 0.26780 0.14918
#
# Static dielectric constant tensor:
#      x y z
#    x 4.072560 0.000000 0.034660 
#    y 0.000000 3.573610 0.000000 
#    z 0.034660 0.000000 3.058000 
# 
# 
# High freq. dielectric constant tensor:
#      x y z
#    x 1.817120 0.000000 0.000020 
#    y 0.000000 1.785770 0.000000 
#    z 0.000020 0.000000 1.816570 
# 
# From -- ./inp_files/73701.got.cif
#   From: 2010.06.25/outbox.cif.g09.slc.cpg/sg13_37_cif.got.tgz:73701.got - 2010.06.28 04:50:58.
