data_PCOD8122763
_publ_section_title
;
Structure prediction by ZEFSAII (Michael W. Deem and Ramdas Pophale) SiO2 
 PCOD8122763
Probable space group: P 2/C
;
_chemical_formula_sum "Si O2"
_cell_formula_units_Z 22
_cell_length_a 12.987142
_cell_length_b 7.541797
_cell_length_c 13.102157
_cell_angle_alpha 90.000000
_cell_angle_beta 51.793599
_cell_angle_gamma 90.000000
_cell_volume 1008.408526
_symmetry_space_group_name_H-M "P 2/C"
_symmetry_group_IT_number 13
_symmetry_cell_setting 'monoclinic'
loop_
_space_group_symop_operation_xyz
x,y,z
-x,y,1/2-z
-x,-y,-z
x,-y,1/2+z
loop_
_atom_site_type_symbol
_atom_site_label
_atom_site_fract_x
_atom_site_fract_y
_atom_site_fract_z
Si Si1 0.773695 0.937527 0.266377
Si Si2 0.382296 0.293588 0.159030
Si Si3 0.185587 0.391903 0.443233
Si Si4 0.000000 0.919558 0.750000
Si Si5 0.062211 0.234530 0.996573
Si Si6 0.330021 0.378555 0.556346
O O1 0.854457 0.921849 0.109994
O O2 0.701631 0.751752 0.330391
O O3 0.666912 0.093835 0.331803
O O4 0.874854 0.963114 0.297578
O O5 0.320651 0.358125 0.302011
O O6 0.341631 0.420554 0.089691
O O7 0.538030 0.304229 0.076830
O O8 0.140367 0.584979 0.437378
O O9 0.212739 0.377381 0.546679
O O10 0.076463 0.248707 0.477312
O O11 0.037083 0.798393 0.630824
#
# Coordination Sequence:
#
# PCOD8122763 Si02
#       6
#     4   4   4   2   4   4
#     4  12  24  43  69 103 131 175 223 275 330 403
#     4  11  24  46  68  97 138 174 228 272 322 401
#     4  11  23  44  68 100 135 176 223 276 336 398
#     4  12  24  40  68  98 138 172 214 282 336 396
#     4  11  25  42  70 101 135 171 225 278 337 401
#     4  11  25  45  70  96 135 184 220 272 331 393
#
# _framework density 21.816557
#
# number of rings (size 3 to 8) (size 9 to 14) (size 15 to 20)
#    0.000    0.727    3.636    3.818    2.545    0.000 
#    0.000    0.000    0.000    0.000    0.000    0.000 
#    0.000    0.000    0.000    0.000    0.000    0.000 
#
# Total GULP energy -272851.881985 kJ/mol
# GULP energy per Si atom -12402.358272 kJ/mol
# Density = 2.176690 g / cm^3
# Si number density = 21.816557 Si / 1000 Ang^3
#
#
#
# Elastic Constant Matrix: (Units=GPa)
#
#
# Indices 1 2 3 4 5 6 
#
# 1 80.9757 33.1834 40.5210 0.0000 5.3866 0.0000
# 2 33.1834 102.7601 38.0906 0.0000 -3.0698 0.0000
# 3 40.5210 38.0906 106.4624 0.0000 1.0810 0.0000
# 4 0.0000 0.0000 0.0000 40.9590 0.0000 -1.0344
# 5 5.3866 -3.0698 1.0810 0.0000 34.3973 0.0000
# 6 0.0000 0.0000 0.0000 -1.0344 0.0000 28.7543
#
#
#
# Elastic Compliance Matrix: (Units=1/GPa)
#
#
# Indices 1 2 3 4 5 6 
#
# 1 0.016478 -0.003561 -0.004970 0.000000 -0.002742 0.000000
# 2 -0.003561 0.012033 -0.002967 0.000000 0.001725 0.000000
# 3 -0.004970 -0.002967 0.012345 0.000000 0.000126 0.000000
# 4 0.000000 0.000000 0.000000 0.024437 0.000000 0.000879
# 5 -0.002742 0.001725 0.000126 0.000000 0.029651 0.000000
# 6 0.000000 0.000000 0.000000 0.000879 0.000000 0.034809
#
#
# Mechanical properties :
#
#
# Convention : Reuss Voigt Hill
#
# Bulk Modulus (GPa) = 55.99229 57.08759 56.53994
# Shear Modulus (GPa) = 31.50555 32.71567 32.11061
#
# Velocity S-wave (km/s) = 3.80427 3.87664 3.84063
# Velocity P-wave (km/s) = 6.70950 6.80160 6.75570
#
# Compressibility (1/GPa) = 0.01785960
#
# Stress axis : x y z
#
# Youngs Moduli (GPa) = 60.68713 83.10692 81.00450
#
# Poissons Ratio (x) = 0.29593 0.40258
# Poissons Ratio (y) = 0.21609 0.24037
# Poissons Ratio (z) = 0.30161 0.24661
#
# Static dielectric constant tensor:
#      x y z
#    x 3.784620 0.000000 -0.165780 
#    y 0.000000 3.925470 0.000000 
#    z -0.165780 0.000000 3.949630 
# 
# 
# High freq. dielectric constant tensor:
#      x y z
#    x 1.848860 0.000000 -0.007680 
#    y 0.000000 1.868920 0.000000 
#    z -0.007680 0.000000 1.867440 
# 
# From -- ./inp_files/35840.got.cif
#   From: 2010.06.25/outbox.cif.g09.slc.cpg/sg13_18_cif.got.tgz:35840.got - 2010.06.28 04:50:58.
