data_PCOD8122934
_publ_section_title
;
Structure prediction by ZEFSAII (Michael W. Deem and Ramdas Pophale) SiO2 
 PCOD8122934
Probable space group: P 2/C
;
_chemical_formula_sum "Si O2"
_cell_formula_units_Z 16
_cell_length_a 20.710840
_cell_length_b 5.849435
_cell_length_c 12.839057
_cell_angle_alpha 90.000000
_cell_angle_beta 24.587918
_cell_angle_gamma 90.000000
_cell_volume 647.188883
_symmetry_space_group_name_H-M "P 2/C"
_symmetry_group_IT_number 13
_symmetry_cell_setting 'monoclinic'
loop_
_space_group_symop_operation_xyz
x,y,z
-x,y,1/2-z
-x,-y,-z
x,-y,1/2+z
loop_
_atom_site_type_symbol
_atom_site_label
_atom_site_fract_x
_atom_site_fract_y
_atom_site_fract_z
Si Si1 0.689033 0.039598 0.610717
Si Si2 0.035846 0.721367 0.312189
Si Si3 0.235631 0.393553 0.156259
Si Si4 0.430679 0.690003 0.027304
O O1 0.865853 0.955237 0.336524
O O2 0.652399 0.226226 0.574402
O O3 0.674481 0.141414 0.748556
O O4 0.570221 0.830510 0.769590
O O5 0.129288 0.520319 0.229411
O O6 0.000000 0.630040 0.250000
O O7 0.871866 0.761996 0.610767
O O8 0.332444 0.576836 0.079734
O O9 0.500000 0.500000 0.000000
#
# Coordination Sequence:
#
# PCOD8122934 Si02
#       4
#     4   4   4   4
#     4  11  25  45  73 103 140 188 234 285 357 424
#     4  11  25  45  69 101 142 184 235 294 349 417
#     4  11  25  46  72 104 140 185 237 292 351 420
#     4  11  26  47  71 105 146 183 232 296 353 419
#
# _framework density 24.722301999999999
#
# number of rings (size 3 to 8) (size 9 to 14) (size 15 to 20)
#    0.000    1.000    0.000    5.250    0.000   17.000 
#    0.000    2.500    0.000    0.000    0.000    0.000 
#    0.000    0.000    0.000    0.000    0.000    0.000 
#
# Total GULP energy -198489.461134 kJ/mol
# GULP energy per Si atom -12405.591321 kJ/mol
# Density = 2.466603 g / cm^3
# Si number density = 24.722302 Si / 1000 Ang^3
#
#
#
# Elastic Constant Matrix: (Units=GPa)
#
#
# Indices 1 2 3 4 5 6 
#
# 1 171.3727 58.7253 53.7085 0.0000 10.0217 0.0000
# 2 58.7253 117.4896 52.2464 0.0000 0.8970 0.0000
# 3 53.7085 52.2464 124.1583 0.0000 12.6916 0.0000
# 4 0.0000 0.0000 0.0000 61.0036 0.0000 11.6805
# 5 10.0217 0.8970 12.6916 0.0000 30.7474 0.0000
# 6 0.0000 0.0000 0.0000 11.6805 0.0000 35.8834
#
#
#
# Elastic Compliance Matrix: (Units=1/GPa)
#
#
# Indices 1 2 3 4 5 6 
#
# 1 0.007510 -0.002915 -0.001859 0.000000 -0.001595 0.000000
# 2 -0.002915 0.011676 -0.003878 0.000000 0.002210 0.000000
# 3 -0.001859 -0.003878 0.010876 0.000000 -0.003770 0.000000
# 4 0.000000 0.000000 0.000000 0.017482 0.000000 -0.005691
# 5 -0.001595 0.002210 -0.003770 0.000000 0.034535 0.000000
# 6 0.000000 0.000000 0.000000 -0.005691 0.000000 0.029720
#
#
# Mechanical properties :
#
#
# Convention : Reuss Voigt Hill
#
# Bulk Modulus (GPa) = 78.38575 82.48678 80.43627
# Shear Modulus (GPa) = 37.49353 42.08290 39.78821
#
# Velocity S-wave (km/s) = 3.89856 4.13028 4.01609
# Velocity P-wave (km/s) = 7.21390 7.49556 7.35608
#
# Compressibility (1/GPa) = 0.01275742
#
# Stress axis : x y z
#
# Youngs Moduli (GPa) = 133.15552 85.64451 91.94694
#
# Poissons Ratio (x) = 0.24965 0.17093
# Poissons Ratio (y) = 0.38814 0.35661
# Poissons Ratio (z) = 0.24754 0.33216
#
# Static dielectric constant tensor:
#      x y z
#    x 4.669070 0.000000 0.201620 
#    y 0.000000 4.443890 0.000000 
#    z 0.201620 0.000000 5.025720 
# 
# 
# High freq. dielectric constant tensor:
#      x y z
#    x 1.988420 0.000000 0.014670 
#    y 0.000000 1.984530 0.000000 
#    z 0.014670 0.000000 2.002590 
# 
# From -- ./inp_files/39690.got.cif
#   From: 2010.06.25/outbox.cif.g09.slc.cpg/sg13_20_cif.got.tgz:39690.got - 2010.06.28 04:50:58.
