data_PCOD8122797
_publ_section_title
;
Structure prediction by ZEFSAII (Michael W. Deem and Ramdas Pophale) SiO2 
 PCOD8122797
Probable space group: P 2/C
;
_chemical_formula_sum "Si O2"
_cell_formula_units_Z 24
_cell_length_a 13.454295
_cell_length_b 10.094338
_cell_length_c 17.799131
_cell_angle_alpha 90.000000
_cell_angle_beta 157.130164
_cell_angle_gamma 90.000000
_cell_volume 939.472100
_symmetry_space_group_name_H-M "P 2/C"
_symmetry_group_IT_number 13
_symmetry_cell_setting 'monoclinic'
loop_
_space_group_symop_operation_xyz
x,y,z
-x,y,1/2-z
-x,-y,-z
x,-y,1/2+z
loop_
_atom_site_type_symbol
_atom_site_label
_atom_site_fract_x
_atom_site_fract_y
_atom_site_fract_z
Si Si1 0.417309 0.830050 0.406622
Si Si2 0.983969 0.001607 0.659990
Si Si3 0.913381 0.583123 0.276307
Si Si4 0.650689 0.750485 0.922748
Si Si5 0.731586 0.812289 0.366476
Si Si6 0.236191 0.310039 0.255186
O O1 0.302895 0.690869 0.356020
O O2 0.391281 0.849598 0.299116
O O3 0.709274 0.808753 0.644077
O O4 0.274533 0.957571 0.340619
O O5 0.830420 0.134002 0.579682
O O6 0.000000 0.918249 0.750000
O O7 0.830340 0.938305 0.483320
O O8 0.802296 0.447262 0.229325
O O9 0.000000 0.575295 0.250000
O O10 0.178788 0.633744 0.497961
O O11 0.500000 0.817494 0.750000
O O12 0.470662 0.686620 0.860894
O O13 0.500000 0.741879 0.250000
O O14 0.974234 0.716413 0.526922
#
# Coordination Sequence:
#
# PCOD8122797 Si02
#       6
#     4   4   4   4   4   4
#     4  11  24  49  75 106 143 193 250 303 368 442
#     4  11  23  48  76 104 147 194 249 305 372 435
#     4  11  24  44  74 109 147 191 245 303 368 444
#     4  11  23  45  75 107 147 197 249 300 366 447
#     4  12  31  45  68 108 150 190 252 313 363 433
#     4  12  26  46  76 107 148 199 242 305 370 438
#
# _framework density 25.54626
#
# number of rings (size 3 to 8) (size 9 to 14) (size 15 to 20)
#    0.000    0.667    3.333    4.500    4.667    5.333 
#    0.000    0.000    0.000    0.000    0.000    0.000 
#    0.000    0.000    0.000    0.000    0.000    0.000 
#
# Total GULP energy -297338.542034 kJ/mol
# GULP energy per Si atom -12389.105918 kJ/mol
# Density = 2.548812 g / cm^3
# Si number density = 25.546260 Si / 1000 Ang^3
#
#
#
# Elastic Constant Matrix: (Units=GPa)
#
#
# Indices 1 2 3 4 5 6 
#
# 1 116.6010 -10.1219 10.5874 0.0000 -16.1161 0.0000
# 2 -10.1219 61.8383 -20.1090 0.0000 4.2592 0.0000
# 3 10.5874 -20.1090 120.5145 0.0000 -9.7467 0.0000
# 4 0.0000 0.0000 0.0000 17.8474 0.0000 1.2504
# 5 -16.1161 4.2592 -9.7467 0.0000 58.4505 0.0000
# 6 0.0000 0.0000 0.0000 1.2504 0.0000 34.0742
#
#
#
# Elastic Compliance Matrix: (Units=1/GPa)
#
#
# Indices 1 2 3 4 5 6 
#
# 1 0.009039 0.001186 -0.000407 0.000000 0.002338 0.000000
# 2 0.001186 0.017290 0.002742 0.000000 -0.000476 0.000000
# 3 -0.000407 0.002742 0.008886 0.000000 0.001170 0.000000
# 4 0.000000 0.000000 0.000000 0.056175 0.000000 -0.002061
# 5 0.002338 -0.000476 0.001170 0.000000 0.017983 0.000000
# 6 0.000000 0.000000 0.000000 -0.002061 0.000000 0.029423
#
#
# Mechanical properties :
#
#
# Convention : Reuss Voigt Hill
#
# Bulk Modulus (GPa) = 23.66435 28.85188 26.25811
# Shear Modulus (GPa) = 34.28435 43.31424 38.79930
#
# Velocity S-wave (km/s) = 3.66737 4.12214 3.90139
# Velocity P-wave (km/s) = 5.21692 5.82877 5.53131
#
# Compressibility (1/GPa) = 0.04225765
#
# Stress axis : x y z
#
# Youngs Moduli (GPa) = 110.62755 57.83733 112.54042
#
# Poissons Ratio (x) = -0.06861 0.04582
# Poissons Ratio (y) = -0.13122 -0.30862
# Poissons Ratio (z) = 0.04504 -0.15861
#
# Static dielectric constant tensor:
#      x y z
#    x 4.723450 0.000000 0.110550 
#    y 0.000000 4.355180 0.000000 
#    z 0.110550 0.000000 5.319040 
# 
# 
# High freq. dielectric constant tensor:
#      x y z
#    x 2.031410 0.000000 0.002700 
#    y 0.000000 2.003950 0.000000 
#    z 0.002700 0.000000 2.057150 
# 
# From -- ./inp_files/80206.got.cif
#   From: 2010.06.25/outbox.cif.g09.slc.cpg/sg13_41_cif.got.tgz:80206.got - 2010.06.28 04:50:58.
