data_PCOD8122485
_publ_section_title
;
Structure prediction by ZEFSAII (Michael W. Deem and Ramdas Pophale) SiO2 
 PCOD8122485
Probable space group: P 2/C
;
_chemical_formula_sum "Si O2"
_cell_formula_units_Z 22
_cell_length_a 20.080522
_cell_length_b 9.480263
_cell_length_c 8.528454
_cell_angle_alpha 90.000000
_cell_angle_beta 40.344488
_cell_angle_gamma 90.000000
_cell_volume 1051.056735
_symmetry_space_group_name_H-M "P 2/C"
_symmetry_group_IT_number 13
_symmetry_cell_setting 'monoclinic'
loop_
_space_group_symop_operation_xyz
x,y,z
-x,y,1/2-z
-x,-y,-z
x,-y,1/2+z
loop_
_atom_site_type_symbol
_atom_site_label
_atom_site_fract_x
_atom_site_fract_y
_atom_site_fract_z
Si Si1 0.385610 0.848062 0.501139
Si Si2 0.074191 0.433028 0.491913
Si Si3 0.662229 0.876073 0.257085
Si Si4 0.500000 0.257923 0.250000
Si Si5 0.393187 0.419297 0.200679
Si Si6 0.793779 0.372773 0.518911
O O1 0.500000 0.897326 0.250000
O O2 0.323304 0.849070 0.452134
O O3 0.381774 0.693450 0.581974
O O4 0.326896 0.959442 0.719847
O O5 0.135043 0.554837 0.478254
O O6 0.000000 0.500000 0.500000
O O7 0.149585 0.338227 0.249995
O O8 0.000000 0.349083 0.750000
O O9 0.547674 0.832648 0.522356
O O10 0.751242 0.774278 0.168705
O O11 0.402653 0.344790 0.354433
O O12 0.299082 0.524445 0.364243
O O13 0.500000 0.500000 0.000000
#
# Coordination Sequence:
#
# PCOD8122485 Si02
#       6
#     4   4   4   2   4   4
#     4  12  23  40  53  81 122 187 225 250 292 353
#     4   9  20  39  65  94 122 148 196 265 330 377
#     4  12  24  37  59  81 123 171 219 251 296 363
#     4  12  22  36  52  82 122 172 208 246 296 340
#     4  12  25  36  59  90 134 169 209 253 300 367
#     4  11  21  39  62  96 122 160 203 256 315 377
#
# _framework density 20.931315999999999
#
# number of rings (size 3 to 8) (size 9 to 14) (size 15 to 20)
#    0.000    0.727    4.545    3.818    3.818    0.000 
#    0.000    0.000    0.000    0.000    0.000   80.182 
#    0.000    0.000    0.000    0.000    0.000    0.000 
#
# Total GULP energy -272573.000178 kJ/mol
# GULP energy per Si atom -12389.681826 kJ/mol
# Density = 2.088368 g / cm^3
# Si number density = 20.931316 Si / 1000 Ang^3
#
#
#
# Elastic Constant Matrix: (Units=GPa)
#
#
# Indices 1 2 3 4 5 6 
#
# 1 97.8013 15.6473 24.9516 0.0000 3.2115 0.0000
# 2 15.6473 101.4627 44.2251 0.0000 -0.1634 0.0000
# 3 24.9516 44.2251 115.5781 0.0000 3.6245 0.0000
# 4 0.0000 0.0000 0.0000 17.2851 0.0000 4.5710
# 5 3.2115 -0.1634 3.6245 0.0000 34.6819 0.0000
# 6 0.0000 0.0000 0.0000 4.5710 0.0000 14.8389
#
#
#
# Elastic Compliance Matrix: (Units=1/GPa)
#
#
# Indices 1 2 3 4 5 6 
#
# 1 0.010895 -0.000801 -0.002020 0.000000 -0.000801 0.000000
# 2 -0.000801 0.011897 -0.004398 0.000000 0.000590 0.000000
# 3 -0.002020 -0.004398 0.010801 0.000000 -0.000962 0.000000
# 4 0.000000 0.000000 0.000000 0.062984 0.000000 -0.019402
# 5 -0.000801 0.000590 -0.000962 0.000000 0.029011 0.000000
# 6 0.000000 0.000000 0.000000 -0.019402 0.000000 0.073367
#
#
# Mechanical properties :
#
#
# Convention : Reuss Voigt Hill
#
# Bulk Modulus (GPa) = 52.20607 53.83224 53.01915
# Shear Modulus (GPa) = 22.75013 28.69572 25.72292
#
# Velocity S-wave (km/s) = 3.30038 3.70665 3.50940
# Velocity P-wave (km/s) = 6.28642 6.64028 6.46577
#
# Compressibility (1/GPa) = 0.01915486
#
# Stress axis : x y z
#
# Youngs Moduli (GPa) = 91.78756 84.05288 92.58061
#
# Poissons Ratio (x) = 0.06731 0.18706
# Poissons Ratio (y) = 0.07350 0.40717
# Poissons Ratio (z) = 0.18545 0.36967
#
# Static dielectric constant tensor:
#      x y z
#    x -2.576610 0.000000 1.413930 
#    y 0.000000 3.749660 0.000000 
#    z 1.413930 0.000000 4.441900 
# 
# 
# High freq. dielectric constant tensor:
#      x y z
#    x 1.825820 0.000000 0.024420 
#    y 0.000000 1.793720 0.000000 
#    z 0.024420 0.000000 1.821250 
# 
# From -- ./inp_files/21058.got.cif
#   From: 2010.06.25/outbox.cif.g09.slc.cpg/sg13_11_cif.got.tgz:21058.got - 2010.06.28 04:50:58.
