data_PCOD8122820
_publ_section_title
;
Structure prediction by ZEFSAII (Michael W. Deem and Ramdas Pophale) SiO2 
 PCOD8122820
Probable space group: P 2/C
;
_chemical_formula_sum "Si O2"
_cell_formula_units_Z 24
_cell_length_a 10.914054
_cell_length_b 13.077097
_cell_length_c 14.002413
_cell_angle_alpha 90.000000
_cell_angle_beta 151.223409
_cell_angle_gamma 90.000000
_cell_volume 962.060643
_symmetry_space_group_name_H-M "P 2/C"
_symmetry_group_IT_number 13
_symmetry_cell_setting 'monoclinic'
loop_
_space_group_symop_operation_xyz
x,y,z
-x,y,1/2-z
-x,-y,-z
x,-y,1/2+z
loop_
_atom_site_type_symbol
_atom_site_label
_atom_site_fract_x
_atom_site_fract_y
_atom_site_fract_z
Si Si1 0.486983 0.575791 0.849443
Si Si2 0.744427 0.086947 0.546744
Si Si3 0.691818 0.717401 0.138440
Si Si4 0.722792 0.641979 0.519873
Si Si5 0.795119 0.087715 0.364400
Si Si6 0.995509 0.698630 0.965083
O O1 0.500000 0.615512 0.750000
O O2 0.205434 0.607636 0.694004
O O3 0.692423 0.631619 0.056462
O O4 0.533871 0.455474 0.889806
O O5 0.756468 0.177157 0.631790
O O6 0.760852 0.124944 0.449317
O O7 0.461705 0.037246 0.358751
O O8 0.000000 0.019295 0.750000
O O9 0.913596 0.690497 0.364098
O O10 0.420715 0.723849 0.010278
O O11 0.761860 0.684743 0.439198
O O12 0.000000 0.615310 0.750000
O O13 0.871167 0.189956 0.358673
O O14 0.000000 0.000000 0.500000
#
# Coordination Sequence:
#
# PCOD8122820 Si02
#       6
#     4   4   4   4   4   4
#     4  12  27  43  70 106 147 198 258 313 374 459
#     4  11  23  47  77 113 148 193 247 310 389 456
#     4  12  25  46  75 103 148 200 253 313 379 460
#     4  12  27  47  69 109 154 205 259 312 390 460
#     4  11  25  49  78 114 150 195 255 320 388 465
#     4  12  26  49  73 105 155 199 255 327 387 456
#
# _framework density 24.946453999999999
#
# number of rings (size 3 to 8) (size 9 to 14) (size 15 to 20)
#    0.000    0.333    5.000    3.000    2.333    2.000 
#    6.000    0.833    0.000    0.000    0.000    0.000 
#    0.000    0.000    0.000    0.000    0.000    0.000 
#
# Total GULP energy -297435.589931 kJ/mol
# GULP energy per Si atom -12393.149580 kJ/mol
# Density = 2.488967 g / cm^3
# Si number density = 24.946454 Si / 1000 Ang^3
#
#
#
# Elastic Constant Matrix: (Units=GPa)
#
#
# Indices 1 2 3 4 5 6 
#
# 1 104.7223 36.8649 36.1554 0.0000 -0.2396 0.0000
# 2 36.8649 67.1577 51.7476 0.0000 16.6474 0.0000
# 3 36.1554 51.7476 195.1619 0.0000 13.6799 0.0000
# 4 0.0000 0.0000 0.0000 37.9384 0.0000 1.0400
# 5 -0.2396 16.6474 13.6799 0.0000 56.4814 0.0000
# 6 0.0000 0.0000 0.0000 1.0400 0.0000 -1.0806
#
#
#
# Elastic Compliance Matrix: (Units=1/GPa)
#
#
# Indices 1 2 3 4 5 6 
#
# 1 0.012135 -0.006727 -0.000618 0.000000 0.002184 0.000000
# 2 -0.006727 0.023577 -0.004594 0.000000 -0.005865 0.000000
# 3 -0.000618 -0.004594 0.006472 0.000000 -0.000216 0.000000
# 4 0.000000 0.000000 0.000000 0.025681 0.000000 0.024717
# 5 0.002184 -0.005865 -0.000216 0.000000 0.019495 0.000000
# 6 0.000000 0.000000 0.000000 0.024717 0.000000 -0.901662
#
#
# Mechanical properties :
#
#
# Convention : Reuss Voigt Hill
#
# Bulk Modulus (GPa) = 54.62551 68.50864 61.56707
# Shear Modulus (GPa) = -6.37493 34.81946 14.22227
#
# Velocity S-wave (km/s) = -1.60031 3.74005 2.39029
# Velocity P-wave (km/s) = 4.30465 6.79504 5.68782
#
# Compressibility (1/GPa) = 0.01830647
#
# Stress axis : x y z
#
# Youngs Moduli (GPa) = 82.40406 42.41483 154.52030
#
# Poissons Ratio (x) = 0.28532 0.09543
# Poissons Ratio (y) = 0.55432 0.70988
# Poissons Ratio (z) = 0.05089 0.19486
#
# Static dielectric constant tensor:
#      x y z
#    x 5.043270 0.000000 0.030200 
#    y 0.000000 3.877640 0.000000 
#    z 0.030200 0.000000 5.120700 
# 
# 
# High freq. dielectric constant tensor:
#      x y z
#    x 2.011740 0.000000 -0.004710 
#    y 0.000000 1.937770 0.000000 
#    z -0.004710 0.000000 2.032010 
# 
# From -- ./inp_files/51519.got.cif
#   From: 2010.06.25/outbox.cif.g09.slc.cpg/sg13_26_cif.got.tgz:51519.got - 2010.06.28 04:50:58.
