data_PCOD8122042
_publ_section_title
;
Structure prediction by ZEFSAII (Michael W. Deem and Ramdas Pophale) SiO2 
 PCOD8122042
Probable space group: P 2/C
;
_chemical_formula_sum "Si O2"
_cell_formula_units_Z 26
_cell_length_a 14.529923
_cell_length_b 10.679971
_cell_length_c 9.323321
_cell_angle_alpha 90.000000
_cell_angle_beta 96.562999
_cell_angle_gamma 90.000000
_cell_volume 1437.303991
_symmetry_space_group_name_H-M "P 2/C"
_symmetry_group_IT_number 13
_symmetry_cell_setting 'monoclinic'
loop_
_space_group_symop_operation_xyz
x,y,z
-x,y,1/2-z
-x,-y,-z
x,-y,1/2+z
loop_
_atom_site_type_symbol
_atom_site_label
_atom_site_fract_x
_atom_site_fract_y
_atom_site_fract_z
Si Si1 0.419872 0.842015 0.493333
Si Si2 0.464189 0.384392 0.403472
Si Si3 0.043110 0.674725 0.398772
Si Si4 0.262448 0.568581 0.796119
Si Si5 0.926551 0.380135 0.125517
Si Si6 0.500000 0.990112 0.250000
Si Si7 0.754665 0.667320 0.021630
O O1 0.500250 0.739315 0.513363
O O2 0.432704 0.910962 0.343045
O O3 0.318830 0.779379 0.483614
O O4 0.431924 0.929718 0.635404
O O5 0.500000 0.399948 0.250000
O O6 0.500000 0.500000 0.500000
O O7 0.353927 0.372914 0.381051
O O8 0.064987 0.528431 0.388400
O O9 0.142889 0.732360 0.461712
O O10 0.000000 0.736807 0.250000
O O11 0.956392 0.693681 0.489104
O O12 0.177977 0.650395 0.845951
O O13 0.260894 0.581205 0.622932
O O14 0.256249 0.422150 0.840396
O O15 0.000000 0.327731 0.250000
#
# Coordination Sequence:
#
# PCOD8122042 Si02
#       7
#     4   4   4   4   4   2   4
#     4  11  22  42  60  84 110 149 196 244 289 335
#     4  12  22  36  54  85 127 154 181 228 289 352
#     4   9  18  30  45  71 109 151 186 226 262 331
#     4  11  20  31  49  79 118 160 183 214 278 351
#     4   9  16  28  44  67 106 156 193 210 255 327
#     4  10  24  42  64  76 110 148 204 254 284 324
#     4  11  21  33  54  79 116 153 188 224 280 344
#
# _framework density 18.089423
#
# number of rings (size 3 to 8) (size 9 to 14) (size 15 to 20)
#    0.000    1.538    5.385    0.000    7.538    1.231 
#    0.000    0.000    0.000    0.000    0.000    1.077 
#    0.000    0.000    0.000    0.000    0.000    0.000 
#
# Total GULP energy -322209.528038 kJ/mol
# GULP energy per Si atom -12392.674155 kJ/mol
# Density = 1.804825 g / cm^3
# Si number density = 18.089423 Si / 1000 Ang^3
#
#
#
# Elastic Constant Matrix: (Units=GPa)
#
#
# Indices 1 2 3 4 5 6 
#
# 1 171.2791 37.6477 53.9918 0.0000 5.7214 0.0000
# 2 37.6477 65.5609 45.2720 0.0000 -3.2520 0.0000
# 3 53.9918 45.2720 121.8545 0.0000 -3.0090 0.0000
# 4 0.0000 0.0000 0.0000 22.4978 0.0000 0.0601
# 5 5.7214 -3.2520 -3.0090 0.0000 31.3313 0.0000
# 6 0.0000 0.0000 0.0000 0.0601 0.0000 14.3636
#
#
#
# Elastic Compliance Matrix: (Units=1/GPa)
#
#
# Indices 1 2 3 4 5 6 
#
# 1 0.007192 -0.002674 -0.002238 0.000000 -0.001806 0.000000
# 2 -0.002674 0.021572 -0.006778 0.000000 0.002076 0.000000
# 3 -0.002238 -0.006778 0.011737 0.000000 0.000832 0.000000
# 4 0.000000 0.000000 0.000000 0.044449 0.000000 -0.000186
# 5 -0.001806 0.002076 0.000832 0.000000 0.032542 0.000000
# 6 0.000000 0.000000 0.000000 -0.000186 0.000000 0.069621
#
#
# Mechanical properties :
#
#
# Convention : Reuss Voigt Hill
#
# Bulk Modulus (GPa) = 58.40983 70.27973 64.34478
# Shear Modulus (GPa) = 23.12656 28.42407 25.77532
#
# Velocity S-wave (km/s) = 3.57943 3.96827 3.77886
# Velocity P-wave (km/s) = 7.03155 7.74157 7.39509
#
# Compressibility (1/GPa) = 0.01712041
#
# Stress axis : x y z
#
# Youngs Moduli (GPa) = 139.04467 46.35546 85.20134
#
# Poissons Ratio (x) = 0.12397 0.19065
# Poissons Ratio (y) = 0.37185 0.57754
# Poissons Ratio (z) = 0.31113 0.31422
#
# Static dielectric constant tensor:
#      x y z
#    x 3.835530 0.000000 -0.120210 
#    y 0.000000 3.064910 0.000000 
#    z -0.120210 0.000000 3.839580 
# 
# 
# High freq. dielectric constant tensor:
#      x y z
#    x 1.719000 0.000000 0.001720 
#    y 0.000000 1.631810 0.000000 
#    z 0.001720 0.000000 1.720070 
# 
# From -- ./inp_files/18554.got.cif
#   From: 2010.06.25/outbox.cif.g09.slc.cpg/sg13_10_cif.got.tgz:18554.got - 2010.06.28 04:50:58.
