data_PCOD8122754
_publ_section_title
;
Structure prediction by ZEFSAII (Michael W. Deem and Ramdas Pophale) SiO2 
 PCOD8122754
Probable space group: P 2/C
;
_chemical_formula_sum "Si O2"
_cell_formula_units_Z 20
_cell_length_a 9.250696
_cell_length_b 5.191249
_cell_length_c 17.940395
_cell_angle_alpha 90.000000
_cell_angle_beta 84.510971
_cell_angle_gamma 90.000000
_cell_volume 857.595014
_symmetry_space_group_name_H-M "P 2/C"
_symmetry_group_IT_number 13
_symmetry_cell_setting 'monoclinic'
loop_
_space_group_symop_operation_xyz
x,y,z
-x,y,1/2-z
-x,-y,-z
x,-y,1/2+z
loop_
_atom_site_type_symbol
_atom_site_label
_atom_site_fract_x
_atom_site_fract_y
_atom_site_fract_z
Si Si1 0.768750 0.844886 0.669839
Si Si2 0.416177 0.198457 0.455229
Si Si3 0.330447 0.671271 0.244640
Si Si4 0.976677 0.750961 0.950648
Si Si5 0.302859 0.510463 0.584967
O O1 0.663665 0.938890 0.608551
O O2 0.704508 0.596759 0.713824
O O3 0.923014 0.766644 0.627668
O O4 0.772066 0.094244 0.722566
O O5 0.292461 0.332640 0.511707
O O6 0.532005 0.395300 0.415700
O O7 0.500000 0.000000 0.500000
O O8 0.500000 0.740394 0.250000
O O9 0.280108 0.650679 0.161324
O O10 0.814855 0.736517 0.922606
O O11 0.000000 0.500000 0.000000
O O12 0.000000 0.000000 0.000000
#
# Coordination Sequence:
#
# PCOD8122754 Si02
#       5
#     4   4   4   4   4
#     4  12  26  46  74 106 148 193 249 307 375 458
#     4  11  23  43  75 110 138 193 260 305 364 448
#     4  12  26  47  73 110 152 195 246 314 385 445
#     4  12  26  48  74 108 148 197 252 315 377 443
#     4  11  26  44  74 109 147 197 246 313 374 451
#
# _framework density 23.321033
#
# number of rings (size 3 to 8) (size 9 to 14) (size 15 to 20)
#    0.000    0.400    4.000    4.200    5.600    0.800 
#    0.000    2.000    0.000    0.000    0.000    0.000 
#    0.000    0.000    0.000    0.000    0.000    0.000 
#
# Total GULP energy -247993.437025 kJ/mol
# GULP energy per Si atom -12399.671851 kJ/mol
# Density = 2.326795 g / cm^3
# Si number density = 23.321033 Si / 1000 Ang^3
#
#
#
# Elastic Constant Matrix: (Units=GPa)
#
#
# Indices 1 2 3 4 5 6 
#
# 1 101.0575 38.5277 64.7743 0.0000 -7.8770 0.0000
# 2 38.5277 141.0913 57.0725 0.0000 -10.5411 0.0000
# 3 64.7743 57.0725 143.6627 0.0000 -15.4005 0.0000
# 4 0.0000 0.0000 0.0000 58.1152 0.0000 -1.6899
# 5 -7.8770 -10.5411 -15.4005 0.0000 33.3756 0.0000
# 6 0.0000 0.0000 0.0000 -1.6899 0.0000 32.1915
#
#
#
# Elastic Compliance Matrix: (Units=1/GPa)
#
#
# Indices 1 2 3 4 5 6 
#
# 1 0.014192 -0.001526 -0.005771 0.000000 0.000205 0.000000
# 2 -0.001526 0.008653 -0.002625 0.000000 0.001161 0.000000
# 3 -0.005771 -0.002625 0.010910 0.000000 0.002843 0.000000
# 4 0.000000 0.000000 0.000000 0.017234 0.000000 0.000905
# 5 0.000205 0.001161 0.002843 0.000000 0.031689 0.000000
# 6 0.000000 0.000000 0.000000 0.000905 0.000000 0.031112
#
#
# Mechanical properties :
#
#
# Convention : Reuss Voigt Hill
#
# Bulk Modulus (GPa) = 71.88071 78.50672 75.19371
# Shear Modulus (GPa) = 36.16126 39.76559 37.96343
#
# Velocity S-wave (km/s) = 3.94202 4.13381 4.03905
# Velocity P-wave (km/s) = 7.18391 7.51805 7.35288
#
# Compressibility (1/GPa) = 0.01391194
#
# Stress axis : x y z
#
# Youngs Moduli (GPa) = 70.46317 115.56844 91.65676
#
# Poissons Ratio (x) = 0.17633 0.52892
# Poissons Ratio (y) = 0.10751 0.24060
# Poissons Ratio (z) = 0.40662 0.30337
#
# Static dielectric constant tensor:
#      x y z
#    x 4.029580 0.000000 0.258010 
#    y 0.000000 4.330160 0.000000 
#    z 0.258010 0.000000 4.309120 
# 
# 
# High freq. dielectric constant tensor:
#      x y z
#    x 1.925090 0.000000 -0.008780 
#    y 0.000000 1.923620 0.000000 
#    z -0.008780 0.000000 1.938970 
# 
# From -- ./inp_files/62386.got.cif
#   From: 2010.06.25/outbox.cif.g09.slc.cpg/sg13_32_cif.got.tgz:62386.got - 2010.06.28 04:50:58.
