data_PCOD8122724
_publ_section_title
;
Structure prediction by ZEFSAII (Michael W. Deem and Ramdas Pophale) SiO2 
 PCOD8122724
Probable space group: P 2/C
;
_chemical_formula_sum "Si O2"
_cell_formula_units_Z 22
_cell_length_a 23.535768
_cell_length_b 8.796124
_cell_length_c 15.364292
_cell_angle_alpha 90.000000
_cell_angle_beta 17.771431
_cell_angle_gamma 90.000000
_cell_volume 970.836259
_symmetry_space_group_name_H-M "P 2/C"
_symmetry_group_IT_number 13
_symmetry_cell_setting 'monoclinic'
loop_
_space_group_symop_operation_xyz
x,y,z
-x,y,1/2-z
-x,-y,-z
x,-y,1/2+z
loop_
_atom_site_type_symbol
_atom_site_label
_atom_site_fract_x
_atom_site_fract_y
_atom_site_fract_z
Si Si1 0.000000 0.619166 0.750000
Si Si2 0.681036 0.176362 0.231636
Si Si3 0.950316 0.637703 0.458498
Si Si4 0.714821 0.150124 0.622534
Si Si5 0.356966 0.338739 0.384736
Si Si6 0.307758 0.671164 0.502767
O O1 0.990867 0.520209 0.674324
O O2 0.180920 0.725682 0.469550
O O3 0.849115 0.262440 0.033185
O O4 0.510064 0.155671 0.547004
O O5 0.587780 0.270530 0.289020
O O6 0.772878 0.019581 0.063902
O O7 0.821599 0.613779 0.729920
O O8 0.141576 0.714414 0.214242
O O9 0.784513 0.199245 0.423726
O O10 0.500000 0.276375 0.250000
O O11 0.369058 0.520903 0.359696
O O12 0.500000 0.749966 0.250000
#
# Coordination Sequence:
#
# PCOD8122724 Si02
#       6
#     2   4   4   4   4   4
#     4  12  26  40  76 106 136 182 250 288 346 416
#     4  11  25  48  71  97 149 190 234 278 359 423
#     4  12  23  45  75 103 137 185 234 299 345 417
#     4  11  26  44  68 105 141 189 228 288 351 430
#     4  11  25  42  69 102 140 181 232 292 350 412
#     4  11  23  42  69 103 139 178 236 294 348 407
#
# _framework density 22.660875999999998
#
# number of rings (size 3 to 8) (size 9 to 14) (size 15 to 20)
#    0.000    0.727    5.455    0.545    7.636    2.182 
#    0.000    0.909    0.000    0.000    0.000    0.000 
#    0.000    0.000    0.000    0.000    0.000    0.000 
#
# Total GULP energy -272639.653361 kJ/mol
# GULP energy per Si atom -12392.711516 kJ/mol
# Density = 2.260930 g / cm^3
# Si number density = 22.660876 Si / 1000 Ang^3
#
#
#
# Elastic Constant Matrix: (Units=GPa)
#
#
# Indices 1 2 3 4 5 6 
#
# 1 143.9914 57.7748 41.1750 0.0000 -14.1828 0.0000
# 2 57.7748 128.5120 38.5456 0.0000 5.1882 0.0000
# 3 41.1750 38.5456 91.0254 0.0000 -9.3584 0.0000
# 4 0.0000 0.0000 0.0000 31.6330 0.0000 -2.0271
# 5 -14.1828 5.1882 -9.3584 0.0000 54.5305 0.0000
# 6 0.0000 0.0000 0.0000 -2.0271 0.0000 17.6133
#
#
#
# Elastic Compliance Matrix: (Units=1/GPa)
#
#
# Indices 1 2 3 4 5 6 
#
# 1 0.009299 -0.003534 -0.002470 0.000000 0.002331 0.000000
# 2 -0.003534 0.010382 -0.003048 0.000000 -0.002430 0.000000
# 3 -0.002470 -0.003048 0.013598 0.000000 0.001981 0.000000
# 4 0.000000 0.000000 0.000000 0.031847 0.000000 0.003665
# 5 0.002331 -0.002430 0.001981 0.000000 0.019516 0.000000
# 6 0.000000 0.000000 0.000000 0.003665 0.000000 0.057197
#
#
# Mechanical properties :
#
#
# Convention : Reuss Voigt Hill
#
# Bulk Modulus (GPa) = 65.89717 70.94662 68.42190
# Shear Modulus (GPa) = 30.30296 35.82426 33.06361
#
# Velocity S-wave (km/s) = 3.66079 3.98035 3.82391
# Velocity P-wave (km/s) = 6.85648 7.24570 7.05378
#
# Compressibility (1/GPa) = 0.01517516
#
# Stress axis : x y z
#
# Youngs Moduli (GPa) = 107.54318 96.31860 73.54191
#
# Poissons Ratio (x) = 0.34034 0.18167
# Poissons Ratio (y) = 0.38001 0.22415
# Poissons Ratio (z) = 0.26566 0.29357
#
# Static dielectric constant tensor:
#      x y z
#    x 4.288440 0.000000 -0.239360 
#    y 0.000000 3.914570 0.000000 
#    z -0.239360 0.000000 4.071080 
# 
# 
# High freq. dielectric constant tensor:
#      x y z
#    x 1.905380 0.000000 -0.019710 
#    y 0.000000 1.874600 0.000000 
#    z -0.019710 0.000000 1.895140 
# 
# From -- ./inp_files/58640.got.cif
#   From: 2010.06.25/outbox.cif.g09.slc.cpg/sg13_30_cif.got.tgz:58640.got - 2010.06.28 04:50:58.
