data_PCOD8122095
_publ_section_title
;
Structure prediction by ZEFSAII (Michael W. Deem and Ramdas Pophale) SiO2 
 PCOD8122095
Probable space group: P 2/C
;
_chemical_formula_sum "Si O2"
_cell_formula_units_Z 20
_cell_length_a 16.626742
_cell_length_b 6.180078
_cell_length_c 9.931076
_cell_angle_alpha 90.000000
_cell_angle_beta 64.084132
_cell_angle_gamma 90.000000
_cell_volume 917.842279
_symmetry_space_group_name_H-M "P 2/C"
_symmetry_group_IT_number 13
_symmetry_cell_setting 'monoclinic'
loop_
_space_group_symop_operation_xyz
x,y,z
-x,y,1/2-z
-x,-y,-z
x,-y,1/2+z
loop_
_atom_site_type_symbol
_atom_site_label
_atom_site_fract_x
_atom_site_fract_y
_atom_site_fract_z
Si Si1 0.203650 0.219402 0.134291
Si Si2 0.215637 0.165971 0.821628
Si Si3 0.352125 0.484706 0.614444
Si Si4 0.060369 0.456738 0.827920
Si Si5 0.504443 0.196555 0.394921
O O1 0.278581 0.406023 0.071724
O O2 0.108868 0.322265 0.245998
O O3 0.235233 0.051296 0.224786
O O4 0.195915 0.110873 0.992425
O O5 0.302172 0.321309 0.752876
O O6 0.130324 0.272577 0.814080
O O7 0.420449 0.354857 0.471408
O O8 0.404356 0.668324 0.658975
O O9 0.000000 0.368214 0.750000
O O10 0.000000 0.500000 0.000000
O O11 0.500000 0.093468 0.250000
O O12 0.500000 0.000000 0.500000
#
# Coordination Sequence:
#
# PCOD8122095 Si02
#       5
#     4   4   4   4   4
#     4  11  25  42  66  96 128 169 214 262 320 380
#     4  11  25  42  66  95 129 169 213 263 320 381
#     4  10  24  43  66  92 131 170 214 263 315 376
#     4  11  24  45  66  94 131 169 214 265 319 376
#     4  11  24  42  67  97 129 168 214 264 317 380
#
# _framework density 21.790237999999999
#
# number of rings (size 3 to 8) (size 9 to 14) (size 15 to 20)
#    0.000    1.200    2.000    2.400    2.800   12.800 
#    0.000    0.000    0.000    0.000    0.000    0.000 
#    0.000    0.000    0.000    0.000    0.000    0.000 
#
# Total GULP energy -248078.555295 kJ/mol
# GULP energy per Si atom -12403.927765 kJ/mol
# Density = 2.174064 g / cm^3
# Si number density = 21.790238 Si / 1000 Ang^3
#
#
#
# Elastic Constant Matrix: (Units=GPa)
#
#
# Indices 1 2 3 4 5 6 
#
# 1 110.5314 36.3446 62.4416 0.0000 -7.8589 0.0000
# 2 36.3446 98.8496 47.3613 0.0000 6.7117 0.0000
# 3 62.4416 47.3613 156.6954 0.0000 28.5940 0.0000
# 4 0.0000 0.0000 0.0000 32.7966 0.0000 3.6023
# 5 -7.8589 6.7117 28.5940 0.0000 39.4293 0.0000
# 6 0.0000 0.0000 0.0000 3.6023 0.0000 25.4052
#
#
#
# Elastic Compliance Matrix: (Units=1/GPa)
#
#
# Indices 1 2 3 4 5 6 
#
# 1 0.013960 -0.002709 -0.006150 0.000000 0.007703 0.000000
# 2 -0.002709 0.012371 -0.002509 0.000000 -0.000827 0.000000
# 3 -0.006150 -0.002509 0.011221 0.000000 -0.008936 0.000000
# 4 0.000000 0.000000 0.000000 0.030973 0.000000 -0.004392
# 5 0.007703 -0.000827 -0.008936 0.000000 0.033519 0.000000
# 6 0.000000 0.000000 0.000000 -0.004392 0.000000 0.039985
#
#
# Mechanical properties :
#
#
# Convention : Reuss Voigt Hill
#
# Bulk Modulus (GPa) = 67.49148 73.15237 70.32192
# Shear Modulus (GPa) = 29.46334 34.18815 31.82574
#
# Velocity S-wave (km/s) = 3.68113 3.96531 3.82586
# Velocity P-wave (km/s) = 7.00772 7.38979 7.20129
#
# Compressibility (1/GPa) = 0.01481668
#
# Stress axis : x y z
#
# Youngs Moduli (GPa) = 71.63390 80.83714 89.11577
#
# Poissons Ratio (x) = 0.21901 0.54804
# Poissons Ratio (y) = 0.19408 0.22355
# Poissons Ratio (z) = 0.44053 0.20279
#
# Static dielectric constant tensor:
#      x y z
#    x 4.062770 0.000000 -0.191950 
#    y 0.000000 3.935570 0.000000 
#    z -0.191950 0.000000 3.881950 
# 
# 
# High freq. dielectric constant tensor:
#      x y z
#    x 1.871670 0.000000 -0.007890 
#    y 0.000000 1.850200 0.000000 
#    z -0.007890 0.000000 1.862680 
# 
# From -- ./inp_files/22197.got.cif
#   From: 2010.06.25/outbox.cif.g09.slc.cpg/sg13_12_cif.got.tgz:22197.got - 2010.06.28 04:50:58.
