data_PCOD8122587
_publ_section_title
;
Structure prediction by ZEFSAII (Michael W. Deem and Ramdas Pophale) SiO2 
 PCOD8122587
Probable space group: P 2/C
;
_chemical_formula_sum "Si O2"
_cell_formula_units_Z 32
_cell_length_a 9.601575
_cell_length_b 23.057200
_cell_length_c 15.516500
_cell_angle_alpha 90.000000
_cell_angle_beta 151.761541
_cell_angle_gamma 90.000000
_cell_volume 1625.303668
_symmetry_space_group_name_H-M "P 2/C"
_symmetry_group_IT_number 13
_symmetry_cell_setting 'monoclinic'
loop_
_space_group_symop_operation_xyz
x,y,z
-x,y,1/2-z
-x,-y,-z
x,-y,1/2+z
loop_
_atom_site_type_symbol
_atom_site_label
_atom_site_fract_x
_atom_site_fract_y
_atom_site_fract_z
Si Si1 0.327369 0.952921 0.461232
Si Si2 0.977182 0.469082 0.136231
Si Si3 0.846188 0.871063 0.757170
Si Si4 0.658966 0.348741 0.928134
Si Si5 0.564788 0.569780 0.880272
Si Si6 0.128096 0.742989 0.725628
Si Si7 0.664916 0.671645 0.068569
Si Si8 0.791987 0.032309 0.950287
O O1 0.510040 0.893050 0.563711
O O2 0.000000 0.939115 0.250000
O O3 0.500000 0.000000 0.500000
O O4 0.310602 0.980765 0.544764
O O5 0.295360 0.467848 0.267581
O O6 0.000000 0.478808 0.250000
O O7 0.811743 0.409673 0.026469
O O8 0.827940 0.524442 0.010798
O O9 0.851689 0.807433 0.804740
O O10 0.000000 0.867652 0.750000
O O11 0.032663 0.915082 0.914343
O O12 0.500000 0.348821 0.750000
O O13 0.439183 0.338769 0.889255
O O14 0.910951 0.299515 0.055346
O O15 0.500000 0.597855 0.750000
O O16 0.650324 0.615127 0.000724
O O17 0.000000 0.748111 0.750000
O O18 0.458852 0.718741 0.910133
O O19 0.000000 0.694624 0.250000
O O20 0.500000 0.060146 0.750000
O O21 0.000000 0.000000 0.000000
#
# Coordination Sequence:
#
# PCOD8122587 Si02
#       8
#     4   4   4   4   4   4   4   4
#     4  12  20  37  61  91 122 162 208 247 306 378
#     4  12  23  43  63  95 135 168 211 270 320 387
#     4  11  22  39  67  92 121 168 215 255 307 386
#     4  11  23  43  70  92 126 173 211 262 326 387
#     4  12  26  40  65  97 135 166 214 266 327 385
#     4   9  21  45  65  89 124 167 215 260 314 381
#     4  11  24  42  68  95 127 167 214 267 326 375
#     4  12  22  35  59  90 130 161 193 256 319 363
#
# _framework density 19.688628999999999
#
# number of rings (size 3 to 8) (size 9 to 14) (size 15 to 20)
#    0.000    0.750    6.250    1.875    3.500    1.000 
#    0.000    0.000    8.250    0.000    0.000    0.000 
#    0.000    0.000    0.000    0.000    0.000    0.000 
#
# Total GULP energy -396714.401328 kJ/mol
# GULP energy per Si atom -12397.325042 kJ/mol
# Density = 1.964382 g / cm^3
# Si number density = 19.688629 Si / 1000 Ang^3
#
#
#
# Elastic Constant Matrix: (Units=GPa)
#
#
# Indices 1 2 3 4 5 6 
#
# 1 80.8494 4.1757 14.7263 0.0000 6.6833 0.0000
# 2 4.1757 103.1786 20.2634 0.0000 15.3331 0.0000
# 3 14.7263 20.2634 110.5693 0.0000 23.5803 0.0000
# 4 0.0000 0.0000 0.0000 73.4254 0.0000 -15.7551
# 5 6.6833 15.3331 23.5803 0.0000 37.5399 0.0000
# 6 0.0000 0.0000 0.0000 -15.7551 0.0000 21.3042
#
#
#
# Elastic Compliance Matrix: (Units=1/GPa)
#
#
# Indices 1 2 3 4 5 6 
#
# 1 0.012739 -0.000037 -0.001396 0.000000 -0.001376 0.000000
# 2 -0.000037 0.010446 -0.001156 0.000000 -0.003534 0.000000
# 3 -0.001396 -0.001156 0.010725 0.000000 -0.006016 0.000000
# 4 0.000000 0.000000 0.000000 0.016188 0.000000 0.011972
# 5 -0.001376 -0.003534 -0.006016 0.000000 0.032106 0.000000
# 6 0.000000 0.000000 0.000000 0.011972 0.000000 0.055792
#
#
# Mechanical properties :
#
#
# Convention : Reuss Voigt Hill
#
# Bulk Modulus (GPa) = 34.80563 41.43646 38.12105
# Shear Modulus (GPa) = 32.73317 43.48269 38.10793
#
# Velocity S-wave (km/s) = 4.08185 4.70459 4.40424
# Velocity P-wave (km/s) = 6.31916 7.11354 6.72808
#
# Compressibility (1/GPa) = 0.02873098
#
# Stress axis : x y z
#
# Youngs Moduli (GPa) = 78.50122 95.73439 93.24088
#
# Poissons Ratio (x) = 0.00353 0.13021
# Poissons Ratio (y) = 0.00289 0.10776
# Poissons Ratio (z) = 0.10963 0.11064
#
# Static dielectric constant tensor:
#      x y z
#    x 3.666460 0.000000 0.035460 
#    y 0.000000 8.632640 0.000000 
#    z 0.035460 0.000000 3.742740 
# 
# 
# High freq. dielectric constant tensor:
#      x y z
#    x 1.770770 0.000000 0.008210 
#    y 0.000000 1.758580 0.000000 
#    z 0.008210 0.000000 1.783560 
# 
# From -- ./inp_files/48309.got.cif
#   From: 2010.06.25/outbox.cif.g09.slc.cpg/sg13_25_cif.got.tgz:48309.got - 2010.06.28 04:50:58.
