data_PCOD8122193
_publ_section_title
;
Structure prediction by ZEFSAII (Michael W. Deem and Ramdas Pophale) SiO2 
 PCOD8122193
Probable space group: P 2/C
;
_chemical_formula_sum "Si O2"
_cell_formula_units_Z 32
_cell_length_a 22.392945
_cell_length_b 8.476485
_cell_length_c 12.919709
_cell_angle_alpha 90.000000
_cell_angle_beta 35.751987
_cell_angle_gamma 90.000000
_cell_volume 1432.844748
_symmetry_space_group_name_H-M "P 2/C"
_symmetry_group_IT_number 13
_symmetry_cell_setting 'monoclinic'
loop_
_space_group_symop_operation_xyz
x,y,z
-x,y,1/2-z
-x,-y,-z
x,-y,1/2+z
loop_
_atom_site_type_symbol
_atom_site_label
_atom_site_fract_x
_atom_site_fract_y
_atom_site_fract_z
Si Si1 0.907632 0.080993 0.684662
Si Si2 0.182659 0.777506 0.632829
Si Si3 0.465922 0.168773 0.510142
Si Si4 0.045950 0.360927 0.502843
Si Si5 0.806548 0.468864 0.563256
Si Si6 0.589614 0.703759 0.195642
Si Si7 0.355736 0.634845 0.842378
Si Si8 0.270358 0.769673 0.164352
O O1 0.826107 0.113917 0.707270
O O2 0.953443 0.243459 0.668764
O O3 0.858695 0.955158 0.835764
O O4 0.000000 0.000000 0.500000
O O5 0.131423 0.723500 0.811990
O O6 0.157923 0.657773 0.573634
O O7 0.304349 0.790035 0.480366
O O8 0.435584 0.277129 0.648715
O O9 0.555390 0.252284 0.321876
O O10 0.368093 0.143337 0.574719
O O11 0.500000 0.000000 0.500000
O O12 0.096317 0.429525 0.536573
O O13 0.000000 0.500000 0.500000
O O14 0.719400 0.585566 0.644391
O O15 0.758277 0.383861 0.730089
O O16 0.500000 0.775411 0.250000
O O17 0.597089 0.516876 0.166396
O O18 0.289072 0.726745 0.019125
#
# Coordination Sequence:
#
# PCOD8122193 Si02
#       8
#     4   4   4   4   4   4   4   4
#     4  10  25  47  70 102 142 190 232 298 369 423
#     4  10  24  46  70 103 148 187 232 300 366 423
#     4  12  28  43  69 108 141 189 236 287 362 435
#     4  11  23  44  75 106 140 187 247 298 357 426
#     4  11  23  44  76 106 139 190 243 297 351 436
#     4  11  24  42  72 105 140 190 237 286 352 428
#     4  11  26  44  72 104 143 188 236 296 353 424
#     4  12  24  47  73 101 151 181 236 298 357 419
#
# _framework density 22.333195
#
# number of rings (size 3 to 8) (size 9 to 14) (size 15 to 20)
#    0.000    1.000    3.750    3.000    7.000    1.500 
#    0.000    1.250    0.000    0.000    0.000    0.000 
#    0.000    0.000    0.000    0.000    0.000    0.000 
#
# Total GULP energy -396806.664463 kJ/mol
# GULP energy per Si atom -12400.208264 kJ/mol
# Density = 2.228236 g / cm^3
# Si number density = 22.333195 Si / 1000 Ang^3
#
#
#
# Elastic Constant Matrix: (Units=GPa)
#
#
# Indices 1 2 3 4 5 6 
#
# 1 152.3025 55.5374 65.5505 0.0000 -36.2464 0.0000
# 2 55.5374 125.1691 61.0950 0.0000 -28.6321 0.0000
# 3 65.5505 61.0950 130.0036 0.0000 -14.1432 0.0000
# 4 0.0000 0.0000 0.0000 38.1545 0.0000 -4.0622
# 5 -36.2464 -28.6321 -14.1432 0.0000 39.9473 0.0000
# 6 0.0000 0.0000 0.0000 -4.0622 0.0000 32.9217
#
#
#
# Elastic Compliance Matrix: (Units=1/GPa)
#
#
# Indices 1 2 3 4 5 6 
#
# 1 0.010373 -0.000998 -0.003968 0.000000 0.007292 0.000000
# 2 -0.000998 0.012019 -0.004479 0.000000 0.006123 0.000000
# 3 -0.003968 -0.004479 0.011500 0.000000 -0.002739 0.000000
# 4 0.000000 0.000000 0.000000 0.026558 0.000000 0.003277
# 5 0.007292 0.006123 -0.002739 0.000000 0.035069 0.000000
# 6 0.000000 0.000000 0.000000 0.003277 0.000000 0.030779
#
#
# Mechanical properties :
#
#
# Convention : Reuss Voigt Hill
#
# Bulk Modulus (GPa) = 66.65767 85.76013 76.20890
# Shear Modulus (GPa) = 33.29167 37.22419 35.25793
#
# Velocity S-wave (km/s) = 3.86512 4.08703 3.97763
# Velocity P-wave (km/s) = 7.05908 7.79458 7.43593
#
# Compressibility (1/GPa) = 0.01500202
#
# Stress axis : x y z
#
# Youngs Moduli (GPa) = 96.40448 83.20342 86.95810
#
# Poissons Ratio (x) = 0.08300 0.34506
# Poissons Ratio (y) = 0.09617 0.38949
# Poissons Ratio (z) = 0.38255 0.37267
#
# Static dielectric constant tensor:
#      x y z
#    x 4.195660 0.000000 -0.000230 
#    y 0.000000 4.474550 0.000000 
#    z -0.000230 0.000000 3.164240 
# 
# 
# High freq. dielectric constant tensor:
#      x y z
#    x 1.875130 0.000000 -0.016850 
#    y 0.000000 1.883840 0.000000 
#    z -0.016850 0.000000 1.893200 
# 
# From -- ./inp_files/58781.got.cif
#   From: 2010.06.25/outbox.cif.g09.slc.cpg/sg13_30_cif.got.tgz:58781.got - 2010.06.28 04:50:58.
