data_PCOD8122698
_publ_section_title
;
Structure prediction by ZEFSAII (Michael W. Deem and Ramdas Pophale) SiO2 
 PCOD8122698
Probable space group: P 2/C
;
_chemical_formula_sum "Si O2"
_cell_formula_units_Z 16
_cell_length_a 12.780690
_cell_length_b 12.514928
_cell_length_c 14.888355
_cell_angle_alpha 90.000000
_cell_angle_beta 18.522357
_cell_angle_gamma 90.000000
_cell_volume 756.505276
_symmetry_space_group_name_H-M "P 2/C"
_symmetry_group_IT_number 13
_symmetry_cell_setting 'monoclinic'
loop_
_space_group_symop_operation_xyz
x,y,z
-x,y,1/2-z
-x,-y,-z
x,-y,1/2+z
loop_
_atom_site_type_symbol
_atom_site_label
_atom_site_fract_x
_atom_site_fract_y
_atom_site_fract_z
Si Si1 0.950711 0.876618 0.022037
Si Si2 0.313568 0.773911 0.557614
Si Si3 0.118758 0.255048 0.558054
Si Si4 0.244638 0.577233 0.247579
O O1 0.564145 0.860912 0.310857
O O2 0.016981 0.826844 0.064732
O O3 0.190211 0.818971 0.754703
O O4 0.000000 0.000000 0.000000
O O5 0.541635 0.667141 0.373556
O O6 0.000000 0.754151 0.750000
O O7 0.000000 0.208868 0.750000
O O8 0.954081 0.368956 0.671826
O O9 0.500000 0.274970 0.250000
O O10 0.000000 0.500000 0.500000
O O11 0.500000 0.500000 0.000000
#
# Coordination Sequence:
#
# PCOD8122698 Si02
#       4
#     4   4   4   4
#     4  11  24  43  66  96 132 170 216 270 325 393
#     4  11  24  43  65  96 132 169 216 272 326 390
#     4  11  23  41  63  92 126 164 209 261 316 381
#     4  11  23  41  63  90 124 163 210 263 317 378
#
# _framework density 21.149885999999999
#
# number of rings (size 3 to 8) (size 9 to 14) (size 15 to 20)
#    0.000    1.000    0.000    9.000    0.000    6.000 
#    0.000    2.500    0.000    0.000    0.000    0.000 
#    0.000    0.000    0.000    0.000    0.000    0.000 
#
# Total GULP energy -198227.015272 kJ/mol
# GULP energy per Si atom -12389.188455 kJ/mol
# Density = 2.110175 g / cm^3
# Si number density = 21.149886 Si / 1000 Ang^3
#
#
#
# Elastic Constant Matrix: (Units=GPa)
#
#
# Indices 1 2 3 4 5 6 
#
# 1 109.1070 54.1859 55.8700 0.0000 3.3102 0.0000
# 2 54.1859 152.2250 78.3512 0.0000 3.1329 0.0000
# 3 55.8700 78.3512 190.5192 0.0000 -5.0772 0.0000
# 4 0.0000 0.0000 0.0000 44.9282 0.0000 0.4397
# 5 3.3102 3.1329 -5.0772 0.0000 55.2327 0.0000
# 6 0.0000 0.0000 0.0000 0.4397 0.0000 21.5824
#
#
#
# Elastic Compliance Matrix: (Units=1/GPa)
#
#
# Indices 1 2 3 4 5 6 
#
# 1 0.011850 -0.003049 -0.002241 0.000000 -0.000743 0.000000
# 2 -0.003049 0.009152 -0.002886 0.000000 -0.000602 0.000000
# 3 -0.002241 -0.002886 0.007118 0.000000 0.000952 0.000000
# 4 0.000000 0.000000 0.000000 0.022262 0.000000 -0.000454
# 5 -0.000743 -0.000602 0.000952 0.000000 0.018271 0.000000
# 6 0.000000 0.000000 0.000000 -0.000454 0.000000 0.046343
#
#
# Mechanical properties :
#
#
# Convention : Reuss Voigt Hill
#
# Bulk Modulus (GPa) = 84.97275 92.07393 88.52334
# Shear Modulus (GPa) = 36.96277 41.91160 39.43718
#
# Velocity S-wave (km/s) = 4.18504 4.45640 4.32285
# Velocity P-wave (km/s) = 7.97599 8.37304 8.17692
#
# Compressibility (1/GPa) = 0.01176848
#
# Stress axis : x y z
#
# Youngs Moduli (GPa) = 84.39060 109.26135 140.48848
#
# Poissons Ratio (x) = 0.33318 0.31479
# Poissons Ratio (y) = 0.25734 0.40541
# Poissons Ratio (z) = 0.18909 0.31530
#
# Static dielectric constant tensor:
#      x y z
#    x 3.715460 0.000000 -0.133980 
#    y 0.000000 4.237000 0.000000 
#    z -0.133980 0.000000 4.497730 
# 
# 
# High freq. dielectric constant tensor:
#      x y z
#    x 1.824120 0.000000 -0.002840 
#    y 0.000000 1.834300 0.000000 
#    z -0.002840 0.000000 1.866370 
# 
# From -- ./inp_files/43394.got.cif
#   From: 2010.06.25/outbox.cif.g09.slc.cpg/sg13_22_cif.got.tgz:43394.got - 2010.06.28 04:50:58.
