data_PCOD8122967
_publ_section_title
;
Structure prediction by ZEFSAII (Michael W. Deem and Ramdas Pophale) SiO2 
 PCOD8122967
Probable space group: P 2/C
;
_chemical_formula_sum "Si O2"
_cell_formula_units_Z 20
_cell_length_a 13.014268
_cell_length_b 9.559391
_cell_length_c 17.499933
_cell_angle_alpha 90.000000
_cell_angle_beta 24.428427
_cell_angle_gamma 90.000000
_cell_volume 900.369767
_symmetry_space_group_name_H-M "P 2/C"
_symmetry_group_IT_number 13
_symmetry_cell_setting 'monoclinic'
loop_
_space_group_symop_operation_xyz
x,y,z
-x,y,1/2-z
-x,-y,-z
x,-y,1/2+z
loop_
_atom_site_type_symbol
_atom_site_label
_atom_site_fract_x
_atom_site_fract_y
_atom_site_fract_z
Si Si1 0.226445 0.092618 0.926998
Si Si2 0.542428 0.344228 0.004688
Si Si3 0.267110 0.395066 0.455135
Si Si4 0.087101 0.169065 0.852699
Si Si5 0.996622 0.669596 0.662929
O O1 0.500000 0.024867 0.750000
O O2 0.195091 0.152796 0.863453
O O3 0.213351 0.227886 0.989324
O O4 0.015350 0.985039 0.099804
O O5 0.709061 0.237066 0.841915
O O6 0.500000 0.500000 0.000000
O O7 0.663588 0.352041 0.005729
O O8 0.265529 0.280109 0.195847
O O9 0.500000 0.452634 0.250000
O O10 0.053110 0.511345 0.599805
O O11 0.157024 0.265565 0.482701
O O12 0.000000 0.677243 0.750000
#
# Coordination Sequence:
#
# PCOD8122967 Si02
#       5
#     4   4   4   4   4
#     4  11  26  45  72 103 142 187 241 285 352 424
#     4  12  24  43  71 103 144 182 239 294 358 419
#     4  12  25  42  71 101 141 187 236 293 354 417
#     4  11  25  48  69 100 143 187 233 293 351 430
#     4  12  24  40  66 103 137 183 236 296 349 415
#
# _framework density 22.213096
#
# number of rings (size 3 to 8) (size 9 to 14) (size 15 to 20)
#    0.000    0.400    4.000    4.200    2.800    5.600 
#    0.000    0.000    0.000    0.000    0.000    0.000 
#    0.000    0.000    0.000    0.000    0.000    0.000 
#
# Total GULP energy -247953.747596 kJ/mol
# GULP energy per Si atom -12397.687380 kJ/mol
# Density = 2.216254 g / cm^3
# Si number density = 22.213096 Si / 1000 Ang^3
#
#
#
# Elastic Constant Matrix: (Units=GPa)
#
#
# Indices 1 2 3 4 5 6 
#
# 1 82.2234 78.9293 67.9834 0.0000 3.9499 0.0000
# 2 78.9293 107.0964 46.4756 0.0000 3.6072 0.0000
# 3 67.9834 46.4756 140.8975 0.0000 -5.6173 0.0000
# 4 0.0000 0.0000 0.0000 33.0722 0.0000 35.3592
# 5 3.9499 3.6072 -5.6173 0.0000 37.6734 0.0000
# 6 0.0000 0.0000 0.0000 35.3592 0.0000 -41.2682
#
#
#
# Elastic Compliance Matrix: (Units=1/GPa)
#
#
# Indices 1 2 3 4 5 6 
#
# 1 0.069756 -0.042584 -0.019858 0.000000 -0.006197 0.000000
# 2 -0.042584 0.036988 0.008433 0.000000 0.002181 0.000000
# 3 -0.019858 0.008433 0.014032 0.000000 0.003367 0.000000
# 4 0.000000 0.000000 0.000000 0.015781 0.000000 0.013521
# 5 -0.006197 0.002181 0.003367 0.000000 0.027487 0.000000
# 6 0.000000 0.000000 0.000000 0.013521 0.000000 -0.012647
#
#
# Mechanical properties :
#
#
# Convention : Reuss Voigt Hill
#
# Bulk Modulus (GPa) = 78.38063 79.66599 79.02331
# Shear Modulus (GPa) = 18.96324 15.01741 16.99032
#
# Velocity S-wave (km/s) = 2.92498 2.60294 2.76864
# Velocity P-wave (km/s) = 6.83884 6.70641 6.77295
#
# Compressibility (1/GPa) = 0.01275825
#
# Stress axis : x y z
#
# Youngs Moduli (GPa) = 14.33560 27.03568 71.26729
#
# Poissons Ratio (x) = 1.15127 1.41525
# Poissons Ratio (y) = 0.61046 -0.60099
# Poissons Ratio (z) = 0.28468 -0.22799
#
# Static dielectric constant tensor:
#      x y z
#    x -8.870410 0.000000 -12.188260 
#    y 0.000000 1.612760 0.000000 
#    z -12.188260 0.000000 -6.422730 
# 
# 
# High freq. dielectric constant tensor:
#      x y z
#    x 1.880400 0.000000 -0.010510 
#    y 0.000000 1.877830 0.000000 
#    z -0.010510 0.000000 1.890660 
# 
# From -- ./inp_files/79731.got.cif
#   From: 2010.06.25/outbox.cif.g09.slc.cpg/sg13_40_cif.got.tgz:79731.got - 2010.06.28 04:50:58.
