data_PCOD8122961
_publ_section_title
;
Structure prediction by ZEFSAII (Michael W. Deem and Ramdas Pophale) SiO2 
 PCOD8122961
Probable space group: P 2/C
;
_chemical_formula_sum "Si O2"
_cell_formula_units_Z 24
_cell_length_a 9.116259
_cell_length_b 10.360465
_cell_length_c 11.621907
_cell_angle_alpha 90.000000
_cell_angle_beta 67.870462
_cell_angle_gamma 90.000000
_cell_volume 1016.813168
_symmetry_space_group_name_H-M "P 2/C"
_symmetry_group_IT_number 13
_symmetry_cell_setting 'monoclinic'
loop_
_space_group_symop_operation_xyz
x,y,z
-x,y,1/2-z
-x,-y,-z
x,-y,1/2+z
loop_
_atom_site_type_symbol
_atom_site_label
_atom_site_fract_x
_atom_site_fract_y
_atom_site_fract_z
Si Si1 0.500000 0.517500 0.250000
Si Si2 0.287722 0.714487 0.193254
Si Si3 0.969336 0.650298 0.885393
Si Si4 0.468242 0.940780 0.383332
Si Si5 0.000000 0.864920 0.250000
Si Si6 0.121552 0.063575 0.048996
Si Si7 0.239854 0.575436 0.972674
O O1 0.344960 0.593891 0.251132
O O2 0.577716 0.432424 0.125704
O O3 0.435953 0.809195 0.151850
O O4 0.120963 0.775757 0.291087
O O5 0.243694 0.672229 0.077864
O O6 0.927553 0.799875 0.885201
O O7 0.000000 0.592808 0.750000
O O8 0.129000 0.641511 0.911249
O O9 0.825173 0.567395 0.979721
O O10 0.500000 0.016938 0.250000
O O11 0.283111 0.913422 0.433817
O O12 0.500000 0.000000 0.500000
O O13 0.128482 0.956355 0.148012
O O14 0.000000 0.000000 0.000000
#
# Coordination Sequence:
#
# PCOD8122961 Si02
#       7
#     2   4   4   4   2   4   4
#     4  12  26  48  74 106 148 194 252 322 388 462
#     4  12  26  48  76 109 152 202 253 319 394 470
#     4  11  25  47  73 108 148 195 253 324 381 465
#     4  12  27  50  76 114 157 206 260 321 388 466
#     4  12  26  46  72 110 144 200 252 308 390 472
#     4  12  26  46  75 107 149 199 255 314 389 463
#     4  11  27  46  74 110 144 196 258 318 393 461
#
# _framework density 23.603154
#
# number of rings (size 3 to 8) (size 9 to 14) (size 15 to 20)
#    0.000    0.333    3.333    4.500    8.167    1.333 
#    1.500    0.000    0.000    0.000    0.000    0.000 
#    0.000    0.000    0.000    0.000    0.000    0.000 
#
# Total GULP energy -297444.645998 kJ/mol
# GULP energy per Si atom -12393.526917 kJ/mol
# Density = 2.354943 g / cm^3
# Si number density = 23.603154 Si / 1000 Ang^3
#
#
#
# Elastic Constant Matrix: (Units=GPa)
#
#
# Indices 1 2 3 4 5 6 
#
# 1 132.5955 32.5376 44.1241 0.0000 -11.5970 0.0000
# 2 32.5376 65.7633 23.7963 0.0000 -13.7281 0.0000
# 3 44.1241 23.7963 126.9095 0.0000 2.7751 0.0000
# 4 0.0000 0.0000 0.0000 22.2142 0.0000 10.3092
# 5 -11.5970 -13.7281 2.7751 0.0000 59.4270 0.0000
# 6 0.0000 0.0000 0.0000 10.3092 0.0000 18.0981
#
#
#
# Elastic Compliance Matrix: (Units=1/GPa)
#
#
# Indices 1 2 3 4 5 6 
#
# 1 0.009364 -0.003438 -0.002636 0.000000 0.001156 0.000000
# 2 -0.003438 0.018539 -0.002362 0.000000 0.003722 0.000000
# 3 -0.002636 -0.002362 0.009272 0.000000 -0.001493 0.000000
# 4 0.000000 0.000000 0.000000 0.061193 0.000000 -0.034857
# 5 0.001156 0.003722 -0.001493 0.000000 0.017983 0.000000
# 6 0.000000 0.000000 0.000000 -0.034857 0.000000 0.075110
#
#
# Mechanical properties :
#
#
# Convention : Reuss Voigt Hill
#
# Bulk Modulus (GPa) = 49.25672 58.46492 53.86082
# Shear Modulus (GPa) = 23.24507 34.93521 29.09014
#
# Velocity S-wave (km/s) = 3.14160 3.85139 3.51446
# Velocity P-wave (km/s) = 5.83726 6.67842 6.27196
#
# Compressibility (1/GPa) = 0.02030180
#
# Stress axis : x y z
#
# Youngs Moduli (GPa) = 106.79553 53.94148 107.85364
#
# Poissons Ratio (x) = 0.18543 0.28434
# Poissons Ratio (y) = 0.36711 0.25479
# Poissons Ratio (z) = 0.28155 0.12743
#
# Static dielectric constant tensor:
#      x y z
#    x 4.465450 0.000000 0.065310 
#    y 0.000000 4.833620 0.000000 
#    z 0.065310 0.000000 4.111600 
# 
# 
# High freq. dielectric constant tensor:
#      x y z
#    x 1.951520 0.000000 0.002820 
#    y 0.000000 1.925560 0.000000 
#    z 0.002820 0.000000 1.948390 
# 
# From -- ./inp_files/29394.got.cif
#   From: 2010.06.25/outbox.cif.g09.slc.cpg/sg13_15_cif.got.tgz:29394.got - 2010.06.28 04:50:58.
