data_PCOD8122116
_publ_section_title
;
Structure prediction by ZEFSAII (Michael W. Deem and Ramdas Pophale) SiO2 
 PCOD8122116
Probable space group: P 2/C
;
_chemical_formula_sum "Si O2"
_cell_formula_units_Z 22
_cell_length_a 15.880704
_cell_length_b 6.717693
_cell_length_c 26.100831
_cell_angle_alpha 90.000000
_cell_angle_beta 20.863355
_cell_angle_gamma 90.000000
_cell_volume 991.666219
_symmetry_space_group_name_H-M "P 2/C"
_symmetry_group_IT_number 13
_symmetry_cell_setting 'monoclinic'
loop_
_space_group_symop_operation_xyz
x,y,z
-x,y,1/2-z
-x,-y,-z
x,-y,1/2+z
loop_
_atom_site_type_symbol
_atom_site_label
_atom_site_fract_x
_atom_site_fract_y
_atom_site_fract_z
Si Si1 0.741006 0.420488 0.839781
Si Si2 0.425126 0.540121 0.174794
Si Si3 0.157553 0.158261 0.339246
Si Si4 0.720757 0.807492 0.159243
Si Si5 0.091329 0.753878 0.621884
Si Si6 0.000000 0.079058 0.750000
O O1 0.722214 0.375969 0.789826
O O2 0.921833 0.599244 0.747168
O O3 0.813851 0.216022 0.825804
O O4 0.500000 0.500000 0.000000
O O5 0.383862 0.302628 0.201775
O O6 0.328878 0.600583 0.284982
O O7 0.692006 0.614203 0.017923
O O8 0.960791 0.228448 0.492006
O O9 0.025413 0.137068 0.360374
O O10 0.261455 0.955272 0.302234
O O11 0.500000 0.877300 0.250000
O O12 0.152064 0.936183 0.625621
#
# Coordination Sequence:
#
# PCOD8122116 Si02
#       6
#     4   4   4   4   4   2
#     4  11  25  44  64  99 135 174 228 280 339 407
#     4  11  23  42  68  94 134 175 222 277 336 394
#     4  10  24  44  64  98 137 173 221 280 333 401
#     4  11  22  43  68  99 132 174 228 272 334 410
#     4  11  24  43  66 100 132 177 231 272 345 407
#     4  12  24  42  70  92 136 178 224 288 338 396
#
# _framework density 22.184885000000001
#
# number of rings (size 3 to 8) (size 9 to 14) (size 15 to 20)
#    0.000    1.091    1.818    4.364    0.000    8.000 
#   13.091    0.000    0.000    0.000    0.000    0.000 
#    0.000    0.000    0.000    0.000    0.000    0.000 
#
# Total GULP energy -272671.469080 kJ/mol
# GULP energy per Si atom -12394.157685 kJ/mol
# Density = 2.213439 g / cm^3
# Si number density = 22.184885 Si / 1000 Ang^3
#
#
#
# Elastic Constant Matrix: (Units=GPa)
#
#
# Indices 1 2 3 4 5 6 
#
# 1 116.1338 51.5187 17.2056 0.0000 -0.0748 0.0000
# 2 51.5187 90.7538 33.1879 0.0000 0.9593 0.0000
# 3 17.2056 33.1879 70.7340 0.0000 1.5288 0.0000
# 4 0.0000 0.0000 0.0000 34.4478 0.0000 3.7848
# 5 -0.0748 0.9593 1.5288 0.0000 35.4379 0.0000
# 6 0.0000 0.0000 0.0000 3.7848 0.0000 47.5131
#
#
#
# Elastic Compliance Matrix: (Units=1/GPa)
#
#
# Indices 1 2 3 4 5 6 
#
# 1 0.011516 -0.006656 0.000317 0.000000 0.000191 0.000000
# 2 -0.006656 0.017148 -0.006422 0.000000 -0.000201 0.000000
# 3 0.000317 -0.006422 0.017086 0.000000 -0.000563 0.000000
# 4 0.000000 0.000000 0.000000 0.029286 0.000000 -0.002333
# 5 0.000191 -0.000201 -0.000563 0.000000 0.028249 0.000000
# 6 0.000000 0.000000 0.000000 -0.002333 0.000000 0.021233
#
#
# Mechanical properties :
#
#
# Convention : Reuss Voigt Hill
#
# Bulk Modulus (GPa) = 49.43468 53.49399 51.46434
# Shear Modulus (GPa) = 31.89163 35.19373 33.54268
#
# Velocity S-wave (km/s) = 3.79560 3.98726 3.89261
# Velocity P-wave (km/s) = 6.44517 6.73520 6.59178
#
# Compressibility (1/GPa) = 0.02022871
#
# Stress axis : x y z
#
# Youngs Moduli (GPa) = 86.83265 58.31656 58.52838
#
# Poissons Ratio (x) = 0.38814 -0.01858
# Poissons Ratio (y) = 0.57793 0.37589
# Poissons Ratio (z) = -0.02756 0.37453
#
# Static dielectric constant tensor:
#      x y z
#    x 4.362550 0.000000 0.080130 
#    y 0.000000 3.918320 0.000000 
#    z 0.080130 0.000000 3.956610 
# 
# 
# High freq. dielectric constant tensor:
#      x y z
#    x 1.897330 0.000000 0.012070 
#    y 0.000000 1.867920 0.000000 
#    z 0.012070 0.000000 1.870050 
# 
# From -- ./inp_files/35446.got.cif
#   From: 2010.06.25/outbox.cif.g09.slc.cpg/sg13_18_cif.got.tgz:35446.got - 2010.06.28 04:50:58.
