data_PCOD8122825
_publ_section_title
;
Structure prediction by ZEFSAII (Michael W. Deem and Ramdas Pophale) SiO2 
 PCOD8122825
Probable space group: P 2/C
;
_chemical_formula_sum "Si O2"
_cell_formula_units_Z 22
_cell_length_a 14.342637
_cell_length_b 6.723719
_cell_length_c 10.479481
_cell_angle_alpha 90.000000
_cell_angle_beta 102.368940
_cell_angle_gamma 90.000000
_cell_volume 987.140325
_symmetry_space_group_name_H-M "P 2/C"
_symmetry_group_IT_number 13
_symmetry_cell_setting 'monoclinic'
loop_
_space_group_symop_operation_xyz
x,y,z
-x,y,1/2-z
-x,-y,-z
x,-y,1/2+z
loop_
_atom_site_type_symbol
_atom_site_label
_atom_site_fract_x
_atom_site_fract_y
_atom_site_fract_z
Si Si1 0.602247 0.808557 0.817381
Si Si2 0.658529 0.882250 0.111976
Si Si3 0.824896 0.847942 0.614906
Si Si4 0.070072 0.339443 0.579287
Si Si5 0.000000 0.953684 0.250000
Si Si6 0.258332 0.488472 0.257579
O O1 0.500000 0.715408 0.750000
O O2 0.683664 0.637701 0.832282
O O3 0.620094 0.986365 0.719568
O O4 0.594107 0.880234 0.963618
O O5 0.673751 0.663416 0.173631
O O6 0.758545 0.959963 0.086120
O O7 0.875652 0.807621 0.498057
O O8 0.761136 0.658668 0.630944
O O9 0.908173 0.904346 0.738662
O O10 0.153532 0.443095 0.684343
O O11 0.000000 0.500000 0.500000
O O12 0.997336 0.195840 0.630728
#
# Coordination Sequence:
#
# PCOD8122825 Si02
#       6
#     4   4   4   4   2   4
#     4  11  26  45  74 106 137 180 234 292 356 423
#     4  11  24  46  72  99 142 182 229 290 355 422
#     4  11  24  40  62  94 131 177 225 276 339 406
#     4  12  24  40  66  95 136 182 229 282 338 411
#     4  12  24  40  62  94 134 180 228 284 332 400
#     4  11  24  44  67 100 137 182 228 282 349 412
#
# _framework density 22.286598999999999
#
# number of rings (size 3 to 8) (size 9 to 14) (size 15 to 20)
#    0.000    0.727    1.818    5.455    5.091    2.909 
#    0.000    0.000    0.000    0.000    0.000    0.000 
#    0.000    0.000    0.000    0.000    0.000    0.000 
#
# Total GULP energy -272640.416515 kJ/mol
# GULP energy per Si atom -12392.746205 kJ/mol
# Density = 2.223587 g / cm^3
# Si number density = 22.286599 Si / 1000 Ang^3
#
#
#
# Elastic Constant Matrix: (Units=GPa)
#
#
# Indices 1 2 3 4 5 6 
#
# 1 66.2614 17.2228 4.9319 0.0000 6.9577 0.0000
# 2 17.2228 107.3509 29.2803 0.0000 -10.4575 0.0000
# 3 4.9319 29.2803 101.9721 0.0000 -2.5612 0.0000
# 4 0.0000 0.0000 0.0000 38.8119 0.0000 1.5442
# 5 6.9577 -10.4575 -2.5612 0.0000 42.2981 0.0000
# 6 0.0000 0.0000 0.0000 1.5442 0.0000 24.0167
#
#
#
# Elastic Compliance Matrix: (Units=1/GPa)
#
#
# Indices 1 2 3 4 5 6 
#
# 1 0.016210 -0.002923 -0.000030 0.000000 -0.003391 0.000000
# 2 -0.002923 0.010868 -0.002904 0.000000 0.002992 0.000000
# 3 -0.000030 -0.002904 0.010640 0.000000 -0.000069 0.000000
# 4 0.000000 0.000000 0.000000 0.025831 0.000000 -0.001661
# 5 -0.003391 0.002992 -0.000069 0.000000 0.024935 0.000000
# 6 0.000000 0.000000 0.000000 -0.001661 0.000000 0.041744
#
#
# Mechanical properties :
#
#
# Convention : Reuss Voigt Hill
#
# Bulk Modulus (GPa) = 38.45541 42.05051 40.25296
# Shear Modulus (GPa) = 33.19838 35.96864 34.58351
#
# Velocity S-wave (km/s) = 3.86374 4.02171 3.94352
# Velocity P-wave (km/s) = 6.09894 6.36196 6.23184
#
# Compressibility (1/GPa) = 0.02600415
#
# Stress axis : x y z
#
# Youngs Moduli (GPa) = 61.69150 92.01593 93.98321
#
# Poissons Ratio (x) = 0.26894 0.00281
# Poissons Ratio (y) = 0.18031 0.27293
# Poissons Ratio (z) = 0.00185 0.26722
#
# Static dielectric constant tensor:
#      x y z
#    x 4.076650 0.000000 -0.029140 
#    y 0.000000 2.651070 0.000000 
#    z -0.029140 0.000000 4.003930 
# 
# 
# High freq. dielectric constant tensor:
#      x y z
#    x 1.884520 0.000000 -0.004820 
#    y 0.000000 1.888730 0.000000 
#    z -0.004820 0.000000 1.874920 
# 
# From -- ./inp_files/35348.got.cif
#   From: 2010.06.25/outbox.cif.g09.slc.cpg/sg13_18_cif.got.tgz:35348.got - 2010.06.28 04:50:58.
