data_PCOD8122234
_publ_section_title
;
Structure prediction by ZEFSAII (Michael W. Deem and Ramdas Pophale) SiO2 
 PCOD8122234
Probable space group: P 2/C
;
_chemical_formula_sum "Si O2"
_cell_formula_units_Z 14
_cell_length_a 11.931184
_cell_length_b 4.916807
_cell_length_c 9.401361
_cell_angle_alpha 90.000000
_cell_angle_beta 57.921159
_cell_angle_gamma 90.000000
_cell_volume 467.308758
_symmetry_space_group_name_H-M "P 2/C"
_symmetry_group_IT_number 13
_symmetry_cell_setting 'monoclinic'
loop_
_space_group_symop_operation_xyz
x,y,z
-x,y,1/2-z
-x,-y,-z
x,-y,1/2+z
loop_
_atom_site_type_symbol
_atom_site_label
_atom_site_fract_x
_atom_site_fract_y
_atom_site_fract_z
Si Si1 0.170254 0.696605 0.392148
Si Si2 0.650227 0.107949 0.096478
Si Si3 0.352636 0.594571 0.579980
Si Si4 0.000000 0.456765 0.750000
O O1 0.254343 0.975016 0.348224
O O2 0.271971 0.445240 0.282469
O O3 0.070768 0.729150 0.323975
O O4 0.097196 0.651523 0.592728
O O5 0.500000 0.151660 0.250000
O O6 0.648669 0.905032 0.963851
O O7 0.710947 0.392883 0.996421
O O8 0.500000 0.500000 0.500000
#
# Coordination Sequence:
#
# PCOD8122234 Si02
#       4
#     4   4   4   2
#     4  11  24  48  82 113 164 212 276 327 400 470
#     4  12  26  45  80 120 159 201 258 333 407 480
#     4  12  26  47  78 121 161 203 254 328 413 483
#     4  10  24  50  80 112 162 224 276 332 384 470
#
# _framework density 29.958777999999999
#
# number of rings (size 3 to 8) (size 9 to 14) (size 15 to 20)
#    0.000    0.571    5.714    1.714    0.000    0.000 
#    0.000    4.286    0.000    0.000    0.000    0.000 
#    0.000    0.000    0.000    0.000    0.000    0.000 
#
# Total GULP energy -173521.235069 kJ/mol
# GULP energy per Si atom -12394.373933 kJ/mol
# Density = 2.989059 g / cm^3
# Si number density = 29.958778 Si / 1000 Ang^3
#
#
#
# Elastic Constant Matrix: (Units=GPa)
#
#
# Indices 1 2 3 4 5 6 
#
# 1 132.0170 -15.7381 48.6573 0.0000 2.8207 0.0000
# 2 -15.7381 68.2828 74.5709 0.0000 2.2527 0.0000
# 3 48.6573 74.5709 265.4365 0.0000 8.8680 0.0000
# 4 0.0000 0.0000 0.0000 32.9312 0.0000 20.7767
# 5 2.8207 2.2527 8.8680 0.0000 66.8747 0.0000
# 6 0.0000 0.0000 0.0000 20.7767 0.0000 21.6999
#
#
#
# Elastic Compliance Matrix: (Units=1/GPa)
#
#
# Indices 1 2 3 4 5 6 
#
# 1 0.009541 0.005927 -0.003409 0.000000 -0.000150 0.000000
# 2 0.005927 0.024809 -0.008056 0.000000 -0.000017 0.000000
# 3 -0.003409 -0.008056 0.006671 0.000000 -0.000469 0.000000
# 4 0.000000 0.000000 0.000000 0.076697 0.000000 -0.073434
# 5 -0.000150 -0.000017 -0.000469 0.000000 0.015023 0.000000
# 6 0.000000 0.000000 0.000000 -0.073434 0.000000 0.116393
#
#
# Mechanical properties :
#
#
# Convention : Reuss Voigt Hill
#
# Bulk Modulus (GPa) = 33.39364 75.63519 54.51441
# Shear Modulus (GPa) = 18.50544 48.18422 33.34483
#
# Velocity S-wave (km/s) = 2.48805 4.01478 3.33982
# Velocity P-wave (km/s) = 4.40733 6.84050 5.75400
#
# Compressibility (1/GPa) = 0.02994583
#
# Stress axis : x y z
#
# Youngs Moduli (GPa) = 104.81031 40.30761 149.89948
#
# Poissons Ratio (x) = -0.23890 0.51102
# Poissons Ratio (y) = -0.62121 1.20755
# Poissons Ratio (z) = 0.35731 0.32471
#
# Static dielectric constant tensor:
#      x y z
#    x 6.498540 0.000000 -0.039570 
#    y 0.000000 5.603280 0.000000 
#    z -0.039570 0.000000 4.543410 
# 
# 
# High freq. dielectric constant tensor:
#      x y z
#    x 2.255340 0.000000 0.016610 
#    y 0.000000 2.212450 0.000000 
#    z 0.016610 0.000000 2.267760 
# 
# From -- ./inp_files/17494.got.cif
#   From: 2010.06.25/outbox.cif.g09.slc.cpg/sg13_9_cif.got.tgz:17494.got - 2010.06.28 04:50:58.
