data_PCOD8122748
_publ_section_title
;
Structure prediction by ZEFSAII (Michael W. Deem and Ramdas Pophale) SiO2 
 PCOD8122748
Probable space group: P 2/C
;
_chemical_formula_sum "Si O2"
_cell_formula_units_Z 16
_cell_length_a 7.869821
_cell_length_b 18.677290
_cell_length_c 9.179458
_cell_angle_alpha 90.000000
_cell_angle_beta 147.363308
_cell_angle_gamma 90.000000
_cell_volume 727.669835
_symmetry_space_group_name_H-M "P 2/C"
_symmetry_group_IT_number 13
_symmetry_cell_setting 'monoclinic'
loop_
_space_group_symop_operation_xyz
x,y,z
-x,y,1/2-z
-x,-y,-z
x,-y,1/2+z
loop_
_atom_site_type_symbol
_atom_site_label
_atom_site_fract_x
_atom_site_fract_y
_atom_site_fract_z
Si Si1 0.556562 0.074085 0.621865
Si Si2 0.202077 0.851596 0.633627
Si Si3 0.865261 0.565700 0.492807
Si Si4 0.144132 0.691579 0.512049
O O1 0.500000 0.063453 0.750000
O O2 0.299634 0.129049 0.369861
O O3 0.500000 0.000000 0.500000
O O4 0.911199 0.103398 0.858990
O O5 0.500000 0.871694 0.750000
O O6 0.128346 0.767632 0.580573
O O7 0.500000 0.554884 0.250000
O O8 0.000000 0.500000 0.500000
O O9 0.939435 0.638093 0.460396
O O10 0.000000 0.568960 0.750000
O O11 0.500000 0.663023 0.750000
O O12 0.000000 0.700105 0.250000
#
# Coordination Sequence:
#
# PCOD8122748 Si02
#       4
#     4   4   4   4
#     4  12  26  44  66  95 130 170 217 272 326 387
#     4  11  24  44  68  95 129 171 215 266 327 392
#     4  12  25  43  68  99 135 176 220 270 320 382
#     4  11  23  43  68  97 132 173 215 266 326 389
#
# _framework density 21.987994
#
# number of rings (size 3 to 8) (size 9 to 14) (size 15 to 20)
#    0.000    0.500    0.000    9.750    0.000    5.000 
#    0.000    0.000    0.000    0.000    0.000    0.000 
#    0.000    0.000    0.000    0.000    0.000    0.000 
#
# Total GULP energy -198471.857763 kJ/mol
# GULP energy per Si atom -12404.491110 kJ/mol
# Density = 2.193795 g / cm^3
# Si number density = 21.987994 Si / 1000 Ang^3
#
#
#
# Elastic Constant Matrix: (Units=GPa)
#
#
# Indices 1 2 3 4 5 6 
#
# 1 121.8997 95.2840 57.0804 0.0000 0.6482 0.0000
# 2 95.2840 178.2914 82.0246 0.0000 -6.4112 0.0000
# 3 57.0804 82.0246 176.5455 0.0000 -7.1655 0.0000
# 4 0.0000 0.0000 0.0000 43.7453 0.0000 -5.6507
# 5 0.6482 -6.4112 -7.1655 0.0000 66.8193 0.0000
# 6 0.0000 0.0000 0.0000 -5.6507 0.0000 48.6076
#
#
#
# Elastic Compliance Matrix: (Units=1/GPa)
#
#
# Indices 1 2 3 4 5 6 
#
# 1 0.014407 -0.007088 -0.001404 0.000000 -0.000970 0.000000
# 2 -0.007088 0.010628 -0.002613 0.000000 0.000808 0.000000
# 3 -0.001404 -0.002613 0.007355 0.000000 0.000552 0.000000
# 4 0.000000 0.000000 0.000000 0.023208 0.000000 0.002698
# 5 -0.000970 0.000808 0.000552 0.000000 0.015112 0.000000
# 6 0.000000 0.000000 0.000000 0.002698 0.000000 0.020887
#
#
# Mechanical properties :
#
#
# Convention : Reuss Voigt Hill
#
# Bulk Modulus (GPa) = 98.24807 105.05717 101.65262
# Shear Modulus (GPa) = 42.66178 47.99095 45.32637
#
# Velocity S-wave (km/s) = 4.40958 4.67690 4.54521
# Velocity P-wave (km/s) = 8.40866 8.77767 8.59515
#
# Compressibility (1/GPa) = 0.01017832
#
# Stress axis : x y z
#
# Youngs Moduli (GPa) = 69.41201 94.08754 135.96489
#
# Poissons Ratio (x) = 0.66692 0.19090
# Poissons Ratio (y) = 0.49201 0.35534
# Poissons Ratio (z) = 0.09746 0.24589
#
# Static dielectric constant tensor:
#      x y z
#    x 4.051970 0.000000 0.008130 
#    y 0.000000 4.109890 0.000000 
#    z 0.008130 0.000000 4.577930 
# 
# 
# High freq. dielectric constant tensor:
#      x y z
#    x 1.871380 0.000000 -0.001360 
#    y 0.000000 1.875070 0.000000 
#    z -0.001360 0.000000 1.896740 
# 
# From -- ./inp_files/12958.got.cif
#   From: 2010.06.25/outbox.cif.g09.slc.cpg/sg13_7_cif.got.tgz:12958.got - 2010.06.28 04:50:58.
