data_PCOD8122072
_publ_section_title
;
Structure prediction by ZEFSAII (Michael W. Deem and Ramdas Pophale) SiO2 
 PCOD8122072
Probable space group: P 2/C
;
_chemical_formula_sum "Si O2"
_cell_formula_units_Z 30
_cell_length_a 13.810819
_cell_length_b 11.021241
_cell_length_c 8.919613
_cell_angle_alpha 90.000000
_cell_angle_beta 71.207033
_cell_angle_gamma 90.000000
_cell_volume 1285.296097
_symmetry_space_group_name_H-M "P 2/C"
_symmetry_group_IT_number 13
_symmetry_cell_setting 'monoclinic'
loop_
_space_group_symop_operation_xyz
x,y,z
-x,y,1/2-z
-x,-y,-z
x,-y,1/2+z
loop_
_atom_site_type_symbol
_atom_site_label
_atom_site_fract_x
_atom_site_fract_y
_atom_site_fract_z
Si Si1 0.150508 0.158440 0.339715
Si Si2 0.548367 0.830538 0.467206
Si Si3 0.114867 0.071321 0.677686
Si Si4 0.500000 0.016943 0.250000
Si Si5 0.910902 0.589712 0.592170
Si Si6 0.322641 0.721069 0.566028
Si Si7 0.214745 0.515673 0.116642
Si Si8 0.740443 0.253721 0.735313
O O1 0.160726 0.081474 0.487606
O O2 0.066831 0.265254 0.419407
O O3 0.258220 0.218970 0.233958
O O4 0.112570 0.069649 0.227628
O O5 0.571735 0.895693 0.613894
O O6 0.439797 0.762732 0.522481
O O7 0.637243 0.736540 0.387631
O O8 0.563754 0.933185 0.331137
O O9 0.186809 0.144974 0.753563
O O10 0.000000 0.123203 0.750000
O O11 0.811927 0.570994 0.531505
O O12 0.880524 0.566738 0.780439
O O13 0.000000 0.500000 0.500000
O O14 0.314560 0.573057 0.568449
O O15 0.279515 0.766758 0.429209
O O16 0.212917 0.616021 0.249678
#
# Coordination Sequence:
#
# PCOD8122072 Si02
#       8
#     4   4   4   2   4   4   4   4
#     4  11  27  45  72 106 148 190 247 298 378 432
#     4  11  25  43  72 106 141 194 240 298 367 436
#     4  12  28  46  69 104 151 193 238 304 370 439
#     4  10  24  42  68 104 144 174 256 286 358 440
#     4  11  24  44  73 103 138 195 252 306 357 435
#     4  11  25  47  72 106 148 185 245 308 362 441
#     4  11  24  43  69 103 141 185 244 302 367 434
#     4  12  25  46  73 101 146 198 242 300 368 440
#
# _framework density 23.340923
#
# number of rings (size 3 to 8) (size 9 to 14) (size 15 to 20)
#    0.000    0.800    4.000    1.600    7.467    2.667 
#    0.000    0.000    0.000    0.000    0.000    0.000 
#    0.000    0.000    0.000    0.000    0.000    0.000 
#
# Total GULP energy -371796.136904 kJ/mol
# GULP energy per Si atom -12393.204563 kJ/mol
# Density = 2.328780 g / cm^3
# Si number density = 23.340923 Si / 1000 Ang^3
#
#
#
# Elastic Constant Matrix: (Units=GPa)
#
#
# Indices 1 2 3 4 5 6 
#
# 1 87.2705 38.4930 22.9987 0.0000 -16.2102 0.0000
# 2 38.4930 145.9900 47.5371 0.0000 -0.6574 0.0000
# 3 22.9987 47.5371 113.5888 0.0000 -0.7504 0.0000
# 4 0.0000 0.0000 0.0000 52.1295 0.0000 1.4345
# 5 -16.2102 -0.6574 -0.7504 0.0000 25.4846 0.0000
# 6 0.0000 0.0000 0.0000 1.4345 0.0000 11.2397
#
#
#
# Elastic Compliance Matrix: (Units=1/GPa)
#
#
# Indices 1 2 3 4 5 6 
#
# 1 0.015155 -0.003444 -0.001565 0.000000 0.009505 0.000000
# 2 -0.003444 0.008713 -0.002963 0.000000 -0.002053 0.000000
# 3 -0.001565 -0.002963 0.010355 0.000000 -0.000767 0.000000
# 4 0.000000 0.000000 0.000000 0.019251 0.000000 -0.002457
# 5 0.009505 -0.002053 -0.000767 0.000000 0.045210 0.000000
# 6 0.000000 0.000000 0.000000 -0.002457 0.000000 0.089284
#
#
# Mechanical properties :
#
#
# Convention : Reuss Voigt Hill
#
# Bulk Modulus (GPa) = 54.69920 62.76744 58.73332
# Shear Modulus (GPa) = 23.80902 33.62547 28.71725
#
# Velocity S-wave (km/s) = 3.19729 3.79967 3.51142
# Velocity P-wave (km/s) = 6.09229 6.79706 6.45430
#
# Compressibility (1/GPa) = 0.01828180
#
# Stress axis : x y z
#
# Youngs Moduli (GPa) = 65.98279 114.76701 96.56849
#
# Poissons Ratio (x) = 0.39523 0.15109
# Poissons Ratio (y) = 0.22723 0.28612
# Poissons Ratio (z) = 0.10323 0.34003
#
# Static dielectric constant tensor:
#      x y z
#    x 3.814290 0.000000 0.020550 
#    y 0.000000 4.430060 0.000000 
#    z 0.020550 0.000000 4.435510 
# 
# 
# High freq. dielectric constant tensor:
#      x y z
#    x 1.891230 0.000000 0.005960 
#    y 0.000000 1.934740 0.000000 
#    z 0.005960 0.000000 1.945740 
# 
# From -- ./inp_files/19018.got.cif
#   From: 2010.06.25/outbox.cif.g09.slc.cpg/sg13_10_cif.got.tgz:19018.got - 2010.06.28 04:50:58.
