data_PCOD8122682
_publ_section_title
;
Structure prediction by ZEFSAII (Michael W. Deem and Ramdas Pophale) SiO2 
 PCOD8122682
Probable space group: P 2/C
;
_chemical_formula_sum "Si O2"
_cell_formula_units_Z 20
_cell_length_a 11.383486
_cell_length_b 6.871285
_cell_length_c 18.843671
_cell_angle_alpha 90.000000
_cell_angle_beta 40.790561
_cell_angle_gamma 90.000000
_cell_volume 962.916607
_symmetry_space_group_name_H-M "P 2/C"
_symmetry_group_IT_number 13
_symmetry_cell_setting 'monoclinic'
loop_
_space_group_symop_operation_xyz
x,y,z
-x,y,1/2-z
-x,-y,-z
x,-y,1/2+z
loop_
_atom_site_type_symbol
_atom_site_label
_atom_site_fract_x
_atom_site_fract_y
_atom_site_fract_z
Si Si1 0.125255 0.327736 0.862955
Si Si2 0.558454 0.537289 0.369736
Si Si3 0.162489 0.655263 0.506435
Si Si4 0.048668 0.016217 0.646290
Si Si5 0.590128 0.195750 0.985322
O O1 0.299671 0.450863 0.759060
O O2 0.945729 0.455017 0.937968
O O3 0.107149 0.134323 0.823376
O O4 0.155283 0.261533 0.930035
O O5 0.367470 0.623612 0.434583
O O6 0.540629 0.310569 0.400399
O O7 0.637473 0.660721 0.399045
O O8 0.070730 0.806646 0.601255
O O9 0.229208 0.142066 0.556042
O O10 0.000000 0.982132 0.750000
O O11 0.500000 0.000000 0.000000
#
# Coordination Sequence:
#
# PCOD8122682 Si02
#       5
#     4   4   4   4   4
#     4  11  25  44  65  97 132 177 222 270 331 406
#     4  11  23  41  69  93 131 176 215 273 336 388
#     4  11  25  44  66  93 136 175 221 275 332 397
#     4  12  24  41  69  97 132 172 222 279 334 388
#     4  11  23  40  63  99 130 162 219 276 324 389
#
# _framework density 20.770227999999999
#
# number of rings (size 3 to 8) (size 9 to 14) (size 15 to 20)
#    0.000    0.800    6.000    1.200    2.800    0.800 
#    0.000    0.000    0.000    0.000    0.000    0.000 
#    0.000    0.000    0.000    0.000    0.000    0.000 
#
# Total GULP energy -248103.064658 kJ/mol
# GULP energy per Si atom -12405.153233 kJ/mol
# Density = 2.072295 g / cm^3
# Si number density = 20.770228 Si / 1000 Ang^3
#
#
#
# Elastic Constant Matrix: (Units=GPa)
#
#
# Indices 1 2 3 4 5 6 
#
# 1 87.5589 40.1927 24.0127 0.0000 17.2700 0.0000
# 2 40.1927 95.1859 22.6588 0.0000 15.3193 0.0000
# 3 24.0127 22.6588 98.8976 0.0000 16.1923 0.0000
# 4 0.0000 0.0000 0.0000 32.3163 0.0000 1.5951
# 5 17.2700 15.3193 16.1923 0.0000 40.8263 0.0000
# 6 0.0000 0.0000 0.0000 1.5951 0.0000 28.8099
#
#
#
# Elastic Compliance Matrix: (Units=1/GPa)
#
#
# Indices 1 2 3 4 5 6 
#
# 1 0.015103 -0.005351 -0.001843 0.000000 -0.003650 0.000000
# 2 -0.005351 0.013461 -0.001421 0.000000 -0.002224 0.000000
# 3 -0.001843 -0.001421 0.011411 0.000000 -0.003213 0.000000
# 4 0.000000 0.000000 0.000000 0.031029 0.000000 -0.001718
# 5 -0.003650 -0.002224 -0.003213 0.000000 0.028147 0.000000
# 6 0.000000 0.000000 0.000000 -0.001718 0.000000 0.034805
#
#
# Mechanical properties :
#
#
# Convention : Reuss Voigt Hill
#
# Bulk Modulus (GPa) = 43.96731 50.59674 47.28203
# Shear Modulus (GPa) = 31.49265 33.37572 32.43418
#
# Velocity S-wave (km/s) = 3.89812 4.01297 3.95596
# Velocity P-wave (km/s) = 6.44009 6.77385 6.60908
#
# Compressibility (1/GPa) = 0.02274417
#
# Stress axis : x y z
#
# Youngs Moduli (GPa) = 66.21395 74.28655 87.63786
#
# Poissons Ratio (x) = 0.39750 0.16156
# Poissons Ratio (y) = 0.35431 0.12452
# Poissons Ratio (z) = 0.12206 0.10555
#
# Static dielectric constant tensor:
#      x y z
#    x 3.959490 0.000000 -0.046800 
#    y 0.000000 3.701190 0.000000 
#    z -0.046800 0.000000 3.766820 
# 
# 
# High freq. dielectric constant tensor:
#      x y z
#    x 1.824080 0.000000 -0.001330 
#    y 0.000000 1.814490 0.000000 
#    z -0.001330 0.000000 1.811190 
# 
# From -- ./inp_files/71628.got.cif
#   From: 2010.06.25/outbox.cif.g09.slc.cpg/sg13_36_cif.got.tgz:71628.got - 2010.06.28 04:50:58.
