data_PCOD8122918
_publ_section_title
;
Structure prediction by ZEFSAII (Michael W. Deem and Ramdas Pophale) SiO2 
 PCOD8122918
Probable space group: P 2/C
;
_chemical_formula_sum "Si O2"
_cell_formula_units_Z 20
_cell_length_a 30.102097
_cell_length_b 7.524436
_cell_length_c 9.746876
_cell_angle_alpha 90.000000
_cell_angle_beta 26.515955
_cell_angle_gamma 90.000000
_cell_volume 985.612174
_symmetry_space_group_name_H-M "P 2/C"
_symmetry_group_IT_number 13
_symmetry_cell_setting 'monoclinic'
loop_
_space_group_symop_operation_xyz
x,y,z
-x,y,1/2-z
-x,-y,-z
x,-y,1/2+z
loop_
_atom_site_type_symbol
_atom_site_label
_atom_site_fract_x
_atom_site_fract_y
_atom_site_fract_z
Si Si1 0.817450 0.677745 0.219860
Si Si2 0.068359 0.969619 0.181844
Si Si3 0.804398 0.351934 0.072459
Si Si4 0.385931 0.848937 0.711118
Si Si5 0.605878 0.819947 0.121643
O O1 0.849082 0.515731 0.034307
O O2 0.835736 0.624155 0.327433
O O3 0.701396 0.713109 0.510690
O O4 0.883671 0.846527 0.000225
O O5 0.000000 0.890747 0.250000
O O6 0.000000 0.000000 0.500000
O O7 0.154090 0.831195 0.981449
O O8 0.684047 0.341707 0.422602
O O9 0.491581 0.754659 0.455788
O O10 0.380176 0.904073 0.567695
O O11 0.369846 0.029917 0.836124
#
# Coordination Sequence:
#
# PCOD8122918 Si02
#       5
#     4   4   4   4   4
#     4  11  25  42  65  97 128 165 209 256 313 375
#     4  12  26  46  67  91 124 164 210 267 323 369
#     4  11  25  42  65  96 129 165 208 258 312 375
#     4   9  18  35  61  92 127 163 205 247 304 370
#     4   9  18  35  61  92 126 165 203 249 303 368
#
# _framework density 20.291955999999999
#
# number of rings (size 3 to 8) (size 9 to 14) (size 15 to 20)
#    0.000    1.600    4.000    0.000    2.800    4.000 
#    0.000    0.000    0.000    0.000    0.000    0.000 
#    0.000    0.000    0.000    0.000    0.000    0.000 
#
# Total GULP energy -247992.484806 kJ/mol
# GULP energy per Si atom -12399.624240 kJ/mol
# Density = 2.024577 g / cm^3
# Si number density = 20.291956 Si / 1000 Ang^3
#
#
#
# Elastic Constant Matrix: (Units=GPa)
#
#
# Indices 1 2 3 4 5 6 
#
# 1 120.5571 42.1433 38.7562 0.0000 6.0762 0.0000
# 2 42.1433 80.0457 29.7402 0.0000 5.2950 0.0000
# 3 38.7562 29.7402 97.6842 0.0000 5.2752 0.0000
# 4 0.0000 0.0000 0.0000 17.8878 0.0000 8.2303
# 5 6.0762 5.2950 5.2752 0.0000 29.1896 0.0000
# 6 0.0000 0.0000 0.0000 8.2303 0.0000 32.0618
#
#
#
# Elastic Compliance Matrix: (Units=1/GPa)
#
#
# Indices 1 2 3 4 5 6 
#
# 1 0.010869 -0.004598 -0.002863 0.000000 -0.000911 0.000000
# 2 -0.004598 0.016126 -0.003008 0.000000 -0.001424 0.000000
# 3 -0.002863 -0.003008 0.012348 0.000000 -0.001090 0.000000
# 4 0.000000 0.000000 0.000000 0.063391 0.000000 -0.016272
# 5 -0.000911 -0.001424 -0.001090 0.000000 0.034904 0.000000
# 6 0.000000 0.000000 0.000000 -0.016272 0.000000 0.035367
#
#
# Mechanical properties :
#
#
# Convention : Reuss Voigt Hill
#
# Bulk Modulus (GPa) = 54.33884 57.72961 56.03422
# Shear Modulus (GPa) = 24.99040 28.33766 26.66403
#
# Velocity S-wave (km/s) = 3.51314 3.74103 3.62887
# Velocity P-wave (km/s) = 6.57973 6.86816 6.72549
#
# Compressibility (1/GPa) = 0.01840304
#
# Stress axis : x y z
#
# Youngs Moduli (GPa) = 92.00897 62.01286 80.98699
#
# Poissons Ratio (x) = 0.28515 0.23186
# Poissons Ratio (y) = 0.42308 0.24363
# Poissons Ratio (z) = 0.26342 0.18655
#
# Static dielectric constant tensor:
#      x y z
#    x 3.951370 0.000000 -0.037960 
#    y 0.000000 3.293190 0.000000 
#    z -0.037960 0.000000 3.930900 
# 
# 
# High freq. dielectric constant tensor:
#      x y z
#    x 1.809860 0.000000 -0.003370 
#    y 0.000000 1.761480 0.000000 
#    z -0.003370 0.000000 1.809320 
# 
# From -- ./inp_files/20724.got.cif
#   From: 2010.06.25/outbox.cif.g09.slc.cpg/sg13_11_cif.got.tgz:20724.got - 2010.06.28 04:50:58.
