data_PCOD8122868
_publ_section_title
;
Structure prediction by ZEFSAII (Michael W. Deem and Ramdas Pophale) SiO2 
 PCOD8122868
Probable space group: P 2/C
;
_chemical_formula_sum "Si O2"
_cell_formula_units_Z 14
_cell_length_a 14.568758
_cell_length_b 8.882503
_cell_length_c 10.944545
_cell_angle_alpha 90.000000
_cell_angle_beta 27.507204
_cell_angle_gamma 90.000000
_cell_volume 654.133036
_symmetry_space_group_name_H-M "P 2/C"
_symmetry_group_IT_number 13
_symmetry_cell_setting 'monoclinic'
loop_
_space_group_symop_operation_xyz
x,y,z
-x,y,1/2-z
-x,-y,-z
x,-y,1/2+z
loop_
_atom_site_type_symbol
_atom_site_label
_atom_site_fract_x
_atom_site_fract_y
_atom_site_fract_z
Si Si1 0.483729 0.220134 0.973130
Si Si2 0.775608 0.292638 0.986443
Si Si3 0.225591 0.046764 0.711086
Si Si4 0.500000 0.540340 0.250000
O O1 0.350901 0.274626 0.242280
O O2 0.359161 0.101932 0.039073
O O3 0.690322 0.146398 0.775417
O O4 0.533625 0.362304 0.831160
O O5 0.758333 0.137097 0.933709
O O6 0.000000 0.333099 0.750000
O O7 0.691279 0.432004 0.006928
O O8 0.000000 0.000000 0.000000
#
# Coordination Sequence:
#
# PCOD8122868 Si02
#       4
#     4   4   4   2
#     4  11  26  45  71  99 139 182 231 284 347 406
#     4  12  25  45  70 101 140 181 231 287 343 413
#     4  11  24  44  73 100 131 176 239 289 340 399
#     4  12  28  44  68 100 146 188 222 280 350 414
#
# _framework density 21.402373999999998
#
# number of rings (size 3 to 8) (size 9 to 14) (size 15 to 20)
#    0.000    0.571    5.714    0.857    8.000    3.429 
#    0.000    0.000    0.000    0.000    0.000    0.000 
#    0.000    0.000    0.000    0.000    0.000    0.000 
#
# Total GULP energy -173666.925305 kJ/mol
# GULP energy per Si atom -12404.780379 kJ/mol
# Density = 2.135366 g / cm^3
# Si number density = 21.402374 Si / 1000 Ang^3
#
#
#
# Elastic Constant Matrix: (Units=GPa)
#
#
# Indices 1 2 3 4 5 6 
#
# 1 111.3262 48.2630 57.6757 0.0000 -31.2469 0.0000
# 2 48.2630 121.5467 47.0864 0.0000 -7.0593 0.0000
# 3 57.6757 47.0864 107.9930 0.0000 -16.6526 0.0000
# 4 0.0000 0.0000 0.0000 25.5345 0.0000 12.0323
# 5 -31.2469 -7.0593 -16.6526 0.0000 52.6580 0.0000
# 6 0.0000 0.0000 0.0000 12.0323 0.0000 55.6744
#
#
#
# Elastic Compliance Matrix: (Units=1/GPa)
#
#
# Indices 1 2 3 4 5 6 
#
# 1 0.015333 -0.003522 -0.005596 0.000000 0.006857 0.000000
# 2 -0.003522 0.010709 -0.003037 0.000000 -0.001615 0.000000
# 3 -0.005596 -0.003037 0.013664 0.000000 0.000593 0.000000
# 4 0.000000 0.000000 0.000000 0.043603 0.000000 -0.009424
# 5 0.006857 -0.001615 0.000593 0.000000 0.023030 0.000000
# 6 0.000000 0.000000 0.000000 -0.009424 0.000000 0.019998
#
#
# Mechanical properties :
#
#
# Convention : Reuss Voigt Hill
#
# Bulk Modulus (GPa) = 64.95369 71.87957 68.41663
# Shear Modulus (GPa) = 32.09644 39.29608 35.69626
#
# Velocity S-wave (km/s) = 3.87675 4.28958 4.08838
# Velocity P-wave (km/s) = 7.10308 7.62835 7.37039
#
# Compressibility (1/GPa) = 0.01539559
#
# Stress axis : x y z
#
# Youngs Moduli (GPa) = 65.21714 93.38255 73.18434
#
# Poissons Ratio (x) = 0.32893 0.40954
# Poissons Ratio (y) = 0.22972 0.22226
# Poissons Ratio (z) = 0.36495 0.28360
#
# Static dielectric constant tensor:
#      x y z
#    x 4.201290 0.000000 -0.161900 
#    y 0.000000 4.195020 0.000000 
#    z -0.161900 0.000000 3.793670 
# 
# 
# High freq. dielectric constant tensor:
#      x y z
#    x 1.858630 0.000000 -0.008370 
#    y 0.000000 1.855750 0.000000 
#    z -0.008370 0.000000 1.826140 
# 
# From -- ./inp_files/14660.got.cif
#   From: 2010.06.25/outbox.cif.g09.slc.cpg/sg13_8_cif.got.tgz:14660.got - 2010.06.28 04:50:58.
