data_PCOD8122451
_publ_section_title
;
Structure prediction by ZEFSAII (Michael W. Deem and Ramdas Pophale) SiO2 
 PCOD8122451
Probable space group: P 2/C
;
_chemical_formula_sum "Si O2"
_cell_formula_units_Z 32
_cell_length_a 15.657486
_cell_length_b 20.294515
_cell_length_c 15.976061
_cell_angle_alpha 90.000000
_cell_angle_beta 18.379934
_cell_angle_gamma 90.000000
_cell_volume 1600.727470
_symmetry_space_group_name_H-M "P 2/C"
_symmetry_group_IT_number 13
_symmetry_cell_setting 'monoclinic'
loop_
_space_group_symop_operation_xyz
x,y,z
-x,y,1/2-z
-x,-y,-z
x,-y,1/2+z
loop_
_atom_site_type_symbol
_atom_site_label
_atom_site_fract_x
_atom_site_fract_y
_atom_site_fract_z
Si Si1 0.687809 0.048023 0.222814
Si Si2 0.224068 0.838830 0.971687
Si Si3 0.824784 0.498370 0.786987
Si Si4 0.081778 0.220579 0.903179
Si Si5 0.269710 0.629247 0.533852
Si Si6 0.701371 0.569153 0.729304
Si Si7 0.734345 0.916970 0.247705
Si Si8 0.382598 0.301061 0.098728
O O1 0.681088 0.086746 0.141480
O O2 0.470921 0.083188 0.484064
O O3 0.630082 0.968258 0.272010
O O4 0.981172 0.056439 0.987613
O O5 0.500000 0.803650 0.750000
O O6 0.000000 0.844818 0.250000
O O7 0.090655 0.799771 0.018481
O O8 0.846789 0.558067 0.831166
O O9 0.768159 0.526764 0.748438
O O10 0.088085 0.451247 0.539140
O O11 0.589091 0.450108 0.036409
O O12 0.226837 0.158979 0.815896
O O13 0.321635 0.271203 0.656124
O O14 0.863216 0.249015 0.171742
O O15 0.401454 0.667083 0.489346
O O16 0.000000 0.666603 0.750000
O O17 0.500000 0.622757 0.250000
O O18 0.698701 0.646386 0.754033
#
# Coordination Sequence:
#
# PCOD8122451 Si02
#       8
#     4   4   4   4   4   4   4   4
#     4   9  17  31  52  79 105 133 172 229 291 329
#     4  11  21  35  56  82 113 147 190 246 299 342
#     4   9  17  31  53  78 104 132 169 224 286 330
#     4  11  21  36  56  84 114 155 203 232 270 340
#     4  11  22  37  58  85 114 146 188 244 298 341
#     4   9  17  31  52  79 104 131 174 227 272 320
#     4   9  17  31  53  79 105 133 178 233 275 322
#     4  11  22  36  58  84 115 155 200 234 269 338
#
# _framework density 19.990911000000001
#
# number of rings (size 3 to 8) (size 9 to 14) (size 15 to 20)
#    0.000    2.000    0.000    6.000    0.000    4.000 
#    0.000    0.000    0.000   15.750    0.000    0.000 
#    0.000    0.000    0.000    0.000    0.000    0.250 
#
# Total GULP energy -396453.389505 kJ/mol
# GULP energy per Si atom -12389.168422 kJ/mol
# Density = 1.994541 g / cm^3
# Si number density = 19.990911 Si / 1000 Ang^3
#
#
#
# Elastic Constant Matrix: (Units=GPa)
#
#
# Indices 1 2 3 4 5 6 
#
# 1 61.1763 40.3949 40.4376 0.0000 -0.1110 0.0000
# 2 40.3949 107.2198 50.4575 0.0000 0.7099 0.0000
# 3 40.4376 50.4575 178.0169 0.0000 1.0864 0.0000
# 4 0.0000 0.0000 0.0000 31.6323 0.0000 -6.6142
# 5 -0.1110 0.7099 1.0864 0.0000 31.2724 0.0000
# 6 0.0000 0.0000 0.0000 -6.6142 0.0000 11.0399
#
#
#
# Elastic Compliance Matrix: (Units=1/GPa)
#
#
# Indices 1 2 3 4 5 6 
#
# 1 0.023270 -0.007247 -0.003234 0.000000 0.000359 0.000000
# 2 -0.007247 0.013020 -0.002043 0.000000 -0.000250 0.000000
# 3 -0.003234 -0.002043 0.006932 0.000000 -0.000206 0.000000
# 4 0.000000 0.000000 0.000000 0.036141 0.000000 0.021653
# 5 0.000359 -0.000250 -0.000206 0.000000 0.031991 0.000000
# 6 0.000000 0.000000 0.000000 0.021653 0.000000 0.103553
#
#
# Mechanical properties :
#
#
# Convention : Reuss Voigt Hill
#
# Bulk Modulus (GPa) = 55.02249 67.66588 61.34418
# Shear Modulus (GPa) = 20.32412 29.13046 24.72729
#
# Velocity S-wave (km/s) = 3.19198 3.82145 3.52081
# Velocity P-wave (km/s) = 6.41627 7.30706 6.87610
#
# Compressibility (1/GPa) = 0.01817439
#
# Stress axis : x y z
#
# Youngs Moduli (GPa) = 42.97392 76.80495 144.25331
#
# Poissons Ratio (x) = 0.55664 0.46650
# Poissons Ratio (y) = 0.31145 0.29465
# Poissons Ratio (z) = 0.13897 0.15688
#
# Static dielectric constant tensor:
#      x y z
#    x 3.449640 0.000000 -0.112920 
#    y 0.000000 3.956410 0.000000 
#    z -0.112920 0.000000 3.942960 
# 
# 
# High freq. dielectric constant tensor:
#      x y z
#    x 1.738210 0.000000 -0.009970 
#    y 0.000000 1.773330 0.000000 
#    z -0.009970 0.000000 1.811090 
# 
# From -- ./inp_files/53984.got.cif
#   From: 2010.06.25/outbox.cif.g09.slc.cpg/sg13_27_cif.got.tgz:53984.got - 2010.06.28 04:50:58.
