data_PCOD8122922
_publ_section_title
;
Structure prediction by ZEFSAII (Michael W. Deem and Ramdas Pophale) SiO2 
 PCOD8122922
Probable space group: P 2/C
;
_chemical_formula_sum "Si O2"
_cell_formula_units_Z 20
_cell_length_a 13.209252
_cell_length_b 7.157921
_cell_length_c 9.774298
_cell_angle_alpha 90.000000
_cell_angle_beta 90.683898
_cell_angle_gamma 90.000000
_cell_volume 924.101688
_symmetry_space_group_name_H-M "P 2/C"
_symmetry_group_IT_number 13
_symmetry_cell_setting 'monoclinic'
loop_
_space_group_symop_operation_xyz
x,y,z
-x,y,1/2-z
-x,-y,-z
x,-y,1/2+z
loop_
_atom_site_type_symbol
_atom_site_label
_atom_site_fract_x
_atom_site_fract_y
_atom_site_fract_z
Si Si1 0.229961 0.198414 0.545606
Si Si2 0.454751 0.776389 0.113184
Si Si3 0.573388 0.216454 0.361915
Si Si4 0.790763 0.173453 0.279408
Si Si5 0.929806 0.502754 0.369156
O O1 0.342155 0.284513 0.567640
O O2 0.211211 0.145070 0.385649
O O3 0.161015 0.361775 0.599440
O O4 0.203687 0.023063 0.641802
O O5 0.500000 0.682371 0.250000
O O6 0.445799 0.996577 0.133322
O O7 0.539094 0.705982 0.007438
O O8 0.500000 0.309401 0.250000
O O9 0.687696 0.272952 0.327751
O O10 0.886051 0.299597 0.325400
O O11 0.000000 0.582882 0.250000
O O12 0.000000 0.500000 0.500000
#
# Coordination Sequence:
#
# PCOD8122922 Si02
#       5
#     4   4   4   4   4
#     4  11  25  44  70 102 135 175 224 272 331 400
#     4   9  18  32  59  97 136 174 213 257 322 391
#     4   9  16  32  59  93 136 172 209 260 317 393
#     4  11  25  43  71 103 133 176 225 270 331 401
#     4  12  28  50  69  94 134 174 223 290 344 389
#
# _framework density 21.642638999999999
#
# number of rings (size 3 to 8) (size 9 to 14) (size 15 to 20)
#    0.000    1.600    4.000    0.000   11.200    1.600 
#    0.000    2.000    0.000    0.000    0.000    0.000 
#    0.000    0.000    0.000    0.000    0.000    0.000 
#
# Total GULP energy -247825.672683 kJ/mol
# GULP energy per Si atom -12391.283634 kJ/mol
# Density = 2.159338 g / cm^3
# Si number density = 21.642639 Si / 1000 Ang^3
#
#
#
# Elastic Constant Matrix: (Units=GPa)
#
#
# Indices 1 2 3 4 5 6 
#
# 1 116.8146 27.4391 68.3742 0.0000 9.6054 0.0000
# 2 27.4391 59.4071 27.0659 0.0000 -0.0670 0.0000
# 3 68.3742 27.0659 192.3023 0.0000 2.9722 0.0000
# 4 0.0000 0.0000 0.0000 14.1587 0.0000 -7.2084
# 5 9.6054 -0.0670 2.9722 0.0000 49.6656 0.0000
# 6 0.0000 0.0000 0.0000 -7.2084 0.0000 62.6224
#
#
#
# Elastic Compliance Matrix: (Units=1/GPa)
#
#
# Indices 1 2 3 4 5 6 
#
# 1 0.011728 -0.003776 -0.003607 0.000000 -0.002057 0.000000
# 2 -0.003776 0.019204 -0.001373 0.000000 0.000838 0.000000
# 3 -0.003607 -0.001373 0.006671 0.000000 0.000296 0.000000
# 4 0.000000 0.000000 0.000000 0.075024 0.000000 0.008636
# 5 -0.002057 0.000838 0.000296 0.000000 0.020516 0.000000
# 6 0.000000 0.000000 0.000000 0.008636 0.000000 0.016963
#
#
# Mechanical properties :
#
#
# Convention : Reuss Voigt Hill
#
# Bulk Modulus (GPa) = 49.77372 68.25361 59.01366
# Shear Modulus (GPa) = 28.68381 41.66567 35.17474
#
# Velocity S-wave (km/s) = 3.64447 4.39243 4.03582
# Velocity P-wave (km/s) = 6.38416 7.57164 7.00311
#
# Compressibility (1/GPa) = 0.02009092
#
# Stress axis : x y z
#
# Youngs Moduli (GPa) = 85.26796 52.07344 149.89826
#
# Poissons Ratio (x) = 0.19663 0.54062
# Poissons Ratio (y) = 0.32197 0.20584
# Poissons Ratio (z) = 0.30753 0.07151
#
# Static dielectric constant tensor:
#      x y z
#    x 4.199070 0.000000 -0.011860 
#    y 0.000000 3.200970 0.000000 
#    z -0.011860 0.000000 4.223620 
# 
# 
# High freq. dielectric constant tensor:
#      x y z
#    x 1.861010 0.000000 -0.001590 
#    y 0.000000 1.829400 0.000000 
#    z -0.001590 0.000000 1.873220 
# 
# From -- ./inp_files/14812.got.cif
#   From: 2010.06.25/outbox.cif.g09.slc.cpg/sg13_8_cif.got.tgz:14812.got - 2010.06.28 04:50:58.
