data_PCOD8122766
_publ_section_title
;
Structure prediction by ZEFSAII (Michael W. Deem and Ramdas Pophale) SiO2 
 PCOD8122766
Probable space group: P 2/C
;
_chemical_formula_sum "Si O2"
_cell_formula_units_Z 28
_cell_length_a 6.601892
_cell_length_b 9.661258
_cell_length_c 21.077353
_cell_angle_alpha 90.000000
_cell_angle_beta 66.967493
_cell_angle_gamma 90.000000
_cell_volume 1237.199041
_symmetry_space_group_name_H-M "P 2/C"
_symmetry_group_IT_number 13
_symmetry_cell_setting 'monoclinic'
loop_
_space_group_symop_operation_xyz
x,y,z
-x,y,1/2-z
-x,-y,-z
x,-y,1/2+z
loop_
_atom_site_type_symbol
_atom_site_label
_atom_site_fract_x
_atom_site_fract_y
_atom_site_fract_z
Si Si1 0.509915 0.896240 0.589092
Si Si2 0.682164 0.556625 0.023491
Si Si3 0.599229 0.193888 0.945933
Si Si4 0.957457 0.785473 0.822869
Si Si5 0.102646 0.456219 0.387765
Si Si6 0.722965 0.011200 0.683902
Si Si7 0.028541 0.719259 0.322038
O O1 0.638076 0.814397 0.517498
O O2 0.304051 0.800597 0.635161
O O3 0.409773 0.039169 0.577505
O O4 0.684781 0.934951 0.621646
O O5 0.625859 0.720104 0.041097
O O6 0.685557 0.478433 0.091852
O O7 0.500000 0.500000 0.000000
O O8 0.901665 0.522962 0.959396
O O9 0.798008 0.268218 0.886343
O O10 0.083705 0.695565 0.860390
O O11 0.000000 0.712825 0.750000
O O12 0.076014 0.934479 0.806141
O O13 0.115948 0.567214 0.329041
O O14 0.500000 0.998543 0.750000
O O15 0.796203 0.170961 0.671035
O O16 0.000000 0.735549 0.250000
#
# Coordination Sequence:
#
# PCOD8122766 Si02
#       7
#     4   4   4   4   4   4   4
#     4  11  24  42  70 105 138 185 235 299 353 426
#     4  11  23  44  70  97 144 180 229 291 358 424
#     4  11  23  44  70 101 142 180 233 304 351 416
#     4  12  24  45  68 102 145 182 236 294 354 430
#     4  11  26  42  71 104 136 189 231 286 362 431
#     4  12  25  44  72 100 140 191 239 292 366 421
#     4  12  25  46  73 102 140 190 244 298 358 433
#
# _framework density 22.631768000000001
#
# number of rings (size 3 to 8) (size 9 to 14) (size 15 to 20)
#    0.000    0.571    5.714    2.571    2.000    0.571 
#    0.000    0.714    0.000    0.000    0.000    0.000 
#    0.000    0.000    0.000    0.000    0.000    0.000 
#
# Total GULP energy -347087.274352 kJ/mol
# GULP energy per Si atom -12395.974084 kJ/mol
# Density = 2.258026 g / cm^3
# Si number density = 22.631768 Si / 1000 Ang^3
#
#
#
# Elastic Constant Matrix: (Units=GPa)
#
#
# Indices 1 2 3 4 5 6 
#
# 1 94.4362 26.5797 49.0040 0.0000 21.0824 0.0000
# 2 26.5797 92.2299 36.2280 0.0000 11.6270 0.0000
# 3 49.0040 36.2280 135.0116 0.0000 17.6484 0.0000
# 4 0.0000 0.0000 0.0000 -1.2491 0.0000 0.7730
# 5 21.0824 11.6270 17.6484 0.0000 32.2338 0.0000
# 6 0.0000 0.0000 0.0000 0.7730 0.0000 45.9391
#
#
#
# Elastic Compliance Matrix: (Units=1/GPa)
#
#
# Indices 1 2 3 4 5 6 
#
# 1 0.014662 -0.001821 -0.003948 0.000000 -0.006771 0.000000
# 2 -0.001821 0.012584 -0.002454 0.000000 -0.002005 0.000000
# 3 -0.003948 -0.002454 0.009742 0.000000 -0.001867 0.000000
# 4 0.000000 0.000000 0.000000 -0.792347 0.000000 0.013333
# 5 -0.006771 -0.002005 -0.001867 0.000000 0.037197 0.000000
# 6 0.000000 0.000000 0.000000 0.013333 0.000000 0.021544
#
#
# Mechanical properties :
#
#
# Convention : Reuss Voigt Hill
#
# Bulk Modulus (GPa) = 48.67929 60.58901 54.63415
# Shear Modulus (GPa) = -7.42583 29.37584 10.97500
#
# Velocity S-wave (km/s) = -1.81336 3.60667 2.20452
# Velocity P-wave (km/s) = 4.14386 6.64634 5.53830
#
# Compressibility (1/GPa) = 0.02054261
#
# Stress axis : x y z
#
# Youngs Moduli (GPa) = 68.20353 79.46736 102.64693
#
# Poissons Ratio (x) = 0.14471 0.40525
# Poissons Ratio (y) = 0.12420 0.25186
# Poissons Ratio (z) = 0.26927 0.19498
#
# Static dielectric constant tensor:
#      x y z
#    x 2.591510 0.000000 0.375600 
#    y 0.000000 3.690680 0.000000 
#    z 0.375600 0.000000 4.339850 
# 
# 
# High freq. dielectric constant tensor:
#      x y z
#    x 1.884320 0.000000 0.013400 
#    y 0.000000 1.900990 0.000000 
#    z 0.013400 0.000000 1.901230 
# 
# From -- ./inp_files/73598.got.cif
#   From: 2010.06.25/outbox.cif.g09.slc.cpg/sg13_37_cif.got.tgz:73598.got - 2010.06.28 04:50:58.
