data_PCOD8122769
_publ_section_title
;
Structure prediction by ZEFSAII (Michael W. Deem and Ramdas Pophale) SiO2 
 PCOD8122769
Probable space group: P 2/C
;
_chemical_formula_sum "Si O2"
_cell_formula_units_Z 20
_cell_length_a 21.256849
_cell_length_b 5.288747
_cell_length_c 10.334606
_cell_angle_alpha 90.000000
_cell_angle_beta 43.160861
_cell_angle_gamma 90.000000
_cell_volume 794.754153
_symmetry_space_group_name_H-M "P 2/C"
_symmetry_group_IT_number 13
_symmetry_cell_setting 'monoclinic'
loop_
_space_group_symop_operation_xyz
x,y,z
-x,y,1/2-z
-x,-y,-z
x,-y,1/2+z
loop_
_atom_site_type_symbol
_atom_site_label
_atom_site_fract_x
_atom_site_fract_y
_atom_site_fract_z
Si Si1 0.260904 0.130170 0.986352
Si Si2 0.099904 0.921067 0.544407
Si Si3 0.643201 0.492003 0.821688
Si Si4 0.405518 0.761410 0.853182
Si Si5 0.823828 0.406358 0.167759
O O1 0.169963 0.022605 0.055729
O O2 0.227430 0.376908 0.117491
O O3 0.338160 0.213553 0.766559
O O4 0.312881 0.930036 0.002663
O O5 0.126934 0.678176 0.416650
O O6 0.000000 0.870825 0.750000
O O7 0.102500 0.176720 0.454590
O O8 0.582070 0.651652 0.811700
O O9 0.744110 0.622463 0.678840
O O10 0.600154 0.462096 0.029513
O O11 0.500000 0.909925 0.750000
#
# Coordination Sequence:
#
# PCOD8122769 Si02
#       5
#     4   4   4   4   4
#     4  11  24  44  71 100 152 193 248 304 376 437
#     4  11  25  43  72 109 146 194 246 304 369 444
#     4  11  24  46  72 104 148 197 244 310 372 438
#     4  12  26  45  73 109 147 198 254 308 371 442
#     4  11  23  44  71 103 147 194 243 300 371 440
#
# _framework density 25.165016999999999
#
# number of rings (size 3 to 8) (size 9 to 14) (size 15 to 20)
#    0.000    0.800    4.000    3.600    0.000    3.200 
#    0.000    0.000    0.000    0.000    0.000    0.000 
#    0.000    0.000    0.000    0.000    0.000    0.000 
#
# Total GULP energy -247865.794360 kJ/mol
# GULP energy per Si atom -12393.289718 kJ/mol
# Density = 2.510774 g / cm^3
# Si number density = 25.165017 Si / 1000 Ang^3
#
#
#
# Elastic Constant Matrix: (Units=GPa)
#
#
# Indices 1 2 3 4 5 6 
#
# 1 67.2881 23.8783 38.0431 0.0000 0.5115 0.0000
# 2 23.8783 112.9482 29.5183 0.0000 1.3725 0.0000
# 3 38.0431 29.5183 86.6137 0.0000 5.5997 0.0000
# 4 0.0000 0.0000 0.0000 33.0802 0.0000 5.4720
# 5 0.5115 1.3725 5.5997 0.0000 49.4334 0.0000
# 6 0.0000 0.0000 0.0000 5.4720 0.0000 26.6573
#
#
#
# Elastic Compliance Matrix: (Units=1/GPa)
#
#
# Indices 1 2 3 4 5 6 
#
# 1 0.020264 -0.002145 -0.008220 0.000000 0.000781 0.000000
# 2 -0.002145 0.009947 -0.002449 0.000000 0.000023 0.000000
# 3 -0.008220 -0.002449 0.016099 0.000000 -0.001671 0.000000
# 4 0.000000 0.000000 0.000000 0.031292 0.000000 -0.006423
# 5 0.000781 0.000023 -0.001671 0.000000 0.020410 0.000000
# 6 0.000000 0.000000 0.000000 -0.006423 0.000000 0.038832
#
#
# Mechanical properties :
#
#
# Convention : Reuss Voigt Hill
#
# Bulk Modulus (GPa) = 48.35385 49.96994 49.16189
# Shear Modulus (GPa) = 29.52189 33.52819 31.52504
#
# Velocity S-wave (km/s) = 3.42882 3.65407 3.54324
# Velocity P-wave (km/s) = 5.91034 6.14028 6.02641
#
# Compressibility (1/GPa) = 0.02068088
#
# Stress axis : x y z
#
# Youngs Moduli (GPa) = 49.34819 100.53330 62.11709
#
# Poissons Ratio (x) = 0.21567 0.51060
# Poissons Ratio (y) = 0.10587 0.15214
# Poissons Ratio (z) = 0.40564 0.24623
#
# Static dielectric constant tensor:
#      x y z
#    x 4.628950 0.000000 0.018970 
#    y 0.000000 4.303700 0.000000 
#    z 0.018970 0.000000 4.352770 
# 
# 
# High freq. dielectric constant tensor:
#      x y z
#    x 2.008240 0.000000 0.005470 
#    y 0.000000 1.989130 0.000000 
#    z 0.005470 0.000000 1.997010 
# 
# From -- ./inp_files/39748.got.cif
#   From: 2010.06.25/outbox.cif.g09.slc.cpg/sg13_20_cif.got.tgz:39748.got - 2010.06.28 04:50:58.
