data_PCOD8122453
_publ_section_title
;
Structure prediction by ZEFSAII (Michael W. Deem and Ramdas Pophale) SiO2 
 PCOD8122453
Probable space group: P 2/C
;
_chemical_formula_sum "Si O2"
_cell_formula_units_Z 28
_cell_length_a 8.439716
_cell_length_b 23.930197
_cell_length_c 14.511806
_cell_angle_alpha 90.000000
_cell_angle_beta 149.286655
_cell_angle_gamma 90.000000
_cell_volume 1496.918456
_symmetry_space_group_name_H-M "P 2/C"
_symmetry_group_IT_number 13
_symmetry_cell_setting 'monoclinic'
loop_
_space_group_symop_operation_xyz
x,y,z
-x,y,1/2-z
-x,-y,-z
x,-y,1/2+z
loop_
_atom_site_type_symbol
_atom_site_label
_atom_site_fract_x
_atom_site_fract_y
_atom_site_fract_z
Si Si1 0.633377 0.851057 0.918355
Si Si2 0.630202 0.637864 0.065100
Si Si3 0.369298 0.441907 0.583617
Si Si4 0.630703 0.441909 0.214319
Si Si5 0.631895 0.235458 0.565947
Si Si6 0.366624 0.148944 0.784979
Si Si7 0.633976 0.061292 0.566988
O O1 0.500000 0.851625 0.750000
O O2 0.514370 0.796472 0.915090
O O3 0.522269 0.905829 0.919420
O O4 0.000000 0.850118 0.094166
O O5 0.489999 0.609493 0.084957
O O6 0.508554 0.701433 0.004275
O O7 0.000000 0.633370 0.250000
O O8 0.490004 0.609492 0.905044
O O9 0.500000 0.432478 0.750000
O O10 0.500004 0.499999 0.607545
O O11 0.000000 0.444144 0.399461
O O12 0.500000 0.432479 0.250000
O O13 0.514368 0.203527 0.599277
O O14 0.000000 0.234483 0.750000
O O15 0.500000 0.148376 0.750000
O O16 0.477732 0.094170 0.897150
O O17 0.000000 0.057648 0.750000
O O18 0.500000 0.000000 0.500000
#
# Coordination Sequence:
#
# PCOD8122453 Si02
#       7
#     4   4   4   4   4   4   4
#     4   9  18  35  55  76 102 138 175 213 257 305
#     4  11  21  36  57  81 108 141 176 218 268 319
#     4  11  22  38  57  80 108 140 177 219 266 321
#     4  11  22  38  57  80 108 140 177 219 266 321
#     4   8  18  36  55  74 103 138 174 213 259 308
#     4   9  18  35  55  76 102 138 175 213 257 305
#     4   9  19  34  52  75 108 139 171 211 256 305
#
# _framework density 18.705093000000002
#
# number of rings (size 3 to 8) (size 9 to 14) (size 15 to 20)
#    0.000    2.286    0.000    6.000    0.000    2.857 
#    0.000   10.714    0.000    0.000    0.000    0.000 
#    0.000    0.000    0.000    0.000    0.000    0.000 
#
# Total GULP energy -347132.431730 kJ/mol
# GULP energy per Si atom -12397.586847 kJ/mol
# Density = 1.866252 g / cm^3
# Si number density = 18.705093 Si / 1000 Ang^3
#
#
#
# Elastic Constant Matrix: (Units=GPa)
#
#
# Indices 1 2 3 4 5 6 
#
# 1 137.0712 86.3529 46.7944 0.0000 -19.8880 0.0000
# 2 86.3529 198.5321 65.3160 0.0000 -21.3416 0.0000
# 3 46.7944 65.3160 103.3633 0.0000 -14.3104 0.0000
# 4 0.0000 0.0000 0.0000 25.1597 0.0000 1.4044
# 5 -19.8880 -21.3416 -14.3104 0.0000 40.9958 0.0000
# 6 0.0000 0.0000 0.0000 1.4044 0.0000 23.7756
#
#
#
# Elastic Compliance Matrix: (Units=1/GPa)
#
#
# Indices 1 2 3 4 5 6 
#
# 1 0.010722 -0.003674 -0.002183 0.000000 0.002527 0.000000
# 2 -0.003674 0.007779 -0.003087 0.000000 0.001189 0.000000
# 3 -0.002183 -0.003087 0.012866 0.000000 0.001825 0.000000
# 4 0.000000 0.000000 0.000000 0.039878 0.000000 -0.002356
# 5 0.002527 0.001189 0.001825 0.000000 0.026875 0.000000
# 6 0.000000 0.000000 0.000000 -0.002356 0.000000 0.042199
#
#
# Mechanical properties :
#
#
# Convention : Reuss Voigt Hill
#
# Bulk Modulus (GPa) = 74.18953 92.87702 83.53328
# Shear Modulus (GPa) = 30.73169 34.01978 32.37574
#
# Velocity S-wave (km/s) = 4.05774 4.26930 4.16486
# Velocity P-wave (km/s) = 7.85509 8.60603 8.23912
#
# Compressibility (1/GPa) = 0.01347899
#
# Stress axis : x y z
#
# Youngs Moduli (GPa) = 93.26938 128.55943 77.72202
#
# Poissons Ratio (x) = 0.47230 0.16963
# Poissons Ratio (y) = 0.34265 0.23996
# Poissons Ratio (z) = 0.20356 0.39692
#
# Static dielectric constant tensor:
#      x y z
#    x 3.727960 0.000000 -0.269130 
#    y 0.000000 2.649800 0.000000 
#    z -0.269130 0.000000 3.462670 
# 
# 
# High freq. dielectric constant tensor:
#      x y z
#    x 1.730650 0.000000 -0.008710 
#    y 0.000000 1.731340 0.000000 
#    z -0.008710 0.000000 1.722060 
# 
# From -- ./inp_files/48242.got.cif
#   From: 2010.06.25/outbox.cif.g09.slc.cpg/sg13_25_cif.got.tgz:48242.got - 2010.06.28 04:50:58.
