data_PCOD8122208
_publ_section_title
;
Structure prediction by ZEFSAII (Michael W. Deem and Ramdas Pophale) SiO2 
 PCOD8122208
Probable space group: P 2/C
;
_chemical_formula_sum "Si O2"
_cell_formula_units_Z 22
_cell_length_a 15.485604
_cell_length_b 6.355043
_cell_length_c 8.951936
_cell_angle_alpha 90.000000
_cell_angle_beta 98.506385
_cell_angle_gamma 90.000000
_cell_volume 871.283788
_symmetry_space_group_name_H-M "P 2/C"
_symmetry_group_IT_number 13
_symmetry_cell_setting 'monoclinic'
loop_
_space_group_symop_operation_xyz
x,y,z
-x,y,1/2-z
-x,-y,-z
x,-y,1/2+z
loop_
_atom_site_type_symbol
_atom_site_label
_atom_site_fract_x
_atom_site_fract_y
_atom_site_fract_z
Si Si1 0.000000 0.941442 0.750000
Si Si2 0.264201 0.796602 0.531981
Si Si3 0.547634 0.187093 0.419124
Si Si4 0.571762 0.652829 0.384774
Si Si5 0.117710 0.144138 0.534486
Si Si6 0.255416 0.409347 0.714899
O O1 0.932945 0.801292 0.633649
O O2 0.050378 0.089056 0.647347
O O3 0.356891 0.924358 0.545291
O O4 0.268149 0.658444 0.687031
O O5 0.246699 0.641966 0.386783
O O6 0.184538 0.955004 0.521565
O O7 0.500000 0.148844 0.250000
O O8 0.579996 0.428237 0.471439
O O9 0.470248 0.150617 0.527206
O O10 0.500000 0.589452 0.250000
O O11 0.662357 0.721034 0.332458
O O12 0.168934 0.348382 0.601317
#
# Coordination Sequence:
#
# PCOD8122208 Si02
#       6
#     2   4   4   4   4   4
#     4  10  24  46  74  90 122 174 198 262 340 396
#     4  11  24  41  66  98 131 169 218 260 314 374
#     4   9  18  31  54  88 128 173 214 253 303 360
#     4   9  16  31  54  84 129 170 211 253 297 361
#     4  11  24  48  69  93 132 160 211 264 328 395
#     4  11  24  40  67  98 129 173 214 263 312 372
#
# _framework density 25.250095999999999
#
# number of rings (size 3 to 8) (size 9 to 14) (size 15 to 20)
#    0.000    1.818    3.636    0.000   10.182    0.000 
#    0.000    7.273    0.000    0.000    0.000    0.000 
#    0.000    0.000    0.000    0.000    0.000    0.000 
#
# Total GULP energy -272648.341053 kJ/mol
# GULP energy per Si atom -12393.106412 kJ/mol
# Density = 2.519263 g / cm^3
# Si number density = 25.250096 Si / 1000 Ang^3
#
#
#
# Elastic Constant Matrix: (Units=GPa)
#
#
# Indices 1 2 3 4 5 6 
#
# 1 148.2156 17.3595 47.5118 0.0000 10.4356 0.0000
# 2 17.3595 46.5798 -1.8979 0.0000 -6.8861 0.0000
# 3 47.5118 -1.8979 118.8234 0.0000 7.0132 0.0000
# 4 0.0000 0.0000 0.0000 98.4590 0.0000 -43.4175
# 5 10.4356 -6.8861 7.0132 0.0000 51.6287 0.0000
# 6 0.0000 0.0000 0.0000 -43.4175 0.0000 61.4480
#
#
#
# Elastic Compliance Matrix: (Units=1/GPa)
#
#
# Indices 1 2 3 4 5 6 
#
# 1 0.008329 -0.003490 -0.003285 0.000000 -0.001703 0.000000
# 2 -0.003490 0.023366 0.001555 0.000000 0.003611 0.000000
# 3 -0.003285 0.001555 0.009781 0.000000 -0.000457 0.000000
# 4 0.000000 0.000000 0.000000 0.014753 0.000000 0.010424
# 5 -0.001703 0.003611 -0.000457 0.000000 0.020257 0.000000
# 6 0.000000 0.000000 0.000000 0.010424 0.000000 0.023639
#
#
# Mechanical properties :
#
#
# Convention : Reuss Voigt Hill
#
# Bulk Modulus (GPa) = 32.21963 48.84064 40.53014
# Shear Modulus (GPa) = 41.35280 59.01683 50.18482
#
# Velocity S-wave (km/s) = 4.05128 4.83980 4.46299
# Velocity P-wave (km/s) = 5.88827 7.11451 6.53024
#
# Compressibility (1/GPa) = 0.03103698
#
# Stress axis : x y z
#
# Youngs Moduli (GPa) = 120.06674 42.79697 102.23501
#
# Poissons Ratio (x) = 0.14934 0.33589
# Poissons Ratio (y) = 0.41898 -0.15902
# Poissons Ratio (z) = 0.39448 -0.06657
#
# Static dielectric constant tensor:
#      x y z
#    x 5.107440 0.000000 -0.013980 
#    y 0.000000 4.421260 0.000000 
#    z -0.013980 0.000000 4.730780 
# 
# 
# High freq. dielectric constant tensor:
#      x y z
#    x 2.032770 0.000000 -0.002150 
#    y 0.000000 1.999790 0.000000 
#    z -0.002150 0.000000 2.009220 
# 
# From -- ./inp_files/17896.got.cif
#   From: 2010.06.25/outbox.cif.g09.slc.cpg/sg13_9_cif.got.tgz:17896.got - 2010.06.28 04:50:58.
