data_PCOD8122850
_publ_section_title
;
Structure prediction by ZEFSAII (Michael W. Deem and Ramdas Pophale) SiO2 
 PCOD8122850
Probable space group: P 2/C
;
_chemical_formula_sum "Si O2"
_cell_formula_units_Z 22
_cell_length_a 14.846158
_cell_length_b 10.645046
_cell_length_c 18.600836
_cell_angle_alpha 90.000000
_cell_angle_beta 19.116000
_cell_angle_gamma 90.000000
_cell_volume 962.678356
_symmetry_space_group_name_H-M "P 2/C"
_symmetry_group_IT_number 13
_symmetry_cell_setting 'monoclinic'
loop_
_space_group_symop_operation_xyz
x,y,z
-x,y,1/2-z
-x,-y,-z
x,-y,1/2+z
loop_
_atom_site_type_symbol
_atom_site_label
_atom_site_fract_x
_atom_site_fract_y
_atom_site_fract_z
Si Si1 0.042924 0.070428 0.369255
Si Si2 0.559700 0.864064 0.411048
Si Si3 0.655311 0.572252 0.704551
Si Si4 0.500000 0.079248 0.250000
Si Si5 0.847644 0.690393 0.100204
Si Si6 0.679462 0.235965 0.978281
O O1 0.005197 0.208006 0.432497
O O2 0.218927 0.969644 0.285026
O O3 0.244805 0.088521 0.147178
O O4 0.759084 0.013078 0.557915
O O5 0.584738 0.748907 0.338344
O O6 0.632014 0.830400 0.438593
O O7 0.500000 0.613862 0.750000
O O8 0.715696 0.423960 0.655663
O O9 0.949039 0.641322 0.490683
O O10 0.459068 0.623604 0.917285
O O11 0.475567 0.161158 0.340590
O O12 0.000000 0.248805 0.750000
#
# Coordination Sequence:
#
# PCOD8122850 Si02
#       6
#     4   4   4   2   4   4
#     4  11  25  43  69 100 143 175 222 289 352 411
#     4  11  24  43  70 101 133 181 227 286 352 410
#     4  11  24  47  69  96 137 185 235 284 341 412
#     4  12  26  40  66 104 140 176 230 286 348 422
#     4  11  25  46  69  99 139 182 232 285 346 413
#     4  12  23  43  68 101 133 179 236 286 337 413
#
# _framework density 22.852906000000001
#
# number of rings (size 3 to 8) (size 9 to 14) (size 15 to 20)
#    0.000    0.727    4.545    2.727    6.364    0.727 
#    3.273    0.000    0.000    0.000    0.000    0.000 
#    0.000    0.000    0.000    0.000    0.000    0.000 
#
# Total GULP energy -272644.861888 kJ/mol
# GULP energy per Si atom -12392.948268 kJ/mol
# Density = 2.280089 g / cm^3
# Si number density = 22.852906 Si / 1000 Ang^3
#
#
#
# Elastic Constant Matrix: (Units=GPa)
#
#
# Indices 1 2 3 4 5 6 
#
# 1 43.3503 17.6354 15.4844 0.0000 -4.7667 0.0000
# 2 17.6354 146.6166 57.9064 0.0000 3.3689 0.0000
# 3 15.4844 57.9064 141.9622 0.0000 -23.6528 0.0000
# 4 0.0000 0.0000 0.0000 44.6834 0.0000 -1.4198
# 5 -4.7667 3.3689 -23.6528 0.0000 32.6883 0.0000
# 6 0.0000 0.0000 0.0000 -1.4198 0.0000 20.9052
#
#
#
# Elastic Compliance Matrix: (Units=1/GPa)
#
#
# Indices 1 2 3 4 5 6 
#
# 1 0.024875 -0.002615 -0.001134 0.000000 0.003076 0.000000
# 2 -0.002615 0.008814 -0.004008 0.000000 -0.004190 0.000000
# 3 -0.001134 -0.004008 0.010056 0.000000 0.007524 0.000000
# 4 0.000000 0.000000 0.000000 0.022428 0.000000 0.001523
# 5 0.003076 -0.004190 0.007524 0.000000 0.036917 0.000000
# 6 0.000000 0.000000 0.000000 0.001523 0.000000 0.047938
#
#
# Mechanical properties :
#
#
# Convention : Reuss Voigt Hill
#
# Bulk Modulus (GPa) = 35.42149 57.10906 46.26527
# Shear Modulus (GPa) = 28.41650 35.71559 32.06605
#
# Velocity S-wave (km/s) = 3.53009 3.95757 3.74993
# Velocity P-wave (km/s) = 5.66999 6.77697 6.24804
#
# Compressibility (1/GPa) = 0.02823145
#
# Stress axis : x y z
#
# Youngs Moduli (GPa) = 40.20103 113.45098 99.43829
#
# Poissons Ratio (x) = 0.29665 0.11277
# Poissons Ratio (y) = 0.10512 0.39858
# Poissons Ratio (z) = 0.04559 0.45475
#
# Static dielectric constant tensor:
#      x y z
#    x 3.749540 0.000000 -0.075150 
#    y 0.000000 4.385600 0.000000 
#    z -0.075150 0.000000 4.609580 
# 
# 
# High freq. dielectric constant tensor:
#      x y z
#    x 1.873270 0.000000 -0.007560 
#    y 0.000000 1.916370 0.000000 
#    z -0.007560 0.000000 1.920940 
# 
# From -- ./inp_files/68518.got.cif
#   From: 2010.06.25/outbox.cif.g09.slc.cpg/sg13_35_cif.got.tgz:68518.got - 2010.06.28 04:50:58.
