data_PCOD8122431
_publ_section_title
;
Structure prediction by ZEFSAII (Michael W. Deem and Ramdas Pophale) SiO2 
 PCOD8122431
Probable space group: P 2/C
;
_chemical_formula_sum "Si O2"
_cell_formula_units_Z 22
_cell_length_a 8.937384
_cell_length_b 8.089396
_cell_length_c 14.757019
_cell_angle_alpha 90.000000
_cell_angle_beta 82.655013
_cell_angle_gamma 90.000000
_cell_volume 1058.148910
_symmetry_space_group_name_H-M "P 2/C"
_symmetry_group_IT_number 13
_symmetry_cell_setting 'monoclinic'
loop_
_space_group_symop_operation_xyz
x,y,z
-x,y,1/2-z
-x,-y,-z
x,-y,1/2+z
loop_
_atom_site_type_symbol
_atom_site_label
_atom_site_fract_x
_atom_site_fract_y
_atom_site_fract_z
Si Si1 0.500000 0.363391 0.750000
Si Si2 0.920400 0.348857 0.456665
Si Si3 0.673277 0.169834 0.597157
Si Si4 0.476779 0.689348 0.972941
Si Si5 0.700277 0.365583 0.315849
Si Si6 0.781448 0.802095 0.619281
O O1 0.631021 0.256773 0.693732
O O2 0.400431 0.471407 0.689469
O O3 0.804233 0.268404 0.535427
O O4 0.842224 0.409525 0.369251
O O5 0.000000 0.500000 0.500000
O O6 0.042419 0.210996 0.417400
O O7 0.519054 0.181524 0.549590
O O8 0.727249 0.989181 0.619271
O O9 0.585844 0.749435 0.881853
O O10 0.304957 0.703232 0.953501
O O11 0.500000 0.500000 0.000000
O O12 0.749165 0.277154 0.219837
#
# Coordination Sequence:
#
# PCOD8122431 Si02
#       6
#     2   4   4   4   4   4
#     4  12  22  42  70  98 134 166 254 272 332 402
#     4  11  25  45  69  93 135 182 230 269 345 416
#     4  11  26  40  65 100 133 175 218 287 337 397
#     4  11  20  41  67  95 128 177 226 266 326 408
#     4  11  22  41  70  97 127 179 226 282 326 403
#     4  12  23  42  65  98 139 168 219 284 346 398
#
# _framework density 20.791025000000001
#
# number of rings (size 3 to 8) (size 9 to 14) (size 15 to 20)
#    0.000    0.727    3.636    4.909    2.545    0.000 
#    0.000    3.636    0.000    0.000    0.000    0.000 
#    0.000    0.000    0.000    0.000    0.000    0.000 
#
# Total GULP energy -272674.787060 kJ/mol
# GULP energy per Si atom -12394.308503 kJ/mol
# Density = 2.074370 g / cm^3
# Si number density = 20.791025 Si / 1000 Ang^3
#
#
#
# Elastic Constant Matrix: (Units=GPa)
#
#
# Indices 1 2 3 4 5 6 
#
# 1 138.8769 50.5258 51.5857 0.0000 15.9591 0.0000
# 2 50.5258 125.2561 49.4237 0.0000 10.2189 0.0000
# 3 51.5857 49.4237 101.7856 0.0000 -2.4824 0.0000
# 4 0.0000 0.0000 0.0000 26.7058 0.0000 -2.5557
# 5 15.9591 10.2189 -2.4824 0.0000 48.0090 0.0000
# 6 0.0000 0.0000 0.0000 -2.5557 0.0000 35.3555
#
#
#
# Elastic Compliance Matrix: (Units=1/GPa)
#
#
# Indices 1 2 3 4 5 6 
#
# 1 0.009812 -0.002129 -0.004013 0.000000 -0.003016 0.000000
# 2 -0.002129 0.010610 -0.004116 0.000000 -0.001764 0.000000
# 3 -0.004013 -0.004116 0.013929 0.000000 0.002930 0.000000
# 4 0.000000 0.000000 0.000000 0.037706 0.000000 0.002726
# 5 -0.003016 -0.001764 0.002930 0.000000 0.022359 0.000000
# 6 0.000000 0.000000 0.000000 0.002726 0.000000 0.028481
#
#
# Mechanical properties :
#
#
# Convention : Reuss Voigt Hill
#
# Bulk Modulus (GPa) = 72.27721 74.33210 73.30466
# Shear Modulus (GPa) = 33.77818 36.30628 35.04223
#
# Velocity S-wave (km/s) = 4.03507 4.18335 4.10988
# Velocity P-wave (km/s) = 7.51985 7.69178 7.60630
#
# Compressibility (1/GPa) = 0.01383562
#
# Stress axis : x y z
#
# Youngs Moduli (GPa) = 101.91364 94.24747 71.79508
#
# Poissons Ratio (x) = 0.20061 0.28811
# Poissons Ratio (y) = 0.21693 0.29553
# Poissons Ratio (z) = 0.40897 0.38795
#
# Static dielectric constant tensor:
#      x y z
#    x 4.178570 0.000000 0.026690 
#    y 0.000000 3.556830 0.000000 
#    z 0.026690 0.000000 4.114610 
# 
# 
# High freq. dielectric constant tensor:
#      x y z
#    x 1.825140 0.000000 0.001130 
#    y 0.000000 1.796760 0.000000 
#    z 0.001130 0.000000 1.833810 
# 
# From -- ./inp_files/45728.got.cif
#   From: 2010.06.25/outbox.cif.g09.slc.cpg/sg13_23_cif.got.tgz:45728.got - 2010.06.28 04:50:58.
