data_PCOD8122476
_publ_section_title
;
Structure prediction by ZEFSAII (Michael W. Deem and Ramdas Pophale) SiO2 
 PCOD8122476
Probable space group: P 2/C
;
_chemical_formula_sum "Si O2"
_cell_formula_units_Z 32
_cell_length_a 14.539412
_cell_length_b 11.567712
_cell_length_c 15.108596
_cell_angle_alpha 90.000000
_cell_angle_beta 37.012111
_cell_angle_gamma 90.000000
_cell_volume 1529.689338
_symmetry_space_group_name_H-M "P 2/C"
_symmetry_group_IT_number 13
_symmetry_cell_setting 'monoclinic'
loop_
_space_group_symop_operation_xyz
x,y,z
-x,y,1/2-z
-x,-y,-z
x,-y,1/2+z
loop_
_atom_site_type_symbol
_atom_site_label
_atom_site_fract_x
_atom_site_fract_y
_atom_site_fract_z
Si Si1 0.831798 0.521201 0.890134
Si Si2 0.317827 0.752930 0.526968
Si Si3 0.161481 0.905859 0.494781
Si Si4 0.121570 0.785151 0.837187
Si Si5 0.804431 0.730815 0.343793
Si Si6 0.668853 0.235470 0.772164
Si Si7 0.131560 0.828118 0.031221
Si Si8 0.103191 0.582131 0.477847
O O1 0.708666 0.615889 0.956908
O O2 0.816763 0.408055 0.840602
O O3 0.000000 0.574006 0.750000
O O4 0.817227 0.503195 0.007600
O O5 0.221277 0.823216 0.527929
O O6 0.272555 0.792018 0.660801
O O7 0.495984 0.768699 0.372200
O O8 0.252555 0.874578 0.334925
O O9 0.982060 0.894303 0.610125
O O10 0.175301 0.038506 0.509332
O O11 0.170554 0.785503 0.902539
O O12 0.015856 0.676206 0.892910
O O13 0.674086 0.771081 0.375186
O O14 0.760658 0.771020 0.476551
O O15 0.959776 0.789441 0.187847
O O16 0.759717 0.353482 0.678819
O O17 0.000000 0.500000 0.500000
#
# Coordination Sequence:
#
# PCOD8122476 Si02
#       8
#     4   4   4   4   4   4   4   4
#     4  12  20  39  66 101 136 169 226 280 328 402
#     4  12  25  41  67 101 141 178 223 278 344 407
#     4  11  23  43  71 100 129 176 236 283 329 399
#     4  11  22  39  64 103 128 173 234 277 327 401
#     4  11  24  42  68 102 136 173 223 288 344 395
#     4  11  25  45  65 101 139 178 225 273 349 403
#     4  11  23  41  72  96 131 172 237 288 333 392
#     4  11  21  38  67  96 133 172 224 276 326 397
#
# _framework density 20.919281000000002
#
# number of rings (size 3 to 8) (size 9 to 14) (size 15 to 20)
#    0.000    0.750    7.500    2.625    3.500    0.500 
#    0.000    4.375    2.750    0.000    0.000    0.000 
#    0.000    0.000    0.000    0.000    0.000    0.000 
#
# Total GULP energy -396530.428396 kJ/mol
# GULP energy per Si atom -12391.575887 kJ/mol
# Density = 2.087167 g / cm^3
# Si number density = 20.919281 Si / 1000 Ang^3
#
#
#
# Elastic Constant Matrix: (Units=GPa)
#
#
# Indices 1 2 3 4 5 6 
#
# 1 104.2472 30.7326 44.4976 0.0000 28.0311 0.0000
# 2 30.7326 106.2731 29.8362 0.0000 3.3667 0.0000
# 3 44.4976 29.8362 86.1974 0.0000 6.5025 0.0000
# 4 0.0000 0.0000 0.0000 19.7144 0.0000 4.0151
# 5 28.0311 3.3667 6.5025 0.0000 41.1128 0.0000
# 6 0.0000 0.0000 0.0000 4.0151 0.0000 16.5204
#
#
#
# Elastic Compliance Matrix: (Units=1/GPa)
#
#
# Indices 1 2 3 4 5 6 
#
# 1 0.015613 -0.002385 -0.006524 0.000000 -0.009418 0.000000
# 2 -0.002385 0.010790 -0.002591 0.000000 0.001152 0.000000
# 3 -0.006524 -0.002591 0.015701 0.000000 0.002177 0.000000
# 4 0.000000 0.000000 0.000000 0.053366 0.000000 -0.012970
# 5 -0.009418 0.001152 0.002177 0.000000 0.030306 0.000000
# 6 0.000000 0.000000 0.000000 -0.012970 0.000000 0.063684
#
#
# Mechanical properties :
#
#
# Convention : Reuss Voigt Hill
#
# Bulk Modulus (GPa) = 52.34043 56.31672 54.32857
# Shear Modulus (GPa) = 22.84911 28.24628 25.54770
#
# Velocity S-wave (km/s) = 3.30851 3.67856 3.49843
# Velocity P-wave (km/s) = 6.29837 6.70983 6.50735
#
# Compressibility (1/GPa) = 0.01910569
#
# Stress axis : x y z
#
# Youngs Moduli (GPa) = 64.05046 92.67621 63.68819
#
# Poissons Ratio (x) = 0.22104 0.41548
# Poissons Ratio (y) = 0.15277 0.16499
# Poissons Ratio (z) = 0.41785 0.24009
#
# Static dielectric constant tensor:
#      x y z
#    x 3.995980 0.000000 0.478570 
#    y 0.000000 8.275730 0.000000 
#    z 0.478570 0.000000 3.637080 
# 
# 
# High freq. dielectric constant tensor:
#      x y z
#    x 1.823920 0.000000 0.033650 
#    y 0.000000 1.815350 0.000000 
#    z 0.033650 0.000000 1.797730 
# 
# From -- ./inp_files/53689.got.cif
#   From: 2010.06.25/outbox.cif.g09.slc.cpg/sg13_27_cif.got.tgz:53689.got - 2010.06.28 04:50:58.
