data_PCOD8122456
_publ_section_title
;
Structure prediction by ZEFSAII (Michael W. Deem and Ramdas Pophale) SiO2 
 PCOD8122456
Probable space group: P 2/C
;
_chemical_formula_sum "Si O2"
_cell_formula_units_Z 16
_cell_length_a 7.558575
_cell_length_b 7.233133
_cell_length_c 13.812640
_cell_angle_alpha 90.000000
_cell_angle_beta 70.638440
_cell_angle_gamma 90.000000
_cell_volume 712.458862
_symmetry_space_group_name_H-M "P 2/C"
_symmetry_group_IT_number 13
_symmetry_cell_setting 'monoclinic'
loop_
_space_group_symop_operation_xyz
x,y,z
-x,y,1/2-z
-x,-y,-z
x,-y,1/2+z
loop_
_atom_site_type_symbol
_atom_site_label
_atom_site_fract_x
_atom_site_fract_y
_atom_site_fract_z
Si Si1 0.883069 0.770377 0.054977
Si Si2 0.529440 0.975176 0.638289
Si Si3 0.266583 0.804025 0.062398
Si Si4 0.944417 0.542591 0.867239
O O1 0.691638 0.871503 0.113356
O O2 0.068189 0.886809 0.056563
O O3 0.885979 0.573326 0.112694
O O4 0.897494 0.725127 0.937609
O O5 0.500000 0.888824 0.750000
O O6 0.336819 0.072824 0.639346
O O7 0.582211 0.813813 0.552881
O O8 0.238546 0.593008 0.102360
O O9 0.000000 0.607247 0.750000
#
# Coordination Sequence:
#
# PCOD8122456 Si02
#       4
#     4   4   4   4
#     4   9  20  38  57  81 114 144 187 233 268 336
#     4  11  21  36  58  84 113 149 181 228 284 325
#     4   9  21  39  54  85 113 140 195 227 265 348
#     4   9  18  38  59  81 110 148 188 226 278 327
#
# _framework density 22.457439000000001
#
# number of rings (size 3 to 8) (size 9 to 14) (size 15 to 20)
#    1.500    1.000    0.000    2.250    0.000    1.000 
#    9.000    1.250    0.000    0.000    0.000    0.000 
#    0.000    0.000    0.000    0.000    0.000    0.000 
#
# Total GULP energy -198266.219169 kJ/mol
# GULP energy per Si atom -12391.638698 kJ/mol
# Density = 2.240632 g / cm^3
# Si number density = 22.457439 Si / 1000 Ang^3
#
#
#
# Elastic Constant Matrix: (Units=GPa)
#
#
# Indices 1 2 3 4 5 6 
#
# 1 106.7365 16.5029 15.2785 0.0000 6.4306 0.0000
# 2 16.5029 30.2624 13.5420 0.0000 -5.9417 0.0000
# 3 15.2785 13.5420 157.5444 0.0000 25.9826 0.0000
# 4 0.0000 0.0000 0.0000 22.2969 0.0000 4.2857
# 5 6.4306 -5.9417 25.9826 0.0000 25.9153 0.0000
# 6 0.0000 0.0000 0.0000 4.2857 0.0000 8.6119
#
#
#
# Elastic Compliance Matrix: (Units=1/GPa)
#
#
# Indices 1 2 3 4 5 6 
#
# 1 0.010653 -0.006827 0.000297 0.000000 -0.004507 0.000000
# 2 -0.006827 0.042824 -0.005892 0.000000 0.017420 0.000000
# 3 0.000297 -0.005892 0.008459 0.000000 -0.009905 0.000000
# 4 0.000000 0.000000 0.000000 0.049593 0.000000 -0.024680
# 5 -0.004507 0.017420 -0.009905 0.000000 0.053630 0.000000
# 6 0.000000 0.000000 0.000000 -0.024680 0.000000 0.128400
#
#
# Mechanical properties :
#
#
# Convention : Reuss Voigt Hill
#
# Bulk Modulus (GPa) = 26.96009 42.79889 34.87949
# Shear Modulus (GPa) = 15.11636 27.97950 21.54793
#
# Velocity S-wave (km/s) = 2.59725 3.53355 3.10094
# Velocity P-wave (km/s) = 4.58534 5.97889 5.32787
#
# Compressibility (1/GPa) = 0.03709186
#
# Stress axis : x y z
#
# Youngs Moduli (GPa) = 93.86621 23.35133 118.22244
#
# Poissons Ratio (x) = 0.15943 -0.03510
# Poissons Ratio (y) = 0.64085 0.69654
# Poissons Ratio (z) = -0.02787 0.13758
#
# Static dielectric constant tensor:
#      x y z
#    x 3.991580 0.000000 0.218680 
#    y 0.000000 3.582210 0.000000 
#    z 0.218680 0.000000 3.961400 
# 
# 
# High freq. dielectric constant tensor:
#      x y z
#    x 1.878900 0.000000 0.018090 
#    y 0.000000 1.855620 0.000000 
#    z 0.018090 0.000000 1.879310 
# 
# From -- ./inp_files/28011.got.cif
#   From: 2010.06.25/outbox.cif.g09.slc.cpg/sg13_15_cif.got.tgz:28011.got - 2010.06.28 04:50:58.
