data_PCOD8122995
_publ_section_title
;
Structure prediction by ZEFSAII (Michael W. Deem and Ramdas Pophale) SiO2 
 PCOD8122995
Probable space group: P 2/C
;
_chemical_formula_sum "Si O2"
_cell_formula_units_Z 16
_cell_length_a 9.344052
_cell_length_b 17.139559
_cell_length_c 8.101500
_cell_angle_alpha 90.000000
_cell_angle_beta 146.912022
_cell_angle_gamma 90.000000
_cell_volume 708.327731
_symmetry_space_group_name_H-M "P 2/C"
_symmetry_group_IT_number 13
_symmetry_cell_setting 'monoclinic'
loop_
_space_group_symop_operation_xyz
x,y,z
-x,y,1/2-z
-x,-y,-z
x,-y,1/2+z
loop_
_atom_site_type_symbol
_atom_site_label
_atom_site_fract_x
_atom_site_fract_y
_atom_site_fract_z
Si Si1 0.978123 0.321079 0.537137
Si Si2 0.492198 0.411938 0.934465
Si Si3 0.000000 0.952212 0.750000
Si Si4 0.894845 0.146461 0.459278
Si Si5 0.500000 0.057969 0.250000
O O1 0.920268 0.234196 0.414578
O O2 0.000000 0.314760 0.750000
O O3 0.243026 0.359903 0.733344
O O4 0.743547 0.375255 0.259088
O O5 0.500000 0.412716 0.750000
O O6 0.500000 0.500000 0.000000
O O7 0.956519 0.903151 0.539093
O O8 0.744910 0.004594 0.538730
O O9 0.593580 0.114961 0.187686
O O10 0.000000 0.136894 0.750000
#
# Coordination Sequence:
#
# PCOD8122995 Si02
#       5
#     4   4   2   4   2
#     4  11  26  46  72 104 146 187 236 294 355 424
#     4  12  26  46  75 107 144 185 235 287 354 429
#     4  12  28  44  74 102 144 186 248 302 360 430
#     4  11  28  46  73 104 145 189 243 297 364 423
#     4  12  26  48  70 106 140 192 242 304 362 426
#
# _framework density 22.588414
#
# number of rings (size 3 to 8) (size 9 to 14) (size 15 to 20)
#    0.000    0.500    1.250    5.250   14.000    0.000 
#    0.000    0.000    0.000    0.000    0.000    0.000 
#    0.000    0.000    0.000    0.000    0.000    0.000 
#
# Total GULP energy -198222.847497 kJ/mol
# GULP energy per Si atom -12388.927969 kJ/mol
# Density = 2.253700 g / cm^3
# Si number density = 22.588414 Si / 1000 Ang^3
#
#
#
# Elastic Constant Matrix: (Units=GPa)
#
#
# Indices 1 2 3 4 5 6 
#
# 1 100.4050 59.9959 14.7596 0.0000 29.4951 0.0000
# 2 59.9959 233.2319 77.4257 0.0000 33.4570 0.0000
# 3 14.7596 77.4257 125.3513 0.0000 37.4038 0.0000
# 4 0.0000 0.0000 0.0000 27.7688 0.0000 4.5921
# 5 29.4951 33.4570 37.4038 0.0000 39.2432 0.0000
# 6 0.0000 0.0000 0.0000 4.5921 0.0000 43.8875
#
#
#
# Elastic Compliance Matrix: (Units=1/GPa)
#
#
# Indices 1 2 3 4 5 6 
#
# 1 0.014991 -0.003437 0.003976 0.000000 -0.012127 0.000000
# 2 -0.003437 0.006295 -0.003707 0.000000 0.000750 0.000000
# 3 0.003976 -0.003707 0.013622 0.000000 -0.012812 0.000000
# 4 0.000000 0.000000 0.000000 0.036646 0.000000 -0.003834
# 5 -0.012127 0.000750 -0.012812 0.000000 0.046169 0.000000
# 6 0.000000 0.000000 0.000000 -0.003834 0.000000 0.023187
#
#
# Mechanical properties :
#
#
# Convention : Reuss Voigt Hill
#
# Bulk Modulus (GPa) = 34.99809 84.81673 59.90741
# Shear Modulus (GPa) = 31.89414 42.63371 37.26392
#
# Velocity S-wave (km/s) = 3.76169 4.34915 4.06605
# Velocity P-wave (km/s) = 5.86469 7.92783 6.97298
#
# Compressibility (1/GPa) = 0.02857298
#
# Stress axis : x y z
#
# Youngs Moduli (GPa) = 66.70571 158.86371 73.41041
#
# Poissons Ratio (x) = 0.54596 -0.29190
# Poissons Ratio (y) = 0.22924 0.27214
# Poissons Ratio (z) = -0.26524 0.58893
#
# Static dielectric constant tensor:
#      x y z
#    x 4.415170 0.000000 0.143940 
#    y 0.000000 4.732790 0.000000 
#    z 0.143940 0.000000 4.296110 
# 
# 
# High freq. dielectric constant tensor:
#      x y z
#    x 1.904290 0.000000 0.004700 
#    y 0.000000 1.918750 0.000000 
#    z 0.004700 0.000000 1.894960 
# 
# From -- ./inp_files/12757.got.cif
#   From: 2010.06.25/outbox.cif.g09.slc.cpg/sg13_7_cif.got.tgz:12757.got - 2010.06.28 04:50:58.
