data_PCOD8122536
_publ_section_title
;
Structure prediction by ZEFSAII (Michael W. Deem and Ramdas Pophale) SiO2 
 PCOD8122536
Probable space group: P 2/C
;
_chemical_formula_sum "Si O2"
_cell_formula_units_Z 26
_cell_length_a 12.991087
_cell_length_b 8.822444
_cell_length_c 14.230949
_cell_angle_alpha 90.000000
_cell_angle_beta 46.907159
_cell_angle_gamma 90.000000
_cell_volume 1191.073134
_symmetry_space_group_name_H-M "P 2/C"
_symmetry_group_IT_number 13
_symmetry_cell_setting 'monoclinic'
loop_
_space_group_symop_operation_xyz
x,y,z
-x,y,1/2-z
-x,-y,-z
x,-y,1/2+z
loop_
_atom_site_type_symbol
_atom_site_label
_atom_site_fract_x
_atom_site_fract_y
_atom_site_fract_z
Si Si1 0.186579 0.133464 0.507358
Si Si2 0.500000 0.479112 0.750000
Si Si3 0.019638 0.134186 0.337736
Si Si4 0.428809 0.713120 0.952175
Si Si5 0.317145 0.940792 0.734056
Si Si6 0.971107 0.669216 0.045211
Si Si7 0.663727 0.714257 0.293171
O O1 0.293524 0.177992 0.523142
O O2 0.278545 0.060942 0.367235
O O3 0.105721 0.281514 0.521124
O O4 0.070972 0.017830 0.616883
O O5 0.425163 0.583669 0.874835
O O6 0.387926 0.371231 0.768262
O O7 0.181648 0.093105 0.254553
O O8 0.000000 0.220910 0.250000
O O9 0.954339 0.232069 0.461697
O O10 0.570575 0.810837 0.858591
O O11 0.409841 0.641347 0.068263
O O12 0.378608 0.108271 0.677781
O O13 0.831283 0.690443 0.194054
O O14 0.000000 0.500000 0.000000
#
# Coordination Sequence:
#
# PCOD8122536 Si02
#       7
#     4   2   4   4   4   4   4
#     4  11  21  44  72  96 137 180 229 287 348 403
#     4  12  28  46  64 100 148 184 224 288 348 422
#     4  11  23  43  72 101 134 176 234 294 344 411
#     4  12  26  46  73 101 141 190 229 290 360 420
#     4  11  22  45  71 102 138 176 231 298 349 406
#     4  11  24  44  66  98 141 181 226 286 347 414
#     4  12  26  45  70 104 136 184 239 285 349 425
#
# _framework density 21.829053999999999
#
# number of rings (size 3 to 8) (size 9 to 14) (size 15 to 20)
#    0.000    0.615    4.615    3.692    4.308    1.231 
#    5.538    0.000    0.000    0.000    0.000    0.000 
#    0.000    0.000    0.000    0.000    0.000    0.000 
#
# Total GULP energy -322487.479183 kJ/mol
# GULP energy per Si atom -12403.364584 kJ/mol
# Density = 2.177937 g / cm^3
# Si number density = 21.829054 Si / 1000 Ang^3
#
#
#
# Elastic Constant Matrix: (Units=GPa)
#
#
# Indices 1 2 3 4 5 6 
#
# 1 101.2522 34.7364 53.9685 0.0000 -7.4571 0.0000
# 2 34.7364 94.7313 31.0301 0.0000 -1.7521 0.0000
# 3 53.9685 31.0301 124.7904 0.0000 5.3584 0.0000
# 4 0.0000 0.0000 0.0000 22.2569 0.0000 -3.9106
# 5 -7.4571 -1.7521 5.3584 0.0000 32.5308 0.0000
# 6 0.0000 0.0000 0.0000 -3.9106 0.0000 26.1090
#
#
#
# Elastic Compliance Matrix: (Units=1/GPa)
#
#
# Indices 1 2 3 4 5 6 
#
# 1 0.014252 -0.003350 -0.005502 0.000000 0.003993 0.000000
# 2 -0.003350 0.012319 -0.001621 0.000000 0.000163 0.000000
# 3 -0.005502 -0.001621 0.010931 0.000000 -0.003149 0.000000
# 4 0.000000 0.000000 0.000000 0.046144 0.000000 0.006912
# 5 0.003993 0.000163 -0.003149 0.000000 0.032183 0.000000
# 6 0.000000 0.000000 0.000000 0.006912 0.000000 0.039336
#
#
# Mechanical properties :
#
#
# Convention : Reuss Voigt Hill
#
# Bulk Modulus (GPa) = 60.40342 62.24932 61.32637
# Shear Modulus (GPa) = 27.52827 29.58193 28.55510
#
# Velocity S-wave (km/s) = 3.55503 3.68525 3.62072
# Velocity P-wave (km/s) = 6.67699 6.83277 6.75533
#
# Compressibility (1/GPa) = 0.01655535
#
# Stress axis : x y z
#
# Youngs Moduli (GPa) = 70.16342 81.17775 91.47964
#
# Poissons Ratio (x) = 0.27194 0.50334
# Poissons Ratio (y) = 0.23505 0.14832
# Poissons Ratio (z) = 0.38606 0.13162
#
# Static dielectric constant tensor:
#      x y z
#    x 4.093920 0.000000 0.103830 
#    y 0.000000 3.944690 0.000000 
#    z 0.103830 0.000000 4.030620 
# 
# 
# High freq. dielectric constant tensor:
#      x y z
#    x 1.865810 0.000000 0.000920 
#    y 0.000000 1.852490 0.000000 
#    z 0.000920 0.000000 1.869400 
# 
# From -- ./inp_files/53318.got.cif
#   From: 2010.06.25/outbox.cif.g09.slc.cpg/sg13_27_cif.got.tgz:53318.got - 2010.06.28 04:50:58.
