data_PCOD8122883
_publ_section_title
;
Structure prediction by ZEFSAII (Michael W. Deem and Ramdas Pophale) SiO2 
 PCOD8122883
Probable space group: P 2/C
;
_chemical_formula_sum "Si O2"
_cell_formula_units_Z 32
_cell_length_a 8.869691
_cell_length_b 13.481321
_cell_length_c 25.009199
_cell_angle_alpha 90.000000
_cell_angle_beta 151.505418
_cell_angle_gamma 90.000000
_cell_volume 1426.684615
_symmetry_space_group_name_H-M "P 2/C"
_symmetry_group_IT_number 13
_symmetry_cell_setting 'monoclinic'
loop_
_space_group_symop_operation_xyz
x,y,z
-x,y,1/2-z
-x,-y,-z
x,-y,1/2+z
loop_
_atom_site_type_symbol
_atom_site_label
_atom_site_fract_x
_atom_site_fract_y
_atom_site_fract_z
Si Si1 0.268757 0.971577 0.042389
Si Si2 0.261180 0.170540 0.981601
Si Si3 0.476768 0.642566 0.181677
Si Si4 0.197119 0.324073 0.053480
Si Si5 0.113043 0.730136 0.845392
Si Si6 0.206906 0.831627 0.261413
Si Si7 0.166650 0.183016 0.142709
Si Si8 0.812399 0.540477 0.742196
O O1 0.575145 0.929358 0.167748
O O2 0.373558 0.063536 0.038173
O O3 0.130502 0.884432 0.962915
O O4 0.000000 0.000000 0.000000
O O5 0.145536 0.233519 0.996142
O O6 0.536420 0.229457 0.036590
O O7 0.989461 0.154880 0.853793
O O8 0.500000 0.676848 0.250000
O O9 0.585218 0.732079 0.177404
O O10 0.709622 0.548170 0.248506
O O11 0.123220 0.610818 0.053423
O O12 0.207784 0.278404 0.116394
O O13 0.503983 0.389584 0.133434
O O14 0.000000 0.749550 0.750000
O O15 0.871274 0.784688 0.808223
O O16 0.080295 0.613214 0.850759
O O17 0.000000 0.823995 0.250000
O O18 0.500000 0.123731 0.250000
O O19 0.000000 0.494410 0.750000
#
# Coordination Sequence:
#
# PCOD8122883 Si02
#       8
#     4   4   4   4   4   4   4   4
#     4  12  28  46  74 111 147 200 253 304 375 447
#     4  12  25  47  77 106 150 196 247 309 374 439
#     4  12  26  46  75 107 149 198 246 313 379 447
#     4  12  23  47  70 109 146 189 249 312 365 439
#     4  11  24  45  73 103 150 187 242 308 369 440
#     4  12  28  51  72 108 158 199 250 308 378 450
#     4  12  24  42  74 104 142 192 247 307 362 437
#     4  11  24  47  72 107 145 192 251 302 380 448
#
# _framework density 22.429624
#
# number of rings (size 3 to 8) (size 9 to 14) (size 15 to 20)
#    0.000    0.250    7.500    1.500    3.500    2.500 
#    0.000    1.250    0.000    0.000    0.000    0.000 
#    0.000    0.000    0.000    0.000    0.000    0.000 
#
# Total GULP energy -396703.197764 kJ/mol
# GULP energy per Si atom -12396.974930 kJ/mol
# Density = 2.237857 g / cm^3
# Si number density = 22.429624 Si / 1000 Ang^3
#
#
#
# Elastic Constant Matrix: (Units=GPa)
#
#
# Indices 1 2 3 4 5 6 
#
# 1 139.1363 50.4041 38.8867 0.0000 4.5641 0.0000
# 2 50.4041 105.6481 35.7420 0.0000 8.2200 0.0000
# 3 38.8867 35.7420 111.1036 0.0000 10.3895 0.0000
# 4 0.0000 0.0000 0.0000 30.3965 0.0000 12.5357
# 5 4.5641 8.2200 10.3895 0.0000 40.1669 0.0000
# 6 0.0000 0.0000 0.0000 12.5357 0.0000 33.9363
#
#
#
# Elastic Compliance Matrix: (Units=1/GPa)
#
#
# Indices 1 2 3 4 5 6 
#
# 1 0.009071 -0.003663 -0.002019 0.000000 0.000241 0.000000
# 2 -0.003663 0.012170 -0.002499 0.000000 -0.001428 0.000000
# 3 -0.002019 -0.002499 0.010701 0.000000 -0.002027 0.000000
# 4 0.000000 0.000000 0.000000 0.038811 0.000000 -0.014336
# 5 0.000241 -0.001428 -0.002027 0.000000 0.025685 0.000000
# 6 0.000000 0.000000 0.000000 -0.014336 0.000000 0.034763
#
#
# Mechanical properties :
#
#
# Convention : Reuss Voigt Hill
#
# Bulk Modulus (GPa) = 64.19205 67.32817 65.76011
# Shear Modulus (GPa) = 32.73203 36.29028 34.51115
#
# Velocity S-wave (km/s) = 3.82425 4.02675 3.92681
# Velocity P-wave (km/s) = 6.94128 7.19043 7.06695
#
# Compressibility (1/GPa) = 0.01557825
#
# Stress axis : x y z
#
# Youngs Moduli (GPa) = 110.24620 82.17078 93.45112
#
# Poissons Ratio (x) = 0.30102 0.18866
# Poissons Ratio (y) = 0.40387 0.23356
# Poissons Ratio (z) = 0.22257 0.20537
#
# Static dielectric constant tensor:
#      x y z
#    x 4.226580 0.000000 0.197750 
#    y 0.000000 4.140770 0.000000 
#    z 0.197750 0.000000 4.189730 
# 
# 
# High freq. dielectric constant tensor:
#      x y z
#    x 1.901620 0.000000 0.012480 
#    y 0.000000 1.876320 0.000000 
#    z 0.012480 0.000000 1.883660 
# 
# From -- ./inp_files/85349.got.cif
#   From: 2010.06.25/outbox.cif.g09.slc.cpg/sg13_43_cif.got.tgz:85349.got - 2010.06.28 04:50:58.
