data_PCOD8122407
_publ_section_title
;
Structure prediction by ZEFSAII (Michael W. Deem and Ramdas Pophale) SiO2 
 PCOD8122407
Probable space group: P 2/C
;
_chemical_formula_sum "Si O2"
_cell_formula_units_Z 26
_cell_length_a 21.271666
_cell_length_b 6.529878
_cell_length_c 13.970420
_cell_angle_alpha 90.000000
_cell_angle_beta 130.743762
_cell_angle_gamma 90.000000
_cell_volume 1470.200836
_symmetry_space_group_name_H-M "P 2/C"
_symmetry_group_IT_number 13
_symmetry_cell_setting 'monoclinic'
loop_
_space_group_symop_operation_xyz
x,y,z
-x,y,1/2-z
-x,-y,-z
x,-y,1/2+z
loop_
_atom_site_type_symbol
_atom_site_label
_atom_site_fract_x
_atom_site_fract_y
_atom_site_fract_z
Si Si1 0.000000 0.877312 0.750000
Si Si2 0.887579 0.740335 0.138297
Si Si3 0.593532 0.027805 0.480344
Si Si4 0.590833 0.671179 0.328016
Si Si5 0.405665 0.976927 0.804885
Si Si6 0.000187 0.500984 0.885283
Si Si7 0.307775 0.717538 0.559328
O O1 0.999880 0.734231 0.654844
O O2 0.080840 0.024350 0.830355
O O3 0.919990 0.620453 0.264953
O O4 0.919407 0.620371 0.075170
O O5 0.789677 0.741888 0.042063
O O6 0.498995 0.111101 0.385648
O O7 0.652313 0.206292 0.499910
O O8 0.604546 0.829565 0.426776
O O9 0.623797 0.969667 0.615644
O O10 0.500000 0.564934 0.250000
O O11 0.667020 0.517060 0.403747
O O12 0.594500 0.788855 0.230637
O O13 0.341585 0.840658 0.683337
O O14 0.000000 0.500000 0.000000
#
# Coordination Sequence:
#
# PCOD8122407 Si02
#       7
#     2   4   4   4   4   4   4
#     4   8  18  40  62  74 114 144 170 218 268 336
#     4   9  21  36  54  87 109 140 184 218 279 329
#     4   9  19  35  52  75 108 150 192 221 264 330
#     4   9  18  33  55  74 105 152 182 218 275 314
#     4   9  19  35  52  75 108 150 192 221 264 330
#     4   9  19  39  60  82 106 145 181 217 264 344
#     4  11  20  35  51  82 113 138 178 240 275 312
#
# _framework density 17.684657000000001
#
# number of rings (size 3 to 8) (size 9 to 14) (size 15 to 20)
#    0.000    3.077    0.000    2.308    0.000    8.615 
#   11.077    4.615    0.000    0.000    0.000    0.000 
#    0.000    0.000    0.000    0.000    0.000    0.000 
#
# Total GULP energy -322309.210223 kJ/mol
# GULP energy per Si atom -12396.508085 kJ/mol
# Density = 1.764441 g / cm^3
# Si number density = 17.684657 Si / 1000 Ang^3
#
#
#
# Elastic Constant Matrix: (Units=GPa)
#
#
# Indices 1 2 3 4 5 6 
#
# 1 98.7038 36.0538 70.7788 0.0000 3.6539 0.0000
# 2 36.0538 95.4135 36.7931 0.0000 8.5350 0.0000
# 3 70.7788 36.7931 111.1538 0.0000 -1.4056 0.0000
# 4 0.0000 0.0000 0.0000 1.0408 0.0000 -21.9874
# 5 3.6539 8.5350 -1.4056 0.0000 44.8170 0.0000
# 6 0.0000 0.0000 0.0000 -21.9874 0.0000 -25.5477
#
#
#
# Elastic Compliance Matrix: (Units=1/GPa)
#
#
# Indices 1 2 3 4 5 6 
#
# 1 0.019422 -0.002793 -0.011460 0.000000 -0.001411 0.000000
# 2 -0.002793 0.012683 -0.002448 0.000000 -0.002264 0.000000
# 3 -0.011460 -0.002448 0.017129 0.000000 0.001938 0.000000
# 4 0.000000 0.000000 0.000000 0.050090 0.000000 -0.043109
# 5 -0.001411 -0.002264 0.001938 0.000000 0.022920 0.000000
# 6 0.000000 0.000000 0.000000 -0.043109 0.000000 -0.002041
#
#
# Mechanical properties :
#
#
# Convention : Reuss Voigt Hill
#
# Bulk Modulus (GPa) = 63.17115 65.83584 64.50350
# Shear Modulus (GPa) = 31.46964 14.83839 23.15402
#
# Velocity S-wave (km/s) = 4.22297 2.89979 3.62231
# Velocity P-wave (km/s) = 7.71858 6.96564 7.35176
#
# Compressibility (1/GPa) = 0.01583001
#
# Stress axis : x y z
#
# Youngs Moduli (GPa) = 51.48809 78.84695 58.38069
#
# Poissons Ratio (x) = 0.22025 0.66907
# Poissons Ratio (y) = 0.14383 0.14292
# Poissons Ratio (z) = 0.59007 0.19302
#
# Static dielectric constant tensor:
#      x y z
#    x 3.204090 0.000000 -0.102650 
#    y 0.000000 3.287080 0.000000 
#    z -0.102650 0.000000 3.209740 
# 
# 
# High freq. dielectric constant tensor:
#      x y z
#    x 1.674690 0.000000 -0.006520 
#    y 0.000000 1.686720 0.000000 
#    z -0.006520 0.000000 1.677350 
# 
# From -- ./inp_files/56271.got.cif
#   From: 2010.06.25/outbox.cif.g09.slc.cpg/sg13_29_cif.got.tgz:56271.got - 2010.06.28 04:50:58.
