data_PCOD8122956
_publ_section_title
;
Structure prediction by ZEFSAII (Michael W. Deem and Ramdas Pophale) SiO2 
 PCOD8122956
Probable space group: P 2/C
;
_chemical_formula_sum "Si O2"
_cell_formula_units_Z 16
_cell_length_a 7.738768
_cell_length_b 16.110069
_cell_length_c 5.364266
_cell_angle_alpha 90.000000
_cell_angle_beta 97.168948
_cell_angle_gamma 90.000000
_cell_volume 663.546079
_symmetry_space_group_name_H-M "P 2/C"
_symmetry_group_IT_number 13
_symmetry_cell_setting 'monoclinic'
loop_
_space_group_symop_operation_xyz
x,y,z
-x,y,1/2-z
-x,-y,-z
x,-y,1/2+z
loop_
_atom_site_type_symbol
_atom_site_label
_atom_site_fract_x
_atom_site_fract_y
_atom_site_fract_z
Si Si1 0.187575 0.228676 0.905314
Si Si2 0.749733 0.447653 0.026745
Si Si3 0.500000 0.664888 0.250000
Si Si4 0.796838 0.961169 0.173289
Si Si5 0.000000 0.323501 0.250000
O O1 0.341534 0.279343 0.809903
O O2 0.242152 0.133036 0.909775
O O3 0.000000 0.242139 0.750000
O O4 0.156203 0.264361 0.176642
O O5 0.763496 0.490193 0.297678
O O6 0.910183 0.382871 0.027510
O O7 0.568109 0.396512 0.980690
O O8 0.000000 0.980428 0.250000
O O9 0.714549 0.984444 0.429715
#
# Coordination Sequence:
#
# PCOD8122956 Si02
#       5
#     4   4   2   4   2
#     4  11  25  46  72 105 147 188 239 297 357 429
#     4  12  27  48  73 104 145 190 244 304 365 434
#     4  12  26  50  74 108 142 194 242 300 366 430
#     4   9  20  38  67 102 140 187 234 284 351 425
#     4  12  26  46  74 108 144 192 244 300 366 430
#
# _framework density 24.112869
#
# number of rings (size 3 to 8) (size 9 to 14) (size 15 to 20)
#    0.000    1.000    2.500    3.000    8.750    3.000 
#    0.000    1.250    0.000    0.000    0.000    0.000 
#    0.000    0.000    0.000    0.000    0.000    0.000 
#
# Total GULP energy -198268.358525 kJ/mol
# GULP energy per Si atom -12391.772408 kJ/mol
# Density = 2.405799 g / cm^3
# Si number density = 24.112869 Si / 1000 Ang^3
#
#
#
# Elastic Constant Matrix: (Units=GPa)
#
#
# Indices 1 2 3 4 5 6 
#
# 1 87.4189 54.8553 33.0379 0.0000 -9.9765 0.0000
# 2 54.8553 180.5807 80.4058 0.0000 -0.0266 0.0000
# 3 33.0379 80.4058 141.9187 0.0000 -12.1366 0.0000
# 4 0.0000 0.0000 0.0000 26.3830 0.0000 3.7487
# 5 -9.9765 -0.0266 -12.1366 0.0000 32.1028 0.0000
# 6 0.0000 0.0000 0.0000 3.7487 0.0000 28.3677
#
#
#
# Elastic Compliance Matrix: (Units=1/GPa)
#
#
# Indices 1 2 3 4 5 6 
#
# 1 0.014831 -0.004189 -0.000708 0.000000 0.004338 0.000000
# 2 -0.004189 0.008673 -0.004185 0.000000 -0.002877 0.000000
# 3 -0.000708 -0.004185 0.009882 0.000000 0.003513 0.000000
# 4 0.000000 0.000000 0.000000 0.038629 0.000000 -0.005105
# 5 0.004338 -0.002877 0.003513 0.000000 0.033823 0.000000
# 6 0.000000 0.000000 0.000000 -0.005105 0.000000 0.035926
#
#
# Mechanical properties :
#
#
# Convention : Reuss Voigt Hill
#
# Bulk Modulus (GPa) = 65.69362 82.94626 74.31994
# Shear Modulus (GPa) = 30.30271 33.47864 31.89068
#
# Velocity S-wave (km/s) = 3.54885 3.73019 3.64065
# Velocity P-wave (km/s) = 6.64047 7.28191 6.96857
#
# Compressibility (1/GPa) = 0.01522218
#
# Stress axis : x y z
#
# Youngs Moduli (GPa) = 67.42857 115.29936 101.19036
#
# Poissons Ratio (x) = 0.48301 0.07165
# Poissons Ratio (y) = 0.28247 0.42344
# Poissons Ratio (z) = 0.04775 0.48249
#
# Static dielectric constant tensor:
#      x y z
#    x 4.331760 0.000000 0.158890 
#    y 0.000000 4.514470 0.000000 
#    z 0.158890 0.000000 4.565010 
# 
# 
# High freq. dielectric constant tensor:
#      x y z
#    x 1.938150 0.000000 0.006170 
#    y 0.000000 1.972490 0.000000 
#    z 0.006170 0.000000 1.960480 
# 
# From -- ./inp_files/1157.got.cif
#   From: 2010.06.25/outbox.cif.g09.slc.cpg/sg13_1_cif.got.tgz:1157.got - 2010.06.28 04:50:58.
