data_PCOD8122630
_publ_section_title
;
Structure prediction by ZEFSAII (Michael W. Deem and Ramdas Pophale) SiO2 
 PCOD8122630
Probable space group: P 2/C
;
_chemical_formula_sum "Si O2"
_cell_formula_units_Z 20
_cell_length_a 15.160106
_cell_length_b 7.273128
_cell_length_c 9.126814
_cell_angle_alpha 90.000000
_cell_angle_beta 54.588301
_cell_angle_gamma 90.000000
_cell_volume 820.172755
_symmetry_space_group_name_H-M "P 2/C"
_symmetry_group_IT_number 13
_symmetry_cell_setting 'monoclinic'
loop_
_space_group_symop_operation_xyz
x,y,z
-x,y,1/2-z
-x,-y,-z
x,-y,1/2+z
loop_
_atom_site_type_symbol
_atom_site_label
_atom_site_fract_x
_atom_site_fract_y
_atom_site_fract_z
Si Si1 0.316873 0.692222 0.755212
Si Si2 0.285168 0.965523 0.079215
Si Si3 0.192655 0.212525 0.941063
Si Si4 0.500000 0.811379 0.750000
Si Si5 0.217740 0.533465 0.113218
Si Si6 0.000000 0.606102 0.750000
O O1 0.444624 0.687918 0.673932
O O2 0.260967 0.710340 0.975620
O O3 0.275732 0.507286 0.713594
O O4 0.282699 0.869993 0.698691
O O5 0.227021 0.797975 0.233411
O O6 0.410191 0.937514 0.914640
O O7 0.215058 0.021993 0.004411
O O8 0.259534 0.369847 0.963925
O O9 0.064542 0.263951 0.072228
O O10 0.086734 0.521497 0.254276
#
# Coordination Sequence:
#
# PCOD8122630 Si02
#       6
#     4   4   4   2   4   2
#     4  11  24  43  67  95 132 180 223 276 324 399
#     4  11  22  43  67  99 132 175 226 275 326 401
#     4   9  21  41  67  96 136 168 223 272 328 404
#     4  12  26  42  70  98 136 182 220 278 344 368
#     4   9  23  44  63  98 134 170 224 270 331 397
#     4   8  20  44  66  94 140 174 204 290 338 382
#
# _framework density 24.385107000000001
#
# number of rings (size 3 to 8) (size 9 to 14) (size 15 to 20)
#    1.200    0.800    2.000    0.600    2.800    2.400 
#    0.000    1.000    0.000    0.000    0.000    0.000 
#    0.000    0.000    0.000    0.000    0.000    0.000 
#
# Total GULP energy -247772.174810 kJ/mol
# GULP energy per Si atom -12388.608740 kJ/mol
# Density = 2.432961 g / cm^3
# Si number density = 24.385107 Si / 1000 Ang^3
#
#
#
# Elastic Constant Matrix: (Units=GPa)
#
#
# Indices 1 2 3 4 5 6 
#
# 1 127.8399 44.5678 63.4525 0.0000 -7.4781 0.0000
# 2 44.5678 74.9694 48.8902 0.0000 -2.4144 0.0000
# 3 63.4525 48.8902 196.0178 0.0000 6.4193 0.0000
# 4 0.0000 0.0000 0.0000 27.3363 0.0000 10.4519
# 5 -7.4781 -2.4144 6.4193 0.0000 49.7405 0.0000
# 6 0.0000 0.0000 0.0000 10.4519 0.0000 27.3129
#
#
#
# Elastic Compliance Matrix: (Units=1/GPa)
#
#
# Indices 1 2 3 4 5 6 
#
# 1 0.010761 -0.004819 -0.002337 0.000000 0.001685 0.000000
# 2 -0.004819 0.018171 -0.002990 0.000000 0.000543 0.000000
# 3 -0.002337 -0.002990 0.006648 0.000000 -0.001354 0.000000
# 4 0.000000 0.000000 0.000000 0.042851 0.000000 -0.016398
# 5 0.001685 0.000543 -0.001354 0.000000 0.020559 0.000000
# 6 0.000000 0.000000 0.000000 -0.016398 0.000000 0.042888
#
#
# Mechanical properties :
#
#
# Convention : Reuss Voigt Hill
#
# Bulk Modulus (GPa) = 65.40832 79.18312 72.29572
# Shear Modulus (GPa) = 29.89277 37.00571 33.44924
#
# Velocity S-wave (km/s) = 3.50503 3.89981 3.70768
# Velocity P-wave (km/s) = 6.57735 7.26776 6.93116
#
# Compressibility (1/GPa) = 0.01528858
#
# Stress axis : x y z
#
# Youngs Moduli (GPa) = 92.93168 55.03301 150.42001
#
# Poissons Ratio (x) = 0.26520 0.35147
# Poissons Ratio (y) = 0.44783 0.44976
# Poissons Ratio (z) = 0.21714 0.16455
#
# Static dielectric constant tensor:
#      x y z
#    x 4.230300 0.000000 0.469740 
#    y 0.000000 4.859940 0.000000 
#    z 0.469740 0.000000 4.701140 
# 
# 
# High freq. dielectric constant tensor:
#      x y z
#    x 1.950740 0.000000 0.037560 
#    y 0.000000 1.999960 0.000000 
#    z 0.037560 0.000000 1.997390 
# 
# From -- ./inp_files/20837.got.cif
#   From: 2010.06.25/outbox.cif.g09.slc.cpg/sg13_11_cif.got.tgz:20837.got - 2010.06.28 04:50:58.
