data_PCOD8122941
_publ_section_title
;
Structure prediction by ZEFSAII (Michael W. Deem and Ramdas Pophale) SiO2 
 PCOD8122941
Probable space group: P 2/C
;
_chemical_formula_sum "Si O2"
_cell_formula_units_Z 20
_cell_length_a 6.630806
_cell_length_b 6.817016
_cell_length_c 21.668677
_cell_angle_alpha 90.000000
_cell_angle_beta 80.501470
_cell_angle_gamma 90.000000
_cell_volume 966.045515
_symmetry_space_group_name_H-M "P 2/C"
_symmetry_group_IT_number 13
_symmetry_cell_setting 'monoclinic'
loop_
_space_group_symop_operation_xyz
x,y,z
-x,y,1/2-z
-x,-y,-z
x,-y,1/2+z
loop_
_atom_site_type_symbol
_atom_site_label
_atom_site_fract_x
_atom_site_fract_y
_atom_site_fract_z
Si Si1 0.956244 0.795173 0.033342
Si Si2 0.718033 0.489367 0.457895
Si Si3 0.258963 0.755404 0.330761
Si Si4 0.606128 0.420635 0.326035
Si Si5 0.000000 0.428372 0.750000
Si Si6 0.500000 0.926600 0.750000
O O1 0.794137 0.821675 0.097159
O O2 0.168924 0.700295 0.046656
O O3 0.861675 0.663442 0.984770
O O4 0.000000 0.000000 0.000000
O O5 0.500000 0.500000 0.500000
O O6 0.685204 0.410864 0.391106
O O7 0.433886 0.587277 0.325023
O O8 0.045267 0.688360 0.310904
O O9 0.319640 0.932994 0.282617
O O10 0.535546 0.205039 0.309062
O O11 0.794936 0.450788 0.270634
#
# Coordination Sequence:
#
# PCOD8122941 Si02
#       6
#     4   4   4   4   2   2
#     4  11  27  44  70 106 136 177 232 279 337 407
#     4  11  25  45  72  98 138 186 221 280 342 395
#     4  12  25  46  66 103 145 169 226 293 333 396
#     4  12  25  46  69 102 140 178 227 284 334 413
#     4  12  22  46  70  92 140 180 212 282 350 378
#     4  12  26  42  72 104 132 182 230 272 346 410
#
# _framework density 20.702960000000001
#
# number of rings (size 3 to 8) (size 9 to 14) (size 15 to 20)
#    0.000    0.400    8.000    0.000    2.800    6.400 
#    0.000    0.000    0.000    0.000    0.000    0.000 
#    0.000    0.000    0.000    0.000    0.000    0.000 
#
# Total GULP energy -247894.690728 kJ/mol
# GULP energy per Si atom -12394.734536 kJ/mol
# Density = 2.065584 g / cm^3
# Si number density = 20.702960 Si / 1000 Ang^3
#
#
#
# Elastic Constant Matrix: (Units=GPa)
#
#
# Indices 1 2 3 4 5 6 
#
# 1 93.9513 25.7042 30.2168 0.0000 -3.6539 0.0000
# 2 25.7042 98.2881 29.6858 0.0000 -5.9813 0.0000
# 3 30.2168 29.6858 127.6038 0.0000 7.5348 0.0000
# 4 0.0000 0.0000 0.0000 35.4266 0.0000 1.2228
# 5 -3.6539 -5.9813 7.5348 0.0000 51.2187 0.0000
# 6 0.0000 0.0000 0.0000 1.2228 0.0000 13.4762
#
#
#
# Elastic Compliance Matrix: (Units=1/GPa)
#
#
# Indices 1 2 3 4 5 6 
#
# 1 0.012094 -0.002393 -0.002362 0.000000 0.000931 0.000000
# 2 -0.002393 0.011559 -0.002211 0.000000 0.001505 0.000000
# 3 -0.002362 -0.002211 0.009014 0.000000 -0.001753 0.000000
# 4 0.000000 0.000000 0.000000 0.028316 0.000000 -0.002569
# 5 0.000931 0.001505 -0.001753 0.000000 0.020024 0.000000
# 6 0.000000 0.000000 0.000000 -0.002569 0.000000 0.074438
#
#
# Mechanical properties :
#
#
# Convention : Reuss Voigt Hill
#
# Bulk Modulus (GPa) = 53.37612 54.56185 53.96899
# Shear Modulus (GPa) = 28.46988 35.64006 32.05497
#
# Velocity S-wave (km/s) = 3.71234 4.15359 3.93915
# Velocity P-wave (km/s) = 6.64929 7.02958 6.84208
#
# Compressibility (1/GPa) = 0.01873497
#
# Stress axis : x y z
#
# Youngs Moduli (GPa) = 82.68272 86.50968 110.93709
#
# Poissons Ratio (x) = 0.20700 0.26207
# Poissons Ratio (y) = 0.19784 0.24533
# Poissons Ratio (z) = 0.19532 0.19131
#
# Static dielectric constant tensor:
#      x y z
#    x 3.978690 0.000000 0.091460 
#    y 0.000000 3.580790 0.000000 
#    z 0.091460 0.000000 3.897970 
# 
# 
# High freq. dielectric constant tensor:
#      x y z
#    x 1.821360 0.000000 0.004240 
#    y 0.000000 1.800470 0.000000 
#    z 0.004240 0.000000 1.834590 
# 
# From -- ./inp_files/82991.got.cif
#   From: 2010.06.25/outbox.cif.g09.slc.cpg/sg13_42_cif.got.tgz:82991.got - 2010.06.28 04:50:58.
