data_PCOD8122847
_publ_section_title
;
Structure prediction by ZEFSAII (Michael W. Deem and Ramdas Pophale) SiO2 
 PCOD8122847
Probable space group: P 2/C
;
_chemical_formula_sum "Si O2"
_cell_formula_units_Z 28
_cell_length_a 14.142119
_cell_length_b 11.123547
_cell_length_c 8.825922
_cell_angle_alpha 90.000000
_cell_angle_beta 119.963669
_cell_angle_gamma 90.000000
_cell_volume 1202.838651
_symmetry_space_group_name_H-M "P 2/C"
_symmetry_group_IT_number 13
_symmetry_cell_setting 'monoclinic'
loop_
_space_group_symop_operation_xyz
x,y,z
-x,y,1/2-z
-x,-y,-z
x,-y,1/2+z
loop_
_atom_site_type_symbol
_atom_site_label
_atom_site_fract_x
_atom_site_fract_y
_atom_site_fract_z
Si Si1 0.081958 0.026076 0.936211
Si Si2 0.694939 0.865003 0.818420
Si Si3 0.619396 0.392302 0.277532
Si Si4 0.110074 0.243655 0.423923
Si Si5 0.576455 0.058135 0.936701
Si Si6 0.068507 0.409530 0.656214
Si Si7 0.733541 0.434182 0.077477
O O1 0.135613 0.898322 0.930792
O O2 0.000000 0.086051 0.750000
O O3 0.175011 0.117174 0.065409
O O4 0.000000 0.000000 0.000000
O O5 0.670643 0.734809 0.868236
O O6 0.659991 0.867884 0.611123
O O7 0.637109 0.959029 0.883730
O O8 0.500000 0.397810 0.250000
O O9 0.630516 0.405817 0.105098
O O10 0.687950 0.503624 0.392549
O O11 0.096354 0.287321 0.586789
O O12 0.210915 0.308979 0.423722
O O13 0.000000 0.279791 0.250000
O O14 0.500000 0.130713 0.750000
O O15 0.500000 0.000000 0.000000
O O16 0.181203 0.474787 0.781143
O O17 0.000000 0.374493 0.750000
O O18 0.000000 0.500000 0.500000
#
# Coordination Sequence:
#
# PCOD8122847 Si02
#       7
#     4   4   4   4   4   4   4
#     4  11  27  45  67 105 153 193 238 289 359 443
#     4  11  24  45  72 102 146 188 237 298 366 430
#     4  12  28  49  73 101 141 189 246 314 364 428
#     4  11  24  43  69 104 148 191 233 290 356 433
#     4   9  19  40  69 103 134 174 242 298 350 423
#     4  12  20  38  67 107 141 183 240 285 346 437
#     4  12  24  44  72 101 143 190 237 301 369 425
#
# _framework density 23.278268000000001
#
# number of rings (size 3 to 8) (size 9 to 14) (size 15 to 20)
#    0.000    0.857    4.286    2.571    6.000    2.857 
#    0.000    2.857    0.000    0.000    0.000    0.000 
#    0.000    0.000    0.000    0.000    0.000    0.000 
#
# Total GULP energy -346972.982265 kJ/mol
# GULP energy per Si atom -12391.892224 kJ/mol
# Density = 2.322529 g / cm^3
# Si number density = 23.278268 Si / 1000 Ang^3
#
#
#
# Elastic Constant Matrix: (Units=GPa)
#
#
# Indices 1 2 3 4 5 6 
#
# 1 124.0777 6.6372 48.4789 0.0000 -5.8382 0.0000
# 2 6.6372 67.5829 20.9046 0.0000 16.4792 0.0000
# 3 48.4789 20.9046 139.5407 0.0000 6.5411 0.0000
# 4 0.0000 0.0000 0.0000 8.4698 0.0000 -12.6165
# 5 -5.8382 16.4792 6.5411 0.0000 44.4800 0.0000
# 6 0.0000 0.0000 0.0000 -12.6165 0.0000 24.8887
#
#
#
# Elastic Compliance Matrix: (Units=1/GPa)
#
#
# Indices 1 2 3 4 5 6 
#
# 1 0.009464 -0.000356 -0.003322 0.000000 0.001863 0.000000
# 2 -0.000356 0.016959 -0.002135 0.000000 -0.006016 0.000000
# 3 -0.003322 -0.002135 0.008684 0.000000 -0.000922 0.000000
# 4 0.000000 0.000000 0.000000 0.482105 0.000000 0.244388
# 5 0.001863 -0.006016 -0.000922 0.000000 0.025091 0.000000
# 6 0.000000 0.000000 0.000000 0.244388 0.000000 0.164063
#
#
# Mechanical properties :
#
#
# Convention : Reuss Voigt Hill
#
# Bulk Modulus (GPa) = 42.58843 53.69366 48.14105
# Shear Modulus (GPa) = 6.88877 32.57974 19.73426
#
# Velocity S-wave (km/s) = 1.72213 3.74515 2.91478
# Velocity P-wave (km/s) = 4.72116 6.46665 5.66158
#
# Compressibility (1/GPa) = 0.02348056
#
# Stress axis : x y z
#
# Youngs Moduli (GPa) = 105.66253 58.96625 115.16057
#
# Poissons Ratio (x) = 0.02100 0.38256
# Poissons Ratio (y) = 0.03763 0.24586
# Poissons Ratio (z) = 0.35101 0.12589
#
# Static dielectric constant tensor:
#      x y z
#    x 4.308640 0.000000 -0.150220 
#    y 0.000000 5.358400 0.000000 
#    z -0.150220 0.000000 4.542290 
# 
# 
# High freq. dielectric constant tensor:
#      x y z
#    x 1.941370 0.000000 -0.011200 
#    y 0.000000 1.907140 0.000000 
#    z -0.011200 0.000000 1.924380 
# 
# From -- ./inp_files/19097.got.cif
#   From: 2010.06.25/outbox.cif.g09.slc.cpg/sg13_10_cif.got.tgz:19097.got - 2010.06.28 04:50:58.
