data_PCOD8122177
_publ_section_title
;
Structure prediction by ZEFSAII (Michael W. Deem and Ramdas Pophale) SiO2 
 PCOD8122177
Probable space group: P 2/C
;
_chemical_formula_sum "Si O2"
_cell_formula_units_Z 20
_cell_length_a 7.226285
_cell_length_b 5.259796
_cell_length_c 23.654955
_cell_angle_alpha 90.000000
_cell_angle_beta 123.225866
_cell_angle_gamma 90.000000
_cell_volume 752.109199
_symmetry_space_group_name_H-M "P 2/C"
_symmetry_group_IT_number 13
_symmetry_cell_setting 'monoclinic'
loop_
_space_group_symop_operation_xyz
x,y,z
-x,y,1/2-z
-x,-y,-z
x,-y,1/2+z
loop_
_atom_site_type_symbol
_atom_site_label
_atom_site_fract_x
_atom_site_fract_y
_atom_site_fract_z
Si Si1 0.535846 0.519382 0.440247
Si Si2 0.906503 0.752009 0.137597
Si Si3 0.465395 0.149252 0.155138
Si Si4 0.890521 0.791019 0.442515
Si Si5 0.844115 0.738299 0.801081
O O1 0.500000 0.500000 0.500000
O O2 0.352389 0.727649 0.388865
O O3 0.491497 0.257597 0.400222
O O4 0.793083 0.579277 0.468834
O O5 0.041836 0.532449 0.194687
O O6 0.935776 0.693358 0.075103
O O7 0.973313 0.041885 0.159968
O O8 0.333881 0.883771 0.127808
O O9 0.300908 0.319409 0.167017
O O10 0.699859 0.141602 0.226106
O O11 0.000000 0.000000 0.500000
#
# Coordination Sequence:
#
# PCOD8122177 Si02
#       5
#     4   4   4   4   4
#     4  12  28  45  75 110 150 193 254 304 369 448
#     4  11  26  47  77 111 149 194 251 305 382 431
#     4  10  24  45  76 107 145 198 251 301 375 442
#     4  11  26  48  76 103 152 201 246 307 368 441
#     4  10  24  48  78 107 149 197 245 313 371 446
#
# _framework density 26.591881000000001
#
# number of rings (size 3 to 8) (size 9 to 14) (size 15 to 20)
#    0.000    1.200    2.000    1.200   11.200    5.600 
#    0.000    0.000    0.000    0.000    0.000    0.000 
#    0.000    0.000    0.000    0.000    0.000    0.000 
#
# Total GULP energy -247873.779443 kJ/mol
# GULP energy per Si atom -12393.688972 kJ/mol
# Density = 2.653136 g / cm^3
# Si number density = 26.591881 Si / 1000 Ang^3
#
#
#
# Elastic Constant Matrix: (Units=GPa)
#
#
# Indices 1 2 3 4 5 6 
#
# 1 115.5344 -6.8751 -3.8634 0.0000 2.5064 0.0000
# 2 -6.8751 69.1288 -18.3628 0.0000 0.5667 0.0000
# 3 -3.8634 -18.3628 58.6492 0.0000 -12.2054 0.0000
# 4 0.0000 0.0000 0.0000 33.0116 0.0000 7.7551
# 5 2.5064 0.5667 -12.2054 0.0000 43.8137 0.0000
# 6 0.0000 0.0000 0.0000 7.7551 0.0000 42.4977
#
#
#
# Elastic Compliance Matrix: (Units=1/GPa)
#
#
# Indices 1 2 3 4 5 6 
#
# 1 0.008756 0.001103 0.000865 0.000000 -0.000274 0.000000
# 2 0.001103 0.015981 0.005329 0.000000 0.001215 0.000000
# 3 0.000865 0.005329 0.019905 0.000000 0.005427 0.000000
# 4 0.000000 0.000000 0.000000 0.031649 0.000000 -0.005775
# 5 -0.000274 0.001215 0.005427 0.000000 0.024336 0.000000
# 6 0.000000 0.000000 0.000000 -0.005775 0.000000 0.024585
#
#
# Mechanical properties :
#
#
# Convention : Reuss Voigt Hill
#
# Bulk Modulus (GPa) = 16.88161 20.56776 18.72468
# Shear Modulus (GPa) = 38.35434 42.02550 40.18992
#
# Velocity S-wave (km/s) = 3.80193 3.97972 3.89184
# Velocity P-wave (km/s) = 5.06311 5.37299 5.22035
#
# Compressibility (1/GPa) = 0.05923607
#
# Stress axis : x y z
#
# Youngs Moduli (GPa) = 114.20832 62.57418 50.23771
#
# Poissons Ratio (x) = -0.06901 -0.04346
# Poissons Ratio (y) = -0.12595 -0.26772
# Poissons Ratio (z) = -0.09879 -0.33346
#
# Static dielectric constant tensor:
#      x y z
#    x 5.500790 0.000000 0.153910 
#    y 0.000000 4.396030 0.000000 
#    z 0.153910 0.000000 4.846000 
# 
# 
# High freq. dielectric constant tensor:
#      x y z
#    x 2.094610 0.000000 0.005380 
#    y 0.000000 2.048460 0.000000 
#    z 0.005380 0.000000 2.069790 
# 
# From -- ./inp_files/90901.got.cif
#   From: 2010.06.25/outbox.cif.g09.slc.cpg/sg13_46_cif.got.tgz:90901.got - 2010.06.28 04:50:58.
