data_PCOD8122646
_publ_section_title
;
Structure prediction by ZEFSAII (Michael W. Deem and Ramdas Pophale) SiO2 
 PCOD8122646
Probable space group: P 2/C
;
_chemical_formula_sum "Si O2"
_cell_formula_units_Z 28
_cell_length_a 22.497209
_cell_length_b 10.963648
_cell_length_c 28.014777
_cell_angle_alpha 90.000000
_cell_angle_beta 10.576120
_cell_angle_gamma 90.000000
_cell_volume 1268.252003
_symmetry_space_group_name_H-M "P 2/C"
_symmetry_group_IT_number 13
_symmetry_cell_setting 'monoclinic'
loop_
_space_group_symop_operation_xyz
x,y,z
-x,y,1/2-z
-x,-y,-z
x,-y,1/2+z
loop_
_atom_site_type_symbol
_atom_site_label
_atom_site_fract_x
_atom_site_fract_y
_atom_site_fract_z
Si Si1 0.574646 0.722434 0.297372
Si Si2 0.215588 0.516142 0.438183
Si Si3 0.868075 0.866728 0.595524
Si Si4 0.942266 0.741419 0.146077
Si Si5 0.877256 0.854469 0.297325
Si Si6 0.776435 0.899254 0.997551
Si Si7 0.254966 0.702614 0.648375
O O1 0.636032 0.600069 0.219885
O O2 0.382186 0.825617 0.420691
O O3 0.352079 0.683783 0.517048
O O4 0.920399 0.770531 0.042022
O O5 0.500000 0.488185 0.250000
O O6 0.094037 0.388812 0.512780
O O7 0.905449 0.577737 0.707664
O O8 0.889168 0.839303 0.522159
O O9 0.507930 0.857743 0.899489
O O10 0.000000 0.000000 0.500000
O O11 0.010161 0.777762 0.147405
O O12 0.557150 0.739724 0.442389
O O13 0.000000 0.793142 0.250000
O O14 0.008761 0.992068 0.192285
O O15 0.992065 0.810408 0.860334
O O16 0.500000 0.953451 0.250000
#
# Coordination Sequence:
#
# PCOD8122646 Si02
#       7
#     4   4   4   4   4   4   4
#     4  11  23  45  75 103 141 183 241 294 347 423
#     4  12  25  44  70 104 142 191 239 293 348 416
#     4  11  26  47  73 109 144 185 235 297 361 427
#     4  11  29  46  71 103 150 186 239 293 358 423
#     4  12  28  45  70 101 143 193 234 290 364 429
#     4  12  24  43  74 102 139 183 238 296 348 418
#     4  11  22  45  73 106 134 185 237 294 351 413
#
# _framework density 22.077631
#
# number of rings (size 3 to 8) (size 9 to 14) (size 15 to 20)
#    0.000    0.571    2.857    5.143    6.000    4.571 
#    0.000    0.000    0.000    0.000    0.000    0.000 
#    0.000    0.000    0.000    0.000    0.000    0.000 
#
# Total GULP energy -347398.420511 kJ/mol
# GULP energy per Si atom -12407.086447 kJ/mol
# Density = 2.202738 g / cm^3
# Si number density = 22.077631 Si / 1000 Ang^3
#
#
#
# Elastic Constant Matrix: (Units=GPa)
#
#
# Indices 1 2 3 4 5 6 
#
# 1 115.3569 40.0506 24.5267 0.0000 0.7787 0.0000
# 2 40.0506 88.9322 39.6365 0.0000 12.3894 0.0000
# 3 24.5267 39.6365 105.6494 0.0000 13.0542 0.0000
# 4 0.0000 0.0000 0.0000 31.7580 0.0000 -2.4851
# 5 0.7787 12.3894 13.0542 0.0000 31.1422 0.0000
# 6 0.0000 0.0000 0.0000 -2.4851 0.0000 25.1822
#
#
#
# Elastic Compliance Matrix: (Units=1/GPa)
#
#
# Indices 1 2 3 4 5 6 
#
# 1 0.010437 -0.004545 -0.000959 0.000000 0.001949 0.000000
# 2 -0.004545 0.015837 -0.004347 0.000000 -0.004364 0.000000
# 3 -0.000959 -0.004347 0.011709 0.000000 -0.003155 0.000000
# 4 0.000000 0.000000 0.000000 0.031733 0.000000 0.003132
# 5 0.001949 -0.004364 -0.003155 0.000000 0.035121 0.000000
# 6 0.000000 0.000000 0.000000 0.003132 0.000000 0.040020
#
#
# Mechanical properties :
#
#
# Convention : Reuss Voigt Hill
#
# Bulk Modulus (GPa) = 54.70044 57.59624 56.14834
# Shear Modulus (GPa) = 29.29956 31.33147 30.31552
#
# Velocity S-wave (km/s) = 3.64691 3.77125 3.70960
# Velocity P-wave (km/s) = 6.52407 6.71623 6.62085
#
# Compressibility (1/GPa) = 0.01828139
#
# Stress axis : x y z
#
# Youngs Moduli (GPa) = 95.81026 63.14450 85.40751
#
# Poissons Ratio (x) = 0.28697 0.08189
# Poissons Ratio (y) = 0.43542 0.37128
# Poissons Ratio (z) = 0.09187 0.27450
#
# Static dielectric constant tensor:
#      x y z
#    x 4.465680 0.000000 -0.093900 
#    y 0.000000 3.803850 0.000000 
#    z -0.093900 0.000000 3.718550 
# 
# 
# High freq. dielectric constant tensor:
#      x y z
#    x 1.881990 0.000000 -0.000110 
#    y 0.000000 1.858700 0.000000 
#    z -0.000110 0.000000 1.890260 
# 
# From -- ./inp_files/97699.got.cif
#   From: 2010.06.25/outbox.cif.g09.slc.cpg/sg13_49_cif.got.tgz:97699.got - 2010.06.28 04:50:58.
