data_PCOD8122516
_publ_section_title
;
Structure prediction by ZEFSAII (Michael W. Deem and Ramdas Pophale) SiO2 
 PCOD8122516
Probable space group: P 2/C
;
_chemical_formula_sum "Si O2"
_cell_formula_units_Z 22
_cell_length_a 5.227360
_cell_length_b 12.195610
_cell_length_c 16.386940
_cell_angle_alpha 90.000000
_cell_angle_beta 83.119915
_cell_angle_gamma 90.000000
_cell_volume 1037.158545
_symmetry_space_group_name_H-M "P 2/C"
_symmetry_group_IT_number 13
_symmetry_cell_setting 'monoclinic'
loop_
_space_group_symop_operation_xyz
x,y,z
-x,y,1/2-z
-x,-y,-z
x,-y,1/2+z
loop_
_atom_site_type_symbol
_atom_site_label
_atom_site_fract_x
_atom_site_fract_y
_atom_site_fract_z
Si Si1 0.162049 0.649521 0.052663
Si Si2 0.500000 0.637624 0.250000
Si Si3 0.809673 0.469976 0.331484
Si Si4 0.258404 0.069207 0.980290
Si Si5 0.104923 0.812845 0.329368
Si Si6 0.705640 0.302514 0.457521
O O1 0.066901 0.535632 0.097390
O O2 0.130453 0.757324 0.112190
O O3 0.460187 0.650712 0.015086
O O4 0.975741 0.658078 0.983292
O O5 0.587259 0.556336 0.317856
O O6 0.276659 0.711168 0.295242
O O7 0.698154 0.352407 0.365793
O O8 0.000000 0.447306 0.250000
O O9 0.264241 0.106510 0.884000
O O10 0.277198 0.171153 0.041826
O O11 0.500000 0.000000 0.000000
O O12 0.000000 0.000000 0.000000
O O13 0.000000 0.872468 0.250000
#
# Coordination Sequence:
#
# PCOD8122516 Si02
#       6
#     4   2   4   4   4   4
#     4  11  21  42  64 102 133 176 219 271 340 422
#     4  12  22  40  68 102 146 170 224 274 350 412
#     4  12  24  38  62 100 142 180 214 267 342 424
#     4  11  25  47  71  97 132 181 240 294 343 396
#     4  11  23  40  73 103 136 176 235 296 343 406
#     4  11  26  41  69  93 137 178 226 277 343 407
#
# _framework density 21.2118
#
# number of rings (size 3 to 8) (size 9 to 14) (size 15 to 20)
#    0.000    0.727    3.636    5.455    5.091    0.000 
#    0.000    0.909    0.000    0.000    0.000    0.000 
#    0.000    0.000    0.000    0.000    0.000    0.000 
#
# Total GULP energy -272585.128987 kJ/mol
# GULP energy per Si atom -12390.233136 kJ/mol
# Density = 2.116352 g / cm^3
# Si number density = 21.211800 Si / 1000 Ang^3
#
#
#
# Elastic Constant Matrix: (Units=GPa)
#
#
# Indices 1 2 3 4 5 6 
#
# 1 104.1707 55.0367 44.4394 0.0000 4.2050 0.0000
# 2 55.0367 142.8424 73.6279 0.0000 10.9001 0.0000
# 3 44.4394 73.6279 117.2002 0.0000 1.7851 0.0000
# 4 0.0000 0.0000 0.0000 11.5579 0.0000 39.8696
# 5 4.2050 10.9001 1.7851 0.0000 32.6478 0.0000
# 6 0.0000 0.0000 0.0000 39.8696 0.0000 -9.7682
#
#
#
# Elastic Compliance Matrix: (Units=1/GPa)
#
#
# Indices 1 2 3 4 5 6 
#
# 1 0.012549 -0.003492 -0.002560 0.000000 -0.000310 0.000000
# 2 -0.003492 0.011649 -0.005947 0.000000 -0.003114 0.000000
# 3 -0.002560 -0.005947 0.013215 0.000000 0.001593 0.000000
# 4 0.000000 0.000000 0.000000 0.005738 0.000000 0.023419
# 5 -0.000310 -0.003114 0.001593 0.000000 0.031623 0.000000
# 6 0.000000 0.000000 0.000000 0.023419 0.000000 -0.006789
#
#
# Mechanical properties :
#
#
# Convention : Reuss Voigt Hill
#
# Bulk Modulus (GPa) = 74.53918 78.93571 76.73744
# Shear Modulus (GPa) = 51.83865 19.62811 35.73338
#
# Velocity S-wave (km/s) = 4.94890 3.04524 4.10884
# Velocity P-wave (km/s) = 8.23846 7.04688 7.66586
#
# Compressibility (1/GPa) = 0.01341576
#
# Stress axis : x y z
#
# Youngs Moduli (GPa) = 79.68687 85.84398 75.67370
#
# Poissons Ratio (x) = 0.29977 0.19371
# Poissons Ratio (y) = 0.27826 0.45001
# Poissons Ratio (z) = 0.20399 0.51049
#
# Static dielectric constant tensor:
#      x y z
#    x 3.886110 0.000000 -0.134240 
#    y 0.000000 4.013250 0.000000 
#    z -0.134240 0.000000 0.263140 
# 
# 
# High freq. dielectric constant tensor:
#      x y z
#    x 1.842920 0.000000 0.007600 
#    y 0.000000 1.815350 0.000000 
#    z 0.007600 0.000000 1.828580 
# 
# From -- ./inp_files/43624.got.cif
#   From: 2010.06.25/outbox.cif.g09.slc.cpg/sg13_22_cif.got.tgz:43624.got - 2010.06.28 04:50:58.
