data_PCOD8122036
_publ_section_title
;
Structure prediction by ZEFSAII (Michael W. Deem and Ramdas Pophale) SiO2 
 PCOD8122036
Probable space group: P 2/C
;
_chemical_formula_sum "Si O2"
_cell_formula_units_Z 26
_cell_length_a 6.977885
_cell_length_b 14.570472
_cell_length_c 12.598640
_cell_angle_alpha 90.000000
_cell_angle_beta 88.973120
_cell_angle_gamma 90.000000
_cell_volume 1280.711592
_symmetry_space_group_name_H-M "P 2/C"
_symmetry_group_IT_number 13
_symmetry_cell_setting 'monoclinic'
loop_
_space_group_symop_operation_xyz
x,y,z
-x,y,1/2-z
-x,-y,-z
x,-y,1/2+z
loop_
_atom_site_type_symbol
_atom_site_label
_atom_site_fract_x
_atom_site_fract_y
_atom_site_fract_z
Si Si1 0.840759 0.734156 0.339500
Si Si2 0.236060 0.092013 0.524897
Si Si3 0.418228 0.079378 0.133739
Si Si4 0.307530 0.478456 0.941445
Si Si5 0.016374 0.364191 0.462503
Si Si6 0.049527 0.829866 0.631570
Si Si7 0.500000 0.376109 0.750000
O O1 0.776010 0.829626 0.388566
O O2 0.643391 0.690144 0.307696
O O3 0.000000 0.754532 0.250000
O O4 0.935175 0.663969 0.419154
O O5 0.409817 0.106639 0.443135
O O6 0.044385 0.098731 0.453342
O O7 0.278094 0.000665 0.591377
O O8 0.500000 0.056644 0.250000
O O9 0.280480 0.167613 0.127515
O O10 0.367149 0.435907 0.828734
O O11 0.178688 0.567676 0.915475
O O12 0.500000 0.500000 0.000000
O O13 0.189640 0.412901 0.023450
O O14 0.013162 0.275071 0.387369
O O15 0.000000 0.862861 0.750000
#
# Coordination Sequence:
#
# PCOD8122036 Si02
#       7
#     4   4   4   4   4   4   2
#     4  11  23  42  65  98 128 169 219 273 327 392
#     4  10  25  43  67  97 133 174 222 272 332 387
#     4  11  23  44  68  98 136 174 222 274 324 401
#     4  11  23  42  64  91 127 167 218 268 333 387
#     4  10  24  42  63  92 130 168 214 273 321 398
#     4  11  23  43  67  95 132 176 216 269 333 391
#     4  12  24  38  68  94 126 172 218 274 330 398
#
# _framework density 20.301214999999999
#
# number of rings (size 3 to 8) (size 9 to 14) (size 15 to 20)
#    0.000    1.231    4.615    0.462    3.231    1.846 
#    5.538    0.000    0.000    0.000    0.000    0.000 
#    0.000    0.000    0.000    0.000    0.000    0.000 
#
# Total GULP energy -322254.349254 kJ/mol
# GULP energy per Si atom -12394.398048 kJ/mol
# Density = 2.025501 g / cm^3
# Si number density = 20.301215 Si / 1000 Ang^3
#
#
#
# Elastic Constant Matrix: (Units=GPa)
#
#
# Indices 1 2 3 4 5 6 
#
# 1 138.0949 48.6339 49.0181 0.0000 2.7050 0.0000
# 2 48.6339 57.7605 39.9833 0.0000 -1.9166 0.0000
# 3 49.0181 39.9833 115.8724 0.0000 -1.2375 0.0000
# 4 0.0000 0.0000 0.0000 29.8461 0.0000 -8.1823
# 5 2.7050 -1.9166 -1.2375 0.0000 38.5916 0.0000
# 6 0.0000 0.0000 0.0000 -8.1823 0.0000 35.0691
#
#
#
# Elastic Compliance Matrix: (Units=1/GPa)
#
#
# Indices 1 2 3 4 5 6 
#
# 1 0.010639 -0.007716 -0.001851 0.000000 -0.001188 0.000000
# 2 -0.007716 0.028372 -0.006507 0.000000 0.001741 0.000000
# 3 -0.001851 -0.006507 0.011661 0.000000 0.000180 0.000000
# 4 0.000000 0.000000 0.000000 0.035795 0.000000 0.008352
# 5 -0.001188 0.001741 0.000180 0.000000 0.026088 0.000000
# 6 0.000000 0.000000 0.000000 0.008352 0.000000 0.030464
#
#
# Mechanical properties :
#
#
# Convention : Reuss Voigt Hill
#
# Bulk Modulus (GPa) = 53.98701 65.22202 59.60452
# Shear Modulus (GPa) = 27.57225 32.30752 29.93988
#
# Velocity S-wave (km/s) = 3.68932 3.99357 3.84446
# Velocity P-wave (km/s) = 6.69319 7.31175 7.00930
#
# Compressibility (1/GPa) = 0.01852297
#
# Stress axis : x y z
#
# Youngs Moduli (GPa) = 93.99245 35.24565 85.75951
#
# Poissons Ratio (x) = 0.27197 0.15872
# Poissons Ratio (y) = 0.72528 0.55807
# Poissons Ratio (z) = 0.17396 0.22936
#
# Static dielectric constant tensor:
#      x y z
#    x 3.873960 0.000000 0.107810 
#    y 0.000000 3.669080 0.000000 
#    z 0.107810 0.000000 3.824840 
# 
# 
# High freq. dielectric constant tensor:
#      x y z
#    x 1.815960 0.000000 0.001280 
#    y 0.000000 1.791720 0.000000 
#    z 0.001280 0.000000 1.797940 
# 
# From -- ./inp_files/44041.got.cif
#   From: 2010.06.25/outbox.cif.g09.slc.cpg/sg13_23_cif.got.tgz:44041.got - 2010.06.28 04:50:58.
