data_PCOD8122908
_publ_section_title
;
Structure prediction by ZEFSAII (Michael W. Deem and Ramdas Pophale) SiO2 
 PCOD8122908
Probable space group: P 2/C
;
_chemical_formula_sum "Si O2"
_cell_formula_units_Z 20
_cell_length_a 8.278034
_cell_length_b 11.734957
_cell_length_c 9.331289
_cell_angle_alpha 90.000000
_cell_angle_beta 85.128070
_cell_angle_gamma 90.000000
_cell_volume 903.188525
_symmetry_space_group_name_H-M "P 2/C"
_symmetry_group_IT_number 13
_symmetry_cell_setting 'monoclinic'
loop_
_space_group_symop_operation_xyz
x,y,z
-x,y,1/2-z
-x,-y,-z
x,-y,1/2+z
loop_
_atom_site_type_symbol
_atom_site_label
_atom_site_fract_x
_atom_site_fract_y
_atom_site_fract_z
Si Si1 0.603473 0.929105 0.380760
Si Si2 0.640349 0.293170 0.039433
Si Si3 0.278479 0.704375 0.643783
Si Si4 0.885558 0.531000 0.382397
Si Si5 0.101839 0.924433 0.608651
O O1 0.500000 0.900725 0.250000
O O2 0.673271 0.815277 0.441034
O O3 0.500000 0.000000 0.500000
O O4 0.760202 0.000491 0.328067
O O5 0.697363 0.257020 0.193747
O O6 0.449343 0.322651 0.053804
O O7 0.740217 0.391449 0.951972
O O8 0.184828 0.587031 0.669145
O O9 0.184214 0.802286 0.555063
O O10 0.000000 0.587904 0.250000
O O11 0.000000 0.500000 0.500000
O O12 0.000000 0.883785 0.750000
O O13 0.000000 0.000000 0.500000
#
# Coordination Sequence:
#
# PCOD8122908 Si02
#       5
#     4   4   4   4   4
#     4  12  25  47  72 107 148 192 245 304 362 449
#     4  11  25  46  77 104 145 198 246 298 370 443
#     4  11  24  48  73 103 146 196 245 298 370 449
#     4  12  26  47  74 107 149 187 244 309 374 433
#     4  12  26  43  73 106 146 192 243 301 376 432
#
# _framework density 22.143774000000001
#
# number of rings (size 3 to 8) (size 9 to 14) (size 15 to 20)
#    0.000    0.400    4.000    4.800    2.800    2.400 
#    3.600    0.000    0.000    0.000    0.000    0.000 
#    0.000    0.000    0.000    0.000    0.000    0.000 
#
# Total GULP energy -247837.451975 kJ/mol
# GULP energy per Si atom -12391.872599 kJ/mol
# Density = 2.209337 g / cm^3
# Si number density = 22.143774 Si / 1000 Ang^3
#
#
#
# Elastic Constant Matrix: (Units=GPa)
#
#
# Indices 1 2 3 4 5 6 
#
# 1 135.6923 61.8435 49.7516 0.0000 -16.7013 0.0000
# 2 61.8435 139.1489 40.5201 0.0000 -3.5677 0.0000
# 3 49.7516 40.5201 106.7963 0.0000 -11.0912 0.0000
# 4 0.0000 0.0000 0.0000 32.4008 0.0000 1.2889
# 5 -16.7013 -3.5677 -11.0912 0.0000 37.2913 0.0000
# 6 0.0000 0.0000 0.0000 1.2889 0.0000 51.0766
#
#
#
# Elastic Compliance Matrix: (Units=1/GPa)
#
#
# Indices 1 2 3 4 5 6 
#
# 1 0.010664 -0.003720 -0.003196 0.000000 0.003469 0.000000
# 2 -0.003720 0.009377 -0.001966 0.000000 -0.001353 0.000000
# 3 -0.003196 -0.001966 0.011794 0.000000 0.001888 0.000000
# 4 0.000000 0.000000 0.000000 0.030894 0.000000 -0.000780
# 5 0.003469 -0.001353 0.001888 0.000000 0.028802 0.000000
# 6 0.000000 0.000000 0.000000 -0.000780 0.000000 0.019598
#
#
# Mechanical properties :
#
#
# Convention : Reuss Voigt Hill
#
# Bulk Modulus (GPa) = 71.05977 76.20754 73.63366
# Shear Modulus (GPa) = 37.42956 39.45522 38.44239
#
# Velocity S-wave (km/s) = 4.11578 4.22569 4.17110
# Velocity P-wave (km/s) = 7.39906 7.63532 7.51812
#
# Compressibility (1/GPa) = 0.01407266
#
# Stress axis : x y z
#
# Youngs Moduli (GPa) = 93.77474 106.63873 84.78541
#
# Poissons Ratio (x) = 0.39667 0.27099
# Poissons Ratio (y) = 0.34882 0.16666
# Poissons Ratio (z) = 0.29972 0.20961
#
# Static dielectric constant tensor:
#      x y z
#    x 3.857310 0.000000 -0.443100 
#    y 0.000000 4.494100 0.000000 
#    z -0.443100 0.000000 3.502870 
# 
# 
# High freq. dielectric constant tensor:
#      x y z
#    x 1.897660 0.000000 -0.009210 
#    y 0.000000 1.878030 0.000000 
#    z -0.009210 0.000000 1.866440 
# 
# From -- ./inp_files/11685.got.cif
#   From: 2010.06.25/outbox.cif.g09.slc.cpg/sg13_6_cif.got.tgz:11685.got - 2010.06.28 04:50:58.
