data_PCOD8122415
_publ_section_title
;
Structure prediction by ZEFSAII (Michael W. Deem and Ramdas Pophale) SiO2 
 PCOD8122415
Probable space group: P 2/C
;
_chemical_formula_sum "Si O2"
_cell_formula_units_Z 28
_cell_length_a 8.806118
_cell_length_b 10.798824
_cell_length_c 16.050111
_cell_angle_alpha 90.000000
_cell_angle_beta 120.313651
_cell_angle_gamma 90.000000
_cell_volume 1317.614389
_symmetry_space_group_name_H-M "P 2/C"
_symmetry_group_IT_number 13
_symmetry_cell_setting 'monoclinic'
loop_
_space_group_symop_operation_xyz
x,y,z
-x,y,1/2-z
-x,-y,-z
x,-y,1/2+z
loop_
_atom_site_type_symbol
_atom_site_label
_atom_site_fract_x
_atom_site_fract_y
_atom_site_fract_z
Si Si1 0.196655 0.914062 0.138062
Si Si2 0.824727 0.117374 0.241536
Si Si3 0.605317 0.571979 0.860475
Si Si4 0.680230 0.302082 0.924107
Si Si5 0.928553 0.705048 0.906409
Si Si6 0.179611 0.904331 0.494578
Si Si7 0.482498 0.221935 0.454208
O O1 0.304404 0.785341 0.155406
O O2 0.993799 0.893058 0.111212
O O3 0.271915 0.014324 0.224822
O O4 0.193712 0.960107 0.040381
O O5 0.897145 0.243765 0.304546
O O6 0.681272 0.153094 0.133530
O O7 0.000000 0.056459 0.250000
O O8 0.500000 0.615975 0.750000
O O9 0.581084 0.427449 0.871489
O O10 0.812098 0.584994 0.895324
O O11 0.537663 0.653310 0.919998
O O12 0.557546 0.246533 0.961164
O O13 0.871161 0.327168 0.017651
O O14 0.840303 0.812396 0.934756
O O15 0.354907 0.873127 0.492826
#
# Coordination Sequence:
#
# PCOD8122415 Si02
#       7
#     4   4   4   4   4   4   4
#     4   9  20  39  58  83 124 159 193 242 313 373
#     4  11  20  37  64  93 119 155 208 263 293 352
#     4  11  22  39  59  87 124 160 203 261 303 354
#     4  11  22  39  60  90 125 161 199 248 315 371
#     4   9  18  36  62  84 112 159 205 244 299 362
#     4   8  18  35  59  83 115 153 195 247 296 359
#     4  11  22  37  65  92 117 156 213 257 294 354
#
# _framework density 21.250527999999999
#
# number of rings (size 3 to 8) (size 9 to 14) (size 15 to 20)
#    0.000    2.000    2.857    1.714    0.000    0.571 
#    2.571    0.000    0.000    0.857    0.000    0.000 
#    0.000    0.000    0.000    0.000    0.000    0.000 
#
# Total GULP energy -346961.770318 kJ/mol
# GULP energy per Si atom -12391.491797 kJ/mol
# Density = 2.120216 g / cm^3
# Si number density = 21.250528 Si / 1000 Ang^3
#
#
#
# Elastic Constant Matrix: (Units=GPa)
#
#
# Indices 1 2 3 4 5 6 
#
# 1 115.7496 27.3295 10.6904 0.0000 0.7368 0.0000
# 2 27.3295 83.5496 11.7139 0.0000 -3.7747 0.0000
# 3 10.6904 11.7139 31.3903 0.0000 -8.8895 0.0000
# 4 0.0000 0.0000 0.0000 28.8024 0.0000 -2.6613
# 5 0.7368 -3.7747 -8.8895 0.0000 25.4116 0.0000
# 6 0.0000 0.0000 0.0000 -2.6613 0.0000 33.1817
#
#
#
# Elastic Compliance Matrix: (Units=1/GPa)
#
#
# Indices 1 2 3 4 5 6 
#
# 1 0.009563 -0.002829 -0.002663 0.000000 -0.001629 0.000000
# 2 -0.002829 0.013468 -0.003855 0.000000 0.000734 0.000000
# 3 -0.002663 -0.003855 0.037807 0.000000 0.012730 0.000000
# 4 0.000000 0.000000 0.000000 0.034979 0.000000 0.002805
# 5 -0.001629 0.000734 0.012730 0.000000 0.043962 0.000000
# 6 0.000000 0.000000 0.000000 0.002805 0.000000 0.030362
#
#
# Mechanical properties :
#
#
# Convention : Reuss Voigt Hill
#
# Bulk Modulus (GPa) = 23.72652 36.68414 30.20533
# Shear Modulus (GPa) = 24.64491 29.54287 27.09389
#
# Velocity S-wave (km/s) = 3.40918 3.73261 3.57455
# Velocity P-wave (km/s) = 5.16585 5.98971 5.59297
#
# Compressibility (1/GPa) = 0.04214693
#
# Stress axis : x y z
#
# Youngs Moduli (GPa) = 104.56456 74.25146 26.44985
#
# Poissons Ratio (x) = 0.21002 0.07043
# Poissons Ratio (y) = 0.29576 0.10195
# Poissons Ratio (z) = 0.27843 0.28621
#
# Static dielectric constant tensor:
#      x y z
#    x 3.983090 0.000000 0.023730 
#    y 0.000000 3.899790 0.000000 
#    z 0.023730 0.000000 3.529560 
# 
# 
# High freq. dielectric constant tensor:
#      x y z
#    x 1.840010 0.000000 0.003880 
#    y 0.000000 1.823920 0.000000 
#    z 0.003880 0.000000 1.809800 
# 
# From -- ./inp_files/47311.got.cif
#   From: 2010.06.25/outbox.cif.g09.slc.cpg/sg13_24_cif.got.tgz:47311.got - 2010.06.28 04:50:58.
