data_PCOD8122304
_publ_section_title
;
Structure prediction by ZEFSAII (Michael W. Deem and Ramdas Pophale) SiO2 
 PCOD8122304
Probable space group: P 2/C
;
_chemical_formula_sum "Si O2"
_cell_formula_units_Z 28
_cell_length_a 23.552160
_cell_length_b 5.490560
_cell_length_c 22.585859
_cell_angle_alpha 90.000000
_cell_angle_beta 23.691820
_cell_angle_gamma 90.000000
_cell_volume 1173.579064
_symmetry_space_group_name_H-M "P 2/C"
_symmetry_group_IT_number 13
_symmetry_cell_setting 'monoclinic'
loop_
_space_group_symop_operation_xyz
x,y,z
-x,y,1/2-z
-x,-y,-z
x,-y,1/2+z
loop_
_atom_site_type_symbol
_atom_site_label
_atom_site_fract_x
_atom_site_fract_y
_atom_site_fract_z
Si Si1 0.333594 0.445862 0.098680
Si Si2 0.500000 0.940361 0.750000
Si Si3 0.261628 0.057492 0.708039
Si Si4 0.755414 0.247225 0.547348
Si Si5 0.809612 0.096436 0.100859
Si Si6 0.000000 0.480811 0.750000
Si Si7 0.074922 0.310236 0.802645
Si Si8 0.561331 0.377689 0.296289
O O1 0.353827 0.189458 0.113098
O O2 0.172721 0.455919 0.226102
O O3 0.354382 0.688853 0.120813
O O4 0.452074 0.450890 0.934751
O O5 0.527573 0.781095 0.665242
O O6 0.642366 0.095334 0.617978
O O7 0.170956 0.041225 0.855100
O O8 0.158983 0.073655 0.748097
O O9 0.676648 0.472611 0.650977
O O10 0.873491 0.344626 0.390442
O O11 0.830420 0.089573 0.526707
O O12 0.650130 0.202209 0.254910
O O13 0.924699 0.312196 0.981025
O O14 0.950170 0.304983 0.743996
#
# Coordination Sequence:
#
# PCOD8122304 Si02
#       8
#     4   2   4   4   4   2   4   4
#     4  10  27  45  73 107 145 194 247 299 370 435
#     4  10  26  44  68 100 142 196 238 302 370 444
#     4  10  26  47  77 109 146 200 245 307 367 440
#     4  11  27  45  75 103 145 196 241 313 365 444
#     4  11  25  47  72 107 146 191 252 304 377 431
#     4  12  26  48  70 110 146 188 254 298 374 440
#     4  10  26  45  70 107 147 193 243 309 365 434
#     4  11  25  45  67 106 144 190 250 300 378 433
#
# _framework density 23.858637999999999
#
# number of rings (size 3 to 8) (size 9 to 14) (size 15 to 20)
#    0.857    0.571    1.429    0.857   12.000    3.429 
#    0.000    0.000    0.000    0.000    0.000    0.000 
#    0.000    0.000    0.000    0.000    0.000    0.000 
#
# Total GULP energy -347004.767819 kJ/mol
# GULP energy per Si atom -12393.027422 kJ/mol
# Density = 2.380433 g / cm^3
# Si number density = 23.858638 Si / 1000 Ang^3
#
#
#
# Elastic Constant Matrix: (Units=GPa)
#
#
# Indices 1 2 3 4 5 6 
#
# 1 57.7539 24.4790 26.7620 0.0000 8.5187 0.0000
# 2 24.4790 123.9070 46.0328 0.0000 8.6109 0.0000
# 3 26.7620 46.0328 146.1364 0.0000 13.0339 0.0000
# 4 0.0000 0.0000 0.0000 23.1848 0.0000 2.1503
# 5 8.5187 8.6109 13.0339 0.0000 28.2804 0.0000
# 6 0.0000 0.0000 0.0000 2.1503 0.0000 -11.2953
#
#
#
# Elastic Compliance Matrix: (Units=1/GPa)
#
#
# Indices 1 2 3 4 5 6 
#
# 1 0.020248 -0.002801 -0.002459 0.000000 -0.004113 0.000000
# 2 -0.002801 0.009591 -0.002422 0.000000 -0.000960 0.000000
# 3 -0.002459 -0.002422 0.008264 0.000000 -0.002331 0.000000
# 4 0.000000 0.000000 0.000000 0.042383 0.000000 0.008069
# 5 -0.004113 -0.000960 -0.002331 0.000000 0.037966 0.000000
# 6 0.000000 0.000000 0.000000 0.008069 0.000000 -0.086997
#
#
# Mechanical properties :
#
#
# Convention : Reuss Voigt Hill
#
# Bulk Modulus (GPa) = 43.97861 58.03833 51.00847
# Shear Modulus (GPa) = 91.91311 23.40221 57.65766
#
# Velocity S-wave (km/s) = 6.21351 3.13528 4.92126
# Velocity P-wave (km/s) = 8.36361 6.12253 7.32923
#
# Compressibility (1/GPa) = 0.02273832
#
# Stress axis : x y z
#
# Youngs Moduli (GPa) = 49.38740 104.26876 121.00446
#
# Poissons Ratio (x) = 0.29204 0.29754
# Poissons Ratio (y) = 0.13833 0.29313
# Poissons Ratio (z) = 0.12144 0.25259
#
# Static dielectric constant tensor:
#      x y z
#    x 4.415590 0.000000 -0.114950 
#    y 0.000000 4.165570 0.000000 
#    z -0.114950 0.000000 4.094170 
# 
# 
# High freq. dielectric constant tensor:
#      x y z
#    x 1.949450 0.000000 -0.003700 
#    y 0.000000 1.937230 0.000000 
#    z -0.003700 0.000000 1.944710 
# 
# From -- ./inp_files/81948.got.cif
#   From: 2010.06.25/outbox.cif.g09.slc.cpg/sg13_41_cif.got.tgz:81948.got - 2010.06.28 04:50:58.
