data_PCOD8122324
_publ_section_title
;
Structure prediction by ZEFSAII (Michael W. Deem and Ramdas Pophale) SiO2 
 PCOD8122324
Probable space group: P 2/C
;
_chemical_formula_sum "Si O2"
_cell_formula_units_Z 32
_cell_length_a 11.447655
_cell_length_b 14.458091
_cell_length_c 16.670463
_cell_angle_alpha 90.000000
_cell_angle_beta 31.775582
_cell_angle_gamma 90.000000
_cell_volume 1452.950035
_symmetry_space_group_name_H-M "P 2/C"
_symmetry_group_IT_number 13
_symmetry_cell_setting 'monoclinic'
loop_
_space_group_symop_operation_xyz
x,y,z
-x,y,1/2-z
-x,-y,-z
x,-y,1/2+z
loop_
_atom_site_type_symbol
_atom_site_label
_atom_site_fract_x
_atom_site_fract_y
_atom_site_fract_z
Si Si1 0.943284 0.939560 0.412943
Si Si2 0.779228 0.592996 0.911603
Si Si3 0.348360 0.084946 0.567109
Si Si4 0.757350 0.300428 0.584539
Si Si5 0.618954 0.743843 0.882414
Si Si6 0.876166 0.592009 0.555197
Si Si7 0.962420 0.860800 0.577657
Si Si8 0.427553 0.584897 0.914633
O O1 0.728335 0.927284 0.481247
O O2 0.900465 0.886369 0.521727
O O3 0.149149 0.898402 0.244743
O O4 0.006517 0.046818 0.389185
O O5 0.741543 0.680011 0.875369
O O6 0.000000 0.542487 0.750000
O O7 0.826213 0.636266 0.970375
O O8 0.589816 0.512626 0.026209
O O9 0.501587 0.172335 0.494623
O O10 0.500000 0.000000 0.500000
O O11 0.500000 0.321526 0.750000
O O12 0.936455 0.327951 0.549102
O O13 0.798909 0.190611 0.552189
O O14 0.780154 0.788956 0.720076
O O15 0.415042 0.679430 0.971621
O O16 0.672639 0.596779 0.735268
O O17 0.779511 0.589081 0.523034
O O18 0.000000 0.500000 0.500000
#
# Coordination Sequence:
#
# PCOD8122324 Si02
#       8
#     4   4   4   4   4   4   4   4
#     4  10  26  47  71 108 146 180 246 297 362 440
#     4  12  25  46  69 105 147 193 248 304 369 437
#     4  11  25  46  73 105 145 191 232 300 372 434
#     4  12  26  44  73 105 141 188 247 302 364 447
#     4  12  26  45  74 103 143 195 238 299 377 436
#     4  11  22  44  70 100 141 189 240 304 367 424
#     4  11  24  48  74 104 141 191 239 300 356 448
#     4  11  25  45  72 104 143 194 247 307 366 437
#
# _framework density 22.024156999999999
#
# number of rings (size 3 to 8) (size 9 to 14) (size 15 to 20)
#    0.000    0.750    5.000    1.125    5.250    0.500 
#    4.500    0.000    0.000    0.000    0.000    0.000 
#    0.000    0.000    0.000    0.000    0.000    0.000 
#
# Total GULP energy -396488.980374 kJ/mol
# GULP energy per Si atom -12390.280637 kJ/mol
# Density = 2.197403 g / cm^3
# Si number density = 22.024157 Si / 1000 Ang^3
#
#
#
# Elastic Constant Matrix: (Units=GPa)
#
#
# Indices 1 2 3 4 5 6 
#
# 1 100.9735 40.8748 47.6559 0.0000 -9.4163 0.0000
# 2 40.8748 146.2534 41.7070 0.0000 -1.6219 0.0000
# 3 47.6559 41.7070 90.6847 0.0000 -10.5910 0.0000
# 4 0.0000 0.0000 0.0000 34.7862 0.0000 -1.9659
# 5 -9.4163 -1.6219 -10.5910 0.0000 34.5611 0.0000
# 6 0.0000 0.0000 0.0000 -1.9659 0.0000 37.6716
#
#
#
# Elastic Compliance Matrix: (Units=1/GPa)
#
#
# Indices 1 2 3 4 5 6 
#
# 1 0.013786 -0.002103 -0.006068 0.000000 0.001798 0.000000
# 2 -0.002103 0.008210 -0.002793 0.000000 -0.001043 0.000000
# 3 -0.006068 -0.002793 0.015860 0.000000 0.003076 0.000000
# 4 0.000000 0.000000 0.000000 0.028832 0.000000 0.001505
# 5 0.001798 -0.001043 0.003076 0.000000 0.030318 0.000000
# 6 0.000000 0.000000 0.000000 0.001505 0.000000 0.026624
#
#
# Mechanical properties :
#
#
# Convention : Reuss Voigt Hill
#
# Bulk Modulus (GPa) = 62.77738 66.48747 64.63243
# Shear Modulus (GPa) = 33.14215 35.24872 34.19543
#
# Velocity S-wave (km/s) = 3.88339 4.00491 3.94462
# Velocity P-wave (km/s) = 6.97663 7.18608 7.08213
#
# Compressibility (1/GPa) = 0.01592930
#
# Stress axis : x y z
#
# Youngs Moduli (GPa) = 72.53619 121.80374 63.05355
#
# Poissons Ratio (x) = 0.25611 0.38260
# Poissons Ratio (y) = 0.15252 0.17609
# Poissons Ratio (z) = 0.44013 0.34016
#
# Static dielectric constant tensor:
#      x y z
#    x 3.834450 0.000000 0.103570 
#    y 0.000000 4.245750 0.000000 
#    z 0.103570 0.000000 4.050660 
# 
# 
# High freq. dielectric constant tensor:
#      x y z
#    x 1.870300 0.000000 -0.004020 
#    y 0.000000 1.884510 0.000000 
#    z -0.004020 0.000000 1.863990 
# 
# From -- ./inp_files/66904.got.cif
#   From: 2010.06.25/outbox.cif.g09.slc.cpg/sg13_34_cif.got.tgz:66904.got - 2010.06.28 04:50:58.
