data_PCOD8122031
_publ_section_title
;
Structure prediction by ZEFSAII (Michael W. Deem and Ramdas Pophale) SiO2 
 PCOD8122031
Probable space group: P 2/C
;
_chemical_formula_sum "Si O2"
_cell_formula_units_Z 20
_cell_length_a 13.165237
_cell_length_b 8.671163
_cell_length_c 21.336974
_cell_angle_alpha 90.000000
_cell_angle_beta 158.742230
_cell_angle_gamma 90.000000
_cell_volume 883.128805
_symmetry_space_group_name_H-M "P 2/C"
_symmetry_group_IT_number 13
_symmetry_cell_setting 'monoclinic'
loop_
_space_group_symop_operation_xyz
x,y,z
-x,y,1/2-z
-x,-y,-z
x,-y,1/2+z
loop_
_atom_site_type_symbol
_atom_site_label
_atom_site_fract_x
_atom_site_fract_y
_atom_site_fract_z
Si Si1 0.307358 0.292648 0.923372
Si Si2 0.557558 0.396799 0.943205
Si Si3 0.305083 0.873202 0.755148
Si Si4 0.332070 0.853930 0.090431
Si Si5 0.291784 0.434252 0.184249
O O1 0.410647 0.291403 0.911076
O O2 0.000000 0.212374 0.750000
O O3 0.255338 0.468953 0.917572
O O4 0.538426 0.195974 0.094213
O O5 0.720685 0.289544 0.987237
O O6 0.328965 0.490584 0.773282
O O7 0.304775 0.750320 0.698208
O O8 0.980013 0.920910 0.578618
O O9 0.472974 0.022048 0.830727
O O10 0.500000 0.802039 0.250000
O O11 0.500000 0.488959 0.250000
O O12 0.000000 0.500000 0.000000
#
# Coordination Sequence:
#
# PCOD8122031 Si02
#       5
#     4   4   4   4   4
#     4  10  25  45  70 101 140 183 242 293 343 415
#     4  10  24  41  71  98 139 180 233 290 351 406
#     4  11  27  45  71 100 143 189 233 285 356 415
#     4  12  26  47  70 104 142 182 230 290 356 429
#     4  11  23  41  70 104 136 179 232 287 349 414
#
# _framework density 22.646753
#
# number of rings (size 3 to 8) (size 9 to 14) (size 15 to 20)
#    0.000    1.200    0.000    4.200   16.800    0.800 
#    0.000    0.000    0.000    0.000    0.000    0.000 
#    0.000    0.000    0.000    0.000    0.000    0.000 
#
# Total GULP energy -247876.544302 kJ/mol
# GULP energy per Si atom -12393.827215 kJ/mol
# Density = 2.259521 g / cm^3
# Si number density = 22.646753 Si / 1000 Ang^3
#
#
#
# Elastic Constant Matrix: (Units=GPa)
#
#
# Indices 1 2 3 4 5 6 
#
# 1 134.2294 34.2348 55.8691 0.0000 -2.9606 0.0000
# 2 34.2348 79.1967 20.9136 0.0000 2.0959 0.0000
# 3 55.8691 20.9136 154.8495 0.0000 22.8416 0.0000
# 4 0.0000 0.0000 0.0000 27.3096 0.0000 6.1758
# 5 -2.9606 2.0959 22.8416 0.0000 37.6425 0.0000
# 6 0.0000 0.0000 0.0000 6.1758 0.0000 33.7281
#
#
#
# Elastic Compliance Matrix: (Units=1/GPa)
#
#
# Indices 1 2 3 4 5 6 
#
# 1 0.009871 -0.003409 -0.003562 0.000000 0.003128 0.000000
# 2 -0.003409 0.014276 -0.000595 0.000000 -0.000702 0.000000
# 3 -0.003562 -0.000595 0.008633 0.000000 -0.005485 0.000000
# 4 0.000000 0.000000 0.000000 0.038199 0.000000 -0.006994
# 5 0.003128 -0.000702 -0.005485 0.000000 0.030179 0.000000
# 6 0.000000 0.000000 0.000000 -0.006994 0.000000 0.030930
#
#
# Mechanical properties :
#
#
# Convention : Reuss Voigt Hill
#
# Bulk Modulus (GPa) = 56.66452 65.59008 61.12730
# Shear Modulus (GPa) = 32.65790 36.88658 34.77224
#
# Velocity S-wave (km/s) = 3.80156 4.04019 3.92269
# Velocity P-wave (km/s) = 6.65917 7.12666 6.89688
#
# Compressibility (1/GPa) = 0.01764773
#
# Stress axis : x y z
#
# Youngs Moduli (GPa) = 101.30522 70.04747 115.83953
#
# Poissons Ratio (x) = 0.23880 0.41267
# Poissons Ratio (y) = 0.34536 0.06887
# Poissons Ratio (z) = 0.36089 0.04164
#
# Static dielectric constant tensor:
#      x y z
#    x 4.082560 0.000000 -0.158400 
#    y 0.000000 4.154800 0.000000 
#    z -0.158400 0.000000 4.040820 
# 
# 
# High freq. dielectric constant tensor:
#      x y z
#    x 1.901210 0.000000 -0.009720 
#    y 0.000000 1.889790 0.000000 
#    z -0.009720 0.000000 1.901200 
# 
# From -- ./inp_files/87345.got.cif
#   From: 2010.06.25/outbox.cif.g09.slc.cpg/sg13_44_cif.got.tgz:87345.got - 2010.06.28 04:50:58.
