data_PCOD8122438
_publ_section_title
;
Structure prediction by ZEFSAII (Michael W. Deem and Ramdas Pophale) SiO2 
 PCOD8122438
Probable space group: P 2/C
;
_chemical_formula_sum "Si O2"
_cell_formula_units_Z 28
_cell_length_a 15.803644
_cell_length_b 9.290461
_cell_length_c 20.438165
_cell_angle_alpha 90.000000
_cell_angle_beta 153.807145
_cell_angle_gamma 90.000000
_cell_volume 1324.533014
_symmetry_space_group_name_H-M "P 2/C"
_symmetry_group_IT_number 13
_symmetry_cell_setting 'monoclinic'
loop_
_space_group_symop_operation_xyz
x,y,z
-x,y,1/2-z
-x,-y,-z
x,-y,1/2+z
loop_
_atom_site_type_symbol
_atom_site_label
_atom_site_fract_x
_atom_site_fract_y
_atom_site_fract_z
Si Si1 0.718940 0.151847 0.391609
Si Si2 0.715492 0.970500 0.636713
Si Si3 0.275560 0.475612 0.339152
Si Si4 0.794179 0.260218 0.100000
Si Si5 0.720325 0.188240 0.908265
Si Si6 0.954234 0.744984 0.290437
Si Si7 0.122454 0.768400 0.641342
O O1 0.500000 0.203185 0.250000
O O2 0.789725 0.192360 0.367924
O O3 0.849212 0.234852 0.533854
O O4 0.735555 0.983386 0.419353
O O5 0.666492 0.864001 0.542601
O O6 0.828172 0.898064 0.775042
O O7 0.500000 0.000000 0.500000
O O8 0.831595 0.110699 0.697139
O O9 0.500000 0.500000 0.500000
O O10 0.214892 0.409029 0.366729
O O11 0.170262 0.627402 0.256927
O O12 0.217876 0.376609 0.236818
O O13 0.000000 0.188527 0.250000
O O14 0.762916 0.279575 0.002392
O O15 0.500000 0.236274 0.750000
O O16 0.887052 0.243799 0.973396
O O17 0.000000 0.687496 0.250000
#
# Coordination Sequence:
#
# PCOD8122438 Si02
#       7
#     4   4   4   4   4   4   4
#     4  11  26  44  70 106 144 178 225 295 359 411
#     4  11  23  36  70 102 134 177 235 291 345 406
#     4  11  26  45  70  98 139 186 234 288 344 415
#     4  11  20  44  67  97 133 177 233 288 339 404
#     4  11  23  40  72 105 137 178 223 287 351 416
#     4  12  25  42  69 100 137 185 233 284 346 415
#     4  11  24  46  67 102 144 178 233 293 346 414
#
# _framework density 21.139524999999999
#
# number of rings (size 3 to 8) (size 9 to 14) (size 15 to 20)
#    0.000    0.857    4.286    3.857    8.000    1.714 
#    0.000    0.714    0.000    0.000    0.000    0.000 
#    0.000    0.000    0.000    0.000    0.000    0.000 
#
# Total GULP energy -346885.713010 kJ/mol
# GULP energy per Si atom -12388.775465 kJ/mol
# Density = 2.109141 g / cm^3
# Si number density = 21.139525 Si / 1000 Ang^3
#
#
#
# Elastic Constant Matrix: (Units=GPa)
#
#
# Indices 1 2 3 4 5 6 
#
# 1 120.5888 12.2141 38.1980 0.0000 6.2866 0.0000
# 2 12.2141 79.3981 27.2217 0.0000 -0.0370 0.0000
# 3 38.1980 27.2217 143.8438 0.0000 29.6432 0.0000
# 4 0.0000 0.0000 0.0000 30.7352 0.0000 6.6301
# 5 6.2866 -0.0370 29.6432 0.0000 43.7408 0.0000
# 6 0.0000 0.0000 0.0000 6.6301 0.0000 29.8636
#
#
#
# Elastic Compliance Matrix: (Units=1/GPa)
#
#
# Indices 1 2 3 4 5 6 
#
# 1 0.009085 -0.000588 -0.002362 0.000000 0.000295 0.000000
# 2 -0.000588 0.013662 -0.002847 0.000000 0.002025 0.000000
# 3 -0.002362 -0.002847 0.009355 0.000000 -0.006003 0.000000
# 4 0.000000 0.000000 0.000000 0.034173 0.000000 -0.007587
# 5 0.000295 0.002025 -0.006003 0.000000 0.026890 0.000000
# 6 0.000000 0.000000 0.000000 -0.007587 0.000000 0.035170
#
#
# Mechanical properties :
#
#
# Convention : Reuss Voigt Hill
#
# Bulk Modulus (GPa) = 48.75851 55.45537 52.10694
# Shear Modulus (GPa) = 34.06841 38.61437 36.34139
#
# Velocity S-wave (km/s) = 4.01883 4.27856 4.15073
# Velocity P-wave (km/s) = 6.68205 7.12026 6.90463
#
# Compressibility (1/GPa) = 0.02050924
#
# Stress axis : x y z
#
# Youngs Moduli (GPa) = 110.07145 73.19495 106.89423
#
# Poissons Ratio (x) = 0.04301 0.25249
# Poissons Ratio (y) = 0.06468 0.30431
# Poissons Ratio (z) = 0.25999 0.20837
#
# Static dielectric constant tensor:
#      x y z
#    x 3.852760 0.000000 0.355610 
#    y 0.000000 3.791140 0.000000 
#    z 0.355610 0.000000 4.087330 
# 
# 
# High freq. dielectric constant tensor:
#      x y z
#    x 1.836400 0.000000 0.018470 
#    y 0.000000 1.821220 0.000000 
#    z 0.018470 0.000000 1.842180 
# 
# From -- ./inp_files/80019.got.cif
#   From: 2010.06.25/outbox.cif.g09.slc.cpg/sg13_41_cif.got.tgz:80019.got - 2010.06.28 04:50:58.
