data_PCOD8122125
_publ_section_title
;
Structure prediction by ZEFSAII (Michael W. Deem and Ramdas Pophale) SiO2 
 PCOD8122125
Probable space group: P 2/C
;
_chemical_formula_sum "Si O2"
_cell_formula_units_Z 18
_cell_length_a 19.903616
_cell_length_b 5.056085
_cell_length_c 10.342843
_cell_angle_alpha 90.000000
_cell_angle_beta 134.103307
_cell_angle_gamma 90.000000
_cell_volume 747.416741
_symmetry_space_group_name_H-M "P 2/C"
_symmetry_group_IT_number 13
_symmetry_cell_setting 'monoclinic'
loop_
_space_group_symop_operation_xyz
x,y,z
-x,y,1/2-z
-x,-y,-z
x,-y,1/2+z
loop_
_atom_site_type_symbol
_atom_site_label
_atom_site_fract_x
_atom_site_fract_y
_atom_site_fract_z
Si Si1 0.670448 0.870581 0.094054
Si Si2 0.059989 0.083089 0.203937
Si Si3 0.500000 0.437879 0.250000
Si Si4 0.182806 0.588120 0.354970
Si Si5 0.659549 0.738312 0.353582
O O1 0.759745 0.676784 0.196215
O O2 0.664378 0.939908 0.238625
O O3 0.572598 0.737715 0.925871
O O4 0.685619 0.125110 0.024795
O O5 0.112727 0.348813 0.230251
O O6 0.000000 0.153560 0.250000
O O7 0.128709 0.844351 0.337692
O O8 0.000000 0.000000 0.000000
O O9 0.555480 0.619222 0.221543
O O10 0.262644 0.491770 0.563408
#
# Coordination Sequence:
#
# PCOD8122125 Si02
#       5
#     4   4   2   4   4
#     4  11  25  45  75 106 153 194 250 304 368 445
#     4  12  28  48  76 107 148 192 248 308 370 442
#     4  10  24  44  68 112 146 202 246 304 364 438
#     4  11  26  47  72 110 146 193 244 300 371 433
#     4  11  25  45  75 106 153 196 247 307 365 448
#
# _framework density 24.08295
#
# number of rings (size 3 to 8) (size 9 to 14) (size 15 to 20)
#    0.000    0.889    2.222    2.667    6.222   10.667 
#    0.000    0.000    0.000    0.000    0.000    0.000 
#    0.000    0.000    0.000    0.000    0.000    0.000 
#
# Total GULP energy -223108.052006 kJ/mol
# GULP energy per Si atom -12394.891778 kJ/mol
# Density = 2.402814 g / cm^3
# Si number density = 24.082950 Si / 1000 Ang^3
#
#
#
# Elastic Constant Matrix: (Units=GPa)
#
#
# Indices 1 2 3 4 5 6 
#
# 1 78.6740 16.3524 51.2599 0.0000 14.5192 0.0000
# 2 16.3524 107.3847 12.8151 0.0000 23.7545 0.0000
# 3 51.2599 12.8151 53.0581 0.0000 20.7924 0.0000
# 4 0.0000 0.0000 0.0000 37.0571 0.0000 8.2118
# 5 14.5192 23.7545 20.7924 0.0000 47.5515 0.0000
# 6 0.0000 0.0000 0.0000 8.2118 0.0000 36.3275
#
#
#
# Elastic Compliance Matrix: (Units=1/GPa)
#
#
# Indices 1 2 3 4 5 6 
#
# 1 0.035836 -0.002487 -0.036468 0.000000 0.006246 0.000000
# 2 -0.002487 0.010657 0.001952 0.000000 -0.005418 0.000000
# 3 -0.036468 0.001952 0.059889 0.000000 -0.016027 0.000000
# 4 0.000000 0.000000 0.000000 0.028408 0.000000 -0.006422
# 5 0.006246 -0.005418 -0.016027 0.000000 0.028837 0.000000
# 6 0.000000 0.000000 0.000000 -0.006422 0.000000 0.028979
#
#
# Mechanical properties :
#
#
# Convention : Reuss Voigt Hill
#
# Bulk Modulus (GPa) = 30.88891 44.44129 37.66510
# Shear Modulus (GPa) = 18.02429 34.76653 26.39541
#
# Velocity S-wave (km/s) = 2.73870 3.80362 3.31421
# Velocity P-wave (km/s) = 4.78064 6.14683 5.50627
#
# Compressibility (1/GPa) = 0.03237407
#
# Stress axis : x y z
#
# Youngs Moduli (GPa) = 27.90517 93.83940 16.69759
#
# Poissons Ratio (x) = 0.23335 0.60893
# Poissons Ratio (y) = 0.06939 -0.03259
# Poissons Ratio (z) = 1.01766 -0.18314
#
# Static dielectric constant tensor:
#      x y z
#    x 4.676240 0.000000 0.531920 
#    y 0.000000 4.417830 0.000000 
#    z 0.531920 0.000000 4.491090 
# 
# 
# High freq. dielectric constant tensor:
#      x y z
#    x 1.965930 0.000000 0.027230 
#    y 0.000000 1.959080 0.000000 
#    z 0.027230 0.000000 1.947790 
# 
# From -- ./inp_files/37926.got.cif
#   From: 2010.06.25/outbox.cif.g09.slc.cpg/sg13_19_cif.got.tgz:37926.got - 2010.06.28 04:50:58.
