data_PCOD8122405
_publ_section_title
;
Structure prediction by ZEFSAII (Michael W. Deem and Ramdas Pophale) SiO2 
 PCOD8122405
Probable space group: P 2/C
;
_chemical_formula_sum "Si O2"
_cell_formula_units_Z 20
_cell_length_a 4.964865
_cell_length_b 10.288323
_cell_length_c 19.443163
_cell_angle_alpha 90.000000
_cell_angle_beta 80.720167
_cell_angle_gamma 90.000000
_cell_volume 980.161449
_symmetry_space_group_name_H-M "P 2/C"
_symmetry_group_IT_number 13
_symmetry_cell_setting 'monoclinic'
loop_
_space_group_symop_operation_xyz
x,y,z
-x,y,1/2-z
-x,-y,-z
x,-y,1/2+z
loop_
_atom_site_type_symbol
_atom_site_label
_atom_site_fract_x
_atom_site_fract_y
_atom_site_fract_z
Si Si1 0.065259 0.213959 0.487509
Si Si2 0.065393 0.026235 0.894645
Si Si3 0.292775 0.660751 0.703317
Si Si4 0.403285 0.376672 0.046384
Si Si5 0.382837 0.035493 0.183723
O O1 0.373104 0.261917 0.463376
O O2 0.028131 0.160080 0.566259
O O3 0.866974 0.333918 0.482489
O O4 0.966661 0.100524 0.440187
O O5 0.392599 0.015786 0.879618
O O6 0.914605 0.019162 0.826231
O O7 0.500000 0.598723 0.750000
O O8 0.322262 0.587340 0.628783
O O9 0.000000 0.645113 0.750000
O O10 0.368110 0.809903 0.687103
O O11 0.500000 0.500000 0.000000
O O12 0.500000 0.978327 0.250000
#
# Coordination Sequence:
#
# PCOD8122405 Si02
#       5
#     4   4   4   4   4
#     4  11  22  38  59  88 119 159 193 240 312 349
#     4  11  20  36  59  86 126 150 188 245 296 379
#     4  11  21  36  59  87 119 151 196 257 308 350
#     4  12  24  41  62  89 123 160 212 256 294 362
#     4  11  20  33  57  90 124 153 193 243 308 361
#
# _framework density 20.404803000000001
#
# number of rings (size 3 to 8) (size 9 to 14) (size 15 to 20)
#    0.000    0.800    4.000    6.000    0.000    3.200 
#    0.000    0.000    0.000   12.000    0.000    0.000 
#    0.000    0.000    0.000    0.000    0.000    0.000 
#
# Total GULP energy -247954.468599 kJ/mol
# GULP energy per Si atom -12397.723430 kJ/mol
# Density = 2.035836 g / cm^3
# Si number density = 20.404803 Si / 1000 Ang^3
#
#
#
# Elastic Constant Matrix: (Units=GPa)
#
#
# Indices 1 2 3 4 5 6 
#
# 1 106.1473 8.2825 28.8936 0.0000 -3.5973 0.0000
# 2 8.2825 41.2666 42.7590 0.0000 -0.4340 0.0000
# 3 28.8936 42.7590 127.0257 0.0000 -0.3258 0.0000
# 4 0.0000 0.0000 0.0000 27.1936 0.0000 -6.9121
# 5 -3.5973 -0.4340 -0.3258 0.0000 47.0248 0.0000
# 6 0.0000 0.0000 0.0000 -6.9121 0.0000 11.6847
#
#
#
# Elastic Compliance Matrix: (Units=1/GPa)
#
#
# Indices 1 2 3 4 5 6 
#
# 1 0.010078 0.000551 -0.002476 0.000000 0.000759 0.000000
# 2 0.000551 0.037245 -0.012662 0.000000 0.000298 0.000000
# 3 -0.002476 -0.012662 0.012697 0.000000 -0.000218 0.000000
# 4 0.000000 0.000000 0.000000 0.043281 0.000000 0.025603
# 5 0.000759 0.000298 -0.000218 0.000000 0.021325 0.000000
# 6 0.000000 0.000000 0.000000 0.025603 0.000000 0.100728
#
#
# Mechanical properties :
#
#
# Convention : Reuss Voigt Hill
#
# Bulk Modulus (GPa) = 32.41921 48.25665 40.33793
# Shear Modulus (GPa) = 18.88156 30.14758 24.51457
#
# Velocity S-wave (km/s) = 3.04525 3.84796 3.46990
# Velocity P-wave (km/s) = 5.31858 6.59116 5.98877
#
# Compressibility (1/GPa) = 0.03084591
#
# Stress axis : x y z
#
# Youngs Moduli (GPa) = 99.23092 26.84922 78.75790
#
# Poissons Ratio (x) = -0.01478 0.19497
# Poissons Ratio (y) = -0.05463 0.99721
# Poissons Ratio (z) = 0.24566 0.33996
#
# Static dielectric constant tensor:
#      x y z
#    x 3.906000 0.000000 0.119510 
#    y 0.000000 3.182990 0.000000 
#    z 0.119510 0.000000 4.027000 
# 
# 
# High freq. dielectric constant tensor:
#      x y z
#    x 1.821770 0.000000 -0.000250 
#    y 0.000000 1.738620 0.000000 
#    z -0.000250 0.000000 1.808180 
# 
# From -- ./inp_files/72976.got.cif
#   From: 2010.06.25/outbox.cif.g09.slc.cpg/sg13_37_cif.got.tgz:72976.got - 2010.06.28 04:50:58.
