data_PCOD8122599
_publ_section_title
;
Structure prediction by ZEFSAII (Michael W. Deem and Ramdas Pophale) SiO2 
 PCOD8122599
Probable space group: P 2/C
;
_chemical_formula_sum "Si O2"
_cell_formula_units_Z 32
_cell_length_a 15.070073
_cell_length_b 22.421773
_cell_length_c 9.029576
_cell_angle_alpha 90.000000
_cell_angle_beta 146.830769
_cell_angle_gamma 90.000000
_cell_volume 1669.284353
_symmetry_space_group_name_H-M "P 2/C"
_symmetry_group_IT_number 13
_symmetry_cell_setting 'monoclinic'
loop_
_space_group_symop_operation_xyz
x,y,z
-x,y,1/2-z
-x,-y,-z
x,-y,1/2+z
loop_
_atom_site_type_symbol
_atom_site_label
_atom_site_fract_x
_atom_site_fract_y
_atom_site_fract_z
Si Si1 0.109062 0.465874 0.766957
Si Si2 0.335742 0.237635 0.931040
Si Si3 0.364781 0.043715 0.754496
Si Si4 0.508301 0.828814 0.425899
Si Si5 0.664499 0.627833 0.072188
Si Si6 0.597138 0.454534 0.736340
Si Si7 0.826050 0.843365 0.067453
Si Si8 0.168620 0.031996 0.765030
O O1 0.196962 0.410004 0.814838
O O2 0.000000 0.441580 0.750000
O O3 0.000000 0.500000 0.500000
O O4 0.232800 0.515622 0.993579
O O5 0.377511 0.210590 0.830486
O O6 0.269434 0.304838 0.823924
O O7 0.500000 0.237649 0.250000
O O8 0.204722 0.196464 0.830221
O O9 0.445265 0.104847 0.823808
O O10 0.232945 0.055015 0.698084
O O11 0.285840 0.017988 0.495719
O O12 0.500000 0.000000 0.000000
O O13 0.500000 0.800734 0.250000
O O14 0.687441 0.830635 0.750602
O O15 0.628966 0.605731 0.189217
O O16 0.500000 0.622314 0.750000
O O17 0.500000 0.438782 0.750000
O O18 0.500000 0.500000 0.500000
O O19 0.836577 0.912958 0.127286
O O20 0.000000 0.823064 0.250000
O O21 0.000000 0.000000 0.500000
#
# Coordination Sequence:
#
# PCOD8122599 Si02
#       8
#     4   4   4   4   4   4   4   4
#     4  12  22  35  60  93 132 164 197 253 316 359
#     4   9  22  44  68  88 121 171 212 251 303 372
#     4  12  23  38  62  90 124 157 203 255 312 372
#     4  11  23  42  67  92 120 163 211 258 311 368
#     4  11  22  40  66  95 123 165 218 250 297 380
#     4  12  20  37  62  91 126 167 203 253 307 361
#     4  11  23  43  66  90 125 164 205 257 315 372
#     4  12  25  40  58  94 128 159 200 258 318 375
#
# _framework density 19.169892000000001
#
# number of rings (size 3 to 8) (size 9 to 14) (size 15 to 20)
#    0.000    0.750    6.250    2.250    1.750    1.000 
#    0.000    0.625    5.500    0.000    0.000    0.000 
#    0.000    0.000    0.000    0.000    0.000    0.000 
#
# Total GULP energy -396832.438539 kJ/mol
# GULP energy per Si atom -12401.013704 kJ/mol
# Density = 1.912626 g / cm^3
# Si number density = 19.169892 Si / 1000 Ang^3
#
#
#
# Elastic Constant Matrix: (Units=GPa)
#
#
# Indices 1 2 3 4 5 6 
#
# 1 170.0783 55.7140 42.7617 0.0000 -1.1179 0.0000
# 2 55.7140 123.5244 45.8466 0.0000 1.0098 0.0000
# 3 42.7617 45.8466 109.3010 0.0000 1.1480 0.0000
# 4 0.0000 0.0000 0.0000 17.6681 0.0000 -1.6330
# 5 -1.1179 1.0098 1.1480 0.0000 34.8195 0.0000
# 6 0.0000 0.0000 0.0000 -1.6330 0.0000 27.9712
#
#
#
# Elastic Compliance Matrix: (Units=1/GPa)
#
#
# Indices 1 2 3 4 5 6 
#
# 1 0.007165 -0.002597 -0.001717 0.000000 0.000362 0.000000
# 2 -0.002597 0.010530 -0.003398 0.000000 -0.000277 0.000000
# 3 -0.001717 -0.003398 0.011250 0.000000 -0.000327 0.000000
# 4 0.000000 0.000000 0.000000 0.056906 0.000000 0.003322
# 5 0.000362 -0.000277 -0.000327 0.000000 0.028750 0.000000
# 6 0.000000 0.000000 0.000000 0.003322 0.000000 0.035945
#
#
# Mechanical properties :
#
#
# Convention : Reuss Voigt Hill
#
# Bulk Modulus (GPa) = 73.96661 76.83870 75.40266
# Shear Modulus (GPa) = 29.32939 33.33052 31.32995
#
# Velocity S-wave (km/s) = 3.91573 4.17428 4.04707
# Velocity P-wave (km/s) = 7.68846 7.96259 7.82673
#
# Compressibility (1/GPa) = 0.01351961
#
# Stress axis : x y z
#
# Youngs Moduli (GPa) = 139.57602 94.96342 88.89101
#
# Poissons Ratio (x) = 0.24662 0.15267
# Poissons Ratio (y) = 0.36248 0.30206
# Poissons Ratio (z) = 0.23972 0.32269
#
# Static dielectric constant tensor:
#      x y z
#    x 4.015610 0.000000 -0.051170 
#    y 0.000000 1.950720 0.000000 
#    z -0.051170 0.000000 3.385960 
# 
# 
# High freq. dielectric constant tensor:
#      x y z
#    x 1.766050 0.000000 -0.002100 
#    y 0.000000 1.736030 0.000000 
#    z -0.002100 0.000000 1.743260 
# 
# From -- ./inp_files/20232.got.cif
#   From: 2010.06.25/outbox.cif.g09.slc.cpg/sg13_11_cif.got.tgz:20232.got - 2010.06.28 04:50:58.
