data_PCOD8122830
_publ_section_title
;
Structure prediction by ZEFSAII (Michael W. Deem and Ramdas Pophale) SiO2 
 PCOD8122830
Probable space group: P 2/C
;
_chemical_formula_sum "Si O2"
_cell_formula_units_Z 20
_cell_length_a 8.520054
_cell_length_b 12.796224
_cell_length_c 11.625242
_cell_angle_alpha 90.000000
_cell_angle_beta 131.224538
_cell_angle_gamma 90.000000
_cell_volume 953.280434
_symmetry_space_group_name_H-M "P 2/C"
_symmetry_group_IT_number 13
_symmetry_cell_setting 'monoclinic'
loop_
_space_group_symop_operation_xyz
x,y,z
-x,y,1/2-z
-x,-y,-z
x,-y,1/2+z
loop_
_atom_site_type_symbol
_atom_site_label
_atom_site_fract_x
_atom_site_fract_y
_atom_site_fract_z
Si Si1 0.618586 0.006440 0.934300
Si Si2 0.774574 0.407083 0.091143
Si Si3 0.586766 0.381451 0.413745
Si Si4 0.900684 0.806903 0.081041
Si Si5 0.272925 0.780369 0.089763
O O1 0.500000 0.998597 0.750000
O O2 0.720076 0.121273 0.993115
O O3 0.500000 0.000000 0.000000
O O4 0.796186 0.919769 0.021960
O O5 0.608078 0.356437 0.097937
O O6 0.000000 0.420468 0.250000
O O7 0.716127 0.522693 0.024943
O O8 0.798276 0.327786 0.998653
O O9 0.500000 0.416948 0.250000
O O10 0.728644 0.279534 0.467294
O O11 0.000000 0.780833 0.250000
O O12 0.099951 0.808455 0.097651
O O13 0.500000 0.760032 0.250000
#
# Coordination Sequence:
#
# PCOD8122830 Si02
#       5
#     4   4   4   4   4
#     4  11  24  44  68  97 133 171 218 270 326 388
#     4  11  24  41  64  93 125 164 210 262 319 380
#     4  11  24  42  64  92 127 166 212 262 318 385
#     4  12  24  41  67  96 129 169 216 267 323 383
#     4  11  24  42  63  92 129 168 211 262 320 383
#
# _framework density 20.980184000000001
#
# number of rings (size 3 to 8) (size 9 to 14) (size 15 to 20)
#    0.000    0.800    0.000    8.400    0.000    8.800 
#    0.000    0.000    0.000    0.000    0.000    0.000 
#    0.000    0.000    0.000    0.000    0.000    0.000 
#
# Total GULP energy -247891.784744 kJ/mol
# GULP energy per Si atom -12394.589237 kJ/mol
# Density = 2.093243 g / cm^3
# Si number density = 20.980184 Si / 1000 Ang^3
#
#
#
# Elastic Constant Matrix: (Units=GPa)
#
#
# Indices 1 2 3 4 5 6 
#
# 1 125.7462 32.1259 68.6549 0.0000 -1.1178 0.0000
# 2 32.1259 92.2330 32.8582 0.0000 11.0197 0.0000
# 3 68.6549 32.8582 108.1353 0.0000 13.4469 0.0000
# 4 0.0000 0.0000 0.0000 -786.7225 0.0000 -446.4043
# 5 -1.1178 11.0197 13.4469 0.0000 40.6369 0.0000
# 6 0.0000 0.0000 0.0000 -446.4043 0.0000 -188.5295
#
#
#
# Elastic Compliance Matrix: (Units=1/GPa)
#
#
# Indices 1 2 3 4 5 6 
#
# 1 0.012873 -0.002063 -0.007988 0.000000 0.003557 0.000000
# 2 -0.002063 0.012674 -0.002197 0.000000 -0.002766 0.000000
# 3 -0.007988 -0.002197 0.015582 0.000000 -0.004780 0.000000
# 4 0.000000 0.000000 0.000000 0.003700 0.000000 -0.008761
# 5 0.003557 -0.002766 -0.004780 0.000000 0.027038 0.000000
# 6 0.000000 0.000000 0.000000 -0.008761 0.000000 0.015439
#
#
# Mechanical properties :
#
#
# Convention : Reuss Voigt Hill
#
# Bulk Modulus (GPa) = 60.12856 65.93250 63.03053
# Shear Modulus (GPa) = 42.60915 -174.09131 -65.74108
#
# Velocity S-wave (km/s) = 4.51147 -9.11916 -5.60383
# Velocity P-wave (km/s) = 7.47393 8.90980 3.42963
#
# Compressibility (1/GPa) = 0.01663103
#
# Stress axis : x y z
#
# Youngs Moduli (GPa) = 77.68438 78.90180 64.17854
#
# Poissons Ratio (x) = 0.16276 0.51268
# Poissons Ratio (y) = 0.16025 0.14103
# Poissons Ratio (z) = 0.62056 0.17338
#
# Static dielectric constant tensor:
#      x y z
#    x 4.102760 0.000000 -0.076170 
#    y 0.000000 4.030490 0.000000 
#    z -0.076170 0.000000 3.950460 
# 
# 
# High freq. dielectric constant tensor:
#      x y z
#    x 1.843770 0.000000 0.001320 
#    y 0.000000 1.843480 0.000000 
#    z 0.001320 0.000000 1.826490 
# 
# From -- ./inp_files/29270.got.cif
#   From: 2010.06.25/outbox.cif.g09.slc.cpg/sg13_15_cif.got.tgz:29270.got - 2010.06.28 04:50:58.
