data_PCOD8122087
_publ_section_title
;
Structure prediction by ZEFSAII (Michael W. Deem and Ramdas Pophale) SiO2 
 PCOD8122087
Probable space group: P 2/C
;
_chemical_formula_sum "Si O2"
_cell_formula_units_Z 26
_cell_length_a 5.062551
_cell_length_b 19.184908
_cell_length_c 12.838597
_cell_angle_alpha 90.000000
_cell_angle_beta 104.279169
_cell_angle_gamma 90.000000
_cell_volume 1208.419551
_symmetry_space_group_name_H-M "P 2/C"
_symmetry_group_IT_number 13
_symmetry_cell_setting 'monoclinic'
loop_
_space_group_symop_operation_xyz
x,y,z
-x,y,1/2-z
-x,-y,-z
x,-y,1/2+z
loop_
_atom_site_type_symbol
_atom_site_label
_atom_site_fract_x
_atom_site_fract_y
_atom_site_fract_z
Si Si1 0.143941 0.103352 0.869578
Si Si2 0.000000 0.481107 0.750000
Si Si3 0.305279 0.850477 0.011557
Si Si4 0.592102 0.597074 0.655987
Si Si5 0.282508 0.050060 0.321954
Si Si6 0.249378 0.309501 0.500850
Si Si7 0.217809 0.381507 0.942040
O O1 0.417622 0.148841 0.895549
O O2 0.000000 0.126554 0.750000
O O3 0.948227 0.117353 0.949473
O O4 0.228424 0.022455 0.875666
O O5 0.731333 0.528564 0.720001
O O6 0.962469 0.432611 0.645700
O O7 0.380789 0.894470 0.916062
O O8 0.255008 0.771316 0.973855
O O9 0.500000 0.639673 0.750000
O O10 0.794880 0.647131 0.611244
O O11 0.335125 0.576564 0.555251
O O12 0.500000 0.040839 0.250000
O O13 0.000000 0.079219 0.250000
O O14 0.525056 0.340037 0.584344
O O15 0.989013 0.320562 0.547040
#
# Coordination Sequence:
#
# PCOD8122087 Si02
#       7
#     4   2   4   4   4   4   4
#     4  11  23  42  67 101 133 180 234 289 329 404
#     4  12  24  44  74 102 128 184 218 290 344 398
#     4  12  23  44  69  94 139 190 222 273 357 402
#     4  10  24  42  71  98 132 173 222 280 345 402
#     4  11  23  41  67 106 137 174 236 291 332 400
#     4  10  25  47  60 100 138 171 227 276 331 422
#     4  10  25  45  66  99 137 170 228 281 337 409
#
# _framework density 21.515706999999999
#
# number of rings (size 3 to 8) (size 9 to 14) (size 15 to 20)
#    0.923    0.308    0.000    6.462    2.154    1.846 
#   12.462    0.000    0.000    0.000    0.000    0.000 
#    0.000    0.000    0.000    0.000    0.000    0.000 
#
# Total GULP energy -322141.017375 kJ/mol
# GULP energy per Si atom -12390.039130 kJ/mol
# Density = 2.146674 g / cm^3
# Si number density = 21.515707 Si / 1000 Ang^3
#
#
#
# Elastic Constant Matrix: (Units=GPa)
#
#
# Indices 1 2 3 4 5 6 
#
# 1 135.7174 45.6599 35.9984 0.0000 7.3533 0.0000
# 2 45.6599 118.3213 56.1824 0.0000 -5.8433 0.0000
# 3 35.9984 56.1824 113.4254 0.0000 7.5251 0.0000
# 4 0.0000 0.0000 0.0000 10.7134 0.0000 1.3746
# 5 7.3533 -5.8433 7.5251 0.0000 32.3715 0.0000
# 6 0.0000 0.0000 0.0000 1.3746 0.0000 22.1567
#
#
#
# Elastic Compliance Matrix: (Units=1/GPa)
#
#
# Indices 1 2 3 4 5 6 
#
# 1 0.008794 -0.002943 -0.001184 0.000000 -0.002254 0.000000
# 2 -0.002943 0.012398 -0.005484 0.000000 0.004181 0.000000
# 3 -0.001184 -0.005484 0.012144 0.000000 -0.003544 0.000000
# 4 0.000000 0.000000 0.000000 0.094090 0.000000 -0.005837
# 5 -0.002254 0.004181 -0.003544 0.000000 0.032982 0.000000
# 6 0.000000 0.000000 0.000000 -0.005837 0.000000 0.045495
#
#
# Mechanical properties :
#
#
# Convention : Reuss Voigt Hill
#
# Bulk Modulus (GPa) = 70.85307 71.46061 71.15684
# Shear Modulus (GPa) = 21.75521 28.35655 25.05588
#
# Velocity S-wave (km/s) = 3.18328 3.63429 3.41624
# Velocity P-wave (km/s) = 6.82007 7.13415 6.97888
#
# Compressibility (1/GPa) = 0.01411371
#
# Stress axis : x y z
#
# Youngs Moduli (GPa) = 113.70764 80.65919 82.34668
#
# Poissons Ratio (x) = 0.23737 0.09749
# Poissons Ratio (y) = 0.33463 0.45162
# Poissons Ratio (z) = 0.13462 0.44236
#
# Static dielectric constant tensor:
#      x y z
#    x 3.977290 0.000000 0.135450 
#    y 0.000000 3.601630 0.000000 
#    z 0.135450 0.000000 4.022020 
# 
# 
# High freq. dielectric constant tensor:
#      x y z
#    x 1.859590 0.000000 0.009360 
#    y 0.000000 1.828800 0.000000 
#    z 0.009360 0.000000 1.843110 
# 
# From -- ./inp_files/44351.got.cif
#   From: 2010.06.25/outbox.cif.g09.slc.cpg/sg13_23_cif.got.tgz:44351.got - 2010.06.28 04:50:58.
