data_PCOD8122964
_publ_section_title
;
Structure prediction by ZEFSAII (Michael W. Deem and Ramdas Pophale) SiO2 
 PCOD8122964
Probable space group: P 2/C
;
_chemical_formula_sum "Si O2"
_cell_formula_units_Z 18
_cell_length_a 12.570735
_cell_length_b 8.198548
_cell_length_c 9.891663
_cell_angle_alpha 90.000000
_cell_angle_beta 50.988992
_cell_angle_gamma 90.000000
_cell_volume 792.139993
_symmetry_space_group_name_H-M "P 2/C"
_symmetry_group_IT_number 13
_symmetry_cell_setting 'monoclinic'
loop_
_space_group_symop_operation_xyz
x,y,z
-x,y,1/2-z
-x,-y,-z
x,-y,1/2+z
loop_
_atom_site_type_symbol
_atom_site_label
_atom_site_fract_x
_atom_site_fract_y
_atom_site_fract_z
Si Si1 0.805833 0.579636 0.796556
Si Si2 0.000000 0.675750 0.250000
Si Si3 0.123176 0.877115 0.923855
Si Si4 0.638667 0.578855 0.200452
Si Si5 0.588772 0.054912 0.804662
O O1 0.916527 0.434478 0.710012
O O2 0.877790 0.749191 0.699257
O O3 0.692249 0.542356 0.773347
O O4 0.746589 0.600926 0.993631
O O5 0.894824 0.786049 0.418577
O O6 0.264332 0.972362 0.814704
O O7 0.000000 0.000000 0.000000
O O8 0.500000 0.501340 0.250000
O O9 0.606904 0.751140 0.294716
O O10 0.500000 0.996286 0.750000
O O11 0.500000 0.000000 0.000000
#
# Coordination Sequence:
#
# PCOD8122964 Si02
#       5
#     4   2   4   4   4
#     4  12  26  49  72 110 148 195 253 311 377 455
#     4  12  28  46  72 114 148 196 250 316 380 448
#     4  12  28  46  79 108 150 200 251 314 377 451
#     4  11  25  47  75 106 148 198 250 309 379 454
#     4  11  27  49  73 108 150 196 255 311 377 446
#
# _framework density 22.723258999999999
#
# number of rings (size 3 to 8) (size 9 to 14) (size 15 to 20)
#    0.000    0.444    2.222    5.333   12.444    0.889 
#    0.000    0.000    0.000    0.000    0.000    0.000 
#    0.000    0.000    0.000    0.000    0.000    0.000 
#
# Total GULP energy -223334.712593 kJ/mol
# GULP energy per Si atom -12407.484033 kJ/mol
# Density = 2.267154 g / cm^3
# Si number density = 22.723259 Si / 1000 Ang^3
#
#
#
# Elastic Constant Matrix: (Units=GPa)
#
#
# Indices 1 2 3 4 5 6 
#
# 1 155.1259 68.1569 42.9769 0.0000 -15.9651 0.0000
# 2 68.1569 113.5005 40.4512 0.0000 -4.4529 0.0000
# 3 42.9769 40.4512 124.5600 0.0000 -1.8921 0.0000
# 4 0.0000 0.0000 0.0000 47.0927 0.0000 -2.2706
# 5 -15.9651 -4.4529 -1.8921 0.0000 43.4270 0.0000
# 6 0.0000 0.0000 0.0000 -2.2706 0.0000 32.4005
#
#
#
# Elastic Compliance Matrix: (Units=1/GPa)
#
#
# Indices 1 2 3 4 5 6 
#
# 1 0.009348 -0.004939 -0.001578 0.000000 0.002861 0.000000
# 2 -0.004939 0.012607 -0.002400 0.000000 -0.000628 0.000000
# 3 -0.001578 -0.002400 0.009346 0.000000 -0.000419 0.000000
# 4 0.000000 0.000000 0.000000 0.021307 0.000000 0.001493
# 5 0.002861 -0.000628 -0.000419 0.000000 0.023997 0.000000
# 6 0.000000 0.000000 0.000000 0.001493 0.000000 0.030968
#
#
# Mechanical properties :
#
#
# Convention : Reuss Voigt Hill
#
# Bulk Modulus (GPa) = 74.25178 77.37294 75.81236
# Shear Modulus (GPa) = 38.49292 40.69081 39.59186
#
# Velocity S-wave (km/s) = 4.12027 4.23627 4.17867
# Velocity P-wave (km/s) = 7.44198 7.61919 7.53110
#
# Compressibility (1/GPa) = 0.01346769
#
# Stress axis : x y z
#
# Youngs Moduli (GPa) = 106.97497 79.32182 107.00192
#
# Poissons Ratio (x) = 0.39175 0.16885
# Poissons Ratio (y) = 0.52833 0.25676
# Poissons Ratio (z) = 0.16880 0.19034
#
# Static dielectric constant tensor:
#      x y z
#    x 4.290770 0.000000 -0.029830 
#    y 0.000000 4.257540 0.000000 
#    z -0.029830 0.000000 4.219010 
# 
# 
# High freq. dielectric constant tensor:
#      x y z
#    x 1.905480 0.000000 -0.005410 
#    y 0.000000 1.904290 0.000000 
#    z -0.005410 0.000000 1.916630 
# 
# From -- ./inp_files/14744.got.cif
#   From: 2010.06.25/outbox.cif.g09.slc.cpg/sg13_8_cif.got.tgz:14744.got - 2010.06.28 04:50:58.
