data_PCOD8122145
_publ_section_title
;
Structure prediction by ZEFSAII (Michael W. Deem and Ramdas Pophale) SiO2 
 PCOD8122145
Probable space group: P 2/C
;
_chemical_formula_sum "Si O2"
_cell_formula_units_Z 30
_cell_length_a 14.555512
_cell_length_b 11.566796
_cell_length_c 8.498749
_cell_angle_alpha 90.000000
_cell_angle_beta 109.924338
_cell_angle_gamma 90.000000
_cell_volume 1345.208781
_symmetry_space_group_name_H-M "P 2/C"
_symmetry_group_IT_number 13
_symmetry_cell_setting 'monoclinic'
loop_
_space_group_symop_operation_xyz
x,y,z
-x,y,1/2-z
-x,-y,-z
x,-y,1/2+z
loop_
_atom_site_type_symbol
_atom_site_label
_atom_site_fract_x
_atom_site_fract_y
_atom_site_fract_z
Si Si1 0.861668 0.851193 0.996973
Si Si2 0.214669 0.951244 0.219484
Si Si3 0.558003 0.900141 0.125727
Si Si4 0.906696 0.579682 0.449468
Si Si5 0.812120 0.387838 0.571656
Si Si6 0.597449 0.648877 0.060629
Si Si7 0.051941 0.830233 0.941440
Si Si8 0.500000 0.510207 0.250000
O O1 0.826190 0.902935 0.141622
O O2 0.838036 0.715687 0.968066
O O3 0.978428 0.864211 0.041574
O O4 0.804746 0.912200 0.817956
O O5 0.330385 0.933393 0.269872
O O6 0.155246 0.892467 0.038498
O O7 0.500000 0.875406 0.250000
O O8 0.560402 0.781304 0.027712
O O9 0.500000 0.000000 0.000000
O O10 0.817681 0.508135 0.478792
O O11 0.887240 0.613883 0.259110
O O12 0.927305 0.693995 0.561722
O O13 0.000000 0.500000 0.500000
O O14 0.709627 0.360673 0.588189
O O15 0.582419 0.594768 0.225639
O O16 0.538583 0.573828 0.904371
O O17 0.000000 0.872559 0.750000
#
# Coordination Sequence:
#
# PCOD8122145 Si02
#       8
#     4   4   4   4   4   4   4   2
#     4  12  25  45  72 101 143 188 242 296 352 432
#     4  12  26  48  71 103 142 193 241 301 365 424
#     4  12  27  47  75 106 148 192 246 309 368 435
#     4  12  24  42  68  98 143 182 232 282 353 413
#     4  12  25  44  70 102 142 186 233 293 353 430
#     4  11  23  47  71 106 141 183 238 297 368 436
#     4  12  25  45  70 104 143 190 239 293 359 431
#     4  10  24  44  74 102 140 182 236 302 368 436
#
# _framework density 22.301373000000002
#
# number of rings (size 3 to 8) (size 9 to 14) (size 15 to 20)
#    0.000    0.267    4.667    4.400    0.933    0.000 
#    0.000    0.000    0.000    0.000    0.000    0.000 
#    0.000    0.000    0.000    0.000    0.000    0.000 
#
# Total GULP energy -371965.836342 kJ/mol
# GULP energy per Si atom -12398.861211 kJ/mol
# Density = 2.225061 g / cm^3
# Si number density = 22.301373 Si / 1000 Ang^3
#
#
#
# Elastic Constant Matrix: (Units=GPa)
#
#
# Indices 1 2 3 4 5 6 
#
# 1 150.8102 68.1189 45.4908 0.0000 8.8309 0.0000
# 2 68.1189 126.7859 41.5735 0.0000 6.3898 0.0000
# 3 45.4908 41.5735 71.5354 0.0000 5.3207 0.0000
# 4 0.0000 0.0000 0.0000 37.4907 0.0000 -1.8473
# 5 8.8309 6.3898 5.3207 0.0000 36.0122 0.0000
# 6 0.0000 0.0000 0.0000 -1.8473 0.0000 39.8821
#
#
#
# Elastic Compliance Matrix: (Units=1/GPa)
#
#
# Indices 1 2 3 4 5 6 
#
# 1 0.009571 -0.003852 -0.003766 0.000000 -0.001107 0.000000
# 2 -0.003852 0.011323 -0.004097 0.000000 -0.000459 0.000000
# 3 -0.003766 -0.004097 0.018839 0.000000 -0.001133 0.000000
# 4 0.000000 0.000000 0.000000 0.026734 0.000000 0.001238
# 5 -0.001107 -0.000459 -0.001133 0.000000 0.028289 0.000000
# 6 0.000000 0.000000 0.000000 0.001238 0.000000 0.025131
#
#
# Mechanical properties :
#
#
# Convention : Reuss Voigt Hill
#
# Bulk Modulus (GPa) = 61.33247 73.27757 67.30502
# Shear Modulus (GPa) = 33.61283 35.60686 34.60985
#
# Velocity S-wave (km/s) = 3.88649 4.00011 3.94371
# Velocity P-wave (km/s) = 6.90660 7.36639 7.14020
#
# Compressibility (1/GPa) = 0.01630458
#
# Stress axis : x y z
#
# Youngs Moduli (GPa) = 104.47735 88.31244 53.08100
#
# Poissons Ratio (x) = 0.34017 0.19989
# Poissons Ratio (y) = 0.40244 0.21748
# Poissons Ratio (z) = 0.39344 0.36182
#
# Static dielectric constant tensor:
#      x y z
#    x 4.266940 0.000000 -0.418750 
#    y 0.000000 4.770380 0.000000 
#    z -0.418750 0.000000 3.708900 
# 
# 
# High freq. dielectric constant tensor:
#      x y z
#    x 1.888330 0.000000 -0.010470 
#    y 0.000000 1.899890 0.000000 
#    z -0.010470 0.000000 1.868690 
# 
# From -- ./inp_files/19070.got.cif
#   From: 2010.06.25/outbox.cif.g09.slc.cpg/sg13_10_cif.got.tgz:19070.got - 2010.06.28 04:50:58.
