data_PCOD8122166
_publ_section_title
;
Structure prediction by ZEFSAII (Michael W. Deem and Ramdas Pophale) SiO2 
 PCOD8122166
Probable space group: P 2/C
;
_chemical_formula_sum "Si O2"
_cell_formula_units_Z 26
_cell_length_a 10.887506
_cell_length_b 8.334021
_cell_length_c 26.240021
_cell_angle_alpha 90.000000
_cell_angle_beta 149.407337
_cell_angle_gamma 90.000000
_cell_volume 1211.731068
_symmetry_space_group_name_H-M "P 2/C"
_symmetry_group_IT_number 13
_symmetry_cell_setting 'monoclinic'
loop_
_space_group_symop_operation_xyz
x,y,z
-x,y,1/2-z
-x,-y,-z
x,-y,1/2+z
loop_
_atom_site_type_symbol
_atom_site_label
_atom_site_fract_x
_atom_site_fract_y
_atom_site_fract_z
Si Si1 0.080601 0.978526 0.585810
Si Si2 0.500000 0.742728 0.750000
Si Si3 0.656911 0.257557 0.760692
Si Si4 0.820260 0.579056 0.781228
Si Si5 0.568819 0.121994 0.916514
Si Si6 0.733498 0.820587 0.662595
Si Si7 0.630220 0.342942 0.025909
O O1 0.161191 0.131798 0.647877
O O2 0.292378 0.853136 0.653621
O O3 0.000000 0.000000 0.500000
O O4 0.847365 0.907613 0.531265
O O5 0.619401 0.637649 0.748853
O O6 0.500000 0.338027 0.750000
O O7 0.803806 0.385696 0.779037
O O8 0.466337 0.173919 0.654592
O O9 0.747887 0.655562 0.700929
O O10 0.094861 0.621416 0.892870
O O11 0.420000 0.957997 0.865923
O O12 0.487564 0.262027 0.927243
O O13 0.616262 0.783866 0.566560
O O14 0.000000 0.891239 0.750000
O O15 0.500000 0.500000 0.000000
#
# Coordination Sequence:
#
# PCOD8122166 Si02
#       7
#     4   2   4   4   4   4   4
#     4  12  23  42  68 102 139 183 234 288 350 431
#     4  12  22  44  70  96 144 180 224 290 352 418
#     4  12  25  43  66 104 145 183 230 291 364 429
#     4  11  24  45  68  99 144 185 227 294 365 416
#     4  12  25  44  73 103 136 188 245 291 353 427
#     4  10  24  45  70  97 136 187 237 291 352 418
#     4  11  25  45  68 103 139 182 242 292 350 425
#
# _framework density 21.456904999999999
#
# number of rings (size 3 to 8) (size 9 to 14) (size 15 to 20)
#    0.000    0.615    4.615    3.231    4.308    1.231 
#    2.769    2.308    0.000    0.000    0.000    0.000 
#    0.000    0.000    0.000    0.000    0.000    0.000 
#
# Total GULP energy -322270.965868 kJ/mol
# GULP energy per Si atom -12395.037149 kJ/mol
# Density = 2.140807 g / cm^3
# Si number density = 21.456905 Si / 1000 Ang^3
#
#
#
# Elastic Constant Matrix: (Units=GPa)
#
#
# Indices 1 2 3 4 5 6 
#
# 1 106.9521 39.7649 43.9136 0.0000 0.3700 0.0000
# 2 39.7649 108.1872 48.4036 0.0000 0.4209 0.0000
# 3 43.9136 48.4036 117.1952 0.0000 -10.6352 0.0000
# 4 0.0000 0.0000 0.0000 -22.6363 0.0000 -19.3785
# 5 0.3700 0.4209 -10.6352 0.0000 41.9377 0.0000
# 6 0.0000 0.0000 0.0000 -19.3785 0.0000 35.3738
#
#
#
# Elastic Compliance Matrix: (Units=1/GPa)
#
#
# Indices 1 2 3 4 5 6 
#
# 1 0.011772 -0.002837 -0.003323 0.000000 -0.000918 0.000000
# 2 -0.002837 0.012095 -0.004034 0.000000 -0.001119 0.000000
# 3 -0.003323 -0.004034 0.011720 0.000000 0.003042 0.000000
# 4 0.000000 0.000000 0.000000 -0.030073 0.000000 -0.016475
# 5 -0.000918 -0.001119 0.003042 0.000000 0.024636 0.000000
# 6 0.000000 0.000000 0.000000 -0.016475 0.000000 0.019244
#
#
# Mechanical properties :
#
#
# Convention : Reuss Voigt Hill
#
# Bulk Modulus (GPa) = 65.78924 66.27764 66.03344
# Shear Modulus (GPa) = 66.80184 24.28519 45.54351
#
# Velocity S-wave (km/s) = 5.58575 3.36789 4.61212
# Velocity P-wave (km/s) = 8.50462 6.78818 7.69441
#
# Compressibility (1/GPa) = 0.01520005
#
# Stress axis : x y z
#
# Youngs Moduli (GPa) = 84.94615 82.67776 85.32383
#
# Poissons Ratio (x) = 0.23453 0.28351
# Poissons Ratio (y) = 0.24097 0.34421
# Poissons Ratio (z) = 0.28226 0.33353
#
# Static dielectric constant tensor:
#      x y z
#    x 5.211550 0.000000 0.159300 
#    y 0.000000 4.161060 0.000000 
#    z 0.159300 0.000000 4.250500 
# 
# 
# High freq. dielectric constant tensor:
#      x y z
#    x 1.857290 0.000000 -0.003340 
#    y 0.000000 1.843810 0.000000 
#    z -0.003340 0.000000 1.844030 
# 
# From -- ./inp_files/92264.got.cif
#   From: 2010.06.25/outbox.cif.g09.slc.cpg/sg13_47_cif.got.tgz:92264.got - 2010.06.28 04:50:58.
