data_PCOD8122886
_publ_section_title
;
Structure prediction by ZEFSAII (Michael W. Deem and Ramdas Pophale) SiO2 
 PCOD8122886
Probable space group: P 2/C
;
_chemical_formula_sum "Si O2"
_cell_formula_units_Z 12
_cell_length_a 10.226806
_cell_length_b 7.075595
_cell_length_c 17.530894
_cell_angle_alpha 90.000000
_cell_angle_beta 159.769342
_cell_angle_gamma 90.000000
_cell_volume 438.664450
_symmetry_space_group_name_H-M "P 2/C"
_symmetry_group_IT_number 13
_symmetry_cell_setting 'monoclinic'
loop_
_space_group_symop_operation_xyz
x,y,z
-x,y,1/2-z
-x,-y,-z
x,-y,1/2+z
loop_
_atom_site_type_symbol
_atom_site_label
_atom_site_fract_x
_atom_site_fract_y
_atom_site_fract_z
Si Si1 0.109121 0.981245 0.646686
Si Si2 0.596977 0.286277 0.965354
Si Si3 0.624646 0.293228 0.495400
O O1 0.535511 0.880215 0.887516
O O2 0.859918 0.824244 0.551047
O O3 0.172627 0.189020 0.720104
O O4 0.000000 0.000000 0.500000
O O5 0.578360 0.504686 0.928898
O O6 0.695930 0.277216 0.110605
O O7 0.000000 0.273669 0.750000
#
# Coordination Sequence:
#
# PCOD8122886 Si02
#       3
#     4   4   4
#     4  12  26  46  74 109 150 191 234 299 372 434
#     4  11  24  45  74 106 143 193 246 297 354 426
#     4  11  24  46  75 105 141 191 249 301 352 423
#
# _framework density 27.355764000000001
#
# number of rings (size 3 to 8) (size 9 to 14) (size 15 to 20)
#    0.000    0.667    0.000    9.000    0.000    2.667 
#    0.000    6.667    0.000    0.000    0.000    0.000 
#    0.000    0.000    0.000    0.000    0.000    0.000 
#
# Total GULP energy -148732.990155 kJ/mol
# GULP energy per Si atom -12394.415846 kJ/mol
# Density = 2.729350 g / cm^3
# Si number density = 27.355764 Si / 1000 Ang^3
#
#
#
# Elastic Constant Matrix: (Units=GPa)
#
#
# Indices 1 2 3 4 5 6 
#
# 1 113.9546 68.2406 53.8944 0.0000 -35.9314 0.0000
# 2 68.2406 242.4501 101.9602 0.0000 -52.7897 0.0000
# 3 53.8944 101.9602 142.4463 0.0000 -30.4779 0.0000
# 4 0.0000 0.0000 0.0000 23.2225 0.0000 5.4490
# 5 -35.9314 -52.7897 -30.4779 0.0000 49.8068 0.0000
# 6 0.0000 0.0000 0.0000 5.4490 0.0000 41.7325
#
#
#
# Elastic Compliance Matrix: (Units=1/GPa)
#
#
# Indices 1 2 3 4 5 6 
#
# 1 0.012691 -0.001051 -0.002679 0.000000 0.006401 0.000000
# 2 -0.001051 0.006876 -0.003598 0.000000 0.004327 0.000000
# 3 -0.002679 -0.003598 0.010793 0.000000 0.000858 0.000000
# 4 0.000000 0.000000 0.000000 0.044423 0.000000 -0.005800
# 5 0.006401 0.004327 0.000858 0.000000 0.029807 0.000000
# 6 0.000000 0.000000 0.000000 -0.005800 0.000000 0.024719
#
#
# Mechanical properties :
#
#
# Convention : Reuss Voigt Hill
#
# Bulk Modulus (GPa) = 63.68563 105.22682 84.45623
# Shear Modulus (GPa) = 33.51213 41.26942 37.39077
#
# Velocity S-wave (km/s) = 3.50387 3.88831 3.70108
# Velocity P-wave (km/s) = 6.30083 7.66212 7.01458
#
# Compressibility (1/GPa) = 0.01570213
#
# Stress axis : x y z
#
# Youngs Moduli (GPa) = 78.79830 145.43858 92.65469
#
# Poissons Ratio (x) = 0.15291 0.24825
# Poissons Ratio (y) = 0.08285 0.33336
# Poissons Ratio (z) = 0.21112 0.52326
#
# Static dielectric constant tensor:
#      x y z
#    x 6.399170 0.000000 2.278900 
#    y 0.000000 5.350460 0.000000 
#    z 2.278900 0.000000 7.845960 
# 
# 
# High freq. dielectric constant tensor:
#      x y z
#    x 2.123800 0.000000 0.065280 
#    y 0.000000 2.119400 0.000000 
#    z 0.065280 0.000000 2.130740 
# 
# From -- ./inp_files/65813.got.cif
#   From: 2010.06.25/outbox.cif.g09.slc.cpg/sg13_33_cif.got.tgz:65813.got - 2010.06.28 04:50:58.
