data_PCOD8122336
_publ_section_title
;
Structure prediction by ZEFSAII (Michael W. Deem and Ramdas Pophale) SiO2 
 PCOD8122336
Probable space group: P 2/C
;
_chemical_formula_sum "Si O2"
_cell_formula_units_Z 30
_cell_length_a 23.622659
_cell_length_b 6.277061
_cell_length_c 20.343171
_cell_angle_alpha 90.000000
_cell_angle_beta 151.333426
_cell_angle_gamma 90.000000
_cell_volume 1447.051825
_symmetry_space_group_name_H-M "P 2/C"
_symmetry_group_IT_number 13
_symmetry_cell_setting 'monoclinic'
loop_
_space_group_symop_operation_xyz
x,y,z
-x,y,1/2-z
-x,-y,-z
x,-y,1/2+z
loop_
_atom_site_type_symbol
_atom_site_label
_atom_site_fract_x
_atom_site_fract_y
_atom_site_fract_z
Si Si1 0.879967 0.151705 0.155596
Si Si2 0.209474 0.539362 0.639365
Si Si3 0.311636 0.815927 0.504321
Si Si4 0.233063 0.697727 0.289958
Si Si5 0.128705 0.904208 0.631967
Si Si6 0.306607 0.429406 0.602577
Si Si7 0.048065 0.415827 0.151175
Si Si8 0.500000 0.871409 0.250000
O O1 0.923238 0.343065 0.246478
O O2 0.000000 0.046627 0.250000
O O3 0.803233 0.273251 0.022779
O O4 0.808007 0.957150 0.114580
O O5 0.273192 0.460641 0.771690
O O6 0.169502 0.786753 0.606009
O O7 0.296102 0.519249 0.665775
O O8 0.090093 0.400755 0.506580
O O9 0.323244 0.706876 0.443823
O O10 0.312574 0.630224 0.559591
O O11 0.420705 0.976776 0.623661
O O12 0.103384 0.646728 0.189953
O O13 0.228111 0.925429 0.250050
O O14 0.129550 0.731260 0.689545
O O15 0.000000 0.000000 0.500000
O O16 0.423329 0.284832 0.717828
#
# Coordination Sequence:
#
# PCOD8122336 Si02
#       8
#     4   4   4   4   4   4   4   2
#     4  11  22  34  60  98 135 167 214 256 309 386
#     4  11  23  34  60  95 133 176 207 249 313 377
#     4  11  24  42  68  91 119 170 216 266 326 386
#     4  11  21  36  59  91 132 170 208 251 309 382
#     4  11  19  32  54  86 133 179 207 233 287 384
#     4  11  24  44  65  89 128 164 217 276 325 373
#     4  11  19  33  53  92 133 176 205 236 304 380
#     4  10  26  48  70  88 110 164 228 280 330 378
#
# _framework density 20.731807
#
# number of rings (size 3 to 8) (size 9 to 14) (size 15 to 20)
#    0.000    1.067    6.667    1.200    0.000    4.800 
#    0.000    0.667    0.000    4.000    0.000    0.000 
#    0.000    0.000    0.000    0.000    0.000    0.000 
#
# Total GULP energy -371781.590616 kJ/mol
# GULP energy per Si atom -12392.719687 kJ/mol
# Density = 2.068462 g / cm^3
# Si number density = 20.731807 Si / 1000 Ang^3
#
#
#
# Elastic Constant Matrix: (Units=GPa)
#
#
# Indices 1 2 3 4 5 6 
#
# 1 119.5759 45.4055 65.1754 0.0000 -21.4754 0.0000
# 2 45.4055 99.9769 40.6144 0.0000 -6.4963 0.0000
# 3 65.1754 40.6144 88.6915 0.0000 -3.1160 0.0000
# 4 0.0000 0.0000 0.0000 33.3974 0.0000 -7.5741
# 5 -21.4754 -6.4963 -3.1160 0.0000 32.6187 0.0000
# 6 0.0000 0.0000 0.0000 -7.5741 0.0000 27.3602
#
#
#
# Elastic Compliance Matrix: (Units=1/GPa)
#
#
# Indices 1 2 3 4 5 6 
#
# 1 0.017124 -0.002671 -0.011020 0.000000 0.009689 0.000000
# 2 -0.002671 0.012825 -0.003896 0.000000 0.000424 0.000000
# 3 -0.011020 -0.003896 0.020945 0.000000 -0.006030 0.000000
# 4 0.000000 0.000000 0.000000 0.031948 0.000000 0.008844
# 5 0.009689 0.000424 -0.006030 0.000000 0.036545 0.000000
# 6 0.000000 0.000000 0.000000 0.008844 0.000000 0.038998
#
#
# Mechanical properties :
#
#
# Convention : Reuss Voigt Hill
#
# Bulk Modulus (GPa) = 63.60686 67.84833 65.72760
# Shear Modulus (GPa) = 25.15115 29.14519 27.14817
#
# Velocity S-wave (km/s) = 3.48683 3.75349 3.62262
# Velocity P-wave (km/s) = 6.85260 7.18211 7.01929
#
# Compressibility (1/GPa) = 0.01572157
#
# Stress axis : x y z
#
# Youngs Moduli (GPa) = 58.39887 77.97096 47.74346
#
# Poissons Ratio (x) = 0.20822 0.52614
# Poissons Ratio (y) = 0.15595 0.18600
# Poissons Ratio (z) = 0.64356 0.30375
#
# Static dielectric constant tensor:
#      x y z
#    x 3.694700 0.000000 -0.118130 
#    y 0.000000 4.481160 0.000000 
#    z -0.118130 0.000000 3.616590 
# 
# 
# High freq. dielectric constant tensor:
#      x y z
#    x 1.794460 0.000000 -0.019790 
#    y 0.000000 1.826490 0.000000 
#    z -0.019790 0.000000 1.786670 
# 
# From -- ./inp_files/77526.got.cif
#   From: 2010.06.25/outbox.cif.g09.slc.cpg/sg13_39_cif.got.tgz:77526.got - 2010.06.28 04:50:58.
