data_PCOD8122924
_publ_section_title
;
Structure prediction by ZEFSAII (Michael W. Deem and Ramdas Pophale) SiO2 
 PCOD8122924
Probable space group: P 2/C
;
_chemical_formula_sum "Si O2"
_cell_formula_units_Z 16
_cell_length_a 8.461536
_cell_length_b 8.189845
_cell_length_c 15.543831
_cell_angle_alpha 90.000000
_cell_angle_beta 37.886042
_cell_angle_gamma 90.000000
_cell_volume 661.480532
_symmetry_space_group_name_H-M "P 2/C"
_symmetry_group_IT_number 13
_symmetry_cell_setting 'monoclinic'
loop_
_space_group_symop_operation_xyz
x,y,z
-x,y,1/2-z
-x,-y,-z
x,-y,1/2+z
loop_
_atom_site_type_symbol
_atom_site_label
_atom_site_fract_x
_atom_site_fract_y
_atom_site_fract_z
Si Si1 0.500000 0.138042 0.250000
Si Si2 0.773864 0.121989 0.718086
Si Si3 0.371194 0.693324 0.482027
Si Si4 0.000000 0.100390 0.250000
Si Si5 0.288600 0.329238 0.496221
O O1 0.474301 0.251108 0.344993
O O2 0.254748 0.014838 0.344771
O O3 0.506151 0.222347 0.841909
O O4 0.012937 0.243366 0.604626
O O5 0.788098 0.017853 0.800032
O O6 0.125126 0.791342 0.621226
O O7 0.260638 0.522537 0.493841
O O8 0.588958 0.685123 0.462140
#
# Coordination Sequence:
#
# PCOD8122924 Si02
#       5
#     2   4   4   2   4
#     4  12  26  46  68 110 146 180 228 290 362 408
#     4  12  24  46  73 104 141 182 236 288 343 420
#     4  11  25  43  73 105 135 187 241 284 342 419
#     4  12  22  42  74 102 136 182 240 282 338 418
#     4  11  25  44  71 104 144 182 233 291 350 413
#
# _framework density 24.188162999999999
#
# number of rings (size 3 to 8) (size 9 to 14) (size 15 to 20)
#    0.000    0.500    5.000    3.000    7.000    1.000 
#    0.000    3.750    0.000    0.000    0.000    0.000 
#    0.000    0.000    0.000    0.000    0.000    0.000 
#
# Total GULP energy -198323.169282 kJ/mol
# GULP energy per Si atom -12395.198080 kJ/mol
# Density = 2.413311 g / cm^3
# Si number density = 24.188163 Si / 1000 Ang^3
#
#
#
# Elastic Constant Matrix: (Units=GPa)
#
#
# Indices 1 2 3 4 5 6 
#
# 1 41.9155 31.2463 -7.0020 0.0000 -0.3068 0.0000
# 2 31.2463 184.6825 58.1696 0.0000 -3.4372 0.0000
# 3 -7.0020 58.1696 115.2818 0.0000 -7.8864 0.0000
# 4 0.0000 0.0000 0.0000 39.4988 0.0000 -4.1370
# 5 -0.3068 -3.4372 -7.8864 0.0000 28.5688 0.0000
# 6 0.0000 0.0000 0.0000 -4.1370 0.0000 42.3750
#
#
#
# Elastic Compliance Matrix: (Units=1/GPa)
#
#
# Indices 1 2 3 4 5 6 
#
# 1 0.029697 -0.006653 0.005226 0.000000 0.000961 0.000000
# 2 -0.006653 0.007929 -0.004428 0.000000 -0.000340 0.000000
# 3 0.005226 -0.004428 0.011409 0.000000 0.002673 0.000000
# 4 0.000000 0.000000 0.000000 0.025579 0.000000 0.002497
# 5 0.000961 -0.000340 0.002673 0.000000 0.035710 0.000000
# 6 0.000000 0.000000 0.000000 0.002497 0.000000 0.023843
#
#
# Mechanical properties :
#
#
# Convention : Reuss Voigt Hill
#
# Bulk Modulus (GPa) = 26.79105 56.30081 41.54593
# Shear Modulus (GPa) = 31.58221 39.38625 35.48423
#
# Velocity S-wave (km/s) = 3.61735 4.03963 3.83431
# Velocity P-wave (km/s) = 5.34295 6.71453 6.06762
#
# Compressibility (1/GPa) = 0.03732590
#
# Stress axis : x y z
#
# Youngs Moduli (GPa) = 33.67354 126.12542 87.65022
#
# Poissons Ratio (x) = 0.83907 -0.45809
# Poissons Ratio (y) = 0.22402 0.38811
# Poissons Ratio (z) = -0.17599 0.55848
#
# Static dielectric constant tensor:
#      x y z
#    x 4.311440 0.000000 -0.000050 
#    y 0.000000 4.742880 0.000000 
#    z -0.000050 0.000000 3.940590 
# 
# 
# High freq. dielectric constant tensor:
#      x y z
#    x 1.957520 0.000000 -0.001700 
#    y 0.000000 1.983530 0.000000 
#    z -0.001700 0.000000 1.945590 
# 
# From -- ./inp_files/14719.got.cif
#   From: 2010.06.25/outbox.cif.g09.slc.cpg/sg13_8_cif.got.tgz:14719.got - 2010.06.28 04:50:58.
