data_PCOD8122300
_publ_section_title
;
Structure prediction by ZEFSAII (Michael W. Deem and Ramdas Pophale) SiO2 
 PCOD8122300
Probable space group: P 2/C
;
_chemical_formula_sum "Si O2"
_cell_formula_units_Z 22
_cell_length_a 9.358343
_cell_length_b 6.089281
_cell_length_c 21.779838
_cell_angle_alpha 90.000000
_cell_angle_beta 115.447220
_cell_angle_gamma 90.000000
_cell_volume 1120.723461
_symmetry_space_group_name_H-M "P 2/C"
_symmetry_group_IT_number 13
_symmetry_cell_setting 'monoclinic'
loop_
_space_group_symop_operation_xyz
x,y,z
-x,y,1/2-z
-x,-y,-z
x,-y,1/2+z
loop_
_atom_site_type_symbol
_atom_site_label
_atom_site_fract_x
_atom_site_fract_y
_atom_site_fract_z
Si Si1 0.230027 1.000000 0.480027
Si Si2 0.003734 0.301591 0.362366
Si Si3 0.000000 0.000000 0.750000
Si Si4 0.449103 0.624934 0.051899
Si Si5 0.220998 0.698409 0.362366
Si Si6 0.154695 0.375066 0.051899
O O1 0.257070 0.819465 0.432895
O O2 0.161200 0.873686 0.526776
O O3 0.108721 0.180535 0.432895
O O4 0.392353 0.126314 0.526776
O O5 0.100345 0.500000 0.350345
O O6 0.852375 0.377127 0.374507
O O7 0.943681 0.145362 0.296965
O O8 0.849751 0.145362 0.703035
O O9 0.603361 0.622873 0.125493
O O10 0.312634 0.500000 0.062634
O O11 0.500000 0.500000 0.000000
O O12 0.000000 0.500000 0.000000
#
# Coordination Sequence:
#
# PCOD8122300 Si02
#       6
#     4   4   2   4   4   4
#     4  11  20  35  64  95 132 159 196 260 340 379
#     4  11  22  41  63  91 124 166 218 261 310 391
#     4  10  26  40  68  80 116 178 226 260 304 380
#     4  12  22  36  61 101 133 159 201 266 334 392
#     4  11  22  41  63  91 124 166 218 261 310 391
#     4  12  22  36  61 101 133 159 201 266 334 392
#
# _framework density 19.630177
#
# number of rings (size 3 to 8) (size 9 to 14) (size 15 to 20)
#    0.000    0.727    7.273    1.636    0.000    0.000 
#    0.000    0.000    0.000   16.364    0.000    0.000 
#    0.000    0.000    0.000    0.000    0.000    0.000 
#
# Total GULP energy -272740.615474 kJ/mol
# GULP energy per Si atom -12397.300703 kJ/mol
# Density = 1.958550 g / cm^3
# Si number density = 19.630177 Si / 1000 Ang^3
#
#
#
# Elastic Constant Matrix: (Units=GPa)
#
#
# Indices 1 2 3 4 5 6 
#
# 1 151.9036 60.7561 68.5408 0.0000 -2.1526 0.0000
# 2 60.7561 125.6024 52.7902 0.0000 -0.3755 0.0000
# 3 68.5408 52.7902 115.2844 0.0000 0.4266 0.0000
# 4 0.0000 0.0000 0.0000 21.6462 0.0000 -0.9993
# 5 -2.1526 -0.3755 0.4266 0.0000 18.9681 0.0000
# 6 0.0000 0.0000 0.0000 -0.9993 0.0000 42.8479
#
#
#
# Elastic Compliance Matrix: (Units=1/GPa)
#
#
# Indices 1 2 3 4 5 6 
#
# 1 0.009767 -0.002822 -0.004519 0.000000 0.001154 0.000000
# 2 -0.002822 0.010676 -0.003211 0.000000 -0.000037 0.000000
# 3 -0.004519 -0.003211 0.012834 0.000000 -0.000865 0.000000
# 4 0.000000 0.000000 0.000000 0.046247 0.000000 0.001079
# 5 0.001154 -0.000037 -0.000865 0.000000 0.052870 0.000000
# 6 0.000000 0.000000 0.000000 0.001079 0.000000 0.023363
#
#
# Mechanical properties :
#
#
# Convention : Reuss Voigt Hill
#
# Bulk Modulus (GPa) = 82.14129 84.10717 83.12423
# Shear Modulus (GPa) = 27.63656 30.73933 29.18795
#
# Velocity S-wave (km/s) = 3.75622 3.96147 3.86021
# Velocity P-wave (km/s) = 7.79407 7.99144 7.89337
#
# Compressibility (1/GPa) = 0.01217415
#
# Stress axis : x y z
#
# Youngs Moduli (GPa) = 102.38411 93.66826 77.91512
#
# Poissons Ratio (x) = 0.26431 0.35211
# Poissons Ratio (y) = 0.28890 0.25018
# Poissons Ratio (z) = 0.46268 0.30076
#
# Static dielectric constant tensor:
#      x y z
#    x 4.977210 0.000000 -0.069590 
#    y 0.000000 3.985430 0.000000 
#    z -0.069590 0.000000 3.500830 
# 
# 
# High freq. dielectric constant tensor:
#      x y z
#    x 1.764400 0.000000 -0.001320 
#    y 0.000000 1.787200 0.000000 
#    z -0.001320 0.000000 1.736350 
# 
# From -- ./inp_files/74653.got.cif
#   From: 2010.06.25/outbox.cif.g09.slc.cpg/sg13_38_cif.got.tgz:74653.got - 2010.06.28 04:50:58.
