data_PCOD8122154
_publ_section_title
;
Structure prediction by ZEFSAII (Michael W. Deem and Ramdas Pophale) SiO2 
 PCOD8122154
Probable space group: P 2/C
;
_chemical_formula_sum "Si O2"
_cell_formula_units_Z 24
_cell_length_a 8.402243
_cell_length_b 14.329802
_cell_length_c 9.250348
_cell_angle_alpha 90.000000
_cell_angle_beta 85.900605
_cell_angle_gamma 90.000000
_cell_volume 1110.915301
_symmetry_space_group_name_H-M "P 2/C"
_symmetry_group_IT_number 13
_symmetry_cell_setting 'monoclinic'
loop_
_space_group_symop_operation_xyz
x,y,z
-x,y,1/2-z
-x,-y,-z
x,-y,1/2+z
loop_
_atom_site_type_symbol
_atom_site_label
_atom_site_fract_x
_atom_site_fract_y
_atom_site_fract_z
Si Si1 0.675406 0.605155 0.403683
Si Si2 0.679768 0.108376 0.287463
Si Si3 0.102640 0.222171 0.603559
Si Si4 0.691673 0.421701 0.575534
Si Si5 0.820421 0.968888 0.491917
Si Si6 0.118691 0.724726 0.623241
O O1 0.764008 0.700188 0.439706
O O2 0.717388 0.525878 0.516447
O O3 0.485855 0.620069 0.426205
O O4 0.735670 0.574554 0.241319
O O5 0.500000 0.121917 0.250000
O O6 0.748897 0.211909 0.307683
O O7 0.704513 0.047615 0.431539
O O8 0.767650 0.053462 0.156360
O O9 0.190307 0.122394 0.611986
O O10 0.000000 0.248818 0.750000
O O11 0.984293 0.210252 0.476061
O O12 0.807398 0.357042 0.476503
O O13 0.000000 0.000000 0.500000
O O14 0.000000 0.680246 0.750000
#
# Coordination Sequence:
#
# PCOD8122154 Si02
#       6
#     4   4   4   4   4   4
#     4  10  24  45  68 100 135 184 227 280 347 406
#     4  12  27  46  68 103 136 178 233 280 343 407
#     4  12  24  43  69 101 137 181 229 277 343 411
#     4  10  24  45  68  98 140 179 228 284 343 409
#     4  12  24  47  71  98 138 184 224 285 342 408
#     4  12  25  44  68 102 136 182 229 282 343 408
#
# _framework density 21.603808000000001
#
# number of rings (size 3 to 8) (size 9 to 14) (size 15 to 20)
#    0.000    0.667    5.000    2.000    4.667    1.333 
#    6.000    0.000    0.000    0.000    0.000    0.000 
#    0.000    0.000    0.000    0.000    0.000    0.000 
#
# Total GULP energy -297642.323590 kJ/mol
# GULP energy per Si atom -12401.763483 kJ/mol
# Density = 2.155464 g / cm^3
# Si number density = 21.603808 Si / 1000 Ang^3
#
#
#
# Elastic Constant Matrix: (Units=GPa)
#
#
# Indices 1 2 3 4 5 6 
#
# 1 92.4716 42.2805 33.3285 0.0000 5.2077 0.0000
# 2 42.2805 104.7216 16.9013 0.0000 -2.7645 0.0000
# 3 33.3285 16.9013 102.5293 0.0000 -9.1111 0.0000
# 4 0.0000 0.0000 0.0000 39.9038 0.0000 -0.1735
# 5 5.2077 -2.7645 -9.1111 0.0000 41.9623 0.0000
# 6 0.0000 0.0000 0.0000 -0.1735 0.0000 28.5179
#
#
#
# Elastic Compliance Matrix: (Units=1/GPa)
#
#
# Indices 1 2 3 4 5 6 
#
# 1 0.015025 -0.005461 -0.004264 0.000000 -0.003150 0.000000
# 2 -0.005461 0.011799 -0.000041 0.000000 0.001446 0.000000
# 3 -0.004264 -0.000041 0.011413 0.000000 0.003005 0.000000
# 4 0.000000 0.000000 0.000000 0.025061 0.000000 0.000152
# 5 -0.003150 0.001446 0.003005 0.000000 0.024970 0.000000
# 6 0.000000 0.000000 0.000000 0.000152 0.000000 0.035067
#
#
# Mechanical properties :
#
#
# Convention : Reuss Voigt Hill
#
# Bulk Modulus (GPa) = 53.46281 53.86033 53.66157
# Shear Modulus (GPa) = 33.53402 35.89095 34.71249
#
# Velocity S-wave (km/s) = 3.94411 4.08036 4.01281
# Velocity P-wave (km/s) = 6.74848 6.86907 6.80904
#
# Compressibility (1/GPa) = 0.01870459
#
# Stress axis : x y z
#
# Youngs Moduli (GPa) = 66.55392 84.75335 87.61847
#
# Poissons Ratio (x) = 0.46287 0.37359
# Poissons Ratio (y) = 0.36348 0.00361
# Poissons Ratio (z) = 0.28378 0.00349
#
# Static dielectric constant tensor:
#      x y z
#    x 3.772640 0.000000 0.124940 
#    y 0.000000 3.815640 0.000000 
#    z 0.124940 0.000000 3.919470 
# 
# 
# High freq. dielectric constant tensor:
#      x y z
#    x 1.847420 0.000000 -0.004920 
#    y 0.000000 1.850510 0.000000 
#    z -0.004920 0.000000 1.864120 
# 
# From -- ./inp_files/12506.got.cif
#   From: 2010.06.25/outbox.cif.g09.slc.cpg/sg13_7_cif.got.tgz:12506.got - 2010.06.28 04:50:58.
