data_PCOD8122469
_publ_section_title
;
Structure prediction by ZEFSAII (Michael W. Deem and Ramdas Pophale) SiO2 
 PCOD8122469
Probable space group: P 2/C
;
_chemical_formula_sum "Si O2"
_cell_formula_units_Z 24
_cell_length_a 18.137895
_cell_length_b 8.686850
_cell_length_c 23.458349
_cell_angle_alpha 90.000000
_cell_angle_beta 160.919218
_cell_angle_gamma 90.000000
_cell_volume 1208.266690
_symmetry_space_group_name_H-M "P 2/C"
_symmetry_group_IT_number 13
_symmetry_cell_setting 'monoclinic'
loop_
_space_group_symop_operation_xyz
x,y,z
-x,y,1/2-z
-x,-y,-z
x,-y,1/2+z
loop_
_atom_site_type_symbol
_atom_site_label
_atom_site_fract_x
_atom_site_fract_y
_atom_site_fract_z
Si Si1 0.563302 0.775850 0.949177
Si Si2 0.141050 0.897484 0.030797
Si Si3 0.184697 0.320116 0.759052
Si Si4 0.885468 0.400664 0.366453
Si Si5 0.313471 0.065971 0.774477
Si Si6 0.725069 0.840830 0.944722
O O1 0.332439 0.684754 0.766166
O O2 0.709888 0.810292 0.000602
O O3 0.500957 0.942199 0.930657
O O4 0.717176 0.682637 0.105596
O O5 0.332586 0.904302 0.220266
O O6 0.240628 0.976164 0.045805
O O7 0.061075 0.720779 0.966906
O O8 0.935121 0.004883 0.896882
O O9 0.192270 0.494517 0.742886
O O10 0.345846 0.220800 0.834718
O O11 0.929885 0.260247 0.570484
O O12 0.000000 0.500000 0.500000
O O13 0.500000 0.778571 0.750000
#
# Coordination Sequence:
#
# PCOD8122469 Si02
#       6
#     4   4   4   4   4   4
#     4  11  22  37  60  89 121 161 203 254 309 361
#     4   9  18  34  58  86 112 149 203 252 284 354
#     4  11  22  37  59  91 126 157 197 254 316 370
#     4  11  21  38  62  88 121 164 205 248 305 376
#     4   9  17  34  59  84 112 150 205 249 289 345
#     4  11  21  38  61  84 115 159 205 252 300 361
#
# _framework density 19.863164999999999
#
# number of rings (size 3 to 8) (size 9 to 14) (size 15 to 20)
#    0.000    1.667    3.333    2.500    0.000    0.000 
#    0.000    4.167    0.000    6.000    0.000    0.000 
#    0.000    0.000    0.000    0.000    0.000    0.000 
#
# Total GULP energy -297487.252344 kJ/mol
# GULP energy per Si atom -12395.302181 kJ/mol
# Density = 1.981796 g / cm^3
# Si number density = 19.863165 Si / 1000 Ang^3
#
#
#
# Elastic Constant Matrix: (Units=GPa)
#
#
# Indices 1 2 3 4 5 6 
#
# 1 117.8094 47.7141 18.8873 0.0000 -11.6160 0.0000
# 2 47.7141 113.3519 20.1174 0.0000 -2.2417 0.0000
# 3 18.8873 20.1174 59.0598 0.0000 -6.9811 0.0000
# 4 0.0000 0.0000 0.0000 27.8846 0.0000 -6.7053
# 5 -11.6160 -2.2417 -6.9811 0.0000 33.0986 0.0000
# 6 0.0000 0.0000 0.0000 -6.7053 0.0000 32.5603
#
#
#
# Elastic Compliance Matrix: (Units=1/GPa)
#
#
# Indices 1 2 3 4 5 6 
#
# 1 0.010752 -0.004171 -0.001646 0.000000 0.003144 0.000000
# 2 -0.004171 0.011008 -0.002565 0.000000 -0.001259 0.000000
# 3 -0.001646 -0.002565 0.018710 0.000000 0.003195 0.000000
# 4 0.000000 0.000000 0.000000 0.037731 0.000000 0.007770
# 5 0.003144 -0.001259 0.003195 0.000000 0.031905 0.000000
# 6 0.000000 0.000000 0.000000 0.007770 0.000000 0.032312
#
#
# Mechanical properties :
#
#
# Convention : Reuss Voigt Hill
#
# Bulk Modulus (GPa) = 42.18402 51.51763 46.85082
# Shear Modulus (GPa) = 29.92532 32.27551 31.10042
#
# Velocity S-wave (km/s) = 3.88567 4.03537 3.96123
# Velocity P-wave (km/s) = 6.43542 6.90687 6.67531
#
# Compressibility (1/GPa) = 0.02370566
#
# Stress axis : x y z
#
# Youngs Moduli (GPa) = 93.00930 90.84088 53.44870
#
# Poissons Ratio (x) = 0.37894 0.08797
# Poissons Ratio (y) = 0.38799 0.13707
# Poissons Ratio (z) = 0.15308 0.23296
#
# Static dielectric constant tensor:
#      x y z
#    x 3.630580 0.000000 0.022910 
#    y 0.000000 3.691270 0.000000 
#    z 0.022910 0.000000 3.481960 
# 
# 
# High freq. dielectric constant tensor:
#      x y z
#    x 1.764550 0.000000 -0.006480 
#    y 0.000000 1.766630 0.000000 
#    z -0.006480 0.000000 1.767750 
# 
# From -- ./inp_files/63378.got.cif
#   From: 2010.06.25/outbox.cif.g09.slc.cpg/sg13_32_cif.got.tgz:63378.got - 2010.06.28 04:50:58.
