data_PCOD8122674
_publ_section_title
;
Structure prediction by ZEFSAII (Michael W. Deem and Ramdas Pophale) SiO2 
 PCOD8122674
Probable space group: P 2/C
;
_chemical_formula_sum "Si O2"
_cell_formula_units_Z 24
_cell_length_a 12.180993
_cell_length_b 13.185471
_cell_length_c 18.994474
_cell_angle_alpha 90.000000
_cell_angle_beta 158.665954
_cell_angle_gamma 90.000000
_cell_volume 1109.874893
_symmetry_space_group_name_H-M "P 2/C"
_symmetry_group_IT_number 13
_symmetry_cell_setting 'monoclinic'
loop_
_space_group_symop_operation_xyz
x,y,z
-x,y,1/2-z
-x,-y,-z
x,-y,1/2+z
loop_
_atom_site_type_symbol
_atom_site_label
_atom_site_fract_x
_atom_site_fract_y
_atom_site_fract_z
Si Si1 0.479786 0.653151 0.850163
Si Si2 0.972231 0.705761 0.042615
Si Si3 0.173151 0.057524 0.426635
Si Si4 0.527807 0.430235 0.848120
Si Si5 0.974694 0.275313 0.318420
Si Si6 0.874240 0.065952 0.861260
O O1 0.219889 0.665405 0.637057
O O2 0.548656 0.534456 0.904356
O O3 0.365823 0.705939 0.854947
O O4 0.784752 0.705913 0.003796
O O5 0.257432 0.632939 0.220683
O O6 0.086008 0.817864 0.094193
O O7 0.090872 0.165365 0.414018
O O8 0.530548 0.045212 0.634276
O O9 0.000000 0.050299 0.250000
O O10 0.069893 0.962484 0.410701
O O11 0.500000 0.459751 0.750000
O O12 0.831049 0.365690 0.033513
O O13 0.000000 0.280184 0.250000
O O14 0.000000 0.000000 0.000000
#
# Coordination Sequence:
#
# PCOD8122674 Si02
#       6
#     4   4   4   4   4   4
#     4  11  23  39  67 100 135 173 219 283 335 402
#     4  11  23  39  64 106 130 164 224 285 333 386
#     4  11  26  48  69  95 137 186 222 270 349 418
#     4  12  21  42  70  97 130 178 229 269 335 400
#     4  11  25  44  67  94 137 180 223 271 337 407
#     4  12  26  42  70 105 133 169 229 291 337 398
#
# _framework density 21.624058000000002
#
# number of rings (size 3 to 8) (size 9 to 14) (size 15 to 20)
#    0.000    0.667    5.000    3.500    7.000    0.667 
#    0.000    0.833    0.000    0.000    0.000    0.000 
#    0.000    0.000    0.000    0.000    0.000    0.000 
#
# Total GULP energy -297640.292751 kJ/mol
# GULP energy per Si atom -12401.678865 kJ/mol
# Density = 2.157484 g / cm^3
# Si number density = 21.624058 Si / 1000 Ang^3
#
#
#
# Elastic Constant Matrix: (Units=GPa)
#
#
# Indices 1 2 3 4 5 6 
#
# 1 103.1593 14.1504 23.7288 0.0000 24.7047 0.0000
# 2 14.1504 75.4446 17.7120 0.0000 -3.5298 0.0000
# 3 23.7288 17.7120 95.2110 0.0000 13.0356 0.0000
# 4 0.0000 0.0000 0.0000 32.4947 0.0000 12.1645
# 5 24.7047 -3.5298 13.0356 0.0000 40.4386 0.0000
# 6 0.0000 0.0000 0.0000 12.1645 0.0000 32.1716
#
#
#
# Elastic Compliance Matrix: (Units=1/GPa)
#
#
# Indices 1 2 3 4 5 6 
#
# 1 0.012056 -0.002207 -0.001631 0.000000 -0.007032 0.000000
# 2 -0.002207 0.014443 -0.002609 0.000000 0.003450 0.000000
# 3 -0.001631 -0.002609 0.011811 0.000000 -0.003039 0.000000
# 4 0.000000 0.000000 0.000000 0.035849 0.000000 -0.013555
# 5 -0.007032 0.003450 -0.003039 0.000000 0.030305 0.000000
# 6 0.000000 0.000000 0.000000 -0.013555 0.000000 0.036209
#
#
# Mechanical properties :
#
#
# Convention : Reuss Voigt Hill
#
# Bulk Modulus (GPa) = 39.34779 42.77748 41.06264
# Shear Modulus (GPa) = 30.85693 35.56922 33.21307
#
# Velocity S-wave (km/s) = 3.78163 4.06013 3.92335
# Velocity P-wave (km/s) = 6.10765 6.46566 6.28920
#
# Compressibility (1/GPa) = 0.02541439
#
# Stress axis : x y z
#
# Youngs Moduli (GPa) = 82.94820 69.23919 84.66764
#
# Poissons Ratio (x) = 0.15283 0.13811
# Poissons Ratio (y) = 0.18308 0.22090
# Poissons Ratio (z) = 0.13531 0.18065
#
# Static dielectric constant tensor:
#      x y z
#    x 4.226850 0.000000 0.249650 
#    y 0.000000 4.264190 0.000000 
#    z 0.249650 0.000000 3.985920 
# 
# 
# High freq. dielectric constant tensor:
#      x y z
#    x 1.844360 0.000000 0.025840 
#    y 0.000000 1.865610 0.000000 
#    z 0.025840 0.000000 1.844340 
# 
# From -- ./inp_files/78729.got.cif
#   From: 2010.06.25/outbox.cif.g09.slc.cpg/sg13_40_cif.got.tgz:78729.got - 2010.06.28 04:50:58.
