data_PCOD8122533
_publ_section_title
;
Structure prediction by ZEFSAII (Michael W. Deem and Ramdas Pophale) SiO2 
 PCOD8122533
Probable space group: P 2/C
;
_chemical_formula_sum "Si O2"
_cell_formula_units_Z 24
_cell_length_a 9.787355
_cell_length_b 8.573301
_cell_length_c 14.698539
_cell_angle_alpha 90.000000
_cell_angle_beta 88.440668
_cell_angle_gamma 90.000000
_cell_volume 1232.896798
_symmetry_space_group_name_H-M "P 2/C"
_symmetry_group_IT_number 13
_symmetry_cell_setting 'monoclinic'
loop_
_space_group_symop_operation_xyz
x,y,z
-x,y,1/2-z
-x,-y,-z
x,-y,1/2+z
loop_
_atom_site_type_symbol
_atom_site_label
_atom_site_fract_x
_atom_site_fract_y
_atom_site_fract_z
Si Si1 0.249187 0.183109 0.148140
Si Si2 0.500000 0.691908 0.750000
Si Si3 0.652638 0.939782 0.494709
Si Si4 0.100624 0.072838 0.923965
Si Si5 0.000000 0.931990 0.750000
Si Si6 0.138139 0.600100 0.493249
Si Si7 0.609961 0.407960 0.057245
O O1 0.383936 0.204305 0.205512
O O2 0.124090 0.177872 0.219434
O O3 0.209628 0.329372 0.083623
O O4 0.271236 0.018055 0.094336
O O5 0.437956 0.596442 0.836376
O O6 0.640595 0.753736 0.503171
O O7 0.500000 0.000000 0.500000
O O8 0.746455 0.999408 0.576152
O O9 0.101519 0.257051 0.930354
O O10 0.041185 0.046972 0.827586
O O11 0.000000 0.000000 0.000000
O O12 0.247656 0.495580 0.440267
O O13 0.000000 0.500000 0.500000
O O14 0.500000 0.500000 0.000000
#
# Coordination Sequence:
#
# PCOD8122533 Si02
#       7
#     4   2   4   4   2   4   4
#     4  11  25  44  72 101 130 183 234 276 340 405
#     4  12  24  46  68 106 134 182 232 274 348 408
#     4  11  21  43  73  93 127 177 227 276 335 404
#     4  11  22  45  66  98 131 175 230 274 331 408
#     4  12  24  42  72  98 134 174 236 290 320 402
#     4  11  24  44  69  96 136 182 219 278 350 400
#     4  12  24  45  69  97 143 177 220 286 341 408
#
# _framework density 19.466349999999998
#
# number of rings (size 3 to 8) (size 9 to 14) (size 15 to 20)
#    0.000    0.667    6.667    3.000    2.333    0.000 
#    6.000    0.000    0.000    0.000    0.000    0.000 
#    0.000    0.000    0.000    0.000    0.000    0.000 
#
# Total GULP energy -297319.631552 kJ/mol
# GULP energy per Si atom -12388.317981 kJ/mol
# Density = 1.942204 g / cm^3
# Si number density = 19.466350 Si / 1000 Ang^3
#
#
#
# Elastic Constant Matrix: (Units=GPa)
#
#
# Indices 1 2 3 4 5 6 
#
# 1 169.2507 68.8353 65.8731 0.0000 -0.6203 0.0000
# 2 68.8353 148.2681 55.5573 0.0000 -4.8225 0.0000
# 3 65.8731 55.5573 143.5813 0.0000 6.9334 0.0000
# 4 0.0000 0.0000 0.0000 21.4571 0.0000 -0.6598
# 5 -0.6203 -4.8225 6.9334 0.0000 47.7547 0.0000
# 6 0.0000 0.0000 0.0000 -0.6598 0.0000 47.0554
#
#
#
# Elastic Compliance Matrix: (Units=1/GPa)
#
#
# Indices 1 2 3 4 5 6 
#
# 1 0.008053 -0.002741 -0.002644 0.000000 0.000212 0.000000
# 2 -0.002741 0.008896 -0.002242 0.000000 0.001188 0.000000
# 3 -0.002644 -0.002242 0.009122 0.000000 -0.001585 0.000000
# 4 0.000000 0.000000 0.000000 0.046625 0.000000 0.000654
# 5 0.000212 0.001188 -0.001585 0.000000 0.021293 0.000000
# 6 0.000000 0.000000 0.000000 0.000654 0.000000 0.021261
#
#
# Mechanical properties :
#
#
# Convention : Reuss Voigt Hill
#
# Bulk Modulus (GPa) = 92.45317 93.51461 92.98389
# Shear Modulus (GPa) = 37.28293 41.30906 39.29599
#
# Velocity S-wave (km/s) = 4.38111 4.61160 4.49783
# Velocity P-wave (km/s) = 8.55506 8.74638 8.65125
#
# Compressibility (1/GPa) = 0.01081629
#
# Stress axis : x y z
#
# Youngs Moduli (GPa) = 124.17520 112.41211 109.62619
#
# Poissons Ratio (x) = 0.30813 0.28988
# Poissons Ratio (y) = 0.34037 0.24578
# Poissons Ratio (z) = 0.32835 0.25203
#
# Static dielectric constant tensor:
#      x y z
#    x 4.225070 0.000000 -0.251110 
#    y 0.000000 3.691610 0.000000 
#    z -0.251110 0.000000 4.634990 
# 
# 
# High freq. dielectric constant tensor:
#      x y z
#    x 1.795620 0.000000 0.008060 
#    y 0.000000 1.753430 0.000000 
#    z 0.008060 0.000000 1.751870 
# 
# From -- ./inp_files/46150.got.cif
#   From: 2010.06.25/outbox.cif.g09.slc.cpg/sg13_24_cif.got.tgz:46150.got - 2010.06.28 04:50:58.
