data_PCOD8122356
_publ_section_title
;
Structure prediction by ZEFSAII (Michael W. Deem and Ramdas Pophale) SiO2 
 PCOD8122356
Probable space group: P 2/C
;
_chemical_formula_sum "Si O2"
_cell_formula_units_Z 16
_cell_length_a 8.263865
_cell_length_b 10.198070
_cell_length_c 7.942753
_cell_angle_alpha 90.000000
_cell_angle_beta 81.741167
_cell_angle_gamma 90.000000
_cell_volume 662.437309
_symmetry_space_group_name_H-M "P 2/C"
_symmetry_group_IT_number 13
_symmetry_cell_setting 'monoclinic'
loop_
_space_group_symop_operation_xyz
x,y,z
-x,y,1/2-z
-x,-y,-z
x,-y,1/2+z
loop_
_atom_site_type_symbol
_atom_site_label
_atom_site_fract_x
_atom_site_fract_y
_atom_site_fract_z
Si Si1 0.148537 0.897500 0.959226
Si Si2 0.311278 0.127606 0.784556
Si Si3 0.000000 0.319263 0.250000
Si Si4 0.713876 0.368629 0.502497
Si Si5 0.500000 0.450420 0.250000
O O1 0.110633 0.771507 0.853461
O O2 0.293210 0.977624 0.845521
O O3 0.214040 0.846216 0.127327
O O4 0.000000 0.000000 0.000000
O O5 0.500000 0.165867 0.750000
O O6 0.236939 0.225789 0.934692
O O7 0.879875 0.412290 0.379243
O O8 0.563415 0.360390 0.392596
O O9 0.655514 0.463287 0.662320
#
# Coordination Sequence:
#
# PCOD8122356 Si02
#       5
#     4   4   2   4   2
#     4  12  23  43  66 108 153 179 227 281 347 440
#     4  12  24  42  70 106 143 194 228 281 351 427
#     4  12  26  42  74 106 140 190 222 288 358 428
#     4  11  25  46  74 100 135 188 235 297 354 405
#     4  10  26  52  70  98 142 178 250 306 340 404
#
# _framework density 24.153231000000002
#
# number of rings (size 3 to 8) (size 9 to 14) (size 15 to 20)
#    0.000    0.500    6.250    0.750    3.500    1.000 
#    2.250    0.000    0.000    0.000    0.000    0.000 
#    0.000    0.000    0.000    0.000    0.000    0.000 
#
# Total GULP energy -198400.087061 kJ/mol
# GULP energy per Si atom -12400.005441 kJ/mol
# Density = 2.409826 g / cm^3
# Si number density = 24.153231 Si / 1000 Ang^3
#
#
#
# Elastic Constant Matrix: (Units=GPa)
#
#
# Indices 1 2 3 4 5 6 
#
# 1 110.4261 24.2107 58.9693 0.0000 -9.5020 0.0000
# 2 24.2107 59.9247 47.9183 0.0000 10.8606 0.0000
# 3 58.9693 47.9183 153.1464 0.0000 15.2299 0.0000
# 4 0.0000 0.0000 0.0000 20.1056 0.0000 3.3826
# 5 -9.5020 10.8606 15.2299 0.0000 68.6033 0.0000
# 6 0.0000 0.0000 0.0000 3.3826 0.0000 35.3213
#
#
#
# Elastic Compliance Matrix: (Units=1/GPa)
#
#
# Indices 1 2 3 4 5 6 
#
# 1 0.012041 -0.001942 -0.004321 0.000000 0.002934 0.000000
# 2 -0.001942 0.022847 -0.006150 0.000000 -0.002520 0.000000
# 3 -0.004321 -0.006150 0.010308 0.000000 -0.001913 0.000000
# 4 0.000000 0.000000 0.000000 0.050552 0.000000 -0.004841
# 5 0.002934 -0.002520 -0.001913 0.000000 0.015807 0.000000
# 6 0.000000 0.000000 0.000000 -0.004841 0.000000 0.028775
#
#
# Mechanical properties :
#
#
# Convention : Reuss Voigt Hill
#
# Bulk Modulus (GPa) = 49.08992 65.07710 57.08351
# Shear Modulus (GPa) = 29.07882 37.63262 33.35572
#
# Velocity S-wave (km/s) = 3.47353 3.95153 3.72022
# Velocity P-wave (km/s) = 6.03786 6.91530 6.49142
#
# Compressibility (1/GPa) = 0.02037078
#
# Stress axis : x y z
#
# Youngs Moduli (GPa) = 83.04643 43.76951 97.01079
#
# Poissons Ratio (x) = 0.08498 0.41917
# Poissons Ratio (y) = 0.16125 0.59665
# Poissons Ratio (z) = 0.35883 0.26920
#
# Static dielectric constant tensor:
#      x y z
#    x 4.424150 0.000000 -0.155180 
#    y 0.000000 4.000840 0.000000 
#    z -0.155180 0.000000 4.642050 
# 
# 
# High freq. dielectric constant tensor:
#      x y z
#    x 1.965190 0.000000 -0.005330 
#    y 0.000000 1.929020 0.000000 
#    z -0.005330 0.000000 1.982270 
# 
# From -- ./inp_files/10891.got.cif
#   From: 2010.06.25/outbox.cif.g09.slc.cpg/sg13_6_cif.got.tgz:10891.got - 2010.06.28 04:50:58.
