data_PCOD8122270
_publ_section_title
;
Structure prediction by ZEFSAII (Michael W. Deem and Ramdas Pophale) SiO2 
 PCOD8122270
Probable space group: P 2/C
;
_chemical_formula_sum "Si O2"
_cell_formula_units_Z 20
_cell_length_a 18.180769
_cell_length_b 5.275606
_cell_length_c 8.890181
_cell_angle_alpha 90.000000
_cell_angle_beta 92.935848
_cell_angle_gamma 90.000000
_cell_volume 851.578764
_symmetry_space_group_name_H-M "P 2/C"
_symmetry_group_IT_number 13
_symmetry_cell_setting 'monoclinic'
loop_
_space_group_symop_operation_xyz
x,y,z
-x,y,1/2-z
-x,-y,-z
x,-y,1/2+z
loop_
_atom_site_type_symbol
_atom_site_label
_atom_site_fract_x
_atom_site_fract_y
_atom_site_fract_z
Si Si1 0.862317 0.287807 0.060084
Si Si2 0.379605 0.992946 0.215920
Si Si3 0.914876 0.781830 0.228028
Si Si4 0.693437 0.306017 0.031913
Si Si5 0.431172 0.679749 0.478380
O O1 0.908644 0.521340 0.132847
O O2 0.876153 0.020560 0.143811
O O3 0.880156 0.258496 0.887294
O O4 0.777732 0.369116 0.073115
O O5 0.345132 0.194435 0.324615
O O6 0.311928 0.879083 0.112152
O O7 0.425575 0.779912 0.308431
O O8 0.440291 0.102405 0.105289
O O9 0.000000 0.853319 0.250000
O O10 0.647672 0.556752 0.987143
O O11 0.500000 0.500000 0.500000
#
# Coordination Sequence:
#
# PCOD8122270 Si02
#       5
#     4   4   4   4   4
#     4  12  27  44  78 110 152 200 254 312 378 450
#     4  10  25  45  69  98 142 178 240 293 365 425
#     4  12  26  49  75 111 154 200 252 311 384 458
#     4  11  25  42  70 101 140 182 241 295 363 434
#     4  11  26  46  71 102 139 188 238 299 363 434
#
# _framework density 23.485786999999998
#
# number of rings (size 3 to 8) (size 9 to 14) (size 15 to 20)
#    0.000    0.800    0.000    5.400   11.200    8.000 
#    0.000    3.000    0.000    0.000    0.000    0.000 
#    0.000    0.000    0.000    0.000    0.000    0.000 
#
# Total GULP energy -248081.327818 kJ/mol
# GULP energy per Si atom -12404.066391 kJ/mol
# Density = 2.343233 g / cm^3
# Si number density = 23.485787 Si / 1000 Ang^3
#
#
#
# Elastic Constant Matrix: (Units=GPa)
#
#
# Indices 1 2 3 4 5 6 
#
# 1 131.7192 22.6426 17.7647 0.0000 8.0315 0.0000
# 2 22.6426 113.1140 43.8734 0.0000 10.4808 0.0000
# 3 17.7647 43.8734 137.6241 0.0000 4.0110 0.0000
# 4 0.0000 0.0000 0.0000 42.2423 0.0000 8.6751
# 5 8.0315 10.4808 4.0110 0.0000 25.9973 0.0000
# 6 0.0000 0.0000 0.0000 8.6751 0.0000 36.9432
#
#
#
# Elastic Compliance Matrix: (Units=1/GPa)
#
#
# Indices 1 2 3 4 5 6 
#
# 1 0.007993 -0.001193 -0.000596 0.000000 -0.001896 0.000000
# 2 -0.001193 0.010610 -0.003129 0.000000 -0.003426 0.000000
# 3 -0.000596 -0.003129 0.008336 0.000000 0.000159 0.000000
# 4 0.000000 0.000000 0.000000 0.024872 0.000000 -0.005841
# 5 -0.001896 -0.003426 0.000159 0.000000 0.040408 0.000000
# 6 0.000000 0.000000 0.000000 -0.005841 0.000000 0.028440
#
#
# Mechanical properties :
#
#
# Convention : Reuss Voigt Hill
#
# Bulk Modulus (GPa) = 58.46723 61.22430 59.84577
# Shear Modulus (GPa) = 36.71157 40.91499 38.81328
#
# Velocity S-wave (km/s) = 3.95795 4.17840 4.06966
# Velocity P-wave (km/s) = 6.77022 7.02879 6.90072
#
# Compressibility (1/GPa) = 0.01710360
#
# Stress axis : x y z
#
# Youngs Moduli (GPa) = 125.10904 94.24677 119.96358
#
# Poissons Ratio (x) = 0.11244 0.07152
# Poissons Ratio (y) = 0.14926 0.37533
# Poissons Ratio (z) = 0.07458 0.29487
#
# Static dielectric constant tensor:
#      x y z
#    x 4.166160 0.000000 0.177040 
#    y 0.000000 4.459210 0.000000 
#    z 0.177040 0.000000 4.554370 
# 
# 
# High freq. dielectric constant tensor:
#      x y z
#    x 1.927900 0.000000 0.004750 
#    y 0.000000 1.943200 0.000000 
#    z 0.004750 0.000000 1.957470 
# 
# From -- ./inp_files/20514.got.cif
#   From: 2010.06.25/outbox.cif.g09.slc.cpg/sg13_11_cif.got.tgz:20514.got - 2010.06.28 04:50:58.
