data_PCOD8122527
_publ_section_title
;
Structure prediction by ZEFSAII (Michael W. Deem and Ramdas Pophale) SiO2 
 PCOD8122527
Probable space group: P 2/C
;
_chemical_formula_sum "Si O2"
_cell_formula_units_Z 32
_cell_length_a 16.692629
_cell_length_b 12.038631
_cell_length_c 14.086652
_cell_angle_alpha 90.000000
_cell_angle_beta 30.161380
_cell_angle_gamma 90.000000
_cell_volume 1422.300878
_symmetry_space_group_name_H-M "P 2/C"
_symmetry_group_IT_number 13
_symmetry_cell_setting 'monoclinic'
loop_
_space_group_symop_operation_xyz
x,y,z
-x,y,1/2-z
-x,-y,-z
x,-y,1/2+z
loop_
_atom_site_type_symbol
_atom_site_label
_atom_site_fract_x
_atom_site_fract_y
_atom_site_fract_z
Si Si1 0.675822 0.611818 0.090938
Si Si2 0.414916 0.222286 0.516137
Si Si3 0.761709 0.943921 0.421283
Si Si4 0.615256 0.435485 0.311100
Si Si5 0.156232 0.752970 0.434036
Si Si6 0.881750 0.011350 0.998508
Si Si7 0.822216 0.650623 0.752138
Si Si8 0.674298 0.118523 0.368650
O O1 0.500000 0.657050 0.250000
O O2 0.662608 0.502522 0.169287
O O3 0.770925 0.712368 0.041613
O O4 0.769119 0.578991 0.898801
O O5 0.328172 0.170860 0.512539
O O6 0.532760 0.320279 0.362806
O O7 0.281062 0.270012 0.723090
O O8 0.509508 0.125906 0.478024
O O9 0.762790 0.961243 0.533174
O O10 0.658579 0.040397 0.476606
O O11 0.943031 0.940300 0.198410
O O12 0.500000 0.500000 0.500000
O O13 0.779804 0.413628 0.198784
O O14 0.104872 0.880008 0.498805
O O15 0.007674 0.675596 0.561353
O O16 0.816705 0.070982 0.158053
O O17 0.716069 0.761162 0.865461
#
# Coordination Sequence:
#
# PCOD8122527 Si02
#       8
#     4   4   4   4   4   4   4   4
#     4  12  24  45  73 100 135 180 236 298 355 413
#     4  11  24  42  68  96 139 188 233 287 353 420
#     4  11  22  40  62  99 142 186 233 282 348 425
#     4  11  23  49  68  98 134 180 235 302 358 411
#     4  12  23  41  70 107 140 183 235 290 347 424
#     4  11  24  39  66 100 147 191 226 285 348 422
#     4  11  24  42  74 104 136 179 232 288 360 420
#     4  11  21  43  65  99 143 186 229 282 340 423
#
# _framework density 22.498757000000001
#
# number of rings (size 3 to 8) (size 9 to 14) (size 15 to 20)
#    0.000    0.750    5.000    3.375    1.750    1.000 
#    4.500    0.000    0.000    0.000    0.000    0.000 
#    0.000    0.000    0.000    0.000    0.000    0.000 
#
# Total GULP energy -396939.044245 kJ/mol
# GULP energy per Si atom -12404.345133 kJ/mol
# Density = 2.244755 g / cm^3
# Si number density = 22.498757 Si / 1000 Ang^3
#
#
#
# Elastic Constant Matrix: (Units=GPa)
#
#
# Indices 1 2 3 4 5 6 
#
# 1 138.6011 53.7935 34.6739 0.0000 -12.0065 0.0000
# 2 53.7935 91.3682 28.3350 0.0000 0.1282 0.0000
# 3 34.6739 28.3350 79.7957 0.0000 -9.0912 0.0000
# 4 0.0000 0.0000 0.0000 28.7957 0.0000 6.3206
# 5 -12.0065 0.1282 -9.0912 0.0000 41.1485 0.0000
# 6 0.0000 0.0000 0.0000 6.3206 0.0000 19.3484
#
#
#
# Elastic Compliance Matrix: (Units=1/GPa)
#
#
# Indices 1 2 3 4 5 6 
#
# 1 0.010002 -0.005204 -0.002220 0.000000 0.002444 0.000000
# 2 -0.005204 0.015049 -0.003345 0.000000 -0.002304 0.000000
# 3 -0.002220 -0.003345 0.014989 0.000000 0.002674 0.000000
# 4 0.000000 0.000000 0.000000 0.037410 0.000000 -0.012221
# 5 0.002444 -0.002304 0.002674 0.000000 0.025613 0.000000
# 6 0.000000 0.000000 0.000000 -0.012221 0.000000 0.055676
#
#
# Mechanical properties :
#
#
# Convention : Reuss Voigt Hill
#
# Bulk Modulus (GPa) = 54.04653 60.37442 57.21047
# Shear Modulus (GPa) = 26.81776 30.72269 28.77022
#
# Velocity S-wave (km/s) = 3.45623 3.69931 3.57984
# Velocity P-wave (km/s) = 6.32468 6.71859 6.52460
#
# Compressibility (1/GPa) = 0.01850258
#
# Stress axis : x y z
#
# Youngs Moduli (GPa) = 99.98419 66.44970 66.71489
#
# Poissons Ratio (x) = 0.34577 0.14810
# Poissons Ratio (y) = 0.52027 0.22318
# Poissons Ratio (z) = 0.22195 0.22229
#
# Static dielectric constant tensor:
#      x y z
#    x 4.498830 0.000000 -0.188690 
#    y 0.000000 4.006140 0.000000 
#    z -0.188690 0.000000 3.928450 
# 
# 
# High freq. dielectric constant tensor:
#      x y z
#    x 1.908560 0.000000 -0.011480 
#    y 0.000000 1.876880 0.000000 
#    z -0.011480 0.000000 1.876810 
# 
# From -- ./inp_files/55808.got.cif
#   From: 2010.06.25/outbox.cif.g09.slc.cpg/sg13_28_cif.got.tgz:55808.got - 2010.06.28 04:50:58.
