data_PCOD8122548
_publ_section_title
;
Structure prediction by ZEFSAII (Michael W. Deem and Ramdas Pophale) SiO2 
 PCOD8122548
Probable space group: P 2/C
;
_chemical_formula_sum "Si O2"
_cell_formula_units_Z 32
_cell_length_a 14.563019
_cell_length_b 17.971149
_cell_length_c 11.549179
_cell_angle_alpha 90.000000
_cell_angle_beta 150.359057
_cell_angle_gamma 90.000000
_cell_volume 1494.858412
_symmetry_space_group_name_H-M "P 2/C"
_symmetry_group_IT_number 13
_symmetry_cell_setting 'monoclinic'
loop_
_space_group_symop_operation_xyz
x,y,z
-x,y,1/2-z
-x,-y,-z
x,-y,1/2+z
loop_
_atom_site_type_symbol
_atom_site_label
_atom_site_fract_x
_atom_site_fract_y
_atom_site_fract_z
Si Si1 0.477336 0.289837 0.357073
Si Si2 0.522159 0.422526 0.961146
Si Si3 0.698697 0.764508 0.489962
Si Si4 0.218524 0.064516 0.006246
Si Si5 0.814610 0.192076 0.370076
Si Si6 0.229115 0.161542 0.806132
Si Si7 0.800203 0.608108 0.568475
Si Si8 0.197927 0.902988 0.027954
O O1 0.500000 0.316857 0.250000
O O2 0.490165 0.358897 0.456116
O O3 0.272292 0.254714 0.141952
O O4 0.624882 0.226830 0.558246
O O5 0.344150 0.415488 0.686040
O O6 0.500000 0.500000 0.000000
O O7 0.717048 0.418109 0.102570
O O8 0.738321 0.798181 0.658243
O O9 0.838971 0.697410 0.616568
O O10 0.687814 0.832213 0.388860
O O11 0.500000 0.724642 0.250000
O O12 0.306464 0.108346 0.993519
O O13 0.000000 0.055733 0.750000
O O14 0.299895 0.981037 0.109312
O O15 0.255683 0.110894 0.164161
O O16 0.035074 0.200822 0.626067
O O17 0.185863 0.106204 0.652482
O O18 0.000000 0.572597 0.750000
O O19 0.000000 0.896853 0.750000
#
# Coordination Sequence:
#
# PCOD8122548 Si02
#       8
#     4   4   4   4   4   4   4   4
#     4  12  25  43  70  99 132 178 226 266 338 413
#     4  11  26  47  74 107 145 178 216 277 341 408
#     4  12  22  40  64  99 131 170 227 285 336 394
#     4   9  22  38  58  88 127 177 224 283 343 398
#     4  11  22  42  64  90 131 173 228 281 328 396
#     4  11  23  42  65  90 132 174 228 285 333 402
#     4  11  24  46  75 105 140 180 229 280 332 398
#     4  11  22  36  63  94 120 176 231 281 348 402
#
# _framework density 21.406711000000001
#
# number of rings (size 3 to 8) (size 9 to 14) (size 15 to 20)
#    0.000    1.000    5.000    1.875    5.250    2.000 
#    2.250    1.250    0.000    0.000    0.000    0.000 
#    0.000    0.000    0.000    0.000    0.000    0.000 
#
# Total GULP energy -396676.346354 kJ/mol
# GULP energy per Si atom -12396.135824 kJ/mol
# Density = 2.135799 g / cm^3
# Si number density = 21.406711 Si / 1000 Ang^3
#
#
#
# Elastic Constant Matrix: (Units=GPa)
#
#
# Indices 1 2 3 4 5 6 
#
# 1 138.9384 67.8129 52.3085 0.0000 -4.2587 0.0000
# 2 67.8129 156.0490 34.6191 0.0000 -0.6349 0.0000
# 3 52.3085 34.6191 79.7816 0.0000 -5.8188 0.0000
# 4 0.0000 0.0000 0.0000 15.5309 0.0000 -3.6751
# 5 -4.2587 -0.6349 -5.8188 0.0000 36.1966 0.0000
# 6 0.0000 0.0000 0.0000 -3.6751 0.0000 20.6758
#
#
#
# Elastic Compliance Matrix: (Units=1/GPa)
#
#
# Indices 1 2 3 4 5 6 
#
# 1 0.011089 -0.003552 -0.005706 0.000000 0.000325 0.000000
# 2 -0.003552 0.008233 -0.001279 0.000000 -0.000479 0.000000
# 3 -0.005706 -0.001279 0.016978 0.000000 0.002036 0.000000
# 4 0.000000 0.000000 0.000000 0.067215 0.000000 0.011947
# 5 0.000325 -0.000479 0.002036 0.000000 0.027984 0.000000
# 6 0.000000 0.000000 0.000000 0.011947 0.000000 0.050489
#
#
# Mechanical properties :
#
#
# Convention : Reuss Voigt Hill
#
# Bulk Modulus (GPa) = 65.66661 76.02780 70.84721
# Shear Modulus (GPa) = 24.02255 29.14923 26.58589
#
# Velocity S-wave (km/s) = 3.35356 3.69411 3.52794
# Velocity P-wave (km/s) = 6.76294 7.33404 7.05428
#
# Compressibility (1/GPa) = 0.01522844
#
# Stress axis : x y z
#
# Youngs Moduli (GPa) = 90.17935 121.45516 58.89813
#
# Poissons Ratio (x) = 0.43138 0.33605
# Poissons Ratio (y) = 0.32030 0.07533
# Poissons Ratio (z) = 0.51452 0.15533
#
# Static dielectric constant tensor:
#      x y z
#    x 4.260030 0.000000 0.006560 
#    y 0.000000 4.009930 0.000000 
#    z 0.006560 0.000000 3.754210 
# 
# 
# High freq. dielectric constant tensor:
#      x y z
#    x 1.853860 0.000000 -0.005610 
#    y 0.000000 1.830440 0.000000 
#    z -0.005610 0.000000 1.835700 
# 
# From -- ./inp_files/37723.got.cif
#   From: 2010.06.25/outbox.cif.g09.slc.cpg/sg13_19_cif.got.tgz:37723.got - 2010.06.28 04:50:58.
