data_PCOD8122532
_publ_section_title
;
Structure prediction by ZEFSAII (Michael W. Deem and Ramdas Pophale) SiO2 
 PCOD8122532
Probable space group: P 2/C
;
_chemical_formula_sum "Si O2"
_cell_formula_units_Z 20
_cell_length_a 8.052310
_cell_length_b 12.231096
_cell_length_c 10.573566
_cell_angle_alpha 90.000000
_cell_angle_beta 60.130420
_cell_angle_gamma 90.000000
_cell_volume 903.040490
_symmetry_space_group_name_H-M "P 2/C"
_symmetry_group_IT_number 13
_symmetry_cell_setting 'monoclinic'
loop_
_space_group_symop_operation_xyz
x,y,z
-x,y,1/2-z
-x,-y,-z
x,-y,1/2+z
loop_
_atom_site_type_symbol
_atom_site_label
_atom_site_fract_x
_atom_site_fract_y
_atom_site_fract_z
Si Si1 0.779193 0.289072 0.811587
Si Si2 0.694160 0.287085 0.124400
Si Si3 0.126603 0.510115 0.827382
Si Si4 0.286034 0.075832 0.814341
Si Si5 0.976030 0.878125 0.623868
O O1 0.755608 0.397330 0.734329
O O2 0.686200 0.184688 0.779667
O O3 0.000000 0.263203 0.750000
O O4 0.674789 0.315076 0.983906
O O5 0.500000 0.232331 0.250000
O O6 0.726705 0.392006 0.202073
O O7 0.867122 0.201223 0.069039
O O8 0.000000 0.532686 0.750000
O O9 0.000000 0.500000 0.000000
O O10 0.500000 0.027514 0.750000
O O11 0.147300 0.987574 0.800871
O O12 0.186370 0.099631 0.987314
O O13 0.000000 0.819188 0.750000
#
# Coordination Sequence:
#
# PCOD8122532 Si02
#       5
#     4   4   4   4   4
#     4  11  22  45  69  92 138 179 216 278 337 391
#     4  12  26  43  67 102 135 175 225 278 332 399
#     4  11  21  43  71  96 131 183 225 275 337 394
#     4  11  25  43  70  97 129 177 223 270 335 402
#     4  11  25  44  67  98 133 173 219 276 334 397
#
# _framework density 22.147402
#
# number of rings (size 3 to 8) (size 9 to 14) (size 15 to 20)
#    0.000    0.800    6.000    1.800    5.600    2.400 
#    0.000    0.000    0.000    0.000    0.000    0.000 
#    0.000    0.000    0.000    0.000    0.000    0.000 
#
# Total GULP energy -248015.683389 kJ/mol
# GULP energy per Si atom -12400.784169 kJ/mol
# Density = 2.209699 g / cm^3
# Si number density = 22.147402 Si / 1000 Ang^3
#
#
#
# Elastic Constant Matrix: (Units=GPa)
#
#
# Indices 1 2 3 4 5 6 
#
# 1 65.5942 19.5768 55.8171 0.0000 -3.1029 0.0000
# 2 19.5768 117.9962 27.3813 0.0000 11.1139 0.0000
# 3 55.8171 27.3813 165.4783 0.0000 4.6810 0.0000
# 4 0.0000 0.0000 0.0000 26.5317 0.0000 7.8747
# 5 -3.1029 11.1139 4.6810 0.0000 49.0311 0.0000
# 6 0.0000 0.0000 0.0000 7.8747 0.0000 18.9966
#
#
#
# Elastic Compliance Matrix: (Units=1/GPa)
#
#
# Indices 1 2 3 4 5 6 
#
# 1 0.022141 -0.002254 -0.007169 0.000000 0.002597 0.000000
# 2 -0.002254 0.009216 -0.000703 0.000000 -0.002165 0.000000
# 3 -0.007169 -0.000703 0.008609 0.000000 -0.001116 0.000000
# 4 0.000000 0.000000 0.000000 0.042979 0.000000 -0.017816
# 5 0.002597 -0.002165 -0.001116 0.000000 0.021157 0.000000
# 6 0.000000 0.000000 0.000000 -0.017816 0.000000 0.060026
#
#
# Mechanical properties :
#
#
# Convention : Reuss Voigt Hill
#
# Bulk Modulus (GPa) = 50.72746 61.62433 56.17589
# Shear Modulus (GPa) = 26.18459 35.33144 30.75802
#
# Velocity S-wave (km/s) = 3.44217 3.99844 3.73069
# Velocity P-wave (km/s) = 6.22513 7.01439 6.63151
#
# Compressibility (1/GPa) = 0.01971319
#
# Stress axis : x y z
#
# Youngs Moduli (GPa) = 45.16468 108.50741 116.15590
#
# Poissons Ratio (x) = 0.24463 0.83270
# Poissons Ratio (y) = 0.10182 0.08169
# Poissons Ratio (z) = 0.32378 0.07631
#
# Static dielectric constant tensor:
#      x y z
#    x 3.885540 0.000000 0.145450 
#    y 0.000000 4.125880 0.000000 
#    z 0.145450 0.000000 3.997340 
# 
# 
# High freq. dielectric constant tensor:
#      x y z
#    x 1.851000 0.000000 0.007120 
#    y 0.000000 1.877590 0.000000 
#    z 0.007120 0.000000 1.883910 
# 
# From -- ./inp_files/29269.got.cif
#   From: 2010.06.25/outbox.cif.g09.slc.cpg/sg13_15_cif.got.tgz:29269.got - 2010.06.28 04:50:58.
