data_PCOD8122753
_publ_section_title
;
Structure prediction by ZEFSAII (Michael W. Deem and Ramdas Pophale) SiO2 
 PCOD8122753
Probable space group: P 2/C
;
_chemical_formula_sum "Si O2"
_cell_formula_units_Z 24
_cell_length_a 9.267617
_cell_length_b 7.555597
_cell_length_c 14.438370
_cell_angle_alpha 90.000000
_cell_angle_beta 74.709653
_cell_angle_gamma 90.000000
_cell_volume 975.221182
_symmetry_space_group_name_H-M "P 2/C"
_symmetry_group_IT_number 13
_symmetry_cell_setting 'monoclinic'
loop_
_space_group_symop_operation_xyz
x,y,z
-x,y,1/2-z
-x,-y,-z
x,-y,1/2+z
loop_
_atom_site_type_symbol
_atom_site_label
_atom_site_fract_x
_atom_site_fract_y
_atom_site_fract_z
Si Si1 0.166786 0.149794 0.962224
Si Si2 0.113345 0.339505 0.155646
Si Si3 0.638574 0.149582 0.993679
Si Si4 0.551727 0.609407 0.842691
Si Si5 0.065780 0.740001 0.141037
Si Si6 0.465826 0.216973 0.855838
O O1 0.022399 0.144030 0.921413
O O2 0.291604 0.278500 0.894834
O O3 0.108637 0.206808 0.071271
O O4 0.269142 0.973177 0.950881
O O5 0.278771 0.332653 0.169345
O O6 0.000000 0.259484 0.250000
O O7 0.047769 0.528555 0.133116
O O8 0.516329 0.082030 0.933481
O O9 0.760123 0.222590 0.899633
O O10 0.559707 0.307109 0.062913
O O11 0.500000 0.671226 0.750000
O O12 0.556086 0.398172 0.851007
O O13 0.000000 0.803339 0.250000
O O14 0.500000 0.127809 0.750000
#
# Coordination Sequence:
#
# PCOD8122753 Si02
#       6
#     4   4   4   4   4   4
#     4  12  26  43  70 106 141 186 228 292 367 425
#     4  11  25  45  71 104 140 186 243 296 347 420
#     4  12  24  46  69 103 146 183 231 291 363 429
#     4  11  25  44  73 104 138 188 242 296 348 416
#     4  11  25  46  70 101 139 189 241 292 350 423
#     4  11  23  43  72 100 135 184 240 292 345 418
#
# _framework density 24.609798999999999
#
# number of rings (size 3 to 8) (size 9 to 14) (size 15 to 20)
#    0.000    0.667    3.333    4.000    9.333    1.333 
#    3.000    0.000    0.000    0.000    0.000    0.000 
#    0.000    0.000    0.000    0.000    0.000    0.000 
#
# Total GULP energy -297504.524830 kJ/mol
# GULP energy per Si atom -12396.021868 kJ/mol
# Density = 2.455379 g / cm^3
# Si number density = 24.609799 Si / 1000 Ang^3
#
#
#
# Elastic Constant Matrix: (Units=GPa)
#
#
# Indices 1 2 3 4 5 6 
#
# 1 153.1857 18.4919 63.7986 0.0000 -2.8093 0.0000
# 2 18.4919 46.2463 11.6343 0.0000 15.2915 0.0000
# 3 63.7986 11.6343 157.6784 0.0000 2.3213 0.0000
# 4 0.0000 0.0000 0.0000 15.0897 0.0000 1.0391
# 5 -2.8093 15.2915 2.3213 0.0000 57.9854 0.0000
# 6 0.0000 0.0000 0.0000 1.0391 0.0000 26.5399
#
#
#
# Elastic Compliance Matrix: (Units=1/GPa)
#
#
# Indices 1 2 3 4 5 6 
#
# 1 0.008205 -0.002923 -0.003123 0.000000 0.001293 0.000000
# 2 -0.002923 0.025171 -0.000575 0.000000 -0.006756 0.000000
# 3 -0.003123 -0.000575 0.007653 0.000000 -0.000306 0.000000
# 4 0.000000 0.000000 0.000000 0.066449 0.000000 -0.002602
# 5 0.001293 -0.006756 -0.000306 0.000000 0.019102 0.000000
# 6 0.000000 0.000000 0.000000 -0.002602 0.000000 0.037781
#
#
# Mechanical properties :
#
#
# Convention : Reuss Voigt Hill
#
# Bulk Modulus (GPa) = 35.98913 60.55112 48.27012
# Shear Modulus (GPa) = 26.75704 37.46871 32.11288
#
# Velocity S-wave (km/s) = 3.30093 3.90617 3.61623
# Velocity P-wave (km/s) = 5.40220 6.70836 6.09040
#
# Compressibility (1/GPa) = 0.02778617
#
# Stress axis : x y z
#
# Youngs Moduli (GPa) = 121.87090 39.72851 130.67251
#
# Poissons Ratio (x) = 0.11612 0.40814
# Poissons Ratio (y) = 0.35622 0.07515
# Poissons Ratio (z) = 0.38065 0.02285
#
# Static dielectric constant tensor:
#      x y z
#    x 4.798320 0.000000 -0.254320 
#    y 0.000000 4.263770 0.000000 
#    z -0.254320 0.000000 4.827900 
# 
# 
# High freq. dielectric constant tensor:
#      x y z
#    x 2.008580 0.000000 -0.014630 
#    y 0.000000 1.961380 0.000000 
#    z -0.014630 0.000000 1.997440 
# 
# From -- ./inp_files/46008.got.cif
#   From: 2010.06.25/outbox.cif.g09.slc.cpg/sg13_24_cif.got.tgz:46008.got - 2010.06.28 04:50:58.
