data_PCOD8122679
_publ_section_title
;
Structure prediction by ZEFSAII (Michael W. Deem and Ramdas Pophale) SiO2 
 PCOD8122679
Probable space group: P 2/C
;
_chemical_formula_sum "Si O2"
_cell_formula_units_Z 30
_cell_length_a 13.861571
_cell_length_b 11.238446
_cell_length_c 24.770916
_cell_angle_alpha 90.000000
_cell_angle_beta 20.600839
_cell_angle_gamma 90.000000
_cell_volume 1357.766062
_symmetry_space_group_name_H-M "P 2/C"
_symmetry_group_IT_number 13
_symmetry_cell_setting 'monoclinic'
loop_
_space_group_symop_operation_xyz
x,y,z
-x,y,1/2-z
-x,-y,-z
x,-y,1/2+z
loop_
_atom_site_type_symbol
_atom_site_label
_atom_site_fract_x
_atom_site_fract_y
_atom_site_fract_z
Si Si1 0.108849 0.748910 0.510388
Si Si2 0.732578 0.414833 0.353373
Si Si3 0.719378 0.954725 0.731709
Si Si4 0.802499 0.668359 0.568774
Si Si5 0.107286 0.484923 0.068041
Si Si6 0.500000 0.922654 0.250000
Si Si7 0.148493 0.133960 0.545538
Si Si8 0.227779 0.325889 0.586914
O O1 0.215589 0.648730 0.496877
O O2 0.350937 0.841493 0.372374
O O3 0.853032 0.824176 0.667484
O O4 0.018165 0.682207 0.503719
O O5 0.500000 0.500000 0.500000
O O6 0.535611 0.297263 0.448397
O O7 0.000000 0.385320 0.250000
O O8 0.818317 0.466119 0.249960
O O9 0.412789 0.949297 0.915757
O O10 0.710822 0.994116 0.672821
O O11 0.882308 0.052621 0.680332
O O12 0.500000 0.640335 0.750000
O O13 0.922570 0.558537 0.471546
O O14 0.797363 0.788214 0.536154
O O15 0.289080 0.562278 0.014300
O O16 0.098253 0.213966 0.624545
O O17 0.000000 0.369896 0.750000
#
# Coordination Sequence:
#
# PCOD8122679 Si02
#       8
#     4   4   4   4   4   2   4   4
#     4  12  24  39  61  97 138 182 226 273 325 402
#     4  12  22  44  71 100 131 176 228 281 345 421
#     4  12  22  44  67  96 134 183 240 282 331 398
#     4  11  23  40  61  96 144 192 217 271 343 403
#     4  11  25  39  67 100 141 178 226 278 342 417
#     4  12  24  38  62  96 138 186 236 278 324 400
#     4  11  24  43  74  97 134 182 236 286 344 407
#     4  11  24  50  73 102 137 176 225 291 369 422
#
# _framework density 22.095116999999998
#
# number of rings (size 3 to 8) (size 9 to 14) (size 15 to 20)
#    0.000    0.533    6.667    2.400    2.800    1.067 
#    2.400    0.667    0.000    1.600    0.000    0.000 
#    0.000    0.000    0.000    0.000    0.000    0.000 
#
# Total GULP energy -371752.162481 kJ/mol
# GULP energy per Si atom -12391.738749 kJ/mol
# Density = 2.204483 g / cm^3
# Si number density = 22.095117 Si / 1000 Ang^3
#
#
#
# Elastic Constant Matrix: (Units=GPa)
#
#
# Indices 1 2 3 4 5 6 
#
# 1 99.7906 52.4859 37.9387 0.0000 -8.3418 0.0000
# 2 52.4859 114.6583 24.1542 0.0000 -7.1621 0.0000
# 3 37.9387 24.1542 95.6025 0.0000 -12.1243 0.0000
# 4 0.0000 0.0000 0.0000 26.8588 0.0000 -1.5396
# 5 -8.3418 -7.1621 -12.1243 0.0000 39.6758 0.0000
# 6 0.0000 0.0000 0.0000 -1.5396 0.0000 25.6735
#
#
#
# Elastic Compliance Matrix: (Units=1/GPa)
#
#
# Indices 1 2 3 4 5 6 
#
# 1 0.014774 -0.005811 -0.004301 0.000000 0.000743 0.000000
# 2 -0.005811 0.011535 -0.000519 0.000000 0.000702 0.000000
# 3 -0.004301 -0.000519 0.012662 0.000000 0.002871 0.000000
# 4 0.000000 0.000000 0.000000 0.037360 0.000000 0.002241
# 5 0.000743 0.000702 0.002871 0.000000 0.026365 0.000000
# 6 0.000000 0.000000 0.000000 0.002241 0.000000 0.039085
#
#
# Mechanical properties :
#
#
# Convention : Reuss Voigt Hill
#
# Bulk Modulus (GPa) = 56.46660 59.91212 58.18936
# Shear Modulus (GPa) = 29.59532 31.47313 30.53422
#
# Velocity S-wave (km/s) = 3.66382 3.77827 3.72148
# Velocity P-wave (km/s) = 6.59619 6.79766 6.69768
#
# Compressibility (1/GPa) = 0.01770958
#
# Stress axis : x y z
#
# Youngs Moduli (GPa) = 67.68487 86.69486 78.97634
#
# Poissons Ratio (x) = 0.50376 0.33965
# Poissons Ratio (y) = 0.39330 0.04102
# Poissons Ratio (z) = 0.29109 0.04503
#
# Static dielectric constant tensor:
#      x y z
#    x 4.492660 0.000000 -0.286750 
#    y 0.000000 4.065930 0.000000 
#    z -0.286750 0.000000 4.171170 
# 
# 
# High freq. dielectric constant tensor:
#      x y z
#    x 1.858560 0.000000 -0.004930 
#    y 0.000000 1.862990 0.000000 
#    z -0.004930 0.000000 1.871860 
# 
# From -- ./inp_files/92942.got.cif
#   From: 2010.06.25/outbox.cif.g09.slc.cpg/sg13_47_cif.got.tgz:92942.got - 2010.06.28 04:50:58.
