data_PCOD8122458
_publ_section_title
;
Structure prediction by ZEFSAII (Michael W. Deem and Ramdas Pophale) SiO2 
 PCOD8122458
Probable space group: P 2/C
;
_chemical_formula_sum "Si O2"
_cell_formula_units_Z 24
_cell_length_a 22.497101
_cell_length_b 10.453924
_cell_length_c 23.293248
_cell_angle_alpha 90.000000
_cell_angle_beta 12.318418
_cell_angle_gamma 90.000000
_cell_volume 1168.738361
_symmetry_space_group_name_H-M "P 2/C"
_symmetry_group_IT_number 13
_symmetry_cell_setting 'monoclinic'
loop_
_space_group_symop_operation_xyz
x,y,z
-x,y,1/2-z
-x,-y,-z
x,-y,1/2+z
loop_
_atom_site_type_symbol
_atom_site_label
_atom_site_fract_x
_atom_site_fract_y
_atom_site_fract_z
Si Si1 0.313398 0.398683 0.475794
Si Si2 0.467053 0.690953 0.345703
Si Si3 0.450642 0.687735 0.636303
Si Si4 0.087972 0.461958 0.853599
Si Si5 0.931968 0.272168 0.181989
Si Si6 0.250806 0.908986 0.748406
O O1 0.500000 0.335343 0.250000
O O2 0.431502 0.538836 0.378903
O O3 0.336789 0.307630 0.510045
O O4 0.000000 0.409080 0.750000
O O5 0.500000 0.744709 0.250000
O O6 0.208436 0.756425 0.623442
O O7 0.736727 0.734761 0.126822
O O8 0.627230 0.622310 0.417292
O O9 0.338895 0.823460 0.719966
O O10 0.182022 0.612892 0.914385
O O11 0.156640 0.584058 0.750376
O O12 0.000000 0.500000 0.000000
O O13 0.825802 0.176852 0.233783
O O14 0.500000 0.000000 0.500000
O O15 0.000000 0.000000 0.000000
#
# Coordination Sequence:
#
# PCOD8122458 Si02
#       6
#     4   4   4   4   4   4
#     4  11  21  36  59  96 135 165 194 246 320 400
#     4  11  22  37  61 100 137 167 200 250 328 406
#     4  12  24  40  65  93 134 167 209 264 325 395
#     4  12  22  36  61 102 129 164 200 258 346 398
#     4  12  22  40  66  92 136 166 208 265 327 393
#     4  12  28  46  65  91 126 176 229 274 319 368
#
# _framework density 20.534963000000001
#
# number of rings (size 3 to 8) (size 9 to 14) (size 15 to 20)
#    0.000    0.333    5.000    6.000    2.333    0.000 
#    0.000    0.000    0.000   10.000    0.000    0.000 
#    0.000    0.000    0.000    0.000    0.000    0.000 
#
# Total GULP energy -297569.089839 kJ/mol
# GULP energy per Si atom -12398.712077 kJ/mol
# Density = 2.048822 g / cm^3
# Si number density = 20.534963 Si / 1000 Ang^3
#
#
#
# Elastic Constant Matrix: (Units=GPa)
#
#
# Indices 1 2 3 4 5 6 
#
# 1 119.7775 52.8328 41.2721 0.0000 0.2570 0.0000
# 2 52.8328 99.3578 59.3914 0.0000 -9.0679 0.0000
# 3 41.2721 59.3914 153.2983 0.0000 1.8925 0.0000
# 4 0.0000 0.0000 0.0000 28.3644 0.0000 -10.7195
# 5 0.2570 -9.0679 1.8925 0.0000 45.0780 0.0000
# 6 0.0000 0.0000 0.0000 -10.7195 0.0000 14.7582
#
#
#
# Elastic Compliance Matrix: (Units=1/GPa)
#
#
# Indices 1 2 3 4 5 6 
#
# 1 0.011058 -0.005482 -0.000840 0.000000 -0.001130 0.000000
# 2 -0.005482 0.016191 -0.004840 0.000000 0.003492 0.000000
# 3 -0.000840 -0.004840 0.008641 0.000000 -0.001332 0.000000
# 4 0.000000 0.000000 0.000000 0.048595 0.000000 0.035297
# 5 -0.001130 0.003492 -0.001332 0.000000 0.022948 0.000000
# 6 0.000000 0.000000 0.000000 0.035297 0.000000 0.093396
#
#
# Mechanical properties :
#
#
# Convention : Reuss Voigt Hill
#
# Bulk Modulus (GPa) = 73.70313 75.49180 74.59746
# Shear Modulus (GPa) = 21.96106 32.23594 27.09850
#
# Velocity S-wave (km/s) = 3.27379 3.96638 3.63661
# Velocity P-wave (km/s) = 7.08941 7.60385 7.35113
#
# Compressibility (1/GPa) = 0.01356795
#
# Stress axis : x y z
#
# Youngs Moduli (GPa) = 90.42910 61.76152 115.72823
#
# Poissons Ratio (x) = 0.33855 0.09716
# Poissons Ratio (y) = 0.49569 0.56015
# Poissons Ratio (z) = 0.07592 0.29894
#
# Static dielectric constant tensor:
#      x y z
#    x 4.007800 0.000000 0.074040 
#    y 0.000000 3.462550 0.000000 
#    z 0.074040 0.000000 4.110710 
# 
# 
# High freq. dielectric constant tensor:
#      x y z
#    x 1.815330 0.000000 0.001940 
#    y 0.000000 1.750370 0.000000 
#    z 0.001940 0.000000 1.835060 
# 
# From -- ./inp_files/89066.got.cif
#   From: 2010.06.25/outbox.cif.g09.slc.cpg/sg13_45_cif.got.tgz:89066.got - 2010.06.28 04:50:58.
