data_PCOD8122828
_publ_section_title
;
Structure prediction by ZEFSAII (Michael W. Deem and Ramdas Pophale) SiO2 
 PCOD8122828
Probable space group: P 2/C
;
_chemical_formula_sum "Si O2"
_cell_formula_units_Z 20
_cell_length_a 10.359121
_cell_length_b 5.148093
_cell_length_c 19.705832
_cell_angle_alpha 90.000000
_cell_angle_beta 129.484292
_cell_angle_gamma 90.000000
_cell_volume 811.088498
_symmetry_space_group_name_H-M "P 2/C"
_symmetry_group_IT_number 13
_symmetry_cell_setting 'monoclinic'
loop_
_space_group_symop_operation_xyz
x,y,z
-x,y,1/2-z
-x,-y,-z
x,-y,1/2+z
loop_
_atom_site_type_symbol
_atom_site_label
_atom_site_fract_x
_atom_site_fract_y
_atom_site_fract_z
Si Si1 0.620611 0.094709 0.733328
Si Si2 0.517447 0.815971 0.940756
Si Si3 0.113810 0.298350 0.914864
Si Si4 0.079979 0.216562 0.150362
Si Si5 0.211214 0.511899 0.307611
O O1 0.500000 0.220181 0.750000
O O2 0.747345 0.304831 0.743461
O O3 0.734053 0.875903 0.810570
O O4 0.508797 0.978092 0.636272
O O5 0.380209 0.588197 0.900423
O O6 0.697713 0.680802 0.995288
O O7 0.500000 0.000000 0.000000
O O8 0.051229 0.010207 0.908975
O O9 0.105455 0.342864 0.830427
O O10 0.998628 0.524076 0.911384
O O11 0.105321 0.273519 0.239855
#
# Coordination Sequence:
#
# PCOD8122828 Si02
#       5
#     4   4   4   4   4
#     4  11  26  49  70 100 147 197 238 279 358 454
#     4  11  24  43  71 110 141 186 240 300 357 414
#     4  12  24  40  71 109 140 169 239 314 352 402
#     4  11  26  42  69 106 139 185 236 295 358 415
#     4  11  24  40  73 103 143 189 235 287 361 423
#
# _framework density 24.658218999999999
#
# number of rings (size 3 to 8) (size 9 to 14) (size 15 to 20)
#    0.000    0.800    4.000    2.400    8.400    3.200 
#    0.000    2.000    0.000    0.000    0.000    0.000 
#    0.000    0.000    0.000    0.000    0.000    0.000 
#
# Total GULP energy -247866.903335 kJ/mol
# GULP energy per Si atom -12393.345167 kJ/mol
# Density = 2.460210 g / cm^3
# Si number density = 24.658219 Si / 1000 Ang^3
#
#
#
# Elastic Constant Matrix: (Units=GPa)
#
#
# Indices 1 2 3 4 5 6 
#
# 1 98.7179 27.2692 -1.5817 0.0000 -6.5897 0.0000
# 2 27.2692 131.3531 29.8342 0.0000 15.6031 0.0000
# 3 -1.5817 29.8342 87.4063 0.0000 29.3053 0.0000
# 4 0.0000 0.0000 0.0000 46.2249 0.0000 19.8286
# 5 -6.5897 15.6031 29.3053 0.0000 30.8834 0.0000
# 6 0.0000 0.0000 0.0000 19.8286 0.0000 28.2904
#
#
#
# Elastic Compliance Matrix: (Units=1/GPa)
#
#
# Indices 1 2 3 4 5 6 
#
# 1 0.011147 -0.002740 -0.000183 0.000000 0.003936 0.000000
# 2 -0.002740 0.009029 -0.002062 0.000000 -0.003190 0.000000
# 3 -0.000183 -0.002062 0.017313 0.000000 -0.015426 0.000000
# 4 0.000000 0.000000 0.000000 0.030934 0.000000 -0.021681
# 5 0.003936 -0.003190 -0.015426 0.000000 0.049469 0.000000
# 6 0.000000 0.000000 0.000000 -0.021681 0.000000 0.050544
#
#
# Mechanical properties :
#
#
# Convention : Reuss Voigt Hill
#
# Bulk Modulus (GPa) = 36.33815 47.61343 41.97579
# Shear Modulus (GPa) = 26.65554 38.54346 32.59950
#
# Velocity S-wave (km/s) = 3.29142 3.95791 3.63995
# Velocity P-wave (km/s) = 5.40494 6.34334 5.89285
#
# Compressibility (1/GPa) = 0.02751928
#
# Stress axis : x y z
#
# Youngs Moduli (GPa) = 89.71337 110.75201 57.75920
#
# Poissons Ratio (x) = 0.30347 0.01055
# Poissons Ratio (y) = 0.24583 0.11910
# Poissons Ratio (z) = 0.01639 0.22837
#
# Static dielectric constant tensor:
#      x y z
#    x 4.175060 0.000000 0.520060 
#    y 0.000000 4.627710 0.000000 
#    z 0.520060 0.000000 4.674320 
# 
# 
# High freq. dielectric constant tensor:
#      x y z
#    x 1.946750 0.000000 0.040630 
#    y 0.000000 1.985170 0.000000 
#    z 0.040630 0.000000 1.999200 
# 
# From -- ./inp_files/85652.got.cif
#   From: 2010.06.25/outbox.cif.g09.slc.cpg/sg13_43_cif.got.tgz:85652.got - 2010.06.28 04:50:58.
