data_PCOD8122989
_publ_section_title
;
Structure prediction by ZEFSAII (Michael W. Deem and Ramdas Pophale) SiO2 
 PCOD8122989
Probable space group: P 2/C
;
_chemical_formula_sum "Si O2"
_cell_formula_units_Z 20
_cell_length_a 9.602393
_cell_length_b 8.801477
_cell_length_c 11.390787
_cell_angle_alpha 90.000000
_cell_angle_beta 105.709712
_cell_angle_gamma 90.000000
_cell_volume 926.734466
_symmetry_space_group_name_H-M "P 2/C"
_symmetry_group_IT_number 13
_symmetry_cell_setting 'monoclinic'
loop_
_space_group_symop_operation_xyz
x,y,z
-x,y,1/2-z
-x,-y,-z
x,-y,1/2+z
loop_
_atom_site_type_symbol
_atom_site_label
_atom_site_fract_x
_atom_site_fract_y
_atom_site_fract_z
Si Si1 0.568077 0.836726 0.538860
Si Si2 0.636691 0.608495 0.352866
Si Si3 0.291822 0.710613 0.556193
Si Si4 0.162128 0.223315 0.776878
Si Si5 0.841325 0.876084 0.755410
O O1 0.577182 0.743218 0.420525
O O2 0.460341 0.756612 0.606569
O O3 0.728048 0.838643 0.627636
O O4 0.500000 0.000000 0.500000
O O5 0.500000 0.543757 0.250000
O O6 0.712666 0.472528 0.442444
O O7 0.756744 0.666244 0.291628
O O8 0.234975 0.776121 0.420651
O O9 0.195651 0.784717 0.635662
O O10 0.000000 0.285434 0.750000
O O11 0.162786 0.055505 0.720306
O O12 0.000000 0.823924 0.750000
#
# Coordination Sequence:
#
# PCOD8122989 Si02
#       5
#     4   4   4   4   4
#     4  12  23  45  73 100 134 184 231 280 338 407
#     4  12  25  44  71 100 140 178 231 285 345 406
#     4  12  26  45  72 100 138 182 229 283 344 411
#     4  11  27  46  68 102 139 181 228 284 343 408
#     4  11  26  45  71 102 138 180 232 282 342 406
#
# _framework density 21.581156
#
# number of rings (size 3 to 8) (size 9 to 14) (size 15 to 20)
#    0.000    0.400    4.000    3.600    5.600    3.200 
#    0.000    0.000    0.000    0.000    0.000    0.000 
#    0.000    0.000    0.000    0.000    0.000    0.000 
#
# Total GULP energy -248096.451323 kJ/mol
# GULP energy per Si atom -12404.822566 kJ/mol
# Density = 2.153204 g / cm^3
# Si number density = 21.581156 Si / 1000 Ang^3
#
#
#
# Elastic Constant Matrix: (Units=GPa)
#
#
# Indices 1 2 3 4 5 6 
#
# 1 183.0464 57.1361 48.4719 0.0000 -8.3221 0.0000
# 2 57.1361 133.0399 51.4631 0.0000 -17.9547 0.0000
# 3 48.4719 51.4631 79.5901 0.0000 -13.4769 0.0000
# 4 0.0000 0.0000 0.0000 39.7137 0.0000 -14.0966
# 5 -8.3221 -17.9547 -13.4769 0.0000 39.1392 0.0000
# 6 0.0000 0.0000 0.0000 -14.0966 0.0000 28.8168
#
#
#
# Elastic Compliance Matrix: (Units=1/GPa)
#
#
# Indices 1 2 3 4 5 6 
#
# 1 0.006816 -0.001802 -0.003059 0.000000 -0.000431 0.000000
# 2 -0.001802 0.010738 -0.005391 0.000000 0.002687 0.000000
# 3 -0.003059 -0.005391 0.018461 0.000000 0.003233 0.000000
# 4 0.000000 0.000000 0.000000 0.030471 0.000000 0.014906
# 5 -0.000431 0.002687 0.003233 0.000000 0.027804 0.000000
# 6 0.000000 0.000000 0.000000 0.014906 0.000000 0.041994
#
#
# Mechanical properties :
#
#
# Convention : Reuss Voigt Hill
#
# Bulk Modulus (GPa) = 64.46976 78.86871 71.66923
# Shear Modulus (GPa) = 30.87222 37.44096 34.15659
#
# Velocity S-wave (km/s) = 3.78632 4.16972 3.98264
# Velocity P-wave (km/s) = 7.00378 7.73347 7.37766
#
# Compressibility (1/GPa) = 0.01551115
#
# Stress axis : x y z
#
# Youngs Moduli (GPa) = 146.71329 93.12300 54.16971
#
# Poissons Ratio (x) = 0.16782 0.16569
# Poissons Ratio (y) = 0.26440 0.29203
# Poissons Ratio (z) = 0.44875 0.50203
#
# Static dielectric constant tensor:
#      x y z
#    x 4.235850 0.000000 -0.013470 
#    y 0.000000 3.942390 0.000000 
#    z -0.013470 0.000000 3.938020 
# 
# 
# High freq. dielectric constant tensor:
#      x y z
#    x 1.867540 0.000000 -0.003850 
#    y 0.000000 1.854860 0.000000 
#    z -0.003850 0.000000 1.845940 
# 
# From -- ./inp_files/28101.got.cif
#   From: 2010.06.25/outbox.cif.g09.slc.cpg/sg13_15_cif.got.tgz:28101.got - 2010.06.28 04:50:58.
