data_PCOD8122522
_publ_section_title
;
Structure prediction by ZEFSAII (Michael W. Deem and Ramdas Pophale) SiO2 
 PCOD8122522
Probable space group: P 2/C
;
_chemical_formula_sum "Si O2"
_cell_formula_units_Z 16
_cell_length_a 9.413228
_cell_length_b 7.170002
_cell_length_c 20.057154
_cell_angle_alpha 90.000000
_cell_angle_beta 147.824071
_cell_angle_gamma 90.000000
_cell_volume 720.881169
_symmetry_space_group_name_H-M "P 2/C"
_symmetry_group_IT_number 13
_symmetry_cell_setting 'monoclinic'
loop_
_space_group_symop_operation_xyz
x,y,z
-x,y,1/2-z
-x,-y,-z
x,-y,1/2+z
loop_
_atom_site_type_symbol
_atom_site_label
_atom_site_fract_x
_atom_site_fract_y
_atom_site_fract_z
Si Si1 0.692266 0.483542 0.639693
Si Si2 0.513712 0.230267 0.332250
Si Si3 0.586925 0.821485 0.189327
Si Si4 0.089025 0.702102 0.059767
O O1 0.500000 0.500000 0.500000
O O2 0.585702 0.609417 0.657963
O O3 0.671692 0.265061 0.652056
O O4 0.000000 0.538714 0.750000
O O5 0.500000 0.298884 0.250000
O O6 0.822353 0.179778 0.468086
O O7 0.343980 0.041182 0.277745
O O8 0.269764 0.794797 0.074186
O O9 0.747215 0.699409 0.306842
O O10 0.000000 0.500000 0.000000
#
# Coordination Sequence:
#
# PCOD8122522 Si02
#       4
#     4   4   4   4
#     4  12  29  48  69 101 150 200 233 289 370 445
#     4  12  25  43  78 106 137 183 246 305 352 420
#     4  11  25  43  71 107 138 182 243 297 363 419
#     4  11  21  42  71 109 141 176 230 314 362 408
#
# _framework density 22.195059000000001
#
# number of rings (size 3 to 8) (size 9 to 14) (size 15 to 20)
#    0.000    0.500    5.000    3.750    3.500    2.000 
#    0.000    0.000    0.000    0.000    0.000    0.000 
#    0.000    0.000    0.000    0.000    0.000    0.000 
#
# Total GULP energy -198325.253766 kJ/mol
# GULP energy per Si atom -12395.328360 kJ/mol
# Density = 2.214454 g / cm^3
# Si number density = 22.195059 Si / 1000 Ang^3
#
#
#
# Elastic Constant Matrix: (Units=GPa)
#
#
# Indices 1 2 3 4 5 6 
#
# 1 122.9180 35.3483 70.5826 0.0000 -3.5339 0.0000
# 2 35.3483 109.1540 46.3743 0.0000 -22.9482 0.0000
# 3 70.5826 46.3743 136.5508 0.0000 2.8950 0.0000
# 4 0.0000 0.0000 0.0000 28.7836 0.0000 2.9281
# 5 -3.5339 -22.9482 2.8950 0.0000 48.0539 0.0000
# 6 0.0000 0.0000 0.0000 2.9281 0.0000 32.0679
#
#
#
# Elastic Compliance Matrix: (Units=1/GPa)
#
#
# Indices 1 2 3 4 5 6 
#
# 1 0.011773 -0.001282 -0.005663 0.000000 0.000595 0.000000
# 2 -0.001282 0.012414 -0.003682 0.000000 0.006056 0.000000
# 3 -0.005663 -0.003682 0.011562 0.000000 -0.002871 0.000000
# 4 0.000000 0.000000 0.000000 0.035068 0.000000 -0.003202
# 5 0.000595 0.006056 -0.002871 0.000000 0.023919 0.000000
# 6 0.000000 0.000000 0.000000 -0.003202 0.000000 0.031476
#
#
# Mechanical properties :
#
#
# Convention : Reuss Voigt Hill
#
# Bulk Modulus (GPa) = 68.98474 74.80367 71.89421
# Shear Modulus (GPa) = 32.83102 36.20225 34.51664
#
# Velocity S-wave (km/s) = 3.85021 4.04306 3.94782
# Velocity P-wave (km/s) = 7.13541 7.45461 7.29676
#
# Compressibility (1/GPa) = 0.01449596
#
# Stress axis : x y z
#
# Youngs Moduli (GPa) = 84.94129 80.55571 86.49354
#
# Poissons Ratio (x) = 0.10324 0.48979
# Poissons Ratio (y) = 0.10886 0.31845
# Poissons Ratio (z) = 0.48100 0.29659
#
# Static dielectric constant tensor:
#      x y z
#    x 4.115920 0.000000 0.293100 
#    y 0.000000 4.001500 0.000000 
#    z 0.293100 0.000000 4.313990 
# 
# 
# High freq. dielectric constant tensor:
#      x y z
#    x 1.863050 0.000000 0.012140 
#    y 0.000000 1.879690 0.000000 
#    z 0.012140 0.000000 1.883680 
# 
# From -- ./inp_files/63132.got.cif
#   From: 2010.06.25/outbox.cif.g09.slc.cpg/sg13_32_cif.got.tgz:63132.got - 2010.06.28 04:50:58.
