data_PCOD8122258
_publ_section_title
;
Structure prediction by ZEFSAII (Michael W. Deem and Ramdas Pophale) SiO2 
 PCOD8122258
Probable space group: P 2/C
;
_chemical_formula_sum "Si O2"
_cell_formula_units_Z 32
_cell_length_a 8.388828
_cell_length_b 5.059374
_cell_length_c 28.873600
_cell_angle_alpha 90.000000
_cell_angle_beta 90.689114
_cell_angle_gamma 90.000000
_cell_volume 1225.370999
_symmetry_space_group_name_H-M "P 2/C"
_symmetry_group_IT_number 13
_symmetry_cell_setting 'monoclinic'
loop_
_space_group_symop_operation_xyz
x,y,z
-x,y,1/2-z
-x,-y,-z
x,-y,1/2+z
loop_
_atom_site_type_symbol
_atom_site_label
_atom_site_fract_x
_atom_site_fract_y
_atom_site_fract_z
Si Si1 0.186169 0.027650 0.946469
Si Si2 0.417450 0.375015 0.906740
Si Si3 0.258351 0.199279 0.732672
Si Si4 0.431493 0.075994 0.817882
Si Si5 0.847210 0.761174 0.463970
Si Si6 0.858533 0.720486 0.814856
Si Si7 0.191244 0.288351 0.357042
Si Si8 0.289196 0.266208 0.085196
O O1 0.355566 0.190532 0.948897
O O2 0.036171 0.199034 0.962559
O O3 0.146388 0.937833 0.894100
O O4 0.206950 0.782413 0.982429
O O5 0.496355 0.205064 0.865805
O O6 0.245154 0.458821 0.885926
O O7 0.529328 0.623409 0.920800
O O8 0.293410 0.232881 0.787876
O O9 0.411881 0.049064 0.711952
O O10 0.221687 0.489139 0.714792
O O11 0.124966 0.987350 0.716242
O O12 0.347865 0.795230 0.827894
O O13 0.821397 0.470564 0.443210
O O14 0.737403 0.974192 0.435733
O O15 0.755733 0.752834 0.861126
O O16 0.039796 0.639280 0.825689
#
# Coordination Sequence:
#
# PCOD8122258 Si02
#       8
#     4   4   4   4   4   4   4   4
#     4  10  25  44  68 100 138 179 227 281 350 405
#     4  11  25  43  70  96 141 181 225 280 351 408
#     4  11  26  46  73 100 134 180 232 283 336 412
#     4  10  25  45  68 101 135 180 227 281 345 410
#     4  11  26  45  71 101 133 182 231 284 335 414
#     4  12  25  45  71 101 137 180 231 282 343 409
#     4  11  25  44  69  98 141 181 222 283 350 407
#     4  12  25  44  72 100 137 178 235 277 340 408
#
# _framework density 26.114540000000002
#
# number of rings (size 3 to 8) (size 9 to 14) (size 15 to 20)
#    0.000    1.000    2.500    2.250   10.500    3.500 
#    0.000    0.000    0.000    0.000    0.000    0.000 
#    0.000    0.000    0.000    0.000    0.000    0.000 
#
# Total GULP energy -396610.299394 kJ/mol
# GULP energy per Si atom -12394.071856 kJ/mol
# Density = 2.605510 g / cm^3
# Si number density = 26.114540 Si / 1000 Ang^3
#
#
#
# Elastic Constant Matrix: (Units=GPa)
#
#
# Indices 1 2 3 4 5 6 
#
# 1 52.9511 -18.3733 4.1218 0.0000 0.4728 0.0000
# 2 -18.3733 47.4776 -2.6347 0.0000 1.7946 0.0000
# 3 4.1218 -2.6347 63.2397 0.0000 11.5988 0.0000
# 4 0.0000 0.0000 0.0000 25.5893 0.0000 19.5866
# 5 0.4728 1.7946 11.5988 0.0000 35.4828 0.0000
# 6 0.0000 0.0000 0.0000 19.5866 0.0000 39.6705
#
#
#
# Elastic Compliance Matrix: (Units=1/GPa)
#
#
# Indices 1 2 3 4 5 6 
#
# 1 0.021892 0.008431 -0.001004 0.000000 -0.000390 0.000000
# 2 0.008431 0.024428 0.000761 0.000000 -0.001597 0.000000
# 3 -0.001004 0.000761 0.016930 0.000000 -0.005559 0.000000
# 4 0.000000 0.000000 0.000000 0.062819 0.000000 -0.031016
# 5 -0.000390 -0.001597 -0.005559 0.000000 0.030086 0.000000
# 6 0.000000 0.000000 0.000000 -0.031016 0.000000 0.040521
#
#
# Mechanical properties :
#
#
# Convention : Reuss Voigt Hill
#
# Bulk Modulus (GPa) = 12.55869 14.43290 13.49579
# Shear Modulus (GPa) = 24.17303 32.18550 28.17926
#
# Velocity S-wave (km/s) = 3.04576 3.51447 3.28847
# Velocity P-wave (km/s) = 4.14589 4.69121 4.42695
#
# Compressibility (1/GPa) = 0.07962613
#
# Stress axis : x y z
#
# Youngs Moduli (GPa) = 45.67778 40.93675 59.06815
#
# Poissons Ratio (x) = -0.34515 0.05931
# Poissons Ratio (y) = -0.38512 -0.04495
# Poissons Ratio (z) = 0.04587 -0.03115
#
# Static dielectric constant tensor:
#      x y z
#    x 4.680160 0.000000 0.140720 
#    y 0.000000 4.473830 0.000000 
#    z 0.140720 0.000000 5.222290 
# 
# 
# High freq. dielectric constant tensor:
#      x y z
#    x 2.048750 0.000000 0.004900 
#    y 0.000000 2.039300 0.000000 
#    z 0.004900 0.000000 2.053920 
# 
# From -- ./inp_files/95662.got.cif
#   From: 2010.06.25/outbox.cif.g09.slc.cpg/sg13_48_cif.got.tgz:95662.got - 2010.06.28 04:50:58.
