data_PCOD8122220
_publ_section_title
;
Structure prediction by ZEFSAII (Michael W. Deem and Ramdas Pophale) SiO2 
 PCOD8122220
Probable space group: P 2/C
;
_chemical_formula_sum "Si O2"
_cell_formula_units_Z 20
_cell_length_a 6.050680
_cell_length_b 16.210016
_cell_length_c 8.285186
_cell_angle_alpha 90.000000
_cell_angle_beta 90.000000
_cell_angle_gamma 90.000000
_cell_volume 812.624462
_symmetry_space_group_name_H-M "P 2/C"
_symmetry_group_IT_number 13
_symmetry_cell_setting 'monoclinic'
loop_
_space_group_symop_operation_xyz
x,y,z
-x,y,1/2-z
-x,-y,-z
x,-y,1/2+z
loop_
_atom_site_type_symbol
_atom_site_label
_atom_site_fract_x
_atom_site_fract_y
_atom_site_fract_z
Si Si1 0.000000 0.289058 0.250000
Si Si2 0.675824 0.388717 0.461448
Si Si3 0.500000 0.470461 0.750000
Si Si4 0.000000 0.789058 0.250000
Si Si5 0.673139 0.250000 0.000000
Si Si6 0.500000 0.029539 0.250000
Si Si7 0.324176 0.111283 0.961448
O O1 0.895396 0.344006 0.395805
O O2 0.820665 0.231684 0.160265
O O3 0.675431 0.413914 0.650348
O O4 0.648436 0.473005 0.364219
O O5 0.466034 0.328494 0.442964
O O6 0.104603 0.844006 0.395806
O O7 0.820664 0.731684 0.339735
O O8 0.533966 0.171506 0.942964
O O9 0.675431 0.086087 0.349652
O O10 0.648437 0.973006 0.135781
#
# Coordination Sequence:
#
# PCOD8122220 Si02
#       7
#     2   4   2   2   4   2   4
#     4  12  26  44  76 108 140 202 254 290 382 434
#     4  11  25  48  70 105 145 192 246 311 362 443
#     4  10  24  48  70 100 156 186 236 320 368 422
#     4  12  26  44  76 108 140 202 254 290 382 434
#     4  12  26  46  72 106 146 192 250 312 350 452
#     4  10  24  48  70 100 156 186 236 320 368 422
#     4  11  25  48  70 105 145 192 246 311 362 443
#
# _framework density 24.611615
#
# number of rings (size 3 to 8) (size 9 to 14) (size 15 to 20)
#    0.000    0.800    4.000    1.200   11.200    1.600 
#    0.000    0.000    0.000    0.000    0.000    0.000 
#    0.000    0.000    0.000    0.000    0.000    0.000 
#
# Total GULP energy -247829.288427 kJ/mol
# GULP energy per Si atom -12391.464421 kJ/mol
# Density = 2.455560 g / cm^3
# Si number density = 24.611615 Si / 1000 Ang^3
#
#
#
# Elastic Constant Matrix: (Units=GPa)
#
#
# Indices 1 2 3 4 5 6 
#
# 1 107.6873 43.8039 58.4319 0.0000 0.0000 0.0000
# 2 43.8039 63.4371 51.3965 0.0000 0.0004 0.0000
# 3 58.4319 51.3965 147.9867 0.0000 0.0002 0.0000
# 4 0.0000 0.0000 0.0000 49.6959 0.0000 0.0000
# 5 0.0000 0.0004 0.0002 0.0000 57.4687 0.0000
# 6 0.0000 0.0000 0.0000 0.0000 0.0000 19.3694
#
#
#
# Elastic Compliance Matrix: (Units=1/GPa)
#
#
# Indices 1 2 3 4 5 6 
#
# 1 0.013795 -0.007114 -0.002976 0.000000 0.000000 0.000000
# 2 -0.007114 0.025605 -0.006084 0.000000 0.000000 0.000000
# 3 -0.002976 -0.006084 0.010045 0.000000 0.000000 0.000000
# 4 0.000000 0.000000 0.000000 0.020122 0.000000 0.000000
# 5 0.000000 0.000000 0.000000 0.000000 0.017401 0.000000
# 6 0.000000 0.000000 0.000000 0.000000 0.000000 0.051628
#
#
# Mechanical properties :
#
#
# Convention : Reuss Voigt Hill
#
# Bulk Modulus (GPa) = 58.48901 69.59729 64.04315
# Shear Modulus (GPa) = 28.30564 36.33874 32.32219
#
# Velocity S-wave (km/s) = 3.39498 3.84668 3.62787
# Velocity P-wave (km/s) = 6.25973 6.93317 6.60504
#
# Compressibility (1/GPa) = 0.01709723
#
# Stress axis : x y z
#
# Youngs Moduli (GPa) = 72.49104 39.05466 99.54867
#
# Poissons Ratio (x) = 0.27785 0.29626
# Poissons Ratio (y) = 0.51572 0.60563
# Poissons Ratio (z) = 0.21573 0.23760
#
# Static dielectric constant tensor:
#      x y z
#    x 4.185910 0.000000 -0.000010 
#    y 0.000000 4.402850 0.000000 
#    z -0.000010 0.000000 5.037750 
# 
# 
# High freq. dielectric constant tensor:
#      x y z
#    x 1.952610 0.000000 0.000000 
#    y 0.000000 1.974600 0.000000 
#    z 0.000000 0.000000 2.008350 
# 
# From -- ./inp_files/9546.got.cif
#   From: 2010.06.25/outbox.cif.g09.slc.cpg/sg13_5_cif.got.tgz:9546.got - 2010.06.28 04:50:58.
