data_PCOD8122413
_publ_section_title
;
Structure prediction by ZEFSAII (Michael W. Deem and Ramdas Pophale) SiO2 
 PCOD8122413
Probable space group: P 2/C
;
_chemical_formula_sum "Si O2"
_cell_formula_units_Z 24
_cell_length_a 6.749803
_cell_length_b 12.871163
_cell_length_c 15.236548
_cell_angle_alpha 90.000000
_cell_angle_beta 67.075844
_cell_angle_gamma 90.000000
_cell_volume 1219.172425
_symmetry_space_group_name_H-M "P 2/C"
_symmetry_group_IT_number 13
_symmetry_cell_setting 'monoclinic'
loop_
_space_group_symop_operation_xyz
x,y,z
-x,y,1/2-z
-x,-y,-z
x,-y,1/2+z
loop_
_atom_site_type_symbol
_atom_site_label
_atom_site_fract_x
_atom_site_fract_y
_atom_site_fract_z
Si Si1 0.500000 0.406363 0.250000
Si Si2 0.889120 0.269362 0.526485
Si Si3 0.174806 0.276445 0.645369
Si Si4 0.500000 0.935028 0.750000
Si Si5 0.519944 0.866093 0.149270
Si Si6 0.149819 0.763223 0.805797
Si Si7 0.471138 0.557577 0.413979
O O1 0.702863 0.335862 0.240185
O O2 0.434906 0.474651 0.344192
O O3 0.751103 0.165663 0.569995
O O4 0.736216 0.369108 0.547636
O O5 0.070013 0.286874 0.568442
O O6 0.006495 0.255813 0.414940
O O7 0.329883 0.175580 0.619468
O O8 0.313589 0.378142 0.643349
O O9 0.000000 0.262296 0.750000
O O10 0.288456 0.866578 0.794308
O O11 0.502151 0.008935 0.836695
O O12 0.500000 0.813298 0.250000
O O13 0.000000 0.783476 0.750000
O O14 0.500000 0.500000 0.500000
#
# Coordination Sequence:
#
# PCOD8122413 Si02
#       7
#     2   4   4   2   4   4   4
#     4  11  24  41  58  84 126 159 204 253 296 354
#     4  11  23  39  64  94 121 160 208 246 305 364
#     4  11  20  36  64  90 121 155 192 255 307 355
#     4   9  22  43  64  88 124 155 202 253 306 370
#     4   9  20  40  62  92 123 148 194 254 305 363
#     4  11  25  43  61  84 123 167 205 248 300 362
#     4  11  24  38  58  89 123 160 206 251 295 358
#
# _framework density 19.685483999999999
#
# number of rings (size 3 to 8) (size 9 to 14) (size 15 to 20)
#    0.500    1.000    1.667    3.000    2.333   12.667 
#    0.000    1.667    0.000    0.000    0.000    0.000 
#    0.000    0.000    0.000    0.000    0.000    0.000 
#
# Total GULP energy -297644.967735 kJ/mol
# GULP energy per Si atom -12401.873656 kJ/mol
# Density = 1.964068 g / cm^3
# Si number density = 19.685484 Si / 1000 Ang^3
#
#
#
# Elastic Constant Matrix: (Units=GPa)
#
#
# Indices 1 2 3 4 5 6 
#
# 1 125.8057 50.4894 34.9761 0.0000 3.6664 0.0000
# 2 50.4894 132.5180 33.6098 0.0000 -4.7526 0.0000
# 3 34.9761 33.6098 98.1153 0.0000 2.6336 0.0000
# 4 0.0000 0.0000 0.0000 27.3494 0.0000 -1.5648
# 5 3.6664 -4.7526 2.6336 0.0000 40.5541 0.0000
# 6 0.0000 0.0000 0.0000 -1.5648 0.0000 19.9409
#
#
#
# Elastic Compliance Matrix: (Units=1/GPa)
#
#
# Indices 1 2 3 4 5 6 
#
# 1 0.009943 -0.003217 -0.002413 0.000000 -0.001119 0.000000
# 2 -0.003217 0.009359 -0.002100 0.000000 0.001524 0.000000
# 3 -0.002413 -0.002100 0.011793 0.000000 -0.000794 0.000000
# 4 0.000000 0.000000 0.000000 0.036729 0.000000 0.002882
# 5 -0.001119 0.001524 -0.000794 0.000000 0.024990 0.000000
# 6 0.000000 0.000000 0.000000 0.002882 0.000000 0.050374
#
#
# Mechanical properties :
#
#
# Convention : Reuss Voigt Hill
#
# Bulk Modulus (GPa) = 63.95444 66.06551 65.00997
# Shear Modulus (GPa) = 30.51411 33.39312 31.95361
#
# Velocity S-wave (km/s) = 3.94138 4.12312 4.03327
# Velocity P-wave (km/s) = 7.29872 7.50335 7.40174
#
# Compressibility (1/GPa) = 0.01563613
#
# Stress axis : x y z
#
# Youngs Moduli (GPa) = 100.57310 106.84936 84.79681
#
# Poissons Ratio (x) = 0.34368 0.20458
# Poissons Ratio (y) = 0.32350 0.17809
# Poissons Ratio (z) = 0.24264 0.22441
#
# Static dielectric constant tensor:
#      x y z
#    x 3.662210 0.000000 -0.130830 
#    y 0.000000 3.628700 0.000000 
#    z -0.130830 0.000000 3.349460 
# 
# 
# High freq. dielectric constant tensor:
#      x y z
#    x 1.783030 0.000000 -0.003630 
#    y 0.000000 1.768380 0.000000 
#    z -0.003630 0.000000 1.767730 
# 
# From -- ./inp_files/43824.got.cif
#   From: 2010.06.25/outbox.cif.g09.slc.cpg/sg13_22_cif.got.tgz:43824.got - 2010.06.28 04:50:58.
