data_PCOD8122644
_publ_section_title
;
Structure prediction by ZEFSAII (Michael W. Deem and Ramdas Pophale) SiO2 
 PCOD8122644
Probable space group: P 2/C
;
_chemical_formula_sum "Si O2"
_cell_formula_units_Z 24
_cell_length_a 13.686225
_cell_length_b 6.989630
_cell_length_c 18.742045
_cell_angle_alpha 90.000000
_cell_angle_beta 36.424542
_cell_angle_gamma 90.000000
_cell_volume 1064.555745
_symmetry_space_group_name_H-M "P 2/C"
_symmetry_group_IT_number 13
_symmetry_cell_setting 'monoclinic'
loop_
_space_group_symop_operation_xyz
x,y,z
-x,y,1/2-z
-x,-y,-z
x,-y,1/2+z
loop_
_atom_site_type_symbol
_atom_site_label
_atom_site_fract_x
_atom_site_fract_y
_atom_site_fract_z
Si Si1 0.822617 0.728634 0.563154
Si Si2 0.500000 0.506876 0.750000
Si Si3 0.269505 0.396526 0.631350
Si Si4 0.822925 0.093589 0.471695
Si Si5 0.000000 0.107796 0.750000
Si Si6 0.951518 0.419094 0.126998
Si Si7 0.542260 0.675939 0.079685
O O1 0.654435 0.633854 0.636481
O O2 0.837010 0.701106 0.639831
O O3 0.986952 0.629048 0.434086
O O4 0.808165 0.949955 0.547565
O O5 0.539091 0.378576 0.796484
O O6 0.156169 0.551770 0.738874
O O7 0.353758 0.502957 0.515839
O O8 0.394625 0.286668 0.610973
O O9 0.162846 0.233088 0.658264
O O10 0.652300 0.132026 0.528570
O O11 0.878667 0.302803 0.464386
O O12 0.972605 0.022509 0.334748
#
# Coordination Sequence:
#
# PCOD8122644 Si02
#       7
#     4   2   4   4   2   4   4
#     4  11  24  42  70 100 136 186 228 284 350 413
#     4  12  22  48  64 100 142 186 222 282 354 422
#     4  11  23  47  73 100 137 192 228 285 355 415
#     4  12  24  43  67 108 133 180 234 291 347 406
#     4  12  24  42  70 100 138 176 236 292 334 412
#     4  11  22  45  72  97 140 179 235 287 342 419
#     4  11  25  43  74 100 141 186 229 282 356 418
#
# _framework density 22.544613999999999
#
# number of rings (size 3 to 8) (size 9 to 14) (size 15 to 20)
#    0.000    0.667    5.000    3.500    0.000    1.333 
#    6.000    0.000    0.000    0.000    0.000    0.000 
#    0.000    0.000    0.000    0.000    0.000    0.000 
#
# Total GULP energy -297594.134960 kJ/mol
# GULP energy per Si atom -12399.755623 kJ/mol
# Density = 2.249330 g / cm^3
# Si number density = 22.544614 Si / 1000 Ang^3
#
#
#
# Elastic Constant Matrix: (Units=GPa)
#
#
# Indices 1 2 3 4 5 6 
#
# 1 99.8687 32.8282 11.6746 0.0000 -5.6291 0.0000
# 2 32.8282 84.3446 12.3979 0.0000 -3.7793 0.0000
# 3 11.6746 12.3979 76.2524 0.0000 7.2141 0.0000
# 4 0.0000 0.0000 0.0000 17.6731 0.0000 -1.9651
# 5 -5.6291 -3.7793 7.2141 0.0000 44.3067 0.0000
# 6 0.0000 0.0000 0.0000 -1.9651 0.0000 40.2555
#
#
#
# Elastic Compliance Matrix: (Units=1/GPa)
#
#
# Indices 1 2 3 4 5 6 
#
# 1 0.011640 -0.004294 -0.001208 0.000000 0.001309 0.000000
# 2 -0.004294 0.013814 -0.001674 0.000000 0.000905 0.000000
# 3 -0.001208 -0.001674 0.013812 0.000000 -0.002545 0.000000
# 4 0.000000 0.000000 0.000000 0.056892 0.000000 0.002777
# 5 0.001309 0.000905 -0.002545 0.000000 0.023228 0.000000
# 6 0.000000 0.000000 0.000000 0.002777 0.000000 0.024977
#
#
# Mechanical properties :
#
#
# Convention : Reuss Voigt Hill
#
# Bulk Modulus (GPa) = 40.13844 41.58524 40.86184
# Shear Modulus (GPa) = 29.93656 34.01805 31.97730
#
# Velocity S-wave (km/s) = 3.64796 3.88870 3.77025
# Velocity P-wave (km/s) = 5.96541 6.21679 6.09240
#
# Compressibility (1/GPa) = 0.02491377
#
# Stress axis : x y z
#
# Youngs Moduli (GPa) = 85.91303 72.38959 72.39938
#
# Poissons Ratio (x) = 0.31085 0.08744
# Poissons Ratio (y) = 0.36892 0.12121
# Poissons Ratio (z) = 0.10376 0.12120
#
# Static dielectric constant tensor:
#      x y z
#    x 4.217470 0.000000 -0.039730 
#    y 0.000000 3.794000 0.000000 
#    z -0.039730 0.000000 3.960350 
# 
# 
# High freq. dielectric constant tensor:
#      x y z
#    x 1.900830 0.000000 0.001530 
#    y 0.000000 1.869350 0.000000 
#    z 0.001530 0.000000 1.894150 
# 
# From -- ./inp_files/79253.got.cif
#   From: 2010.06.25/outbox.cif.g09.slc.cpg/sg13_40_cif.got.tgz:79253.got - 2010.06.28 04:50:58.
