data_PCOD8122427
_publ_section_title
;
Structure prediction by ZEFSAII (Michael W. Deem and Ramdas Pophale) SiO2 
 PCOD8122427
Probable space group: P 2/C
;
_chemical_formula_sum "Si O2"
_cell_formula_units_Z 24
_cell_length_a 22.428759
_cell_length_b 9.027527
_cell_length_c 17.268370
_cell_angle_alpha 90.000000
_cell_angle_beta 20.197863
_cell_angle_gamma 90.000000
_cell_volume 1207.190117
_symmetry_space_group_name_H-M "P 2/C"
_symmetry_group_IT_number 13
_symmetry_cell_setting 'monoclinic'
loop_
_space_group_symop_operation_xyz
x,y,z
-x,y,1/2-z
-x,-y,-z
x,-y,1/2+z
loop_
_atom_site_type_symbol
_atom_site_label
_atom_site_fract_x
_atom_site_fract_y
_atom_site_fract_z
Si Si1 0.000327 0.074690 0.159279
Si Si2 0.292180 0.933887 0.711675
Si Si3 0.107475 0.708108 0.831577
Si Si4 0.845237 0.778103 0.380343
Si Si5 0.486664 0.820472 0.612374
Si Si6 0.768059 0.396336 0.824348
O O1 0.000000 0.111149 0.250000
O O2 0.905151 0.212516 0.235822
O O3 0.897368 0.923049 0.268638
O O4 0.192076 0.048190 0.890808
O O5 0.158024 0.828369 0.833393
O O6 0.421861 0.828125 0.602253
O O7 0.394075 0.032385 0.523238
O O8 0.246556 0.575119 0.657086
O O9 0.920479 0.647483 0.081092
O O10 0.675952 0.823288 0.633465
O O11 0.804224 0.650178 0.368999
O O12 0.000000 0.728527 0.250000
O O13 0.592901 0.672031 0.502853
#
# Coordination Sequence:
#
# PCOD8122427 Si02
#       6
#     4   4   4   4   4   4
#     4  11  20  39  66  94 118 160 212 265 309 366
#     4  11  21  40  66  95 120 161 210 267 308 363
#     4  11  23  40  61  90 127 163 205 249 320 376
#     4  11  21  40  64  91 122 165 212 256 315 370
#     4  11  22  38  65  93 123 159 210 263 309 369
#     4  11  23  38  61  91 126 170 202 250 313 386
#
# _framework density 19.880877999999999
#
# number of rings (size 3 to 8) (size 9 to 14) (size 15 to 20)
#    0.000    1.000    6.667    2.000    0.000    1.333 
#    0.000    3.333    0.000    0.000    0.000    0.000 
#    0.000    0.000    0.000    0.000    0.000    0.000 
#
# Total GULP energy -297555.444577 kJ/mol
# GULP energy per Si atom -12398.143524 kJ/mol
# Density = 1.983563 g / cm^3
# Si number density = 19.880878 Si / 1000 Ang^3
#
#
#
# Elastic Constant Matrix: (Units=GPa)
#
#
# Indices 1 2 3 4 5 6 
#
# 1 105.5957 57.9347 27.4873 0.0000 0.8212 0.0000
# 2 57.9347 94.4632 31.9702 0.0000 0.3329 0.0000
# 3 27.4873 31.9702 102.6590 0.0000 -0.2919 0.0000
# 4 0.0000 0.0000 0.0000 26.8284 0.0000 -1.8891
# 5 0.8212 0.3329 -0.2919 0.0000 30.4454 0.0000
# 6 0.0000 0.0000 0.0000 -1.8891 0.0000 18.6662
#
#
#
# Elastic Compliance Matrix: (Units=1/GPa)
#
#
# Indices 1 2 3 4 5 6 
#
# 1 0.014415 -0.008420 -0.001238 0.000000 -0.000309 0.000000
# 2 -0.008420 0.016753 -0.002963 0.000000 0.000016 0.000000
# 3 -0.001238 -0.002963 0.010996 0.000000 0.000171 0.000000
# 4 0.000000 0.000000 0.000000 0.037541 0.000000 0.003799
# 5 -0.000309 0.000016 0.000171 0.000000 0.032855 0.000000
# 6 0.000000 0.000000 0.000000 0.003799 0.000000 0.053957
#
#
# Mechanical properties :
#
#
# Convention : Reuss Voigt Hill
#
# Bulk Modulus (GPa) = 59.09847 59.72247 59.41047
# Shear Modulus (GPa) = 25.32927 27.54305 26.43616
#
# Velocity S-wave (km/s) = 3.57326 3.72614 3.65050
# Velocity P-wave (km/s) = 6.84215 6.97263 6.90770
#
# Compressibility (1/GPa) = 0.01692091
#
# Stress axis : x y z
#
# Youngs Moduli (GPa) = 69.37406 59.69071 90.94533
#
# Poissons Ratio (x) = 0.50262 0.11260
# Poissons Ratio (y) = 0.58416 0.26944
# Poissons Ratio (z) = 0.08589 0.17684
#
# Static dielectric constant tensor:
#      x y z
#    x 3.644550 0.000000 -0.061590 
#    y 0.000000 3.698590 0.000000 
#    z -0.061590 0.000000 3.689710 
# 
# 
# High freq. dielectric constant tensor:
#      x y z
#    x 1.777380 0.000000 -0.001190 
#    y 0.000000 1.760560 0.000000 
#    z -0.001190 0.000000 1.780180 
# 
# From -- ./inp_files/71239.got.cif
#   From: 2010.06.25/outbox.cif.g09.slc.cpg/sg13_36_cif.got.tgz:71239.got - 2010.06.28 04:50:58.
