data_PCOD8122354
_publ_section_title
;
Structure prediction by ZEFSAII (Michael W. Deem and Ramdas Pophale) SiO2 
 PCOD8122354
Probable space group: P 2/C
;
_chemical_formula_sum "Si O2"
_cell_formula_units_Z 20
_cell_length_a 12.884096
_cell_length_b 10.472136
_cell_length_c 8.346866
_cell_angle_alpha 90.000000
_cell_angle_beta 45.995088
_cell_angle_gamma 90.000000
_cell_volume 810.048084
_symmetry_space_group_name_H-M "P 2/C"
_symmetry_group_IT_number 13
_symmetry_cell_setting 'monoclinic'
loop_
_space_group_symop_operation_xyz
x,y,z
-x,y,1/2-z
-x,-y,-z
x,-y,1/2+z
loop_
_atom_site_type_symbol
_atom_site_label
_atom_site_fract_x
_atom_site_fract_y
_atom_site_fract_z
Si Si1 0.892825 0.164860 0.060676
Si Si2 0.420060 0.741203 0.673790
Si Si3 0.000000 0.938323 0.750000
Si Si4 0.500000 0.293758 0.750000
Si Si5 0.902416 0.602333 0.189841
Si Si6 0.291067 0.483373 0.857284
O O1 0.743792 0.213231 0.150187
O O2 0.895478 0.150848 0.252304
O O3 0.027001 0.257664 0.871099
O O4 0.907294 0.025097 0.968589
O O5 0.500000 0.792642 0.750000
O O6 0.496359 0.785506 0.423022
O O7 0.414401 0.586915 0.681740
O O8 0.356306 0.381804 0.912354
O O9 0.854414 0.553659 0.417997
O O10 0.752489 0.602587 0.250408
O O11 0.000000 0.500000 0.000000
#
# Coordination Sequence:
#
# PCOD8122354 Si02
#       6
#     4   4   2   2   4   4
#     4  11  25  49  73 106 138 189 248 311 367 427
#     4  12  25  44  70 103 150 198 235 294 365 445
#     4  10  26  50  76  98 138 184 250 322 366 408
#     4  12  24  42  60 102 156 204 228 270 368 468
#     4  12  24  36  69 110 142 179 235 300 372 443
#     4  12  22  39  60 103 154 190 229 279 366 452
#
# _framework density 24.689890999999999
#
# number of rings (size 3 to 8) (size 9 to 14) (size 15 to 20)
#    0.000    0.400    5.000    3.600    5.600    0.000 
#    3.600    1.000    0.000    0.000    0.000    0.000 
#    0.000    0.000    0.000    0.000    0.000    0.000 
#
# Total GULP energy -247859.955720 kJ/mol
# GULP energy per Si atom -12392.997786 kJ/mol
# Density = 2.463370 g / cm^3
# Si number density = 24.689891 Si / 1000 Ang^3
#
#
#
# Elastic Constant Matrix: (Units=GPa)
#
#
# Indices 1 2 3 4 5 6 
#
# 1 210.0090 37.1333 38.8242 0.0000 29.2802 0.0000
# 2 37.1333 49.2278 0.3827 0.0000 -1.4829 0.0000
# 3 38.8242 0.3827 90.3893 0.0000 22.9718 0.0000
# 4 0.0000 0.0000 0.0000 20.7609 0.0000 8.3970
# 5 29.2802 -1.4829 22.9718 0.0000 46.6262 0.0000
# 6 0.0000 0.0000 0.0000 8.3970 0.0000 26.7146
#
#
#
# Elastic Compliance Matrix: (Units=1/GPa)
#
#
# Indices 1 2 3 4 5 6 
#
# 1 0.006445 -0.004945 -0.001919 0.000000 -0.003259 0.000000
# 2 -0.004945 0.024134 0.001186 0.000000 0.003289 0.000000
# 3 -0.001919 0.001186 0.013222 0.000000 -0.005271 0.000000
# 4 0.000000 0.000000 0.000000 0.055183 0.000000 -0.017345
# 5 -0.003259 0.003289 -0.005271 0.000000 0.026196 0.000000
# 6 0.000000 0.000000 0.000000 -0.017345 0.000000 0.042885
#
#
# Mechanical properties :
#
#
# Convention : Reuss Voigt Hill
#
# Bulk Modulus (GPa) = 30.82143 55.81182 43.31662
# Shear Modulus (GPa) = 26.28318 37.03940 31.66129
#
# Velocity S-wave (km/s) = 3.26626 3.87742 3.58489
# Velocity P-wave (km/s) = 5.17060 6.53453 5.89216
#
# Compressibility (1/GPa) = 0.03244496
#
# Stress axis : x y z
#
# Youngs Moduli (GPa) = 155.15238 41.43586 75.63015
#
# Poissons Ratio (x) = 0.20490 0.14514
# Poissons Ratio (y) = 0.76723 -0.08970
# Poissons Ratio (z) = 0.29776 -0.04914
#
# Static dielectric constant tensor:
#      x y z
#    x 5.517820 0.000000 0.303470 
#    y 0.000000 4.083580 0.000000 
#    z 0.303470 0.000000 4.233520 
# 
# 
# High freq. dielectric constant tensor:
#      x y z
#    x 2.027680 0.000000 0.019310 
#    y 0.000000 1.931290 0.000000 
#    z 0.019310 0.000000 1.978490 
# 
# From -- ./inp_files/15752.got.cif
#   From: 2010.06.25/outbox.cif.g09.slc.cpg/sg13_8_cif.got.tgz:15752.got - 2010.06.28 04:50:58.
