data_PCOD8122837
_publ_section_title
;
Structure prediction by ZEFSAII (Michael W. Deem and Ramdas Pophale) SiO2 
 PCOD8122837
Probable space group: P 2/C
;
_chemical_formula_sum "Si O2"
_cell_formula_units_Z 26
_cell_length_a 15.734980
_cell_length_b 14.265426
_cell_length_c 12.784312
_cell_angle_alpha 90.000000
_cell_angle_beta 25.039319
_cell_angle_gamma 90.000000
_cell_volume 1214.549228
_symmetry_space_group_name_H-M "P 2/C"
_symmetry_group_IT_number 13
_symmetry_cell_setting 'monoclinic'
loop_
_space_group_symop_operation_xyz
x,y,z
-x,y,1/2-z
-x,-y,-z
x,-y,1/2+z
loop_
_atom_site_type_symbol
_atom_site_label
_atom_site_fract_x
_atom_site_fract_y
_atom_site_fract_z
Si Si1 0.023541 0.573819 0.565037
Si Si2 0.909488 0.227632 0.106120
Si Si3 0.417010 0.094842 0.959383
Si Si4 0.300338 0.098253 0.664011
Si Si5 0.211924 0.316243 0.472937
Si Si6 0.500000 0.815162 0.750000
Si Si7 0.307218 0.517502 0.404322
O O1 0.988956 0.680794 0.575015
O O2 0.000000 0.500000 0.500000
O O3 0.249570 0.573356 0.362225
O O4 0.872841 0.531260 0.815843
O O5 0.733733 0.183199 0.373371
O O6 0.804067 0.260366 0.117188
O O7 0.091686 0.154181 0.885610
O O8 0.500000 0.076159 0.750000
O O9 0.608647 0.111924 0.821421
O O10 0.276101 0.011561 0.163175
O O11 0.467188 0.127463 0.392339
O O12 0.301315 0.246859 0.459320
O O13 0.345749 0.410435 0.322034
O O14 0.000000 0.351188 0.750000
O O15 0.500000 0.557697 0.250000
#
# Coordination Sequence:
#
# PCOD8122837 Si02
#       7
#     4   4   4   4   4   2   4
#     4  11  24  42  63  95 137 173 224 283 328 404
#     4  12  25  43  71 100 135 186 230 278 349 411
#     4  11  26  47  69 102 144 181 227 285 346 416
#     4  11  25  45  72 104 137 178 230 288 348 413
#     4  12  21  39  69 102 134 171 231 292 340 405
#     4  12  22  40  74 106 130 172 232 296 348 402
#     4  11  24  42  65  94 133 181 229 277 343 397
#
# _framework density 21.407118000000001
#
# number of rings (size 3 to 8) (size 9 to 14) (size 15 to 20)
#    0.000    0.615    7.692    0.462    0.000    5.538 
#    0.000    0.000    0.000    0.000    0.000    0.000 
#    0.000    0.000    0.000    0.000    0.000    0.000 
#
# Total GULP energy -322208.784654 kJ/mol
# GULP energy per Si atom -12392.645564 kJ/mol
# Density = 2.135839 g / cm^3
# Si number density = 21.407118 Si / 1000 Ang^3
#
#
#
# Elastic Constant Matrix: (Units=GPa)
#
#
# Indices 1 2 3 4 5 6 
#
# 1 170.9145 49.4491 40.9637 0.0000 -4.8930 0.0000
# 2 49.4491 115.5047 24.5458 0.0000 -7.8841 0.0000
# 3 40.9637 24.5458 67.8331 0.0000 0.8805 0.0000
# 4 0.0000 0.0000 0.0000 48.0757 0.0000 -7.2709
# 5 -4.8930 -7.8841 0.8805 0.0000 33.7709 0.0000
# 6 0.0000 0.0000 0.0000 -7.2709 0.0000 41.7681
#
#
#
# Elastic Compliance Matrix: (Units=1/GPa)
#
#
# Indices 1 2 3 4 5 6 
#
# 1 0.007424 -0.002363 -0.003636 0.000000 0.000619 0.000000
# 2 -0.002363 0.010310 -0.002331 0.000000 0.002125 0.000000
# 3 -0.003636 -0.002331 0.017801 0.000000 -0.001535 0.000000
# 4 0.000000 0.000000 0.000000 0.021363 0.000000 0.003719
# 5 0.000619 0.002125 -0.001535 0.000000 0.030237 0.000000
# 6 0.000000 0.000000 0.000000 0.003719 0.000000 0.024589
#
#
# Mechanical properties :
#
#
# Convention : Reuss Voigt Hill
#
# Bulk Modulus (GPa) = 52.98263 64.90771 58.94517
# Shear Modulus (GPa) = 37.12606 40.67586 38.90096
#
# Velocity S-wave (km/s) = 4.16899 4.36375 4.26748
# Velocity P-wave (km/s) = 6.92660 7.46835 7.20257
#
# Compressibility (1/GPa) = 0.01887411
#
# Stress axis : x y z
#
# Youngs Moduli (GPa) = 134.70181 96.99449 56.17575
#
# Poissons Ratio (x) = 0.22923 0.20426
# Poissons Ratio (y) = 0.31834 0.13095
# Poissons Ratio (z) = 0.48978 0.22610
#
# Static dielectric constant tensor:
#      x y z
#    x 6.074840 0.000000 -0.367780 
#    y 0.000000 3.963210 0.000000 
#    z -0.367780 0.000000 3.656940 
# 
# 
# High freq. dielectric constant tensor:
#      x y z
#    x 1.860640 0.000000 -0.003310 
#    y 0.000000 1.849990 0.000000 
#    z -0.003310 0.000000 1.821020 
# 
# From -- ./inp_files/37473.got.cif
#   From: 2010.06.25/outbox.cif.g09.slc.cpg/sg13_19_cif.got.tgz:37473.got - 2010.06.28 04:50:58.
