data_PCOD8122484
_publ_section_title
;
Structure prediction by ZEFSAII (Michael W. Deem and Ramdas Pophale) SiO2 
 PCOD8122484
Probable space group: P 2/C
;
_chemical_formula_sum "Si O2"
_cell_formula_units_Z 30
_cell_length_a 5.862337
_cell_length_b 11.967792
_cell_length_c 21.326505
_cell_angle_alpha 90.000000
_cell_angle_beta 68.574770
_cell_angle_gamma 90.000000
_cell_volume 1392.852809
_symmetry_space_group_name_H-M "P 2/C"
_symmetry_group_IT_number 13
_symmetry_cell_setting 'monoclinic'
loop_
_space_group_symop_operation_xyz
x,y,z
-x,y,1/2-z
-x,-y,-z
x,-y,1/2+z
loop_
_atom_site_type_symbol
_atom_site_label
_atom_site_fract_x
_atom_site_fract_y
_atom_site_fract_z
Si Si1 0.338612 0.329323 0.996944
Si Si2 0.500000 0.660369 0.250000
Si Si3 0.258824 0.520581 0.691916
Si Si4 0.182062 0.736145 0.385555
Si Si5 0.816257 0.456689 0.940277
Si Si6 0.145084 0.932052 0.037104
Si Si7 0.303537 0.230707 0.215421
Si Si8 0.620420 0.135184 0.423201
O O1 0.145488 0.434583 0.017805
O O2 0.240537 0.238239 0.056929
O O3 0.362620 0.266344 0.927494
O O4 0.602545 0.378371 0.989575
O O5 0.586739 0.582801 0.297864
O O6 0.306695 0.741838 0.304342
O O7 0.261565 0.512016 0.617453
O O8 0.372769 0.640293 0.697513
O O9 0.000000 0.507842 0.750000
O O10 0.052536 0.616496 0.404631
O O11 0.013904 0.844805 0.407223
O O12 0.252023 0.016740 0.077607
O O13 0.350481 0.863008 0.979948
O O14 0.000000 0.000000 0.000000
O O15 0.500000 0.192225 0.250000
O O16 0.387807 0.153159 0.149860
O O17 0.000000 0.216773 0.250000
#
# Coordination Sequence:
#
# PCOD8122484 Si02
#       8
#     4   2   4   4   4   4   4   4
#     4  11  22  38  65 102 133 170 227 291 352 423
#     4  12  24  38  62  96 142 186 224 282 360 458
#     4  11  21  39  62  94 143 187 222 271 355 447
#     4  12  24  41  65  98 138 185 233 289 362 432
#     4  11  22  38  61  99 140 172 221 285 352 431
#     4  11  25  45  73  97 129 181 248 306 364 421
#     4  11  26  45  74 109 150 192 239 292 363 442
#     4  11  24  46  73  98 135 181 237 307 367 423
#
# _framework density 21.538529
#
# number of rings (size 3 to 8) (size 9 to 14) (size 15 to 20)
#    0.000    0.800    7.333    0.400    1.867    0.000 
#    2.400    1.333    0.000    0.000    0.000    0.000 
#    0.000    0.000    0.000    0.000    0.000    0.000 
#
# Total GULP energy -371775.855265 kJ/mol
# GULP energy per Si atom -12392.528509 kJ/mol
# Density = 2.148951 g / cm^3
# Si number density = 21.538529 Si / 1000 Ang^3
#
#
#
# Elastic Constant Matrix: (Units=GPa)
#
#
# Indices 1 2 3 4 5 6 
#
# 1 68.4468 36.9327 32.8283 0.0000 -4.6234 0.0000
# 2 36.9327 118.2134 67.2250 0.0000 -12.3477 0.0000
# 3 32.8283 67.2250 139.1029 0.0000 -3.9188 0.0000
# 4 0.0000 0.0000 0.0000 44.6508 0.0000 -4.2907
# 5 -4.6234 -12.3477 -3.9188 0.0000 32.1073 0.0000
# 6 0.0000 0.0000 0.0000 -4.2907 0.0000 22.9466
#
#
#
# Elastic Compliance Matrix: (Units=1/GPa)
#
#
# Indices 1 2 3 4 5 6 
#
# 1 0.018024 -0.004349 -0.002133 0.000000 0.000663 0.000000
# 2 -0.004349 0.013198 -0.005245 0.000000 0.003809 0.000000
# 3 -0.002133 -0.005245 0.010197 0.000000 -0.001080 0.000000
# 4 0.000000 0.000000 0.000000 0.022806 0.000000 0.004264
# 5 0.000663 0.003809 -0.001080 0.000000 0.032574 0.000000
# 6 0.000000 0.000000 0.000000 0.004264 0.000000 0.044377
#
#
# Mechanical properties :
#
#
# Convention : Reuss Voigt Hill
#
# Bulk Modulus (GPa) = 55.66254 66.63724 61.14989
# Shear Modulus (GPa) = 29.30505 32.52609 30.91557
#
# Velocity S-wave (km/s) = 3.69262 3.89026 3.79273
# Velocity P-wave (km/s) = 6.63927 7.15434 6.90161
#
# Compressibility (1/GPa) = 0.01796540
#
# Stress axis : x y z
#
# Youngs Moduli (GPa) = 55.48030 75.76621 98.07089
#
# Poissons Ratio (x) = 0.32949 0.20923
# Poissons Ratio (y) = 0.24127 0.51437
# Poissons Ratio (z) = 0.11836 0.39738
#
# Static dielectric constant tensor:
#      x y z
#    x 4.109530 0.000000 0.054590 
#    y 0.000000 4.189220 0.000000 
#    z 0.054590 0.000000 3.932210 
# 
# 
# High freq. dielectric constant tensor:
#      x y z
#    x 1.836260 0.000000 0.003790 
#    y 0.000000 1.849500 0.000000 
#    z 0.003790 0.000000 1.848720 
# 
# From -- ./inp_files/73613.got.cif
#   From: 2010.06.25/outbox.cif.g09.slc.cpg/sg13_37_cif.got.tgz:73613.got - 2010.06.28 04:50:58.
