data_PCOD8122262
_publ_section_title
;
Structure prediction by ZEFSAII (Michael W. Deem and Ramdas Pophale) SiO2 
 PCOD8122262
Probable space group: P 2/C
;
_chemical_formula_sum "Si O2"
_cell_formula_units_Z 28
_cell_length_a 8.918621
_cell_length_b 4.929869
_cell_length_c 27.014352
_cell_angle_alpha 90.000000
_cell_angle_beta 61.166013
_cell_angle_gamma 90.000000
_cell_volume 1040.499891
_symmetry_space_group_name_H-M "P 2/C"
_symmetry_group_IT_number 13
_symmetry_cell_setting 'monoclinic'
loop_
_space_group_symop_operation_xyz
x,y,z
-x,y,1/2-z
-x,-y,-z
x,-y,1/2+z
loop_
_atom_site_type_symbol
_atom_site_label
_atom_site_fract_x
_atom_site_fract_y
_atom_site_fract_z
Si Si1 0.500108 0.605905 0.934219
Si Si2 0.372955 0.997156 0.227036
Si Si3 0.667380 0.937350 0.612061
Si Si4 0.244128 0.189789 0.000080
Si Si5 0.135388 0.502391 0.770155
Si Si6 0.288156 0.871287 0.080355
Si Si7 0.982343 0.208222 0.120433
O O1 0.379166 0.641080 0.904662
O O2 0.389366 0.417995 0.990989
O O3 0.557126 0.917210 0.932915
O O4 0.672842 0.420398 0.900972
O O5 0.500000 0.094864 0.250000
O O6 0.274634 0.727193 0.257356
O O7 0.488566 0.936159 0.159950
O O8 0.233604 0.226737 0.237292
O O9 0.794749 0.906451 0.638075
O O10 0.763463 0.135384 0.557175
O O11 0.283823 0.894581 0.020210
O O12 0.071055 0.304974 0.054154
O O13 0.038978 0.545826 0.837991
O O14 0.000000 0.416164 0.750000
O O15 0.102663 0.980473 0.128418
#
# Coordination Sequence:
#
# PCOD8122262 Si02
#       7
#     4   4   4   4   4   4   4
#     4  12  24  47  73 116 158 213 268 315 390 485
#     4  12  29  55  87 112 160 213 274 335 408 483
#     4  12  27  49  80 121 160 215 270 326 408 491
#     4  10  25  44  81 114 169 212 266 324 413 472
#     4  12  29  57  84 118 154 210 276 344 403 480
#     4  10  26  45  74 112 164 212 262 325 392 475
#     4  10  27  52  76 119 165 208 265 338 409 482
#
# _framework density 26.910139999999998
#
# number of rings (size 3 to 8) (size 9 to 14) (size 15 to 20)
#    0.857    0.000    2.857    2.143    6.000    1.714 
#    5.143    0.000    0.000    0.000    0.000    0.000 
#    0.000    0.000    0.000    0.000    0.000    0.000 
#
# Total GULP energy -346902.489752 kJ/mol
# GULP energy per Si atom -12389.374634 kJ/mol
# Density = 2.684889 g / cm^3
# Si number density = 26.910140 Si / 1000 Ang^3
#
#
#
# Elastic Constant Matrix: (Units=GPa)
#
#
# Indices 1 2 3 4 5 6 
#
# 1 104.7049 22.2077 25.7357 0.0000 -9.8389 0.0000
# 2 22.2077 93.7289 12.8169 0.0000 -2.4942 0.0000
# 3 25.7357 12.8169 84.5459 0.0000 -22.0668 0.0000
# 4 0.0000 0.0000 0.0000 29.0931 0.0000 -8.4525
# 5 -9.8389 -2.4942 -22.0668 0.0000 39.8654 0.0000
# 6 0.0000 0.0000 0.0000 -8.4525 0.0000 32.7633
#
#
#
# Elastic Compliance Matrix: (Units=1/GPa)
#
#
# Indices 1 2 3 4 5 6 
#
# 1 0.010764 -0.002156 -0.002678 0.000000 0.001039 0.000000
# 2 -0.002156 0.011329 -0.001186 0.000000 -0.000480 0.000000
# 3 -0.002678 -0.001186 0.014764 0.000000 0.007437 0.000000
# 4 0.000000 0.000000 0.000000 0.037157 0.000000 0.009586
# 5 0.001039 -0.000480 0.007437 0.000000 0.029428 0.000000
# 6 0.000000 0.000000 0.000000 0.009586 0.000000 0.032995
#
#
# Mechanical properties :
#
#
# Convention : Reuss Voigt Hill
#
# Bulk Modulus (GPa) = 40.29810 44.94447 42.62129
# Shear Modulus (GPa) = 31.89751 35.15898 33.52825
#
# Velocity S-wave (km/s) = 3.44660 3.61852 3.53361
# Velocity P-wave (km/s) = 5.55395 5.84775 5.70274
#
# Compressibility (1/GPa) = 0.02481507
#
# Stress axis : x y z
#
# Youngs Moduli (GPa) = 92.90212 88.26541 67.73147
#
# Poissons Ratio (x) = 0.19034 0.18141
# Poissons Ratio (y) = 0.20034 0.08036
# Poissons Ratio (z) = 0.24883 0.10472
#
# Static dielectric constant tensor:
#      x y z
#    x 4.801780 0.000000 -0.183150 
#    y 0.000000 4.861730 0.000000 
#    z -0.183150 0.000000 4.915110 
# 
# 
# High freq. dielectric constant tensor:
#      x y z
#    x 2.086580 0.000000 -0.016400 
#    y 0.000000 2.069670 0.000000 
#    z -0.016400 0.000000 2.084820 
# 
# From -- ./inp_files/95579.got.cif
#   From: 2010.06.25/outbox.cif.g09.slc.cpg/sg13_48_cif.got.tgz:95579.got - 2010.06.28 04:50:58.
