data_PCOD8122425
_publ_section_title
;
Structure prediction by ZEFSAII (Michael W. Deem and Ramdas Pophale) SiO2 
 PCOD8122425
Probable space group: P 2/C
;
_chemical_formula_sum "Si O2"
_cell_formula_units_Z 28
_cell_length_a 15.192295
_cell_length_b 9.086392
_cell_length_c 13.901561
_cell_angle_alpha 90.000000
_cell_angle_beta 136.926606
_cell_angle_gamma 90.000000
_cell_volume 1310.561982
_symmetry_space_group_name_H-M "P 2/C"
_symmetry_group_IT_number 13
_symmetry_cell_setting 'monoclinic'
loop_
_space_group_symop_operation_xyz
x,y,z
-x,y,1/2-z
-x,-y,-z
x,-y,1/2+z
loop_
_atom_site_type_symbol
_atom_site_label
_atom_site_fract_x
_atom_site_fract_y
_atom_site_fract_z
Si Si1 0.754711 0.242356 0.612877
Si Si2 0.882878 0.461949 0.975878
Si Si3 0.000000 0.602423 0.250000
Si Si4 0.500000 0.286029 0.750000
Si Si5 0.639887 0.906751 0.836881
Si Si6 0.354606 0.630158 0.786860
Si Si7 0.719012 0.821113 0.300144
Si Si8 0.393814 0.456144 0.515396
O O1 0.714298 0.139193 0.492717
O O2 0.720986 0.163337 0.686378
O O3 0.679325 0.393128 0.546282
O O4 0.904565 0.286842 0.729652
O O5 0.777737 0.582753 0.865576
O O6 0.828572 0.295718 0.920282
O O7 0.924583 0.492288 0.118597
O O8 0.000000 0.500000 0.000000
O O9 0.427872 0.206019 0.780491
O O10 0.379620 0.377757 0.607404
O O11 0.500000 0.980044 0.750000
O O12 0.598981 0.772677 0.733796
O O13 0.740702 0.016714 0.864039
O O14 0.452504 0.491501 0.864508
O O15 0.342866 0.657324 0.892668
#
# Coordination Sequence:
#
# PCOD8122425 Si02
#       8
#     4   4   2   2   4   4   4   4
#     4  12  24  45  70 100 143 191 238 296 359 423
#     4  12  23  45  75 106 137 187 245 303 354 417
#     4  12  24  44  76 104 138 188 248 306 350 402
#     4  12  22  36  66 106 148 176 228 296 356 412
#     4  12  26  43  69 105 150 191 227 289 375 448
#     4  11  21  40  69 104 136 183 242 295 357 420
#     4  12  26  44  66 106 146 185 231 291 363 441
#     4  11  20  38  70 105 138 179 241 308 351 416
#
# _framework density 21.364881
#
# number of rings (size 3 to 8) (size 9 to 14) (size 15 to 20)
#    0.000    0.286    7.857    2.571    0.000    1.714 
#    0.000    3.571    0.000    0.000    0.000    0.000 
#    0.000    0.000    0.000    0.000    0.000    0.000 
#
# Total GULP energy -346980.214966 kJ/mol
# GULP energy per Si atom -12392.150535 kJ/mol
# Density = 2.131625 g / cm^3
# Si number density = 21.364881 Si / 1000 Ang^3
#
#
#
# Elastic Constant Matrix: (Units=GPa)
#
#
# Indices 1 2 3 4 5 6 
#
# 1 95.3425 55.3017 56.1570 0.0000 -18.9141 0.0000
# 2 55.3017 86.9376 49.5332 0.0000 -20.3048 0.0000
# 3 56.1570 49.5332 150.6603 0.0000 -28.5857 0.0000
# 4 0.0000 0.0000 0.0000 16.9635 0.0000 -5.5349
# 5 -18.9141 -20.3048 -28.5857 0.0000 51.9898 0.0000
# 6 0.0000 0.0000 0.0000 -5.5349 0.0000 35.4408
#
#
#
# Elastic Compliance Matrix: (Units=1/GPa)
#
#
# Indices 1 2 3 4 5 6 
#
# 1 0.018164 -0.009310 -0.003512 0.000000 0.001041 0.000000
# 2 -0.009310 0.019457 -0.002375 0.000000 0.002906 0.000000
# 3 -0.003512 -0.002375 0.009277 0.000000 0.002895 0.000000
# 4 0.000000 0.000000 0.000000 0.062115 0.000000 0.009701
# 5 0.001041 0.002906 0.002895 0.000000 0.022340 0.000000
# 6 0.000000 0.000000 0.000000 0.009701 0.000000 0.029731
#
#
# Mechanical properties :
#
#
# Convention : Reuss Voigt Hill
#
# Bulk Modulus (GPa) = 60.59619 72.76935 66.68277
# Shear Modulus (GPa) = 25.38345 32.34207 28.86276
#
# Velocity S-wave (km/s) = 3.45061 3.89497 3.67951
# Velocity P-wave (km/s) = 6.65580 7.37306 7.02359
#
# Compressibility (1/GPa) = 0.01650269
#
# Stress axis : x y z
#
# Youngs Moduli (GPa) = 55.05515 51.39631 107.79626
#
# Poissons Ratio (x) = 0.47850 0.37857
# Poissons Ratio (y) = 0.51256 0.25605
# Poissons Ratio (z) = 0.19335 0.12208
#
# Static dielectric constant tensor:
#      x y z
#    x 3.113000 0.000000 -1.579650 
#    y 0.000000 3.773020 0.000000 
#    z -1.579650 0.000000 3.359830 
# 
# 
# High freq. dielectric constant tensor:
#      x y z
#    x 1.851120 0.000000 -0.017350 
#    y 0.000000 1.817410 0.000000 
#    z -0.017350 0.000000 1.844970 
# 
# From -- ./inp_files/55344.got.cif
#   From: 2010.06.25/outbox.cif.g09.slc.cpg/sg13_28_cif.got.tgz:55344.got - 2010.06.28 04:50:58.
