data_PCOD8122278
_publ_section_title
;
Structure prediction by ZEFSAII (Michael W. Deem and Ramdas Pophale) SiO2 
 PCOD8122278
Probable space group: P 2/C
;
_chemical_formula_sum "Si O2"
_cell_formula_units_Z 20
_cell_length_a 13.030079
_cell_length_b 5.317521
_cell_length_c 12.026195
_cell_angle_alpha 90.000000
_cell_angle_beta 97.624530
_cell_angle_gamma 90.000000
_cell_volume 825.900553
_symmetry_space_group_name_H-M "P 2/C"
_symmetry_group_IT_number 13
_symmetry_cell_setting 'monoclinic'
loop_
_space_group_symop_operation_xyz
x,y,z
-x,y,1/2-z
-x,-y,-z
x,-y,1/2+z
loop_
_atom_site_type_symbol
_atom_site_label
_atom_site_fract_x
_atom_site_fract_y
_atom_site_fract_z
Si Si1 0.073577 0.692527 0.948749
Si Si2 0.110574 0.013931 0.161101
Si Si3 0.698593 0.175103 0.415001
Si Si4 0.614523 0.336611 0.812331
Si Si5 0.785762 0.316317 0.654041
O O1 0.159250 0.569236 0.882036
O O2 0.130213 0.845560 0.053289
O O3 0.003021 0.863669 0.857274
O O4 0.000000 0.500000 0.000000
O O5 0.124722 0.850272 0.274292
O O6 0.205462 0.211258 0.159177
O O7 0.626737 0.422808 0.395110
O O8 0.741302 0.154783 0.546075
O O9 0.634204 0.923022 0.380169
O O10 0.500000 0.329305 0.750000
O O11 0.692664 0.378365 0.722172
#
# Coordination Sequence:
#
# PCOD8122278 Si02
#       5
#     4   4   4   4   4
#     4  11  23  48  65 101 147 191 246 297 343 441
#     4  10  25  46  66 106 147 189 246 296 353 439
#     4  11  24  48  72 106 145 181 247 304 358 447
#     4  11  27  49  74 107 144 185 245 307 368 443
#     4  11  24  46  74 103 143 198 235 302 374 419
#
# _framework density 24.215987999999999
#
# number of rings (size 3 to 8) (size 9 to 14) (size 15 to 20)
#    0.000    1.200    2.000    3.000    0.000    8.800 
#    7.200    0.000    0.000    0.000    0.000    0.000 
#    0.000    0.000    0.000    0.000    0.000    0.000 
#
# Total GULP energy -248063.829847 kJ/mol
# GULP energy per Si atom -12403.191492 kJ/mol
# Density = 2.416087 g / cm^3
# Si number density = 24.215988 Si / 1000 Ang^3
#
#
#
# Elastic Constant Matrix: (Units=GPa)
#
#
# Indices 1 2 3 4 5 6 
#
# 1 123.6725 67.1491 62.1799 0.0000 24.1656 0.0000
# 2 67.1491 158.7077 78.2376 0.0000 20.9484 0.0000
# 3 62.1799 78.2376 164.8732 0.0000 28.8173 0.0000
# 4 0.0000 0.0000 0.0000 165.1347 0.0000 -8.6711
# 5 24.1656 20.9484 28.8173 0.0000 40.3214 0.0000
# 6 0.0000 0.0000 0.0000 -8.6711 0.0000 40.9236
#
#
#
# Elastic Compliance Matrix: (Units=1/GPa)
#
#
# Indices 1 2 3 4 5 6 
#
# 1 0.011755 -0.003417 -0.002161 0.000000 -0.003726 0.000000
# 2 -0.003417 0.009321 -0.003024 0.000000 -0.000634 0.000000
# 3 -0.002161 -0.003024 0.008930 0.000000 -0.003516 0.000000
# 4 0.000000 0.000000 0.000000 0.006124 0.000000 0.001298
# 5 -0.003726 -0.000634 -0.003516 0.000000 0.029876 0.000000
# 6 0.000000 0.000000 0.000000 0.001298 0.000000 0.024711
#
#
# Mechanical properties :
#
#
# Convention : Reuss Voigt Hill
#
# Bulk Modulus (GPa) = 78.10469 95.82072 86.96271
# Shear Modulus (GPa) = 44.56874 65.25505 54.91190
#
# Velocity S-wave (km/s) = 4.29472 5.19669 4.76709
# Velocity P-wave (km/s) = 7.54428 8.69842 8.14183
#
# Compressibility (1/GPa) = 0.01280333
#
# Stress axis : x y z
#
# Youngs Moduli (GPa) = 85.06664 107.28807 111.98781
#
# Poissons Ratio (x) = 0.36657 0.24199
# Poissons Ratio (y) = 0.29065 0.33861
# Poissons Ratio (z) = 0.18382 0.32440
#
# Static dielectric constant tensor:
#      x y z
#    x 4.275950 0.000000 0.225920 
#    y 0.000000 4.754900 0.000000 
#    z 0.225920 0.000000 4.507120 
# 
# 
# High freq. dielectric constant tensor:
#      x y z
#    x 1.953430 0.000000 0.009650 
#    y 0.000000 1.972870 0.000000 
#    z 0.009650 0.000000 1.977890 
# 
# From -- ./inp_files/35502.got.cif
#   From: 2010.06.25/outbox.cif.g09.slc.cpg/sg13_18_cif.got.tgz:35502.got - 2010.06.28 04:50:58.
