data_PCOD8122602
_publ_section_title
;
Structure prediction by ZEFSAII (Michael W. Deem and Ramdas Pophale) SiO2 
 PCOD8122602
Probable space group: P 2/C
;
_chemical_formula_sum "Si O2"
_cell_formula_units_Z 26
_cell_length_a 15.413071
_cell_length_b 7.701116
_cell_length_c 15.155718
_cell_angle_alpha 90.000000
_cell_angle_beta 140.590073
_cell_angle_gamma 90.000000
_cell_volume 1142.089991
_symmetry_space_group_name_H-M "P 2/C"
_symmetry_group_IT_number 13
_symmetry_cell_setting 'monoclinic'
loop_
_space_group_symop_operation_xyz
x,y,z
-x,y,1/2-z
-x,-y,-z
x,-y,1/2+z
loop_
_atom_site_type_symbol
_atom_site_label
_atom_site_fract_x
_atom_site_fract_y
_atom_site_fract_z
Si Si1 0.263616 0.592930 0.516749
Si Si2 0.459791 0.610407 0.050930
Si Si3 0.647514 0.056461 0.332095
Si Si4 0.743120 0.296969 0.852942
Si Si5 0.084910 0.111736 0.638555
Si Si6 0.643943 0.089993 0.130482
Si Si7 0.000000 0.271456 0.750000
O O1 0.395525 0.511440 0.574608
O O2 0.294693 0.792932 0.561049
O O3 0.226688 0.472793 0.571128
O O4 0.131504 0.602147 0.350023
O O5 0.592947 0.705842 0.192277
O O6 0.500000 0.500000 0.000000
O O7 0.347193 0.747817 0.929141
O O8 0.500000 0.997381 0.250000
O O9 0.644285 0.144014 0.233017
O O10 0.743217 0.883062 0.410269
O O11 0.861032 0.282944 0.871067
O O12 0.995322 0.160449 0.654509
O O13 0.220718 0.019696 0.783321
O O14 0.000000 0.000000 0.500000
O O15 0.500000 0.000000 0.000000
#
# Coordination Sequence:
#
# PCOD8122602 Si02
#       7
#     4   4   4   4   4   4   2
#     4  12  27  43  67 105 140 197 244 298 371 443
#     4  12  23  41  68 106 146 179 243 314 372 434
#     4  11  22  40  70 100 142 179 228 301 369 425
#     4  11  24  44  69 101 142 185 241 308 365 434
#     4  11  26  48  75 107 151 198 246 303 378 451
#     4  11  23  42  72 106 137 188 242 302 362 428
#     4  12  28  46  70 102 150 202 250 298 374 470
#
# _framework density 22.765283
#
# number of rings (size 3 to 8) (size 9 to 14) (size 15 to 20)
#    0.000    0.615    3.077    6.923    2.154    3.077 
#    0.000    0.769    0.000    0.000    0.000    0.000 
#    0.000    0.000    0.000    0.000    0.000    0.000 
#
# Total GULP energy -322310.345260 kJ/mol
# GULP energy per Si atom -12396.551741 kJ/mol
# Density = 2.271347 g / cm^3
# Si number density = 22.765283 Si / 1000 Ang^3
#
#
#
# Elastic Constant Matrix: (Units=GPa)
#
#
# Indices 1 2 3 4 5 6 
#
# 1 129.7453 19.5868 8.8004 0.0000 -2.8785 0.0000
# 2 19.5868 86.5483 11.2421 0.0000 0.5754 0.0000
# 3 8.8004 11.2421 76.2379 0.0000 10.3699 0.0000
# 4 0.0000 0.0000 0.0000 38.2153 0.0000 -4.8565
# 5 -2.8785 0.5754 10.3699 0.0000 35.6674 0.0000
# 6 0.0000 0.0000 0.0000 -4.8565 0.0000 39.5245
#
#
#
# Elastic Compliance Matrix: (Units=1/GPa)
#
#
# Indices 1 2 3 4 5 6 
#
# 1 0.008042 -0.001722 -0.000798 0.000000 0.000909 0.000000
# 2 -0.001722 0.012152 -0.001611 0.000000 0.000133 0.000000
# 3 -0.000798 -0.001611 0.014006 0.000000 -0.004110 0.000000
# 4 0.000000 0.000000 0.000000 0.026583 0.000000 0.003266
# 5 0.000909 0.000133 -0.004110 0.000000 0.029303 0.000000
# 6 0.000000 0.000000 0.000000 0.003266 0.000000 0.025702
#
#
# Mechanical properties :
#
#
# Convention : Reuss Voigt Hill
#
# Bulk Modulus (GPa) = 38.55553 41.31003 39.93278
# Shear Modulus (GPa) = 37.68004 39.54159 38.61081
#
# Velocity S-wave (km/s) = 4.07277 4.17216 4.12277
# Velocity P-wave (km/s) = 6.25216 6.43387 6.34367
#
# Compressibility (1/GPa) = 0.02593661
#
# Stress axis : x y z
#
# Youngs Moduli (GPa) = 124.35182 82.28806 71.39980
#
# Poissons Ratio (x) = 0.14173 0.05697
# Poissons Ratio (y) = 0.21417 0.11505
# Poissons Ratio (z) = 0.09922 0.13259
#
# Static dielectric constant tensor:
#      x y z
#    x 4.223510 0.000000 0.123390 
#    y 0.000000 2.794180 0.000000 
#    z 0.123390 0.000000 3.743480 
# 
# 
# High freq. dielectric constant tensor:
#      x y z
#    x 1.905420 0.000000 -0.001220 
#    y 0.000000 1.896090 0.000000 
#    z -0.001220 0.000000 1.899850 
# 
# From -- ./inp_files/53375.got.cif
#   From: 2010.06.25/outbox.cif.g09.slc.cpg/sg13_27_cif.got.tgz:53375.got - 2010.06.28 04:50:58.
