data_PCOD8122389
_publ_section_title
;
Structure prediction by ZEFSAII (Michael W. Deem and Ramdas Pophale) SiO2 
 PCOD8122389
Probable space group: P 2/C
;
_chemical_formula_sum "Si O2"
_cell_formula_units_Z 32
_cell_length_a 12.265337
_cell_length_b 11.125692
_cell_length_c 11.888870
_cell_angle_alpha 90.000000
_cell_angle_beta 107.953453
_cell_angle_gamma 90.000000
_cell_volume 1543.362351
_symmetry_space_group_name_H-M "P 2/C"
_symmetry_group_IT_number 13
_symmetry_cell_setting 'monoclinic'
loop_
_space_group_symop_operation_xyz
x,y,z
-x,y,1/2-z
-x,-y,-z
x,-y,1/2+z
loop_
_atom_site_type_symbol
_atom_site_label
_atom_site_fract_x
_atom_site_fract_y
_atom_site_fract_z
Si Si1 0.896956 0.550404 0.636040
Si Si2 0.230847 0.728618 0.758983
Si Si3 0.625454 0.851670 0.088204
Si Si4 0.633189 0.873812 0.528081
Si Si5 0.063501 0.932720 0.664590
Si Si6 0.970948 0.249061 0.987455
Si Si7 0.768655 0.135604 0.848415
Si Si8 0.210812 0.683023 0.501441
O O1 0.797087 0.615065 0.673101
O O2 0.958370 0.635308 0.563134
O O3 0.822146 0.448923 0.551200
O O4 0.000000 0.501730 0.750000
O O5 0.333035 0.807355 0.845370
O O6 0.114785 0.805673 0.722161
O O7 0.263603 0.683022 0.644421
O O8 0.665432 0.848861 0.229559
O O9 0.696858 0.750719 0.045473
O O10 0.641283 0.982926 0.040957
O O11 0.491295 0.822582 0.043113
O O12 0.720893 0.842987 0.457612
O O13 0.000000 0.997547 0.750000
O O14 0.968486 0.885648 0.544872
O O15 0.170049 0.007540 0.651136
O O16 0.865158 0.240733 0.865871
O O17 0.090374 0.246888 0.959363
#
# Coordination Sequence:
#
# PCOD8122389 Si02
#       8
#     4   4   4   4   4   4   4   4
#     4  12  22  42  68  98 138 184 219 268 342 416
#     4  11  21  44  70  91 135 179 225 271 341 412
#     4  11  27  42  67  99 131 170 233 286 333 398
#     4  11  23  48  69  90 129 184 225 281 344 395
#     4  11  19  35  58 100 141 174 215 263 344 424
#     4  11  22  38  63  96 137 179 215 265 345 414
#     4  12  24  37  66  97 139 174 217 286 334 408
#     4  11  27  41  63 107 135 173 229 274 331 409
#
# _framework density 20.733951000000001
#
# number of rings (size 3 to 8) (size 9 to 14) (size 15 to 20)
#    0.000    0.750    6.250    2.625    3.500    0.500 
#    0.000    0.625    0.000    0.000    0.000    0.000 
#    0.000    0.000    0.000    0.000    0.000    0.000 
#
# Total GULP energy -396612.550089 kJ/mol
# GULP energy per Si atom -12394.142190 kJ/mol
# Density = 2.068676 g / cm^3
# Si number density = 20.733951 Si / 1000 Ang^3
#
#
#
# Elastic Constant Matrix: (Units=GPa)
#
#
# Indices 1 2 3 4 5 6 
#
# 1 99.6744 40.0947 30.7851 0.0000 8.6016 0.0000
# 2 40.0947 91.8130 36.5876 0.0000 2.0536 0.0000
# 3 30.7851 36.5876 81.6089 0.0000 16.6384 0.0000
# 4 0.0000 0.0000 0.0000 22.4977 0.0000 9.2732
# 5 8.6016 2.0536 16.6384 0.0000 34.7719 0.0000
# 6 0.0000 0.0000 0.0000 9.2732 0.0000 20.9011
#
#
#
# Elastic Compliance Matrix: (Units=1/GPa)
#
#
# Indices 1 2 3 4 5 6 
#
# 1 0.012768 -0.004576 -0.002411 0.000000 -0.001734 0.000000
# 2 -0.004576 0.015067 -0.005627 0.000000 0.002935 0.000000
# 3 -0.002411 -0.005627 0.017172 0.000000 -0.007288 0.000000
# 4 0.000000 0.000000 0.000000 0.054397 0.000000 -0.024134
# 5 -0.001734 0.002935 -0.007288 0.000000 0.032502 0.000000
# 6 0.000000 0.000000 0.000000 -0.024134 0.000000 0.058552
#
#
# Mechanical properties :
#
#
# Convention : Reuss Voigt Hill
#
# Bulk Modulus (GPa) = 50.56153 54.22567 52.39360
# Shear Modulus (GPa) = 22.49437 26.67607 24.58522
#
# Velocity S-wave (km/s) = 3.29736 3.59080 3.44720
# Velocity P-wave (km/s) = 6.23984 6.58799 6.41628
#
# Compressibility (1/GPa) = 0.01977788
#
# Stress axis : x y z
#
# Youngs Moduli (GPa) = 78.32214 66.37130 58.23538
#
# Poissons Ratio (x) = 0.30372 0.14042
# Poissons Ratio (y) = 0.35840 0.32769
# Poissons Ratio (z) = 0.18885 0.37347
#
# Static dielectric constant tensor:
#      x y z
#    x 3.595060 0.000000 0.106000 
#    y 0.000000 3.583310 0.000000 
#    z 0.106000 0.000000 4.093410 
# 
# 
# High freq. dielectric constant tensor:
#      x y z
#    x 1.800810 0.000000 0.003740 
#    y 0.000000 1.796900 0.000000 
#    z 0.003740 0.000000 1.825040 
# 
# From -- ./inp_files/34183.got.cif
#   From: 2010.06.25/outbox.cif.g09.slc.cpg/sg13_18_cif.got.tgz:34183.got - 2010.06.28 04:50:58.
