data_PCOD8122575
_publ_section_title
;
Structure prediction by ZEFSAII (Michael W. Deem and Ramdas Pophale) SiO2 
 PCOD8122575
Probable space group: P 2/C
;
_chemical_formula_sum "Si O2"
_cell_formula_units_Z 28
_cell_length_a 8.361149
_cell_length_b 20.458314
_cell_length_c 15.096489
_cell_angle_alpha 90.000000
_cell_angle_beta 149.257065
_cell_angle_gamma 90.000000
_cell_volume 1320.053864
_symmetry_space_group_name_H-M "P 2/C"
_symmetry_group_IT_number 13
_symmetry_cell_setting 'monoclinic'
loop_
_space_group_symop_operation_xyz
x,y,z
-x,y,1/2-z
-x,-y,-z
x,-y,1/2+z
loop_
_atom_site_type_symbol
_atom_site_label
_atom_site_fract_x
_atom_site_fract_y
_atom_site_fract_z
Si Si1 0.868851 0.706048 0.915659
Si Si2 0.128141 0.148503 0.074984
Si Si3 0.096100 0.645662 0.389495
Si Si4 0.151889 0.944711 0.915308
Si Si5 0.227318 0.473609 0.680597
Si Si6 0.116480 0.085700 0.714232
Si Si7 0.783993 0.393560 0.232031
O O1 0.500000 0.700177 0.750000
O O2 0.973184 0.779313 0.939263
O O3 0.974915 0.651514 0.894154
O O4 0.014949 0.690627 0.081598
O O5 0.500000 0.143757 0.250000
O O6 0.016655 0.094883 0.089339
O O7 0.957166 0.135875 0.899666
O O8 0.468592 0.643296 0.557455
O O9 0.000000 0.676695 0.250000
O O10 0.927841 0.576022 0.324106
O O11 0.000000 0.922061 0.750000
O O12 0.520740 0.932384 0.099954
O O13 0.087961 0.020899 0.901008
O O14 0.500000 0.441700 0.750000
O O15 0.332094 0.536745 0.786464
O O16 0.000000 0.500000 0.500000
O O17 0.000000 0.118889 0.750000
O O18 0.000000 0.403863 0.250000
#
# Coordination Sequence:
#
# PCOD8122575 Si02
#       7
#     4   4   4   4   4   4   4
#     4   9  21  43  61  82 119 161 199 248 294 351
#     4  11  22  39  64  88 120 163 206 247 303 357
#     4  11  24  40  62  90 118 152 201 245 299 355
#     4  11  22  39  62  92 126 159 201 249 303 358
#     4  12  22  39  65  88 122 155 193 247 302 356
#     4  11  22  39  62  92 126 159 201 250 302 358
#     4  11  23  41  62  87 119 158 196 242 300 361
#
# _framework density 21.211257
#
# number of rings (size 3 to 8) (size 9 to 14) (size 15 to 20)
#    0.000    1.143    2.857    5.143    2.000    2.286 
#    0.000    7.143    0.000    0.000    0.000    0.000 
#    0.000    0.000    0.000    0.000    0.000    0.000 
#
# Total GULP energy -347074.825539 kJ/mol
# GULP energy per Si atom -12395.529484 kJ/mol
# Density = 2.116298 g / cm^3
# Si number density = 21.211257 Si / 1000 Ang^3
#
#
#
# Elastic Constant Matrix: (Units=GPa)
#
#
# Indices 1 2 3 4 5 6 
#
# 1 111.5683 22.7449 25.8821 0.0000 -14.2118 0.0000
# 2 22.7449 59.6339 11.3510 0.0000 -11.5638 0.0000
# 3 25.8821 11.3510 109.7511 0.0000 -8.1020 0.0000
# 4 0.0000 0.0000 0.0000 20.5014 0.0000 -1.4327
# 5 -14.2118 -11.5638 -8.1020 0.0000 46.0814 0.0000
# 6 0.0000 0.0000 0.0000 -1.4327 0.0000 14.9638
#
#
#
# Elastic Compliance Matrix: (Units=1/GPa)
#
#
# Indices 1 2 3 4 5 6 
#
# 1 0.010323 -0.003169 -0.001956 0.000000 0.002045 0.000000
# 2 -0.003169 0.018852 -0.000938 0.000000 0.003589 0.000000
# 3 -0.001956 -0.000938 0.009734 0.000000 0.000873 0.000000
# 4 0.000000 0.000000 0.000000 0.049106 0.000000 0.004702
# 5 0.002045 0.003589 0.000873 0.000000 0.023385 0.000000
# 6 0.000000 0.000000 0.000000 0.004702 0.000000 0.067278
#
#
# Mechanical properties :
#
#
# Convention : Reuss Voigt Hill
#
# Bulk Modulus (GPa) = 37.33395 44.54548 40.93972
# Shear Modulus (GPa) = 25.03365 31.04101 28.03733
#
# Velocity S-wave (km/s) = 3.43914 3.82962 3.63962
# Velocity P-wave (km/s) = 5.78009 6.37190 6.08320
#
# Compressibility (1/GPa) = 0.02678527
#
# Stress axis : x y z
#
# Youngs Moduli (GPa) = 96.86852 53.04510 102.73085
#
# Poissons Ratio (x) = 0.16808 0.20092
# Poissons Ratio (y) = 0.30694 0.09632
# Poissons Ratio (z) = 0.18946 0.04974
#
# Static dielectric constant tensor:
#      x y z
#    x 3.678010 0.000000 -0.535070 
#    y 0.000000 3.642510 0.000000 
#    z -0.535070 0.000000 3.244370 
# 
# 
# High freq. dielectric constant tensor:
#      x y z
#    x 1.836260 0.000000 -0.008460 
#    y 0.000000 1.816940 0.000000 
#    z -0.008460 0.000000 1.840250 
# 
# From -- ./inp_files/48251.got.cif
#   From: 2010.06.25/outbox.cif.g09.slc.cpg/sg13_25_cif.got.tgz:48251.got - 2010.06.28 04:50:58.
