data_PCOD8122798
_publ_section_title
;
Structure prediction by ZEFSAII (Michael W. Deem and Ramdas Pophale) SiO2 
 PCOD8122798
Probable space group: P 2/C
;
_chemical_formula_sum "Si O2"
_cell_formula_units_Z 28
_cell_length_a 10.683367
_cell_length_b 9.401859
_cell_length_c 19.103995
_cell_angle_alpha 90.000000
_cell_angle_beta 39.669556
_cell_angle_gamma 90.000000
_cell_volume 1224.929237
_symmetry_space_group_name_H-M "P 2/C"
_symmetry_group_IT_number 13
_symmetry_cell_setting 'monoclinic'
loop_
_space_group_symop_operation_xyz
x,y,z
-x,y,1/2-z
-x,-y,-z
x,-y,1/2+z
loop_
_atom_site_type_symbol
_atom_site_label
_atom_site_fract_x
_atom_site_fract_y
_atom_site_fract_z
Si Si1 0.958336 0.294250 0.848466
Si Si2 0.500000 0.764902 0.250000
Si Si3 0.500000 0.689480 0.750000
Si Si4 0.622369 0.159964 0.324996
Si Si5 0.827378 0.540299 0.126521
Si Si6 0.470064 0.662821 0.000107
Si Si7 0.014564 0.032358 0.160225
Si Si8 0.567987 0.880308 0.071258
O O1 0.000000 0.324829 0.750000
O O2 0.078895 0.412088 0.840041
O O3 0.727399 0.314436 0.959373
O O4 0.009612 0.133419 0.849779
O O5 0.694669 0.669999 0.157290
O O6 0.510459 0.863648 0.177382
O O7 0.528383 0.792027 0.671064
O O8 0.310155 0.598114 0.809534
O O9 0.643849 0.282151 0.374867
O O10 0.834698 0.118755 0.202980
O O11 0.533387 0.027515 0.407507
O O12 0.000000 0.500000 0.000000
O O13 0.500000 0.500000 0.000000
O O14 0.467957 0.748033 0.074265
O O15 0.000000 0.049884 0.250000
O O16 0.203023 0.107187 0.045089
#
# Coordination Sequence:
#
# PCOD8122798 Si02
#       8
#     4   2   2   4   4   4   4   4
#     4  11  24  45  75 110 146 195 253 313 385 456
#     4  11  27  46  74 108 150 204 246 302 384 454
#     4  11  29  46  70 106 152 196 254 312 376 462
#     4  12  25  48  74 108 148 196 252 311 378 448
#     4  11  26  48  70 103 156 198 246 313 379 451
#     4  12  27  44  76 108 151 193 246 317 384 451
#     4  11  23  45  80 114 147 193 256 320 385 451
#     4  12  25  50  75 111 154 197 251 317 380 451
#
# _framework density 22.858464999999999
#
# number of rings (size 3 to 8) (size 9 to 14) (size 15 to 20)
#    0.000    0.571    2.857    5.143   10.000    0.000 
#    0.000    2.143    0.000    0.000    0.000    0.000 
#    0.000    0.000    0.000    0.000    0.000    0.000 
#
# Total GULP energy -347208.199939 kJ/mol
# GULP energy per Si atom -12400.292855 kJ/mol
# Density = 2.280644 g / cm^3
# Si number density = 22.858465 Si / 1000 Ang^3
#
#
#
# Elastic Constant Matrix: (Units=GPa)
#
#
# Indices 1 2 3 4 5 6 
#
# 1 125.3826 69.4589 46.0152 0.0000 -2.4337 0.0000
# 2 69.4589 164.2723 57.9802 0.0000 1.1179 0.0000
# 3 46.0152 57.9802 125.4855 0.0000 -11.5757 0.0000
# 4 0.0000 0.0000 0.0000 31.1695 0.0000 4.3640
# 5 -2.4337 1.1179 -11.5757 0.0000 46.1461 0.0000
# 6 0.0000 0.0000 0.0000 4.3640 0.0000 44.5492
#
#
#
# Elastic Compliance Matrix: (Units=1/GPa)
#
#
# Indices 1 2 3 4 5 6 
#
# 1 0.010916 -0.003832 -0.002222 0.000000 0.000111 0.000000
# 2 -0.003832 0.008668 -0.002700 0.000000 -0.001089 0.000000
# 3 -0.002222 -0.002700 0.010264 0.000000 0.002523 0.000000
# 4 0.000000 0.000000 0.000000 0.032529 0.000000 -0.003186
# 5 0.000111 -0.001089 0.002523 0.000000 0.022335 0.000000
# 6 0.000000 0.000000 0.000000 -0.003186 0.000000 0.022759
#
#
# Mechanical properties :
#
#
# Convention : Reuss Voigt Hill
#
# Bulk Modulus (GPa) = 81.04009 84.67210 82.85610
# Shear Modulus (GPa) = 38.73127 40.48538 39.60832
#
# Velocity S-wave (km/s) = 4.12077 4.21305 4.16716
# Velocity P-wave (km/s) = 7.62699 7.79671 7.71232
#
# Compressibility (1/GPa) = 0.01233957
#
# Stress axis : x y z
#
# Youngs Moduli (GPa) = 91.60749 115.36249 97.42470
#
# Poissons Ratio (x) = 0.44208 0.21648
# Poissons Ratio (y) = 0.35105 0.26309
# Poissons Ratio (z) = 0.20356 0.31153
#
# Static dielectric constant tensor:
#      x y z
#    x 4.212360 0.000000 -0.180890 
#    y 0.000000 4.209000 0.000000 
#    z -0.180890 0.000000 4.137720 
# 
# 
# High freq. dielectric constant tensor:
#      x y z
#    x 1.899470 0.000000 -0.005950 
#    y 0.000000 1.912180 0.000000 
#    z -0.005950 0.000000 1.908430 
# 
# From -- ./inp_files/78233.got.cif
#   From: 2010.06.25/outbox.cif.g09.slc.cpg/sg13_40_cif.got.tgz:78233.got - 2010.06.28 04:50:58.
