data_PCOD8122138
_publ_section_title
;
Structure prediction by ZEFSAII (Michael W. Deem and Ramdas Pophale) SiO2 
 PCOD8122138
Probable space group: P 2/C
;
_chemical_formula_sum "Si O2"
_cell_formula_units_Z 18
_cell_length_a 7.815478
_cell_length_b 10.957474
_cell_length_c 9.183771
_cell_angle_alpha 90.000000
_cell_angle_beta 113.221651
_cell_angle_gamma 90.000000
_cell_volume 722.763361
_symmetry_space_group_name_H-M "P 2/C"
_symmetry_group_IT_number 13
_symmetry_cell_setting 'monoclinic'
loop_
_space_group_symop_operation_xyz
x,y,z
-x,y,1/2-z
-x,-y,-z
x,-y,1/2+z
loop_
_atom_site_type_symbol
_atom_site_label
_atom_site_fract_x
_atom_site_fract_y
_atom_site_fract_z
Si Si1 0.500000 0.688100 0.250000
Si Si2 0.797849 0.129839 0.724751
Si Si3 0.705577 0.912942 0.877084
Si Si4 0.245162 0.559273 0.950950
Si Si5 0.847299 0.645131 0.882313
O O1 0.326573 0.767208 0.244156
O O2 0.433821 0.607848 0.089392
O O3 0.698664 0.076154 0.548413
O O4 0.000000 0.185454 0.750000
O O5 0.831787 0.019894 0.850262
O O6 0.500000 0.933382 0.750000
O O7 0.785161 0.783693 0.853344
O O8 0.212579 0.418284 0.986122
O O9 0.257545 0.567951 0.780369
O O10 0.069803 0.641620 0.942243
#
# Coordination Sequence:
#
# PCOD8122138 Si02
#       5
#     2   4   4   4   4
#     4  12  26  46  76 108 146 190 244 298 354 434
#     4  12  28  47  73 105 148 193 240 295 360 423
#     4  12  26  46  73 104 147 188 246 296 357 428
#     4  10  24  44  71 103 146 187 241 297 364 421
#     4  10  24  45  71 103 144 191 239 297 363 428
#
# _framework density 24.904419000000001
#
# number of rings (size 3 to 8) (size 9 to 14) (size 15 to 20)
#    0.000    0.889    1.111    4.000   10.889    0.889 
#    0.000    0.000    0.000    0.000    0.000    0.000 
#    0.000    0.000    0.000    0.000    0.000    0.000 
#
# Total GULP energy -223322.723491 kJ/mol
# GULP energy per Si atom -12406.817972 kJ/mol
# Density = 2.484774 g / cm^3
# Si number density = 24.904419 Si / 1000 Ang^3
#
#
#
# Elastic Constant Matrix: (Units=GPa)
#
#
# Indices 1 2 3 4 5 6 
#
# 1 77.8927 -1.5423 -19.9275 0.0000 20.3299 0.0000
# 2 -1.5423 50.6810 -17.9536 0.0000 5.9096 0.0000
# 3 -19.9275 -17.9536 104.9237 0.0000 14.7569 0.0000
# 4 0.0000 0.0000 0.0000 30.6509 0.0000 8.3574
# 5 20.3299 5.9096 14.7569 0.0000 39.3414 0.0000
# 6 0.0000 0.0000 0.0000 8.3574 0.0000 28.7702
#
#
#
# Elastic Compliance Matrix: (Units=1/GPa)
#
#
# Indices 1 2 3 4 5 6 
#
# 1 0.017398 0.003879 0.005610 0.000000 -0.011678 0.000000
# 2 0.003879 0.022747 0.005692 0.000000 -0.007556 0.000000
# 3 0.005610 0.005692 0.012772 0.000000 -0.008545 0.000000
# 4 0.000000 0.000000 0.000000 0.035432 0.000000 -0.010293
# 5 -0.011678 -0.007556 -0.008545 0.000000 0.035793 0.000000
# 6 0.000000 0.000000 0.000000 -0.010293 0.000000 0.037748
#
#
# Mechanical properties :
#
#
# Convention : Reuss Voigt Hill
#
# Bulk Modulus (GPa) = 12.00804 17.18341 14.59573
# Shear Modulus (GPa) = 31.38970 37.94723 34.66846
#
# Velocity S-wave (km/s) = 3.55407 3.90771 3.73508
# Velocity P-wave (km/s) = 4.65554 5.22255 4.94717
#
# Compressibility (1/GPa) = 0.08327752
#
# Stress axis : x y z
#
# Youngs Moduli (GPa) = 57.47747 43.96269 78.29666
#
# Poissons Ratio (x) = -0.17051 -0.43927
# Poissons Ratio (y) = -0.22293 -0.44563
# Poissons Ratio (z) = -0.32247 -0.25021
#
# Static dielectric constant tensor:
#      x y z
#    x 4.405770 0.000000 0.022900 
#    y 0.000000 4.202770 0.000000 
#    z 0.022900 0.000000 4.888960 
# 
# 
# High freq. dielectric constant tensor:
#      x y z
#    x 1.998490 0.000000 0.005560 
#    y 0.000000 1.988320 0.000000 
#    z 0.005560 0.000000 2.011120 
# 
# From -- ./inp_files/11611.got.cif
#   From: 2010.06.25/outbox.cif.g09.slc.cpg/sg13_6_cif.got.tgz:11611.got - 2010.06.28 04:50:58.
