data_PCOD8122478
_publ_section_title
;
Structure prediction by ZEFSAII (Michael W. Deem and Ramdas Pophale) SiO2 
 PCOD8122478
Probable space group: P 2/C
;
_chemical_formula_sum "Si O2"
_cell_formula_units_Z 16
_cell_length_a 17.031371
_cell_length_b 9.068254
_cell_length_c 9.680495
_cell_angle_alpha 90.000000
_cell_angle_beta 148.655173
_cell_angle_gamma 90.000000
_cell_volume 777.733367
_symmetry_space_group_name_H-M "P 2/C"
_symmetry_group_IT_number 13
_symmetry_cell_setting 'monoclinic'
loop_
_space_group_symop_operation_xyz
x,y,z
-x,y,1/2-z
-x,-y,-z
x,-y,1/2+z
loop_
_atom_site_type_symbol
_atom_site_label
_atom_site_fract_x
_atom_site_fract_y
_atom_site_fract_z
Si Si1 0.856911 0.844684 0.193000
Si Si2 0.671226 0.364752 0.032933
Si Si3 0.802641 0.075311 0.319098
Si Si4 0.170995 0.471918 0.962885
O O1 0.811611 0.675925 0.103285
O O2 0.036863 0.851140 0.477582
O O3 0.781313 0.915087 0.216422
O O4 0.795265 0.944027 0.972914
O O5 0.500000 0.412043 0.750000
O O6 0.678678 0.190437 0.077583
O O7 0.730953 0.460036 0.251493
O O8 0.768790 0.396177 0.041719
O O9 0.000000 0.503982 0.750000
#
# Coordination Sequence:
#
# PCOD8122478 Si02
#       4
#     4   4   4   4
#     4   9  17  34  56  81 109 141 189 238 268 325
#     4  11  23  39  57  85 121 151 184 237 292 337
#     4   9  18  34  54  82 110 144 184 233 280 328
#     4  11  21  39  59  86 114 150 197 235 273 338
#
# _framework density 20.572603000000001
#
# number of rings (size 3 to 8) (size 9 to 14) (size 15 to 20)
#    0.000    2.000    5.000    1.500    0.000    2.000 
#    4.500    6.250    0.000    0.000    0.000    0.000 
#    0.000    0.000    0.000    0.000    0.000    0.000 
#
# Total GULP energy -198383.626087 kJ/mol
# GULP energy per Si atom -12398.976630 kJ/mol
# Density = 2.052578 g / cm^3
# Si number density = 20.572603 Si / 1000 Ang^3
#
#
#
# Elastic Constant Matrix: (Units=GPa)
#
#
# Indices 1 2 3 4 5 6 
#
# 1 65.4920 24.1588 35.1928 0.0000 -2.2570 0.0000
# 2 24.1588 26.7317 22.1704 0.0000 3.6435 0.0000
# 3 35.1928 22.1704 129.5080 0.0000 4.6621 0.0000
# 4 0.0000 0.0000 0.0000 12.5215 0.0000 -8.3607
# 5 -2.2570 3.6435 4.6621 0.0000 19.1169 0.0000
# 6 0.0000 0.0000 0.0000 -8.3607 0.0000 35.0773
#
#
#
# Elastic Compliance Matrix: (Units=1/GPa)
#
#
# Indices 1 2 3 4 5 6 
#
# 1 0.025126 -0.020833 -0.003542 0.000000 0.007801 0.000000
# 2 -0.020833 0.061700 -0.004428 0.000000 -0.013139 0.000000
# 3 -0.003542 -0.004428 0.009510 0.000000 -0.001894 0.000000
# 4 0.000000 0.000000 0.000000 0.094979 0.000000 0.022638
# 5 0.007801 -0.013139 -0.001894 0.000000 0.056197 0.000000
# 6 0.000000 0.000000 0.000000 0.022638 0.000000 0.033904
#
#
# Mechanical properties :
#
#
# Convention : Reuss Voigt Hill
#
# Bulk Modulus (GPa) = 25.82014 42.75284 34.28649
# Shear Modulus (GPa) = 14.20720 22.69045 18.44883
#
# Velocity S-wave (km/s) = 2.63076 3.32466 2.99786
# Velocity P-wave (km/s) = 4.66967 5.96359 5.35585
#
# Compressibility (1/GPa) = 0.03872946
#
# Stress axis : x y z
#
# Youngs Moduli (GPa) = 39.79878 16.20738 105.14876
#
# Poissons Ratio (x) = 0.33765 0.37247
# Poissons Ratio (y) = 0.82914 0.46561
# Poissons Ratio (z) = 0.14098 0.07177
#
# Static dielectric constant tensor:
#      x y z
#    x 3.617620 0.000000 -0.341480 
#    y 0.000000 3.489580 0.000000 
#    z -0.341480 0.000000 3.762820 
# 
# 
# High freq. dielectric constant tensor:
#      x y z
#    x 1.782040 0.000000 -0.026720 
#    y 0.000000 1.786080 0.000000 
#    z -0.026720 0.000000 1.808680 
# 
# From -- ./inp_files/11566.got.cif
#   From: 2010.06.25/outbox.cif.g09.slc.cpg/sg13_6_cif.got.tgz:11566.got - 2010.06.28 04:50:58.
