data_PCOD8122296
_publ_section_title
;
Structure prediction by ZEFSAII (Michael W. Deem and Ramdas Pophale) SiO2 
 PCOD8122296
Probable space group: P 2/C
;
_chemical_formula_sum "Si O2"
_cell_formula_units_Z 32
_cell_length_a 14.056428
_cell_length_b 9.455585
_cell_length_c 22.785219
_cell_angle_alpha 90.000000
_cell_angle_beta 154.598049
_cell_angle_gamma 90.000000
_cell_volume 1299.090316
_symmetry_space_group_name_H-M "P 2/C"
_symmetry_group_IT_number 13
_symmetry_cell_setting 'monoclinic'
loop_
_space_group_symop_operation_xyz
x,y,z
-x,y,1/2-z
-x,-y,-z
x,-y,1/2+z
loop_
_atom_site_type_symbol
_atom_site_label
_atom_site_fract_x
_atom_site_fract_y
_atom_site_fract_z
Si Si1 0.930882 0.644860 0.118545
Si Si2 0.705553 0.180819 0.098274
Si Si3 0.328106 0.120277 0.974394
Si Si4 0.914122 0.330325 0.122393
Si Si5 0.062070 0.729177 0.582849
Si Si6 0.484227 0.446228 0.308182
Si Si7 0.400563 0.963957 0.759945
Si Si8 0.256551 0.279966 0.700538
O O1 0.877026 0.769773 0.134676
O O2 0.704347 0.616003 0.957792
O O3 0.991231 0.491544 0.179212
O O4 0.135161 0.703541 0.194834
O O5 0.489878 0.193893 0.017847
O O6 0.689177 0.290712 0.033618
O O7 0.907892 0.220840 0.252869
O O8 0.750629 0.025347 0.097549
O O9 0.435727 0.097101 0.099083
O O10 0.889434 0.289990 0.040266
O O11 0.262966 0.624302 0.710685
O O12 0.926766 0.682465 0.450559
O O13 0.161500 0.886431 0.630451
O O14 0.500000 0.404771 0.250000
O O15 0.464125 0.613119 0.309685
O O16 0.500000 0.941692 0.750000
O O17 0.358126 0.126509 0.749317
#
# Coordination Sequence:
#
# PCOD8122296 Si02
#       8
#     4   4   4   4   4   4   4   4
#     4  12  25  44  74 108 147 194 239 307 371 445
#     4  10  25  49  74 101 138 190 248 302 369 422
#     4  11  25  48  74 104 143 195 239 306 376 433
#     4  11  24  44  74 105 136 189 246 306 357 436
#     4  12  22  45  68 101 153 190 244 299 364 438
#     4  12  22  42  66 100 154 195 238 287 363 451
#     4  12  26  44  71 112 151 193 248 304 370 449
#     4  12  27  40  67 114 147 199 240 298 375 443
#
# _framework density 24.632619999999999
#
# number of rings (size 3 to 8) (size 9 to 14) (size 15 to 20)
#    0.000    0.500    5.000    3.000    5.250    0.500 
#    0.000    7.500    0.000    0.000    0.000    0.000 
#    0.000    0.000    0.000    0.000    0.000    0.000 
#
# Total GULP energy -396736.299308 kJ/mol
# GULP energy per Si atom -12398.009353 kJ/mol
# Density = 2.457656 g / cm^3
# Si number density = 24.632620 Si / 1000 Ang^3
#
#
#
# Elastic Constant Matrix: (Units=GPa)
#
#
# Indices 1 2 3 4 5 6 
#
# 1 174.5182 51.1432 16.4313 0.0000 -1.9284 0.0000
# 2 51.1432 136.2184 3.1508 0.0000 -1.2198 0.0000
# 3 16.4313 3.1508 32.3903 0.0000 -0.4606 0.0000
# 4 0.0000 0.0000 0.0000 39.6199 0.0000 -1.6975
# 5 -1.9284 -1.2198 -0.4606 0.0000 23.7160 0.0000
# 6 0.0000 0.0000 0.0000 -1.6975 0.0000 51.8222
#
#
#
# Elastic Compliance Matrix: (Units=1/GPa)
#
#
# Indices 1 2 3 4 5 6 
#
# 1 0.006754 -0.002459 -0.003182 0.000000 0.000361 0.000000
# 2 -0.002459 0.008256 0.000448 0.000000 0.000233 0.000000
# 3 -0.003182 0.000448 0.032450 0.000000 0.000394 0.000000
# 4 0.000000 0.000000 0.000000 0.025275 0.000000 0.000828
# 5 0.000361 0.000233 0.000394 0.000000 0.042215 0.000000
# 6 0.000000 0.000000 0.000000 0.000828 0.000000 0.019324
#
#
# Mechanical properties :
#
#
# Convention : Reuss Voigt Hill
#
# Bulk Modulus (GPa) = 26.97366 53.84195 40.40781
# Shear Modulus (GPa) = 31.84337 41.19172 36.51754
#
# Velocity S-wave (km/s) = 3.59936 4.09374 3.85449
# Velocity P-wave (km/s) = 5.31488 6.65210 6.02073
#
# Compressibility (1/GPa) = 0.03707320
#
# Stress axis : x y z
#
# Youngs Moduli (GPa) = 148.05425 121.12197 30.81694
#
# Poissons Ratio (x) = 0.29785 0.09806
# Poissons Ratio (y) = 0.36407 -0.01380
# Poissons Ratio (z) = 0.47111 -0.05422
#
# Static dielectric constant tensor:
#      x y z
#    x 5.031470 0.000000 0.082440 
#    y 0.000000 4.827580 0.000000 
#    z 0.082440 0.000000 4.266470 
# 
# 
# High freq. dielectric constant tensor:
#      x y z
#    x 1.997940 0.000000 0.000950 
#    y 0.000000 1.996650 0.000000 
#    z 0.000950 0.000000 1.969010 
# 
# From -- ./inp_files/87426.got.cif
#   From: 2010.06.25/outbox.cif.g09.slc.cpg/sg13_44_cif.got.tgz:87426.got - 2010.06.28 04:50:58.
