data_PCOD8122942
_publ_section_title
;
Structure prediction by ZEFSAII (Michael W. Deem and Ramdas Pophale) SiO2 
 PCOD8122942
Probable space group: P 2/C
;
_chemical_formula_sum "Si O2"
_cell_formula_units_Z 12
_cell_length_a 6.587515
_cell_length_b 7.236580
_cell_length_c 15.890364
_cell_angle_alpha 90.000000
_cell_angle_beta 136.352132
_cell_angle_gamma 90.000000
_cell_volume 522.852375
_symmetry_space_group_name_H-M "P 2/C"
_symmetry_group_IT_number 13
_symmetry_cell_setting 'monoclinic'
loop_
_space_group_symop_operation_xyz
x,y,z
-x,y,1/2-z
-x,-y,-z
x,-y,1/2+z
loop_
_atom_site_type_symbol
_atom_site_label
_atom_site_fract_x
_atom_site_fract_y
_atom_site_fract_z
Si Si1 0.152910 0.978877 0.380725
Si Si2 0.184457 0.262966 0.124344
Si Si3 0.804139 0.587356 0.059479
O O1 0.087171 0.760412 0.353183
O O2 0.000000 0.064940 0.250000
O O3 0.500000 0.000000 0.500000
O O4 0.013852 0.080487 0.420450
O O5 0.500000 0.205074 0.250000
O O6 0.051380 0.430600 0.139452
O O7 0.219609 0.326723 0.040029
O O8 0.500000 0.500000 0.000000
#
# Coordination Sequence:
#
# PCOD8122942 Si02
#       3
#     4   4   4
#     4  12  26  45  76 106 150 199 249 307 377 444
#     4  11  26  44  72 106 146 192 248 316 372 442
#     4  11  25  45  73 102 147 192 254 302 377 443
#
# _framework density 22.951028999999998
#
# number of rings (size 3 to 8) (size 9 to 14) (size 15 to 20)
#    0.000    0.667    3.333    3.000    4.667    1.333 
#    0.000    0.000    0.000    0.000    0.000    0.000 
#    0.000    0.000    0.000    0.000    0.000    0.000 
#
# Total GULP energy -148703.541527 kJ/mol
# GULP energy per Si atom -12391.961794 kJ/mol
# Density = 2.289879 g / cm^3
# Si number density = 22.951029 Si / 1000 Ang^3
#
#
#
# Elastic Constant Matrix: (Units=GPa)
#
#
# Indices 1 2 3 4 5 6 
#
# 1 158.2251 64.3631 56.4860 0.0000 19.0948 0.0000
# 2 64.3631 148.5987 17.6452 0.0000 13.2477 0.0000
# 3 56.4860 17.6452 124.9093 0.0000 19.2044 0.0000
# 4 0.0000 0.0000 0.0000 29.1495 0.0000 3.6727
# 5 19.0948 13.2477 19.2044 0.0000 40.0861 0.0000
# 6 0.0000 0.0000 0.0000 3.6727 0.0000 56.2357
#
#
#
# Elastic Compliance Matrix: (Units=1/GPa)
#
#
# Indices 1 2 3 4 5 6 
#
# 1 0.009106 -0.003400 -0.003393 0.000000 -0.001588 0.000000
# 2 -0.003400 0.008256 0.000585 0.000000 -0.001389 0.000000
# 3 -0.003393 0.000585 0.009974 0.000000 -0.003355 0.000000
# 4 0.000000 0.000000 0.000000 0.034591 0.000000 -0.002259
# 5 -0.001588 -0.001389 -0.003355 0.000000 0.027769 0.000000
# 6 0.000000 0.000000 0.000000 -0.002259 0.000000 0.017930
#
#
# Mechanical properties :
#
#
# Convention : Reuss Voigt Hill
#
# Bulk Modulus (GPa) = 67.02746 78.74685 72.88716
# Shear Modulus (GPa) = 39.99484 44.64351 42.31917
#
# Velocity S-wave (km/s) = 4.17899 4.41519 4.29871
# Velocity P-wave (km/s) = 7.24936 7.77027 7.51433
#
# Compressibility (1/GPa) = 0.01491926
#
# Stress axis : x y z
#
# Youngs Moduli (GPa) = 109.81553 121.11726 100.26448
#
# Poissons Ratio (x) = 0.41175 0.34025
# Poissons Ratio (y) = 0.37333 -0.05862
# Poissons Ratio (z) = 0.37266 -0.07081
#
# Static dielectric constant tensor:
#      x y z
#    x 4.540350 0.000000 -0.021710 
#    y 0.000000 5.108270 0.000000 
#    z -0.021710 0.000000 3.827020 
# 
# 
# High freq. dielectric constant tensor:
#      x y z
#    x 1.923160 0.000000 0.001900 
#    y 0.000000 1.927490 0.000000 
#    z 0.001900 0.000000 1.896790 
# 
# From -- ./inp_files/14214.got.cif
#   From: 2010.06.25/outbox.cif.g09.slc.cpg/sg13_8_cif.got.tgz:14214.got - 2010.06.28 04:50:58.
