data_PCOD8122690
_publ_section_title
;
Structure prediction by ZEFSAII (Michael W. Deem and Ramdas Pophale) SiO2 
 PCOD8122690
Probable space group: P 2/C
;
_chemical_formula_sum "Si O2"
_cell_formula_units_Z 20
_cell_length_a 10.316615
_cell_length_b 11.341253
_cell_length_c 13.843397
_cell_angle_alpha 90.000000
_cell_angle_beta 147.542693
_cell_angle_gamma 90.000000
_cell_volume 869.258769
_symmetry_space_group_name_H-M "P 2/C"
_symmetry_group_IT_number 13
_symmetry_cell_setting 'monoclinic'
loop_
_space_group_symop_operation_xyz
x,y,z
-x,y,1/2-z
-x,-y,-z
x,-y,1/2+z
loop_
_atom_site_type_symbol
_atom_site_label
_atom_site_fract_x
_atom_site_fract_y
_atom_site_fract_z
Si Si1 0.485277 0.638921 0.489775
Si Si2 0.584532 0.977540 0.660153
Si Si3 0.700272 0.227829 0.447940
Si Si4 0.933002 0.788239 0.811971
Si Si5 0.789170 0.774851 0.334732
O O1 0.500000 0.500000 0.500000
O O2 0.308563 0.696264 0.458958
O O3 0.757706 0.679796 0.679990
O O4 0.394589 0.681050 0.327332
O O5 0.365564 0.911172 0.577565
O O6 0.809648 0.887664 0.800875
O O7 0.500000 0.000000 0.500000
O O8 0.660526 0.098253 0.757430
O O9 0.500000 0.284208 0.250000
O O10 0.967536 0.230498 0.574909
O O11 0.000000 0.843595 0.750000
O O12 0.156999 0.742517 0.018783
#
# Coordination Sequence:
#
# PCOD8122690 Si02
#       5
#     4   4   4   4   4
#     4  11  26  48  69 101 133 179 245 289 339 408
#     4  11  23  40  68 105 139 175 227 282 339 425
#     4  11  23  45  72 101 140 179 233 280 347 421
#     4  11  26  44  64 103 141 176 232 283 349 414
#     4  12  24  46  73  99 140 192 221 287 357 406
#
# _framework density 23.008109000000001
#
# number of rings (size 3 to 8) (size 9 to 14) (size 15 to 20)
#    0.000    0.800    8.000    1.200    2.800    3.200 
#    3.600    0.000    0.000    0.000    0.000    0.000 
#    0.000    0.000    0.000    0.000    0.000    0.000 
#
# Total GULP energy -247978.245590 kJ/mol
# GULP energy per Si atom -12398.912280 kJ/mol
# Density = 2.295574 g / cm^3
# Si number density = 23.008109 Si / 1000 Ang^3
#
#
#
# Elastic Constant Matrix: (Units=GPa)
#
#
# Indices 1 2 3 4 5 6 
#
# 1 65.8827 17.6147 23.0632 0.0000 -9.1793 0.0000
# 2 17.6147 156.7030 66.6521 0.0000 1.7973 0.0000
# 3 23.0632 66.6521 167.1069 0.0000 -44.2945 0.0000
# 4 0.0000 0.0000 0.0000 18.3137 0.0000 -1.9752
# 5 -9.1793 1.7973 -44.2945 0.0000 39.2163 0.0000
# 6 0.0000 0.0000 0.0000 -1.9752 0.0000 13.0187
#
#
#
# Elastic Compliance Matrix: (Units=1/GPa)
#
#
# Indices 1 2 3 4 5 6 
#
# 1 0.016288 -0.001483 -0.000897 0.000000 0.002868 0.000000
# 2 -0.001483 0.008731 -0.004961 0.000000 -0.006351 0.000000
# 3 -0.000897 -0.004961 0.011549 0.000000 0.013062 0.000000
# 4 0.000000 0.000000 0.000000 0.055512 0.000000 0.008422
# 5 0.002868 -0.006351 0.013062 0.000000 0.041216 0.000000
# 6 0.000000 0.000000 0.000000 0.008422 0.000000 0.078091
#
#
# Mechanical properties :
#
#
# Convention : Reuss Voigt Hill
#
# Bulk Modulus (GPa) = 45.68732 67.15030 56.41881
# Shear Modulus (GPa) = 21.42575 32.93392 27.17984
#
# Velocity S-wave (km/s) = 3.05491 3.78750 3.44076
# Velocity P-wave (km/s) = 5.68713 6.95526 6.35292
#
# Compressibility (1/GPa) = 0.02188791
#
# Stress axis : x y z
#
# Youngs Moduli (GPa) = 61.39385 114.53111 86.58629
#
# Poissons Ratio (x) = 0.16979 0.07763
# Poissons Ratio (y) = 0.09102 0.42959
# Poissons Ratio (z) = 0.05504 0.56823
#
# Static dielectric constant tensor:
#      x y z
#    x 4.384530 0.000000 -0.180060 
#    y 0.000000 4.501740 0.000000 
#    z -0.180060 0.000000 4.611480 
# 
# 
# High freq. dielectric constant tensor:
#      x y z
#    x 1.915490 0.000000 -0.013380 
#    y 0.000000 1.870620 0.000000 
#    z -0.013380 0.000000 1.934340 
# 
# From -- ./inp_files/51219.got.cif
#   From: 2010.06.25/outbox.cif.g09.slc.cpg/sg13_26_cif.got.tgz:51219.got - 2010.06.28 04:50:58.
