data_PCOD8122022
_publ_section_title
;
Structure prediction by ZEFSAII (Michael W. Deem and Ramdas Pophale) SiO2 
 PCOD8122022
Probable space group: P 2/C
;
_chemical_formula_sum "Si O2"
_cell_formula_units_Z 16
_cell_length_a 7.974248
_cell_length_b 17.806000
_cell_length_c 5.288806
_cell_angle_alpha 90.000000
_cell_angle_beta 117.715162
_cell_angle_gamma 90.000000
_cell_volume 664.798113
_symmetry_space_group_name_H-M "P 2/C"
_symmetry_group_IT_number 13
_symmetry_cell_setting 'monoclinic'
loop_
_space_group_symop_operation_xyz
x,y,z
-x,y,1/2-z
-x,-y,-z
x,-y,1/2+z
loop_
_atom_site_type_symbol
_atom_site_label
_atom_site_fract_x
_atom_site_fract_y
_atom_site_fract_z
Si Si1 0.213559 0.533238 0.885824
Si Si2 0.823357 0.835051 0.312659
Si Si3 0.697722 0.700149 0.515175
Si Si4 0.000000 0.050561 0.250000
Si Si5 0.500000 0.198146 0.250000
O O1 0.316762 0.493492 0.717995
O O2 0.203086 0.622759 0.842948
O O3 0.000000 0.501388 0.750000
O O4 0.828642 0.749075 0.416350
O O5 0.000000 0.850849 0.250000
O O6 0.828461 0.891497 0.560815
O O7 0.620774 0.851606 0.033770
O O8 0.660580 0.749873 0.736363
O O9 0.500000 0.679087 0.250000
O O10 0.000000 0.000000 0.500000
#
# Coordination Sequence:
#
# PCOD8122022 Si02
#       5
#     4   4   4   2   2
#     4  10  24  41  61  94 136 183 238 295 359 419
#     4  11  24  45  77 107 144 193 232 304 350 434
#     4  10  24  41  67 101 137 185 245 297 353 426
#     4  12  26  48  76 114 148 186 238 284 362 438
#     4  10  24  44  68 112 144 182 260 288 362 426
#
# _framework density 24.067454000000001
#
# number of rings (size 3 to 8) (size 9 to 14) (size 15 to 20)
#    0.000    1.500    1.250    1.500   12.250    2.000 
#    0.000    1.250    0.000    0.000    0.000    0.000 
#    0.000    0.000    0.000    0.000    0.000    0.000 
#
# Total GULP energy -198230.929196 kJ/mol
# GULP energy per Si atom -12389.433075 kJ/mol
# Density = 2.401267 g / cm^3
# Si number density = 24.067454 Si / 1000 Ang^3
#
#
#
# Elastic Constant Matrix: (Units=GPa)
#
#
# Indices 1 2 3 4 5 6 
#
# 1 72.8786 33.2155 37.9479 0.0000 -17.6331 0.0000
# 2 33.2155 147.2716 82.1068 0.0000 -1.8140 0.0000
# 3 37.9479 82.1068 185.2426 0.0000 -21.5860 0.0000
# 4 0.0000 0.0000 0.0000 44.7714 0.0000 -4.0166
# 5 -17.6331 -1.8140 -21.5860 0.0000 29.6359 0.0000
# 6 0.0000 0.0000 0.0000 -4.0166 0.0000 9.2294
#
#
#
# Elastic Compliance Matrix: (Units=1/GPa)
#
#
# Indices 1 2 3 4 5 6 
#
# 1 0.018207 -0.003380 -0.001086 0.000000 0.009835 0.000000
# 2 -0.003380 0.009830 -0.004184 0.000000 -0.004457 0.000000
# 3 -0.001086 -0.004184 0.008054 0.000000 0.004964 0.000000
# 4 0.000000 0.000000 0.000000 0.023243 0.000000 0.010115
# 5 0.009835 -0.004457 0.004964 0.000000 0.042938 0.000000
# 6 0.000000 0.000000 0.000000 0.010115 0.000000 0.112751
#
#
# Mechanical properties :
#
#
# Convention : Reuss Voigt Hill
#
# Bulk Modulus (GPa) = 53.21536 79.10369 66.15952
# Shear Modulus (GPa) = 20.95677 33.53552 27.24614
#
# Velocity S-wave (km/s) = 2.95405 3.73687 3.36828
# Velocity P-wave (km/s) = 5.81327 7.18038 6.53269
#
# Compressibility (1/GPa) = 0.01879157
#
# Stress axis : x y z
#
# Youngs Moduli (GPa) = 54.92445 101.72583 124.16584
#
# Poissons Ratio (x) = 0.34383 0.13478
# Poissons Ratio (y) = 0.18565 0.51953
# Poissons Ratio (z) = 0.05962 0.42564
#
# Static dielectric constant tensor:
#      x y z
#    x 4.174710 0.000000 -0.303570 
#    y 0.000000 4.293360 0.000000 
#    z -0.303570 0.000000 5.067520 
# 
# 
# High freq. dielectric constant tensor:
#      x y z
#    x 1.929250 0.000000 -0.009110 
#    y 0.000000 1.943070 0.000000 
#    z -0.009110 0.000000 1.982210 
# 
# From -- ./inp_files/1411.got.cif
#   From: 2010.06.25/outbox.cif.g09.slc.cpg/sg13_1_cif.got.tgz:1411.got - 2010.06.28 04:50:58.
