data_PCOD8122367
_publ_section_title
;
Structure prediction by ZEFSAII (Michael W. Deem and Ramdas Pophale) SiO2 
 PCOD8122367
Probable space group: P 2/C
;
_chemical_formula_sum "Si O2"
_cell_formula_units_Z 24
_cell_length_a 10.351313
_cell_length_b 8.964690
_cell_length_c 11.447173
_cell_angle_alpha 90.000000
_cell_angle_beta 73.620148
_cell_angle_gamma 90.000000
_cell_volume 1019.141890
_symmetry_space_group_name_H-M "P 2/C"
_symmetry_group_IT_number 13
_symmetry_cell_setting 'monoclinic'
loop_
_space_group_symop_operation_xyz
x,y,z
-x,y,1/2-z
-x,-y,-z
x,-y,1/2+z
loop_
_atom_site_type_symbol
_atom_site_label
_atom_site_fract_x
_atom_site_fract_y
_atom_site_fract_z
Si Si1 0.244988 0.119493 0.807882
Si Si2 0.248505 0.770982 0.790543
Si Si3 0.500000 0.579031 0.750000
Si Si4 0.815266 0.613180 0.482796
Si Si5 0.000000 0.730098 0.250000
Si Si6 0.429365 0.312294 0.610276
Si Si7 0.728378 0.713689 0.977890
O O1 0.379299 0.208443 0.731246
O O2 0.116423 0.160434 0.763818
O O3 0.272105 0.945424 0.792996
O O4 0.214162 0.159832 0.950666
O O5 0.377047 0.685572 0.810801
O O6 0.211409 0.729290 0.667281
O O7 0.139672 0.704751 0.910900
O O8 0.456061 0.479629 0.650188
O O9 0.687881 0.691986 0.454448
O O10 0.774809 0.443137 0.521909
O O11 0.944597 0.620931 0.365168
O O12 0.566976 0.258857 0.514242
#
# Coordination Sequence:
#
# PCOD8122367 Si02
#       7
#     4   4   2   4   2   4   4
#     4  11  27  47  69 105 147 194 235 297 358 426
#     4  12  27  41  72 111 144 189 237 284 374 431
#     4  12  20  42  70 112 144 188 224 296 354 444
#     4  11  24  48  72 103 139 196 243 294 347 423
#     4  10  28  52  76  90 146 194 250 302 350 408
#     4  11  21  44  73 103 156 184 225 299 362 419
#     4  12  24  44  73 110 143 185 235 300 361 431
#
# _framework density 23.549226000000001
#
# number of rings (size 3 to 8) (size 9 to 14) (size 15 to 20)
#    0.000    0.667    5.000    1.500    9.333    2.000 
#    0.000    0.000    0.000    0.000    0.000    0.000 
#    0.000    0.000    0.000    0.000    0.000    0.000 
#
# Total GULP energy -297606.333106 kJ/mol
# GULP energy per Si atom -12400.263879 kJ/mol
# Density = 2.349563 g / cm^3
# Si number density = 23.549226 Si / 1000 Ang^3
#
#
#
# Elastic Constant Matrix: (Units=GPa)
#
#
# Indices 1 2 3 4 5 6 
#
# 1 65.1094 32.5598 28.3840 0.0000 -3.0907 0.0000
# 2 32.5598 148.7463 45.4174 0.0000 3.4602 0.0000
# 3 28.3840 45.4174 169.3589 0.0000 7.3468 0.0000
# 4 0.0000 0.0000 0.0000 31.2603 0.0000 6.2761
# 5 -3.0907 3.4602 7.3468 0.0000 32.5172 0.0000
# 6 0.0000 0.0000 0.0000 6.2761 0.0000 14.0906
#
#
#
# Elastic Compliance Matrix: (Units=1/GPa)
#
#
# Indices 1 2 3 4 5 6 
#
# 1 0.018136 -0.003341 -0.002256 0.000000 0.002589 0.000000
# 2 -0.003341 0.007942 -0.001534 0.000000 -0.000816 0.000000
# 3 -0.002256 -0.001534 0.006763 0.000000 -0.001579 0.000000
# 4 0.000000 0.000000 0.000000 0.035131 0.000000 -0.015648
# 5 0.002589 -0.000816 -0.001579 0.000000 0.031443 0.000000
# 6 0.000000 0.000000 0.000000 -0.015648 0.000000 0.077939
#
#
# Mechanical properties :
#
#
# Convention : Reuss Voigt Hill
#
# Bulk Modulus (GPa) = 53.82880 66.21522 60.02201
# Shear Modulus (GPa) = 25.27697 34.03051 29.65374
#
# Velocity S-wave (km/s) = 3.27978 3.80554 3.55240
# Velocity P-wave (km/s) = 6.10330 6.89118 6.50917
#
# Compressibility (1/GPa) = 0.01857742
#
# Stress axis : x y z
#
# Youngs Moduli (GPa) = 55.13898 125.91709 147.87088
#
# Poissons Ratio (x) = 0.42073 0.33357
# Poissons Ratio (y) = 0.18424 0.22689
# Poissons Ratio (z) = 0.12438 0.19320
#
# Static dielectric constant tensor:
#      x y z
#    x 4.068760 0.000000 -0.083660 
#    y 0.000000 3.982240 0.000000 
#    z -0.083660 0.000000 4.730160 
# 
# 
# High freq. dielectric constant tensor:
#      x y z
#    x 1.918540 0.000000 0.004590 
#    y 0.000000 1.916720 0.000000 
#    z 0.004590 0.000000 1.956020 
# 
# From -- ./inp_files/32545.got.cif
#   From: 2010.06.25/outbox.cif.g09.slc.cpg/sg13_17_cif.got.tgz:32545.got - 2010.06.28 04:50:58.
