data_PCOD8122004
_publ_section_title
;
Structure prediction by ZEFSAII (Michael W. Deem and Ramdas Pophale) SiO2 
 PCOD8122004
Probable space group: P 2/C
;
_chemical_formula_sum "Si O2"
_cell_formula_units_Z 20
_cell_length_a 9.010751
_cell_length_b 13.415282
_cell_length_c 11.909747
_cell_angle_alpha 90.000000
_cell_angle_beta 136.002926
_cell_angle_gamma 90.000000
_cell_volume 1000.026794
_symmetry_space_group_name_H-M "P 2/C"
_symmetry_group_IT_number 13
_symmetry_cell_setting 'monoclinic'
loop_
_space_group_symop_operation_xyz
x,y,z
-x,y,1/2-z
-x,-y,-z
x,-y,1/2+z
loop_
_atom_site_type_symbol
_atom_site_label
_atom_site_fract_x
_atom_site_fract_y
_atom_site_fract_z
Si Si1 0.428066 0.385330 0.590715
Si Si2 0.500000 0.991508 0.250000
Si Si3 0.755425 0.167517 0.011705
Si Si4 0.760157 0.420963 0.585420
Si Si5 0.215851 0.153630 0.210416
Si Si6 0.500000 0.314601 0.250000
O O1 0.500000 0.429463 0.750000
O O2 0.335491 0.276576 0.559900
O O3 0.630664 0.379981 0.620292
O O4 0.254950 0.459274 0.438769
O O5 0.593823 0.920414 0.395466
O O6 0.315305 0.057287 0.205795
O O7 0.790203 0.148028 0.160187
O O8 0.964181 0.160040 0.044448
O O9 0.663558 0.375551 0.417879
O O10 0.000000 0.390399 0.750000
O O11 0.346823 0.250589 0.246038
#
# Coordination Sequence:
#
# PCOD8122004 Si02
#       6
#     4   2   4   4   4   2
#     4  11  24  43  63  98 130 169 222 271 313 400
#     4  11  22  41  64  92 124 165 224 271 318 394
#     4  11  22  40  65  92 124 169 218 262 331 384
#     4  11  26  42  67  98 134 176 218 265 329 384
#     4  10  24  40  64  90 132 170 208 272 331 381
#     4  11  22  45  62  96 142 169 218 271 322 390
#
# _framework density 19.999464
#
# number of rings (size 3 to 8) (size 9 to 14) (size 15 to 20)
#    0.000    1.200    4.000    1.200    5.600    0.800 
#    0.000    0.000    0.000    0.000    0.000    0.000 
#    0.000    0.000    0.000    0.000    0.000    0.000 
#
# Total GULP energy -247904.637743 kJ/mol
# GULP energy per Si atom -12395.231887 kJ/mol
# Density = 1.995394 g / cm^3
# Si number density = 19.999464 Si / 1000 Ang^3
#
#
#
# Elastic Constant Matrix: (Units=GPa)
#
#
# Indices 1 2 3 4 5 6 
#
# 1 137.5087 63.0663 53.6559 0.0000 11.9437 0.0000
# 2 63.0663 127.7687 46.9337 0.0000 20.9147 0.0000
# 3 53.6559 46.9337 116.2919 0.0000 11.6907 0.0000
# 4 0.0000 0.0000 0.0000 65.3707 0.0000 -5.6001
# 5 11.9437 20.9147 11.6907 0.0000 28.0388 0.0000
# 6 0.0000 0.0000 0.0000 -5.6001 0.0000 23.5442
#
#
#
# Elastic Compliance Matrix: (Units=1/GPa)
#
#
# Indices 1 2 3 4 5 6 
#
# 1 0.010311 -0.003899 -0.003167 0.000000 -0.000163 0.000000
# 2 -0.003899 0.011569 -0.002264 0.000000 -0.006025 0.000000
# 3 -0.003167 -0.002264 0.011136 0.000000 -0.001605 0.000000
# 4 0.000000 0.000000 0.000000 0.015616 0.000000 0.003714
# 5 -0.000163 -0.006025 -0.001605 0.000000 0.040897 0.000000
# 6 0.000000 0.000000 0.000000 0.003714 0.000000 0.043357
#
#
# Mechanical properties :
#
#
# Convention : Reuss Voigt Hill
#
# Bulk Modulus (GPa) = 69.66822 78.76459 74.21641
# Shear Modulus (GPa) = 31.98340 37.91832 34.95086
#
# Velocity S-wave (km/s) = 4.00335 4.35899 4.18495
# Velocity P-wave (km/s) = 7.50199 8.05005 7.78084
#
# Compressibility (1/GPa) = 0.01435375
#
# Stress axis : x y z
#
# Youngs Moduli (GPa) = 96.98807 86.43585 89.80230
#
# Poissons Ratio (x) = 0.33703 0.28442
# Poissons Ratio (y) = 0.37817 0.20336
# Poissons Ratio (z) = 0.30718 0.19573
#
# Static dielectric constant tensor:
#      x y z
#    x 3.744750 0.000000 0.097620 
#    y 0.000000 3.638060 0.000000 
#    z 0.097620 0.000000 3.704910 
# 
# 
# High freq. dielectric constant tensor:
#      x y z
#    x 1.791610 0.000000 -0.002410 
#    y 0.000000 1.788060 0.000000 
#    z -0.002410 0.000000 1.783480 
# 
# From -- ./inp_files/29288.got.cif
#   From: 2010.06.25/outbox.cif.g09.slc.cpg/sg13_15_cif.got.tgz:29288.got - 2010.06.28 04:50:58.
