data_PCOD8122301
_publ_section_title
;
Structure prediction by ZEFSAII (Michael W. Deem and Ramdas Pophale) SiO2 
 PCOD8122301
Probable space group: P 2/C
;
_chemical_formula_sum "Si O2"
_cell_formula_units_Z 30
_cell_length_a 11.377699
_cell_length_b 11.552802
_cell_length_c 14.160977
_cell_angle_alpha 90.000000
_cell_angle_beta 52.218154
_cell_angle_gamma 90.000000
_cell_volume 1471.139951
_symmetry_space_group_name_H-M "P 2/C"
_symmetry_group_IT_number 13
_symmetry_cell_setting 'monoclinic'
loop_
_space_group_symop_operation_xyz
x,y,z
-x,y,1/2-z
-x,-y,-z
x,-y,1/2+z
loop_
_atom_site_type_symbol
_atom_site_label
_atom_site_fract_x
_atom_site_fract_y
_atom_site_fract_z
Si Si1 0.808536 0.452942 0.433818
Si Si2 0.331364 0.696404 0.220394
Si Si3 0.237260 0.660946 0.928224
Si Si4 0.345681 0.756531 0.417269
Si Si5 0.853176 0.524712 0.700007
Si Si6 0.602744 0.989313 0.537882
Si Si7 0.160001 0.812939 0.132598
Si Si8 0.500000 0.170026 0.250000
O O1 0.705131 0.546603 0.541316
O O2 0.791076 0.321687 0.478904
O O3 0.776551 0.445448 0.337819
O O4 0.973934 0.503437 0.370929
O O5 0.325159 0.778456 0.315458
O O6 0.509407 0.682275 0.118995
O O7 0.244421 0.580494 0.292732
O O8 0.258382 0.749347 0.163243
O O9 0.149299 0.625604 0.876997
O O10 0.362991 0.743596 0.825168
O O11 0.136592 0.732031 0.052447
O O12 0.348093 0.884205 0.455891
O O13 0.758079 0.929041 0.437918
O O14 0.502121 0.915837 0.659903
O O15 0.500000 0.000000 0.500000
O O16 0.000000 0.847598 0.250000
#
# Coordination Sequence:
#
# PCOD8122301 Si02
#       8
#     4   4   4   4   4   4   4   2
#     4  11  24  40  63 100 138 178 220 268 347 406
#     4  11  22  40  68  98 135 173 226 272 334 421
#     4  11  23  40  67  96 138 169 220 279 336 407
#     4  11  25  41  68  99 129 181 224 280 338 393
#     4  11  24  40  62  98 144 178 212 277 338 416
#     4  11  24  48  69  93 137 179 229 290 332 392
#     4  11  24  44  71  99 129 185 228 275 342 409
#     4  10  26  42  64 102 122 174 234 274 342 392
#
# _framework density 20.39235
#
# number of rings (size 3 to 8) (size 9 to 14) (size 15 to 20)
#    0.000    1.067    4.000    2.000    5.600    0.533 
#    2.400    0.667    0.000    0.000    0.000    0.000 
#    0.000    0.000    0.000    0.000    0.000    0.000 
#
# Total GULP energy -371755.838001 kJ/mol
# GULP energy per Si atom -12391.861267 kJ/mol
# Density = 2.034594 g / cm^3
# Si number density = 20.392350 Si / 1000 Ang^3
#
#
#
# Elastic Constant Matrix: (Units=GPa)
#
#
# Indices 1 2 3 4 5 6 
#
# 1 94.6907 42.4419 52.6404 0.0000 19.0045 0.0000
# 2 42.4419 144.8528 66.3832 0.0000 2.2397 0.0000
# 3 52.6404 66.3832 127.4207 0.0000 10.0881 0.0000
# 4 0.0000 0.0000 0.0000 28.5455 0.0000 7.0081
# 5 19.0045 2.2397 10.0881 0.0000 32.4706 0.0000
# 6 0.0000 0.0000 0.0000 7.0081 0.0000 31.2855
#
#
#
# Elastic Compliance Matrix: (Units=1/GPa)
#
#
# Indices 1 2 3 4 5 6 
#
# 1 0.015738 -0.002351 -0.004676 0.000000 -0.007597 0.000000
# 2 -0.002351 0.009444 -0.004107 0.000000 0.002001 0.000000
# 3 -0.004676 -0.004107 0.011975 0.000000 -0.000701 0.000000
# 4 0.000000 0.000000 0.000000 0.037071 0.000000 -0.008304
# 5 -0.007597 0.002001 -0.000701 0.000000 0.035323 0.000000
# 6 0.000000 0.000000 0.000000 -0.008304 0.000000 0.033824
#
#
# Mechanical properties :
#
#
# Convention : Reuss Voigt Hill
#
# Bulk Modulus (GPa) = 67.16222 76.65503 71.90862
# Shear Modulus (GPa) = 29.30752 32.16023 30.73388
#
# Velocity S-wave (km/s) = 3.79513 3.97555 3.88639
# Velocity P-wave (km/s) = 7.22569 7.66453 7.44834
#
# Compressibility (1/GPa) = 0.01488932
#
# Stress axis : x y z
#
# Youngs Moduli (GPa) = 63.53881 105.89085 83.50934
#
# Poissons Ratio (x) = 0.24897 0.39045
# Poissons Ratio (y) = 0.14939 0.34297
# Poissons Ratio (z) = 0.29708 0.43489
#
# Static dielectric constant tensor:
#      x y z
#    x 3.563960 0.000000 0.227500 
#    y 0.000000 3.778830 0.000000 
#    z 0.227500 0.000000 3.941630 
# 
# 
# High freq. dielectric constant tensor:
#      x y z
#    x 1.790650 0.000000 0.019220 
#    y 0.000000 1.794160 0.000000 
#    z 0.019220 0.000000 1.813690 
# 
# From -- ./inp_files/51176.got.cif
#   From: 2010.06.25/outbox.cif.g09.slc.cpg/sg13_26_cif.got.tgz:51176.got - 2010.06.28 04:50:58.
