data_PCOD8122285
_publ_section_title
;
Structure prediction by ZEFSAII (Michael W. Deem and Ramdas Pophale) SiO2 
 PCOD8122285
Probable space group: P 2/C
;
_chemical_formula_sum "Si O2"
_cell_formula_units_Z 20
_cell_length_a 7.564990
_cell_length_b 11.572462
_cell_length_c 10.107053
_cell_angle_alpha 90.000000
_cell_angle_beta 87.226907
_cell_angle_gamma 90.000000
_cell_volume 883.791446
_symmetry_space_group_name_H-M "P 2/C"
_symmetry_group_IT_number 13
_symmetry_cell_setting 'monoclinic'
loop_
_space_group_symop_operation_xyz
x,y,z
-x,y,1/2-z
-x,-y,-z
x,-y,1/2+z
loop_
_atom_site_type_symbol
_atom_site_label
_atom_site_fract_x
_atom_site_fract_y
_atom_site_fract_z
Si Si1 0.912287 0.125135 0.994539
Si Si2 0.747223 0.732373 0.022576
Si Si3 0.546031 0.905542 0.390642
Si Si4 0.809379 0.712129 0.722911
Si Si5 0.381056 0.506131 0.377313
O O1 0.754077 0.126386 0.893218
O O2 0.068000 0.209884 0.942605
O O3 0.832826 0.168756 0.138692
O O4 0.000000 0.000000 0.000000
O O5 0.575616 0.793109 0.089836
O O6 0.763090 0.604927 0.085342
O O7 0.711848 0.736478 0.865215
O O8 0.500000 0.960113 0.250000
O O9 0.500000 0.000000 0.500000
O O10 0.706983 0.618212 0.640390
O O11 0.000000 0.658272 0.750000
O O12 0.500000 0.543811 0.250000
O O13 0.500000 0.500000 0.500000
#
# Coordination Sequence:
#
# PCOD8122285 Si02
#       5
#     4   4   4   4   4
#     4  11  25  47  75 109 148 193 251 304 367 448
#     4  11  25  48  74 109 150 194 250 311 371 443
#     4  12  28  46  74 111 147 196 246 303 379 442
#     4  10  25  46  76 103 145 201 244 297 380 438
#     4  12  24  47  76 109 147 191 254 308 372 443
#
# _framework density 22.629771999999999
#
# number of rings (size 3 to 8) (size 9 to 14) (size 15 to 20)
#    0.000    0.800    4.000    1.800    2.800    5.600 
#    7.200    0.000    0.000    0.000    0.000    0.000 
#    0.000    0.000    0.000    0.000    0.000    0.000 
#
# Total GULP energy -248019.576764 kJ/mol
# GULP energy per Si atom -12400.978838 kJ/mol
# Density = 2.257827 g / cm^3
# Si number density = 22.629772 Si / 1000 Ang^3
#
#
#
# Elastic Constant Matrix: (Units=GPa)
#
#
# Indices 1 2 3 4 5 6 
#
# 1 152.6184 60.5703 61.0951 0.0000 24.5986 0.0000
# 2 60.5703 137.4703 61.3013 0.0000 -3.3310 0.0000
# 3 61.0951 61.3013 161.2637 0.0000 10.3027 0.0000
# 4 0.0000 0.0000 0.0000 40.4785 0.0000 -5.2958
# 5 24.5986 -3.3310 10.3027 0.0000 43.1733 0.0000
# 6 0.0000 0.0000 0.0000 -5.2958 0.0000 42.1428
#
#
#
# Elastic Compliance Matrix: (Units=1/GPa)
#
#
# Indices 1 2 3 4 5 6 
#
# 1 0.009560 -0.003460 -0.001972 0.000000 -0.005243 0.000000
# 2 -0.003460 0.010107 -0.002749 0.000000 0.003407 0.000000
# 3 -0.001972 -0.002749 0.008057 0.000000 -0.001012 0.000000
# 4 0.000000 0.000000 0.000000 0.025117 0.000000 0.003156
# 5 -0.005243 0.003407 -0.001012 0.000000 0.026654 0.000000
# 6 0.000000 0.000000 0.000000 0.003156 0.000000 0.024126
#
#
# Mechanical properties :
#
#
# Convention : Reuss Voigt Hill
#
# Bulk Modulus (GPa) = 88.00001 90.80954 89.40477
# Shear Modulus (GPa) = 40.39741 43.05129 41.72435
#
# Velocity S-wave (km/s) = 4.22968 4.36640 4.29859
# Velocity P-wave (km/s) = 7.92621 8.10161 8.01439
#
# Compressibility (1/GPa) = 0.01136363
#
# Stress axis : x y z
#
# Youngs Moduli (GPa) = 104.60460 98.93983 124.10808
#
# Poissons Ratio (x) = 0.34233 0.24468
# Poissons Ratio (y) = 0.36193 0.34116
# Poissons Ratio (z) = 0.20623 0.27197
#
# Static dielectric constant tensor:
#      x y z
#    x 4.444900 0.000000 -0.011220 
#    y 0.000000 1.392980 0.000000 
#    z -0.011220 0.000000 4.249930 
# 
# 
# High freq. dielectric constant tensor:
#      x y z
#    x 1.903910 0.000000 -0.001050 
#    y 0.000000 1.894460 0.000000 
#    z -0.001050 0.000000 1.897260 
# 
# From -- ./inp_files/11771.got.cif
#   From: 2010.06.25/outbox.cif.g09.slc.cpg/sg13_6_cif.got.tgz:11771.got - 2010.06.28 04:50:58.
