data_PCOD8122628
_publ_section_title
;
Structure prediction by ZEFSAII (Michael W. Deem and Ramdas Pophale) SiO2 
 PCOD8122628
Probable space group: P 2/C
;
_chemical_formula_sum "Si O2"
_cell_formula_units_Z 24
_cell_length_a 13.822473
_cell_length_b 9.360543
_cell_length_c 13.740217
_cell_angle_alpha 90.000000
_cell_angle_beta 38.288387
_cell_angle_gamma 90.000000
_cell_volume 1101.553974
_symmetry_space_group_name_H-M "P 2/C"
_symmetry_group_IT_number 13
_symmetry_cell_setting 'monoclinic'
loop_
_space_group_symop_operation_xyz
x,y,z
-x,y,1/2-z
-x,-y,-z
x,-y,1/2+z
loop_
_atom_site_type_symbol
_atom_site_label
_atom_site_fract_x
_atom_site_fract_y
_atom_site_fract_z
Si Si1 0.242291 0.254129 0.027925
Si Si2 0.191277 0.131102 0.280791
Si Si3 0.736304 0.599280 0.330485
Si Si4 0.500000 0.437938 0.750000
Si Si5 0.158980 0.832102 0.394284
Si Si6 0.411271 0.641702 0.665240
Si Si7 0.000000 0.483560 0.250000
O O1 0.213073 0.164705 0.148968
O O2 0.115673 0.376595 0.102371
O O3 0.407883 0.336781 0.898870
O O4 0.233261 0.145741 0.943157
O O5 0.324702 0.206507 0.240977
O O6 0.026483 0.185800 0.450745
O O7 0.205747 0.962278 0.286680
O O8 0.767384 0.689912 0.209402
O O9 0.595983 0.670612 0.503237
O O10 0.676165 0.439167 0.354719
O O11 0.898973 0.586807 0.260191
O O12 0.385602 0.542960 0.780172
#
# Coordination Sequence:
#
# PCOD8122628 Si02
#       7
#     4   4   4   2   4   4   2
#     4  12  22  44  68  96 134 183 223 281 351 404
#     4  11  25  45  67  97 140 177 229 279 336 413
#     4  11  23  41  69 102 132 172 231 280 339 405
#     4  12  24  40  72 104 134 178 232 282 350 404
#     4  11  25  44  68  99 135 184 223 279 343 407
#     4  11  22  43  67 100 136 174 225 285 328 413
#     4  12  22  40  70 104 132 174 226 292 340 400
#
# _framework density 21.787403000000001
#
# number of rings (size 3 to 8) (size 9 to 14) (size 15 to 20)
#    0.000    0.667    6.667    1.000    2.333    2.000 
#    9.000    0.000    0.000    0.000    0.000    0.000 
#    0.000    0.000    0.000    0.000    0.000    0.000 
#
# Total GULP energy -297556.722353 kJ/mol
# GULP energy per Si atom -12398.196765 kJ/mol
# Density = 2.173781 g / cm^3
# Si number density = 21.787403 Si / 1000 Ang^3
#
#
#
# Elastic Constant Matrix: (Units=GPa)
#
#
# Indices 1 2 3 4 5 6 
#
# 1 112.8814 51.5787 46.8758 0.0000 -1.9205 0.0000
# 2 51.5787 84.3604 62.0537 0.0000 8.8736 0.0000
# 3 46.8758 62.0537 113.9198 0.0000 10.2938 0.0000
# 4 0.0000 0.0000 0.0000 38.9129 0.0000 -0.5182
# 5 -1.9205 8.8736 10.2938 0.0000 35.3392 0.0000
# 6 0.0000 0.0000 0.0000 -0.5182 0.0000 29.2845
#
#
#
# Elastic Compliance Matrix: (Units=1/GPa)
#
#
# Indices 1 2 3 4 5 6 
#
# 1 0.012758 -0.006761 -0.001831 0.000000 0.002924 0.000000
# 2 -0.006761 0.023484 -0.009699 0.000000 -0.003439 0.000000
# 3 -0.001831 -0.009699 0.014999 0.000000 -0.002033 0.000000
# 4 0.000000 0.000000 0.000000 0.025704 0.000000 0.000455
# 5 0.002924 -0.003439 -0.002033 0.000000 0.029912 0.000000
# 6 0.000000 0.000000 0.000000 0.000455 0.000000 0.034156
#
#
# Mechanical properties :
#
#
# Convention : Reuss Voigt Hill
#
# Bulk Modulus (GPa) = 68.22304 70.24201 69.23253
# Shear Modulus (GPa) = 27.39991 30.75091 29.07541
#
# Velocity S-wave (km/s) = 3.55012 3.76095 3.65705
# Velocity P-wave (km/s) = 6.94158 7.15328 7.04822
#
# Compressibility (1/GPa) = 0.01465780
#
# Stress axis : x y z
#
# Youngs Moduli (GPa) = 78.37948 42.58200 66.67304
#
# Poissons Ratio (x) = 0.28791 0.12209
# Poissons Ratio (y) = 0.52995 0.64668
# Poissons Ratio (z) = 0.14352 0.41301
#
# Static dielectric constant tensor:
#      x y z
#    x 3.895270 0.000000 -0.170810 
#    y 0.000000 3.699090 0.000000 
#    z -0.170810 0.000000 4.102310 
# 
# 
# High freq. dielectric constant tensor:
#      x y z
#    x 1.857910 0.000000 -0.004560 
#    y 0.000000 1.832250 0.000000 
#    z -0.004560 0.000000 1.866630 
# 
# From -- ./inp_files/52950.got.cif
#   From: 2010.06.25/outbox.cif.g09.slc.cpg/sg13_27_cif.got.tgz:52950.got - 2010.06.28 04:50:58.
