data_PCOD8122187
_publ_section_title
;
Structure prediction by ZEFSAII (Michael W. Deem and Ramdas Pophale) SiO2 
 PCOD8122187
Probable space group: P 2/C
;
_chemical_formula_sum "Si O2"
_cell_formula_units_Z 14
_cell_length_a 4.871100
_cell_length_b 14.084842
_cell_length_c 8.876602
_cell_angle_alpha 90.000000
_cell_angle_beta 114.183150
_cell_angle_gamma 90.000000
_cell_volume 555.565392
_symmetry_space_group_name_H-M "P 2/C"
_symmetry_group_IT_number 13
_symmetry_cell_setting 'monoclinic'
loop_
_space_group_symop_operation_xyz
x,y,z
-x,y,1/2-z
-x,-y,-z
x,-y,1/2+z
loop_
_atom_site_type_symbol
_atom_site_label
_atom_site_fract_x
_atom_site_fract_y
_atom_site_fract_z
Si Si1 0.215194 0.616623 0.463902
Si Si2 0.500000 0.529637 0.250000
Si Si3 0.210167 0.271563 0.436428
Si Si4 0.297628 0.938715 0.058908
O O1 0.250267 0.586446 0.294501
O O2 0.288518 0.529039 0.589981
O O3 0.455716 0.701055 0.539540
O O4 0.895194 0.663414 0.443945
O O5 0.197741 0.161299 0.469898
O O6 0.000000 0.296830 0.250000
O O7 0.500000 0.919663 0.250000
O O8 0.500000 0.000000 0.000000
O O9 0.000000 0.000000 0.000000
#
# Coordination Sequence:
#
# PCOD8122187 Si02
#       4
#     4   2   4   4
#     4  11  25  43  71 102 148 194 252 310 376 435
#     4  10  24  46  68 104 144 202 256 314 376 442
#     4  12  24  45  72 109 148 192 248 310 380 446
#     4  12  27  50  80 113 150 196 247 311 384 463
#
# _framework density 25.199551
#
# number of rings (size 3 to 8) (size 9 to 14) (size 15 to 20)
#    0.000    0.571    2.857    4.286    2.000    8.000 
#    0.000    0.000    0.000    0.000    0.000    0.000 
#    0.000    0.000    0.000    0.000    0.000    0.000 
#
# Total GULP energy -173584.554182 kJ/mol
# GULP energy per Si atom -12398.896727 kJ/mol
# Density = 2.514220 g / cm^3
# Si number density = 25.199551 Si / 1000 Ang^3
#
#
#
# Elastic Constant Matrix: (Units=GPa)
#
#
# Indices 1 2 3 4 5 6 
#
# 1 150.0066 17.3147 6.7287 0.0000 -15.1795 0.0000
# 2 17.3147 130.1789 22.3794 0.0000 -27.8796 0.0000
# 3 6.7287 22.3794 130.1187 0.0000 -25.2463 0.0000
# 4 0.0000 0.0000 0.0000 46.4808 0.0000 -4.3137
# 5 -15.1795 -27.8796 -25.2463 0.0000 35.4488 0.0000
# 6 0.0000 0.0000 0.0000 -4.3137 0.0000 44.3123
#
#
#
# Elastic Compliance Matrix: (Units=1/GPa)
#
#
# Indices 1 2 3 4 5 6 
#
# 1 0.006989 -0.000353 0.000262 0.000000 0.002902 0.000000
# 2 -0.000353 0.009260 -0.000221 0.000000 0.006974 0.000000
# 3 0.000262 -0.000221 0.008932 0.000000 0.006300 0.000000
# 4 0.000000 0.000000 0.000000 0.021710 0.000000 0.002113
# 5 0.002902 0.006974 0.006300 0.000000 0.039424 0.000000
# 6 0.000000 0.000000 0.000000 0.002113 0.000000 0.022773
#
#
# Mechanical properties :
#
#
# Convention : Reuss Voigt Hill
#
# Bulk Modulus (GPa) = 40.72131 55.90555 48.31343
# Shear Modulus (GPa) = 42.40933 49.50715 45.95824
#
# Velocity S-wave (km/s) = 4.10682 4.43719 4.27520
# Velocity P-wave (km/s) = 6.21953 6.96311 6.60180
#
# Compressibility (1/GPa) = 0.02455717
#
# Stress axis : x y z
#
# Youngs Moduli (GPa) = 143.08169 107.98696 111.95608
#
# Poissons Ratio (x) = 0.03814 -0.02937
# Poissons Ratio (y) = 0.05054 0.02477
# Poissons Ratio (z) = -0.03754 0.02389
#
# Static dielectric constant tensor:
#      x y z
#    x 4.938640 0.000000 -0.216040 
#    y 0.000000 4.593170 0.000000 
#    z -0.216040 0.000000 4.940890 
# 
# 
# High freq. dielectric constant tensor:
#      x y z
#    x 2.040340 0.000000 0.006150 
#    y 0.000000 2.010540 0.000000 
#    z 0.006150 0.000000 2.037130 
# 
# From -- ./inp_files/8987.got.cif
#   From: 2010.06.25/outbox.cif.g09.slc.cpg/sg13_5_cif.got.tgz:8987.got - 2010.06.28 04:50:58.
