data_PCOD8122473
_publ_section_title
;
Structure prediction by ZEFSAII (Michael W. Deem and Ramdas Pophale) SiO2 
 PCOD8122473
Probable space group: P 2/C
;
_chemical_formula_sum "Si O2"
_cell_formula_units_Z 22
_cell_length_a 5.109458
_cell_length_b 13.863154
_cell_length_c 15.387515
_cell_angle_alpha 90.000000
_cell_angle_beta 88.149787
_cell_angle_gamma 90.000000
_cell_volume 1089.378730
_symmetry_space_group_name_H-M "P 2/C"
_symmetry_group_IT_number 13
_symmetry_cell_setting 'monoclinic'
loop_
_space_group_symop_operation_xyz
x,y,z
-x,y,1/2-z
-x,-y,-z
x,-y,1/2+z
loop_
_atom_site_type_symbol
_atom_site_label
_atom_site_fract_x
_atom_site_fract_y
_atom_site_fract_z
Si Si1 0.494392 0.913391 0.930861
Si Si2 0.015161 0.194019 0.011523
Si Si3 0.991985 0.398786 0.546256
Si Si4 0.819096 0.178951 0.679050
Si Si5 0.500000 0.010036 0.750000
Si Si6 0.509381 0.642615 0.345366
O O1 0.211789 0.862553 0.935702
O O2 0.705993 0.833536 0.952440
O O3 0.568408 0.945982 0.832904
O O4 0.500000 0.000000 0.000000
O O5 0.987292 0.309960 0.022203
O O6 0.009253 0.165211 0.909604
O O7 0.211872 0.380222 0.616086
O O8 0.000000 0.500000 0.500000
O O9 0.712061 0.404476 0.594060
O O10 0.745046 0.075410 0.718767
O O11 0.558632 0.242244 0.661245
O O12 0.000000 0.232559 0.750000
O O13 0.500000 0.595410 0.250000
#
# Coordination Sequence:
#
# PCOD8122473 Si02
#       6
#     4   4   4   4   2   4
#     4  12  25  42  61  95 131 176 211 262 313 395
#     4  11  24  43  64  88 133 169 211 263 325 371
#     4  11  24  42  70  95 124 169 218 268 329 399
#     4  11  22  36  63  98 130 165 210 273 320 385
#     4  12  26  36  66  90 134 172 230 254 324 382
#     4  11  21  38  65 100 131 153 202 276 344 373
#
# _framework density 20.194996
#
# number of rings (size 3 to 8) (size 9 to 14) (size 15 to 20)
#    0.000    0.727    2.727    7.091    2.545    0.000 
#    0.000    0.000   12.000    0.000    0.000    0.000 
#    0.000    0.000    0.000    0.000    0.000    0.000 
#
# Total GULP energy -272769.512524 kJ/mol
# GULP energy per Si atom -12398.614206 kJ/mol
# Density = 2.014903 g / cm^3
# Si number density = 20.194996 Si / 1000 Ang^3
#
#
#
# Elastic Constant Matrix: (Units=GPa)
#
#
# Indices 1 2 3 4 5 6 
#
# 1 27.5188 13.6861 -6.0707 0.0000 3.3559 0.0000
# 2 13.6861 127.3181 48.8841 0.0000 -4.8430 0.0000
# 3 -6.0707 48.8841 108.2426 0.0000 0.5030 0.0000
# 4 0.0000 0.0000 0.0000 15.1835 0.0000 0.7152
# 5 3.3559 -4.8430 0.5030 0.0000 39.6529 0.0000
# 6 0.0000 0.0000 0.0000 0.7152 0.0000 26.8212
#
#
#
# Elastic Compliance Matrix: (Units=1/GPa)
#
#
# Indices 1 2 3 4 5 6 
#
# 1 0.041371 -0.006669 0.005352 0.000000 -0.004384 0.000000
# 2 -0.006669 0.010636 -0.005186 0.000000 0.001929 0.000000
# 3 0.005352 -0.005186 0.011887 0.000000 -0.001237 0.000000
# 4 0.000000 0.000000 0.000000 0.065944 0.000000 -0.001758
# 5 -0.004384 0.001929 -0.001237 0.000000 0.025841 0.000000
# 6 0.000000 0.000000 0.000000 -0.001758 0.000000 0.037331
#
#
# Mechanical properties :
#
#
# Convention : Reuss Voigt Hill
#
# Bulk Modulus (GPa) = 19.65109 41.78649 30.71879
# Shear Modulus (GPa) = 22.42375 30.10351 26.26363
#
# Velocity S-wave (km/s) = 3.33582 3.86507 3.61016
# Velocity P-wave (km/s) = 4.95871 6.37611 5.71155
#
# Compressibility (1/GPa) = 0.05088776
#
# Stress axis : x y z
#
# Youngs Moduli (GPa) = 24.17155 94.02098 84.12775
#
# Poissons Ratio (x) = 0.62703 -0.45029
# Poissons Ratio (y) = 0.16120 0.43632
# Poissons Ratio (z) = -0.12938 0.48763
#
# Static dielectric constant tensor:
#      x y z
#    x 3.875810 0.000000 -0.213620 
#    y 0.000000 3.933190 0.000000 
#    z -0.213620 0.000000 4.129640 
# 
# 
# High freq. dielectric constant tensor:
#      x y z
#    x 1.810320 0.000000 -0.002470 
#    y 0.000000 1.765800 0.000000 
#    z -0.002470 0.000000 1.784420 
# 
# From -- ./inp_files/43871.got.cif
#   From: 2010.06.25/outbox.cif.g09.slc.cpg/sg13_22_cif.got.tgz:43871.got - 2010.06.28 04:50:58.
