data_PCOD8122647
_publ_section_title
;
Structure prediction by ZEFSAII (Michael W. Deem and Ramdas Pophale) SiO2 
 PCOD8122647
Probable space group: P 2/C
;
_chemical_formula_sum "Si O2"
_cell_formula_units_Z 20
_cell_length_a 5.660976
_cell_length_b 11.199697
_cell_length_c 13.848724
_cell_angle_alpha 90.000000
_cell_angle_beta 75.095839
_cell_angle_gamma 90.000000
_cell_volume 848.486868
_symmetry_space_group_name_H-M "P 2/C"
_symmetry_group_IT_number 13
_symmetry_cell_setting 'monoclinic'
loop_
_space_group_symop_operation_xyz
x,y,z
-x,y,1/2-z
-x,-y,-z
x,-y,1/2+z
loop_
_atom_site_type_symbol
_atom_site_label
_atom_site_fract_x
_atom_site_fract_y
_atom_site_fract_z
Si Si1 0.131310 0.633638 0.038547
Si Si2 0.219543 0.234667 0.802193
Si Si3 0.902311 0.608593 0.867643
Si Si4 0.750885 0.018901 0.580681
Si Si5 0.521174 0.807443 0.954292
O O1 0.224261 0.514804 0.084423
O O2 0.863035 0.683187 0.098128
O O3 0.333890 0.731279 0.037626
O O4 0.121964 0.620450 0.922469
O O5 0.500000 0.273318 0.750000
O O6 0.211413 0.091334 0.823336
O O7 0.000000 0.264255 0.750000
O O8 0.725251 0.723850 0.884237
O O9 0.000000 0.592017 0.750000
O O10 0.600934 0.105659 0.529144
O O11 0.612196 0.891883 0.612627
O O12 0.000000 0.000000 0.500000
#
# Coordination Sequence:
#
# PCOD8122647 Si02
#       5
#     4   4   4   4   4
#     4  11  24  48  73 102 147 193 248 318 374 445
#     4  12  26  46  75 117 149 201 262 307 373 454
#     4  11  25  46  71 108 142 194 250 311 386 450
#     4  11  23  44  70 100 146 200 240 311 376 436
#     4  11  22  45  74  97 148 195 246 303 385 442
#
# _framework density 23.571370999999999
#
# number of rings (size 3 to 8) (size 9 to 14) (size 15 to 20)
#    0.000    0.800    4.000    2.400    2.800    0.800 
#   14.400    0.000    0.000    0.000    0.000    0.000 
#    0.000    0.000    0.000    0.000    0.000    0.000 
#
# Total GULP energy -247771.105200 kJ/mol
# GULP energy per Si atom -12388.555260 kJ/mol
# Density = 2.351772 g / cm^3
# Si number density = 23.571371 Si / 1000 Ang^3
#
#
#
# Elastic Constant Matrix: (Units=GPa)
#
#
# Indices 1 2 3 4 5 6 
#
# 1 104.6192 36.9690 36.9794 0.0000 -1.2836 0.0000
# 2 36.9690 158.6110 27.6521 0.0000 4.5449 0.0000
# 3 36.9794 27.6521 112.8730 0.0000 7.2734 0.0000
# 4 0.0000 0.0000 0.0000 36.1101 0.0000 1.4448
# 5 -1.2836 4.5449 7.2734 0.0000 20.1707 0.0000
# 6 0.0000 0.0000 0.0000 1.4448 0.0000 40.9293
#
#
#
# Elastic Compliance Matrix: (Units=1/GPa)
#
#
# Indices 1 2 3 4 5 6 
#
# 1 0.011562 -0.002170 -0.003415 0.000000 0.002456 0.000000
# 2 -0.002170 0.007010 -0.000917 0.000000 -0.001387 0.000000
# 3 -0.003415 -0.000917 0.010446 0.000000 -0.003778 0.000000
# 4 0.000000 0.000000 0.000000 0.027732 0.000000 -0.000979
# 5 0.002456 -0.001387 -0.003778 0.000000 0.051408 0.000000
# 6 0.000000 0.000000 0.000000 -0.000979 0.000000 0.024467
#
#
# Mechanical properties :
#
#
# Convention : Reuss Voigt Hill
#
# Bulk Modulus (GPa) = 62.44035 64.36715 63.40375
# Shear Modulus (GPa) = 33.11962 37.74219 35.43090
#
# Velocity S-wave (km/s) = 3.75250 4.00583 3.88123
# Velocity P-wave (km/s) = 6.73220 6.98299 6.85874
#
# Compressibility (1/GPa) = 0.01601528
#
# Stress axis : x y z
#
# Youngs Moduli (GPa) = 86.48715 142.65044 95.72744
#
# Poissons Ratio (x) = 0.30955 0.32688
# Poissons Ratio (y) = 0.18768 0.08779
# Poissons Ratio (z) = 0.29533 0.13082
#
# Static dielectric constant tensor:
#      x y z
#    x 4.300410 0.000000 0.226790 
#    y 0.000000 4.869160 0.000000 
#    z 0.226790 0.000000 4.134600 
# 
# 
# High freq. dielectric constant tensor:
#      x y z
#    x 1.933810 0.000000 0.002690 
#    y 0.000000 1.957170 0.000000 
#    z 0.002690 0.000000 1.913710 
# 
# From -- ./inp_files/43571.got.cif
#   From: 2010.06.25/outbox.cif.g09.slc.cpg/sg13_22_cif.got.tgz:43571.got - 2010.06.28 04:50:58.
