data_PCOD8122380
_publ_section_title
;
Structure prediction by ZEFSAII (Michael W. Deem and Ramdas Pophale) SiO2 
 PCOD8122380
Probable space group: P 2/C
;
_chemical_formula_sum "Si O2"
_cell_formula_units_Z 26
_cell_length_a 11.829531
_cell_length_b 24.392460
_cell_length_c 5.137302
_cell_angle_alpha 90.000000
_cell_angle_beta 64.081946
_cell_angle_gamma 90.000000
_cell_volume 1333.278305
_symmetry_space_group_name_H-M "P 2/C"
_symmetry_group_IT_number 13
_symmetry_cell_setting 'monoclinic'
loop_
_space_group_symop_operation_xyz
x,y,z
-x,y,1/2-z
-x,-y,-z
x,-y,1/2+z
loop_
_atom_site_type_symbol
_atom_site_label
_atom_site_fract_x
_atom_site_fract_y
_atom_site_fract_z
Si Si1 0.141930 0.847445 0.538559
Si Si2 0.771398 0.789818 0.550577
Si Si3 0.849796 0.664508 0.403642
Si Si4 0.284232 0.625662 0.477834
Si Si5 0.500000 0.223742 0.250000
Si Si6 0.150057 0.031741 0.096477
Si Si7 0.500000 0.291955 0.750000
Si Si8 0.500000 0.462551 0.750000
O O1 0.194445 0.802989 0.686935
O O2 0.207207 0.907081 0.498983
O O3 0.000000 0.857696 0.750000
O O4 0.149628 0.824428 0.237741
O O5 0.791674 0.725245 0.487439
O O6 0.626548 0.810118 0.674872
O O7 0.796436 0.635088 0.200706
O O8 0.000000 0.669014 0.250000
O O9 0.811228 0.625117 0.682596
O O10 0.378103 0.674455 0.449790
O O11 0.370382 0.571732 0.371158
O O12 0.461670 0.258185 0.538803
O O13 0.000000 0.032616 0.250000
O O14 0.200979 0.006980 0.314525
O O15 0.500000 0.500000 0.500000
#
# Coordination Sequence:
#
# PCOD8122380 Si02
#       8
#     4   4   4   4   2   4   2   2
#     4  11  22  36  54  83 120 152 186 241 302 357
#     4  12  23  37  55  83 119 159 197 236 287 348
#     4  12  23  38  59  89 128 167 200 227 280 365
#     4  11  22  39  64  90 121 154 198 244 293 342
#     4  12  22  37  56  77 114 151 197 242 274 324
#     4   9  17  31  52  77 105 141 188 239 295 354
#     4  11  18  38  58  81 108 147 194 242 279 310
#     4  11  24  43  72 100 120 150 199 270 309 330
#
# _framework density 19.500803999999999
#
# number of rings (size 3 to 8) (size 9 to 14) (size 15 to 20)
#    0.000    0.923    3.077    5.538    0.000    4.923 
#    0.000    0.000    0.000    9.231    0.000   10.769 
#    0.000    0.000    0.000    0.000    0.000    0.000 
#
# Total GULP energy -322311.794833 kJ/mol
# GULP energy per Si atom -12396.607494 kJ/mol
# Density = 1.945642 g / cm^3
# Si number density = 19.500804 Si / 1000 Ang^3
#
#
#
# Elastic Constant Matrix: (Units=GPa)
#
#
# Indices 1 2 3 4 5 6 
#
# 1 92.9981 23.4023 29.0316 0.0000 6.2761 0.0000
# 2 23.4023 94.4252 38.4091 0.0000 8.5725 0.0000
# 3 29.0316 38.4091 111.2045 0.0000 14.6294 0.0000
# 4 0.0000 0.0000 0.0000 28.3152 0.0000 23.1808
# 5 6.2761 8.5725 14.6294 0.0000 42.2439 0.0000
# 6 0.0000 0.0000 0.0000 23.1808 0.0000 48.8815
#
#
#
# Elastic Compliance Matrix: (Units=1/GPa)
#
#
# Indices 1 2 3 4 5 6 
#
# 1 0.012030 -0.001958 -0.002390 0.000000 -0.000562 0.000000
# 2 -0.001958 0.012687 -0.003741 0.000000 -0.000988 0.000000
# 3 -0.002390 -0.003741 0.011276 0.000000 -0.002791 0.000000
# 4 0.000000 0.000000 0.000000 0.057729 0.000000 -0.027376
# 5 -0.000562 -0.000988 -0.002791 0.000000 0.024923 0.000000
# 6 0.000000 0.000000 0.000000 -0.027376 0.000000 0.033440
#
#
# Mechanical properties :
#
#
# Convention : Reuss Voigt Hill
#
# Bulk Modulus (GPa) = 50.46935 53.36820 51.91878
# Shear Modulus (GPa) = 28.59313 37.74043 33.16678
#
# Velocity S-wave (km/s) = 3.83332 4.40401 4.12854
# Velocity P-wave (km/s) = 6.74754 7.29979 7.02909
#
# Compressibility (1/GPa) = 0.01981400
#
# Stress axis : x y z
#
# Youngs Moduli (GPa) = 83.12704 78.82052 88.68701
#
# Poissons Ratio (x) = 0.15434 0.21199
# Poissons Ratio (y) = 0.16277 0.33176
# Poissons Ratio (z) = 0.19870 0.29485
#
# Static dielectric constant tensor:
#      x y z
#    x 3.287940 0.000000 0.057230 
#    y 0.000000 3.534470 0.000000 
#    z 0.057230 0.000000 3.728900 
# 
# 
# High freq. dielectric constant tensor:
#      x y z
#    x 1.753840 0.000000 0.016670 
#    y 0.000000 1.741320 0.000000 
#    z 0.016670 0.000000 1.776000 
# 
# From -- ./inp_files/4071.got.cif
#   From: 2010.06.25/outbox.cif.g09.slc.cpg/sg13_3_cif.got.tgz:4071.got - 2010.06.28 04:50:58.
