data_PCOD8122692
_publ_section_title
;
Structure prediction by ZEFSAII (Michael W. Deem and Ramdas Pophale) SiO2 
 PCOD8122692
Probable space group: P 2/C
;
_chemical_formula_sum "Si O2"
_cell_formula_units_Z 22
_cell_length_a 12.568243
_cell_length_b 5.322904
_cell_length_c 16.786561
_cell_angle_alpha 90.000000
_cell_angle_beta 108.592462
_cell_angle_gamma 90.000000
_cell_volume 1064.403734
_symmetry_space_group_name_H-M "P 2/C"
_symmetry_group_IT_number 13
_symmetry_cell_setting 'monoclinic'
loop_
_space_group_symop_operation_xyz
x,y,z
-x,y,1/2-z
-x,-y,-z
x,-y,1/2+z
loop_
_atom_site_type_symbol
_atom_site_label
_atom_site_fract_x
_atom_site_fract_y
_atom_site_fract_z
Si Si1 0.502685 0.749726 0.051461
Si Si2 0.666996 0.082066 0.869174
Si Si3 0.912722 0.001113 0.407612
Si Si4 0.326919 0.386002 0.786989
Si Si5 0.914439 0.499240 0.301827
Si Si6 0.500000 0.267824 0.250000
O O1 0.389922 0.734780 0.079615
O O2 0.622682 0.764879 0.126082
O O3 0.500000 0.500000 0.000000
O O4 0.500000 0.000000 0.000000
O O5 0.790359 0.981511 0.922213
O O6 0.689379 0.205582 0.790406
O O7 0.573718 0.872851 0.832991
O O8 0.928737 0.747065 0.359865
O O9 0.931132 0.247781 0.357851
O O10 0.000000 0.000000 0.500000
O O11 0.206293 0.513127 0.771892
O O12 0.421837 0.585014 0.790962
O O13 0.000000 0.506260 0.250000
#
# Coordination Sequence:
#
# PCOD8122692 Si02
#       6
#     4   4   4   4   4   2
#     4  12  26  38  59  99 138 164 206 280 349 372
#     4  11  23  40  68  93 126 181 225 262 319 417
#     4  11  25  44  69  98 131 177 229 278 336 399
#     4  11  23  40  68  93 126 181 226 263 320 418
#     4  11  25  44  69  98 131 177 229 279 337 396
#     4  12  16  40  72  90 124 162 244 256 308 392
#
# _framework density 20.668851
#
# number of rings (size 3 to 8) (size 9 to 14) (size 15 to 20)
#    0.000    0.727    5.455    2.182    0.000    2.909 
#    0.000    0.000    0.000    0.000    0.000    0.000 
#    0.000    0.000    0.000    0.000    0.000    0.000 
#
# Total GULP energy -272662.967743 kJ/mol
# GULP energy per Si atom -12393.771261 kJ/mol
# Density = 2.062181 g / cm^3
# Si number density = 20.668851 Si / 1000 Ang^3
#
#
#
# Elastic Constant Matrix: (Units=GPa)
#
#
# Indices 1 2 3 4 5 6 
#
# 1 173.8419 54.8102 84.9173 0.0000 32.0792 0.0000
# 2 54.8102 142.2416 58.8899 0.0000 6.6273 0.0000
# 3 84.9173 58.8899 130.0048 0.0000 16.0109 0.0000
# 4 0.0000 0.0000 0.0000 44.9593 0.0000 -0.8013
# 5 32.0792 6.6273 16.0109 0.0000 24.0282 0.0000
# 6 0.0000 0.0000 0.0000 -0.8013 0.0000 36.0684
#
#
#
# Elastic Compliance Matrix: (Units=1/GPa)
#
#
# Indices 1 2 3 4 5 6 
#
# 1 0.010561 -0.001550 -0.004916 0.000000 -0.010396 0.000000
# 2 -0.001550 0.008882 -0.003229 0.000000 0.001771 0.000000
# 3 -0.004916 -0.003229 0.012471 0.000000 -0.000857 0.000000
# 4 0.000000 0.000000 0.000000 0.022251 0.000000 0.000494
# 5 -0.010396 0.001771 -0.000857 0.000000 0.055580 0.000000
# 6 0.000000 0.000000 0.000000 0.000494 0.000000 0.027736
#
#
# Mechanical properties :
#
#
# Convention : Reuss Voigt Hill
#
# Bulk Modulus (GPa) = 79.84432 93.70256 86.77344
# Shear Modulus (GPa) = 31.04737 37.50925 34.27831
#
# Velocity S-wave (km/s) = 3.87994 4.26464 4.07683
# Velocity P-wave (km/s) = 7.66721 8.34764 8.01465
#
# Compressibility (1/GPa) = 0.01252437
#
# Stress axis : x y z
#
# Youngs Moduli (GPa) = 94.69202 112.58890 80.18561
#
# Poissons Ratio (x) = 0.17449 0.39416
# Poissons Ratio (y) = 0.14675 0.25893
# Poissons Ratio (z) = 0.46547 0.36356
#
# Static dielectric constant tensor:
#      x y z
#    x 6.624460 0.000000 -3.290790 
#    y 0.000000 3.841880 0.000000 
#    z -3.290790 0.000000 16.072550 
# 
# 
# High freq. dielectric constant tensor:
#      x y z
#    x 1.820800 0.000000 0.007820 
#    y 0.000000 1.819720 0.000000 
#    z 0.007820 0.000000 1.807790 
# 
# From -- ./inp_files/48876.got.cif
#   From: 2010.06.25/outbox.cif.g09.slc.cpg/sg13_25_cif.got.tgz:48876.got - 2010.06.28 04:50:58.
