data_PCOD8122233
_publ_section_title
;
Structure prediction by ZEFSAII (Michael W. Deem and Ramdas Pophale) SiO2 
 PCOD8122233
Probable space group: P 2/C
;
_chemical_formula_sum "Si O2"
_cell_formula_units_Z 18
_cell_length_a 7.876113
_cell_length_b 15.094982
_cell_length_c 9.212616
_cell_angle_alpha 90.000000
_cell_angle_beta 48.316848
_cell_angle_gamma 90.000000
_cell_volume 817.996510
_symmetry_space_group_name_H-M "P 2/C"
_symmetry_group_IT_number 13
_symmetry_cell_setting 'monoclinic'
loop_
_space_group_symop_operation_xyz
x,y,z
-x,y,1/2-z
-x,-y,-z
x,-y,1/2+z
loop_
_atom_site_type_symbol
_atom_site_label
_atom_site_fract_x
_atom_site_fract_y
_atom_site_fract_z
Si Si1 0.000000 0.016967 0.750000
Si Si2 0.791312 0.590769 0.269364
Si Si3 0.981697 0.292981 0.430282
Si Si4 0.768845 0.893650 0.114659
Si Si5 0.629921 0.405947 0.309508
O O1 0.161489 0.960959 0.552064
O O2 0.831626 0.073530 0.741551
O O3 0.801919 0.483843 0.260772
O O4 0.547066 0.623433 0.466635
O O5 0.000000 0.625029 0.250000
O O6 0.809818 0.637546 0.102041
O O7 0.917315 0.193953 0.507230
O O8 0.000000 0.310611 0.250000
O O9 0.239206 0.319676 0.329327
O O10 0.500000 0.875504 0.250000
O O11 0.500000 0.451164 0.250000
#
# Coordination Sequence:
#
# PCOD8122233 Si02
#       5
#     2   4   4   4   4
#     4  10  24  50  76 108 142 176 238 282 352 442
#     4  11  25  44  66  94 136 189 237 286 351 410
#     4  12  27  43  64 103 141 177 234 287 350 416
#     4  11  25  47  76 108 142 187 227 289 356 425
#     4  11  25  42  68  96 134 186 236 295 343 408
#
# _framework density 22.004981999999998
#
# number of rings (size 3 to 8) (size 9 to 14) (size 15 to 20)
#    0.000    0.889    3.333    2.000   10.889    0.000 
#    0.000    1.111    0.000    0.000    0.000    0.000 
#    0.000    0.000    0.000    0.000    0.000    0.000 
#
# Total GULP energy -223051.393053 kJ/mol
# GULP energy per Si atom -12391.744059 kJ/mol
# Density = 2.195490 g / cm^3
# Si number density = 22.004982 Si / 1000 Ang^3
#
#
#
# Elastic Constant Matrix: (Units=GPa)
#
#
# Indices 1 2 3 4 5 6 
#
# 1 93.6101 58.0751 55.9920 0.0000 1.9055 0.0000
# 2 58.0751 128.5476 86.1915 0.0000 -11.6646 0.0000
# 3 55.9920 86.1915 174.6219 0.0000 4.1179 0.0000
# 4 0.0000 0.0000 0.0000 79.4036 0.0000 -50.5187
# 5 1.9055 -11.6646 4.1179 0.0000 39.2498 0.0000
# 6 0.0000 0.0000 0.0000 -50.5187 0.0000 89.0597
#
#
#
# Elastic Compliance Matrix: (Units=1/GPa)
#
#
# Indices 1 2 3 4 5 6 
#
# 1 0.015604 -0.005888 -0.002043 0.000000 -0.002293 0.000000
# 2 -0.005888 0.014535 -0.005408 0.000000 0.005173 0.000000
# 3 -0.002043 -0.005408 0.009109 0.000000 -0.002464 0.000000
# 4 0.000000 0.000000 0.000000 0.019706 0.000000 0.011178
# 5 -0.002293 0.005173 -0.002464 0.000000 0.027385 0.000000
# 6 0.000000 0.000000 0.000000 0.011178 0.000000 0.017569
#
#
# Mechanical properties :
#
#
# Convention : Reuss Voigt Hill
#
# Bulk Modulus (GPa) = 79.55563 88.58855 84.07209
# Shear Modulus (GPa) = 37.09847 54.64403 45.87125
#
# Velocity S-wave (km/s) = 4.11044 4.98864 4.57068
# Velocity P-wave (km/s) = 7.66548 8.57483 8.13288
#
# Compressibility (1/GPa) = 0.01256982
#
# Stress axis : x y z
#
# Youngs Moduli (GPa) = 64.08571 68.80009 109.77627
#
# Poissons Ratio (x) = 0.40507 0.22430
# Poissons Ratio (y) = 0.37732 0.59371
# Poissons Ratio (z) = 0.13094 0.37210
#
# Static dielectric constant tensor:
#      x y z
#    x 5.323060 0.000000 -0.572130 
#    y 0.000000 3.729960 0.000000 
#    z -0.572130 0.000000 4.603050 
# 
# 
# High freq. dielectric constant tensor:
#      x y z
#    x 1.870890 0.000000 0.002690 
#    y 0.000000 1.843300 0.000000 
#    z 0.002690 0.000000 1.895420 
# 
# From -- ./inp_files/12115.got.cif
#   From: 2010.06.25/outbox.cif.g09.slc.cpg/sg13_7_cif.got.tgz:12115.got - 2010.06.28 04:50:58.
