data_PCOD8122913
_publ_section_title
;
Structure prediction by ZEFSAII (Michael W. Deem and Ramdas Pophale) SiO2 
 PCOD8122913
Probable space group: P 2/C
;
_chemical_formula_sum "Si O2"
_cell_formula_units_Z 16
_cell_length_a 10.870814
_cell_length_b 4.857450
_cell_length_c 24.859812
_cell_angle_alpha 90.000000
_cell_angle_beta 30.788289
_cell_angle_gamma 90.000000
_cell_volume 671.932455
_symmetry_space_group_name_H-M "P 2/C"
_symmetry_group_IT_number 13
_symmetry_cell_setting 'monoclinic'
loop_
_space_group_symop_operation_xyz
x,y,z
-x,y,1/2-z
-x,-y,-z
x,-y,1/2+z
loop_
_atom_site_type_symbol
_atom_site_label
_atom_site_fract_x
_atom_site_fract_y
_atom_site_fract_z
Si Si1 0.106504 0.745686 0.571124
Si Si2 0.860192 0.046036 0.752888
Si Si3 0.393482 0.245684 0.428885
Si Si4 0.639791 0.453972 0.747121
O O1 0.301399 0.499532 0.499932
O O2 0.054303 0.846932 0.651396
O O3 0.856677 0.632949 0.640199
O O4 0.198588 0.999530 0.500076
O O5 0.643308 0.867057 0.859810
O O6 0.000000 0.193623 0.750000
O O7 0.749990 0.250005 0.750005
O O8 0.445681 0.346924 0.348613
O O9 0.500000 0.306386 0.750000
#
# Coordination Sequence:
#
# PCOD8122913 Si02
#       4
#     4   4   4   4
#     4  11  24  49  70 108 140 191 238 295 352 420
#     4  11  26  47  74 108 147 185 238 298 354 425
#     4  11  24  49  70 108 140 191 238 295 352 420
#     4  11  26  47  74 108 147 185 238 298 354 425
#
# _framework density 23.811914999999999
#
# number of rings (size 3 to 8) (size 9 to 14) (size 15 to 20)
#    0.000    1.000    5.000    0.000    0.000   12.000 
#    0.000    0.000    0.000    0.000    0.000    0.000 
#    0.000    0.000    0.000    0.000    0.000    0.000 
#
# Total GULP energy -198261.757162 kJ/mol
# GULP energy per Si atom -12391.359823 kJ/mol
# Density = 2.375772 g / cm^3
# Si number density = 23.811915 Si / 1000 Ang^3
#
#
#
# Elastic Constant Matrix: (Units=GPa)
#
#
# Indices 1 2 3 4 5 6 
#
# 1 201.2950 66.3797 49.9204 0.0000 5.0268 0.0000
# 2 66.3797 157.8356 77.2118 0.0000 -7.1437 0.0000
# 3 49.9204 77.2118 172.3932 0.0000 -22.3601 0.0000
# 4 0.0000 0.0000 0.0000 59.7558 0.0000 -4.1601
# 5 5.0268 -7.1437 -22.3601 0.0000 4.4121 0.0000
# 6 0.0000 0.0000 0.0000 -4.1601 0.0000 31.1203
#
#
#
# Elastic Compliance Matrix: (Units=1/GPa)
#
#
# Indices 1 2 3 4 5 6 
#
# 1 0.010508 -0.001978 -0.012038 0.000000 -0.076182 0.000000
# 2 -0.001978 0.008861 -0.003626 0.000000 -0.001776 0.000000
# 3 -0.012038 -0.003626 0.034809 0.000000 0.184251 0.000000
# 4 0.000000 0.000000 0.000000 0.016892 0.000000 0.002258
# 5 -0.076182 -0.001776 0.184251 0.000000 1.244333 0.000000
# 6 0.000000 0.000000 0.000000 0.002258 0.000000 0.032435
#
#
# Mechanical properties :
#
#
# Convention : Reuss Voigt Hill
#
# Bulk Modulus (GPa) = 52.92958 102.06085 77.49522
# Shear Modulus (GPa) = 3.59862 41.59177 22.59520
#
# Velocity S-wave (km/s) = 1.23067 4.18386 3.08377
# Velocity P-wave (km/s) = 4.92908 8.14211 6.73015
#
# Compressibility (1/GPa) = 0.01889303
#
# Stress axis : x y z
#
# Youngs Moduli (GPa) = 95.16535 112.84975 28.72839
#
# Poissons Ratio (x) = 0.22327 0.34583
# Poissons Ratio (y) = 0.18828 0.10418
# Poissons Ratio (z) = 1.14558 0.40922
#
# Static dielectric constant tensor:
#      x y z
#    x 3.668510 0.000000 -0.263200 
#    y 0.000000 4.517730 0.000000 
#    z -0.263200 0.000000 4.968500 
# 
# 
# High freq. dielectric constant tensor:
#      x y z
#    x 1.895060 0.000000 -0.016210 
#    y 0.000000 1.949880 0.000000 
#    z -0.016210 0.000000 1.974440 
# 
# From -- ./inp_files/85695.got.cif
#   From: 2010.06.25/outbox.cif.g09.slc.cpg/sg13_43_cif.got.tgz:85695.got - 2010.06.28 04:50:58.
