data_PCOD8122136
_publ_section_title
;
Structure prediction by ZEFSAII (Michael W. Deem and Ramdas Pophale) SiO2 
 PCOD8122136
Probable space group: P 2/C
;
_chemical_formula_sum "Si O2"
_cell_formula_units_Z 28
_cell_length_a 14.695684
_cell_length_b 11.441760
_cell_length_c 9.145568
_cell_angle_alpha 90.000000
_cell_angle_beta 54.638062
_cell_angle_gamma 90.000000
_cell_volume 1254.076155
_symmetry_space_group_name_H-M "P 2/C"
_symmetry_group_IT_number 13
_symmetry_cell_setting 'monoclinic'
loop_
_space_group_symop_operation_xyz
x,y,z
-x,y,1/2-z
-x,-y,-z
x,-y,1/2+z
loop_
_atom_site_type_symbol
_atom_site_label
_atom_site_fract_x
_atom_site_fract_y
_atom_site_fract_z
Si Si1 0.146438 0.885836 0.874944
Si Si2 0.345415 0.943318 0.147677
Si Si3 0.584298 0.483290 0.797782
Si Si4 0.000000 0.979648 0.750000
Si Si5 0.246889 0.292268 0.752486
Si Si6 0.228295 0.653213 0.940462
Si Si7 0.500000 0.982233 0.750000
Si Si8 0.072379 0.439622 0.051925
O O1 0.172032 0.747946 0.882900
O O2 0.069769 0.900281 0.800871
O O3 0.268139 0.941482 0.726217
O O4 0.085345 0.939562 0.075666
O O5 0.264597 0.841246 0.276891
O O6 0.443131 0.941894 0.176795
O O7 0.401980 0.915104 0.934311
O O8 0.500000 0.451190 0.750000
O O9 0.662447 0.373859 0.756722
O O10 0.652651 0.604994 0.725092
O O11 0.500000 0.500000 0.000000
O O12 0.248150 0.291162 0.577828
O O13 0.127809 0.326904 0.927448
O O14 0.155154 0.537809 0.035581
O O15 0.000000 0.388249 0.250000
O O16 0.000000 0.500000 0.000000
#
# Coordination Sequence:
#
# PCOD8122136 Si02
#       8
#     4   4   4   2   4   4   2   4
#     4  11  24  47  72 104 149 179 245 293 350 430
#     4  11  24  46  68 103 141 179 235 288 339 425
#     4  11  24  45  67  98 135 179 234 287 351 419
#     4  10  24  44  72 106 140 196 228 290 366 418
#     4  11  24  42  72 101 136 181 233 289 350 418
#     4  11  24  43  72 100 135 188 229 288 352 420
#     4  10  24  44  70  98 140 188 228 278 358 408
#     4  11  24  46  69  99 136 179 232 288 350 420
#
# _framework density 22.327193000000001
#
# number of rings (size 3 to 8) (size 9 to 14) (size 15 to 20)
#    0.000    1.143    2.857    2.571    2.000    5.714 
#   11.571    0.000    0.000    0.000    0.000    0.000 
#    0.000    0.000    0.000    0.000    0.000    0.000 
#
# Total GULP energy -346942.013657 kJ/mol
# GULP energy per Si atom -12390.786202 kJ/mol
# Density = 2.227638 g / cm^3
# Si number density = 22.327193 Si / 1000 Ang^3
#
#
#
# Elastic Constant Matrix: (Units=GPa)
#
#
# Indices 1 2 3 4 5 6 
#
# 1 108.7695 17.7660 44.0169 0.0000 12.7940 0.0000
# 2 17.7660 98.7984 37.6133 0.0000 -3.6782 0.0000
# 3 44.0169 37.6133 169.8878 0.0000 -9.0192 0.0000
# 4 0.0000 0.0000 0.0000 32.4971 0.0000 2.9254
# 5 12.7940 -3.6782 -9.0192 0.0000 46.0380 0.0000
# 6 0.0000 0.0000 0.0000 2.9254 0.0000 34.9050
#
#
#
# Elastic Compliance Matrix: (Units=1/GPa)
#
#
# Indices 1 2 3 4 5 6 
#
# 1 0.010926 -0.001037 -0.002796 0.000000 -0.003667 0.000000
# 2 -0.001037 0.011159 -0.002162 0.000000 0.000756 0.000000
# 3 -0.002796 -0.002162 0.007196 0.000000 0.002014 0.000000
# 4 0.000000 0.000000 0.000000 0.031006 0.000000 -0.002599
# 5 -0.003667 0.000756 0.002014 0.000000 0.023195 0.000000
# 6 0.000000 0.000000 0.000000 -0.002599 0.000000 0.028867
#
#
# Mechanical properties :
#
#
# Convention : Reuss Voigt Hill
#
# Bulk Modulus (GPa) = 57.82989 64.02757 60.92873
# Shear Modulus (GPa) = 38.43117 41.22533 39.82825
#
# Velocity S-wave (km/s) = 4.15332 4.30166 4.22814
# Velocity P-wave (km/s) = 6.99696 7.30832 7.15433
#
# Compressibility (1/GPa) = 0.01729210
#
# Stress axis : x y z
#
# Youngs Moduli (GPa) = 91.52579 89.61163 138.96169
#
# Poissons Ratio (x) = 0.09291 0.38853
# Poissons Ratio (y) = 0.09489 0.30042
# Poissons Ratio (z) = 0.25590 0.19373
#
# Static dielectric constant tensor:
#      x y z
#    x 4.158120 0.000000 -0.115890 
#    y 0.000000 3.554100 0.000000 
#    z -0.115890 0.000000 4.311310 
# 
# 
# High freq. dielectric constant tensor:
#      x y z
#    x 1.901040 0.000000 -0.003090 
#    y 0.000000 1.862960 0.000000 
#    z -0.003090 0.000000 1.897020 
# 
# From -- ./inp_files/18973.got.cif
#   From: 2010.06.25/outbox.cif.g09.slc.cpg/sg13_10_cif.got.tgz:18973.got - 2010.06.28 04:50:58.
