data_PCOD8122395
_publ_section_title
;
Structure prediction by ZEFSAII (Michael W. Deem and Ramdas Pophale) SiO2 
 PCOD8122395
Probable space group: P 2/C
;
_chemical_formula_sum "Si O2"
_cell_formula_units_Z 26
_cell_length_a 17.085682
_cell_length_b 9.019527
_cell_length_c 8.085266
_cell_angle_alpha 90.000000
_cell_angle_beta 83.825476
_cell_angle_gamma 90.000000
_cell_volume 1238.749998
_symmetry_space_group_name_H-M "P 2/C"
_symmetry_group_IT_number 13
_symmetry_cell_setting 'monoclinic'
loop_
_space_group_symop_operation_xyz
x,y,z
-x,y,1/2-z
-x,-y,-z
x,-y,1/2+z
loop_
_atom_site_type_symbol
_atom_site_label
_atom_site_fract_x
_atom_site_fract_y
_atom_site_fract_z
Si Si1 0.347179 0.970554 0.358437
Si Si2 0.314560 0.535945 0.866720
Si Si3 0.727819 0.807717 0.418901
Si Si4 0.840285 0.636091 0.202286
Si Si5 0.500000 0.162443 0.250000
Si Si6 0.943244 0.411796 0.394485
Si Si7 0.389294 0.695835 0.548918
O O1 0.332825 0.881012 0.194985
O O2 0.354185 0.854130 0.505685
O O3 0.274266 0.081715 0.422104
O O4 0.427527 0.063205 0.325607
O O5 0.235782 0.443960 0.855160
O O6 0.333607 0.634717 0.705464
O O7 0.302273 0.644153 0.026260
O O8 0.385962 0.422459 0.899097
O O9 0.813549 0.781953 0.313850
O O10 0.888337 0.525954 0.307889
O O11 0.890666 0.690339 0.029167
O O12 0.523751 0.271524 0.397465
O O13 0.000000 0.323560 0.250000
O O14 0.000000 0.500000 0.500000
#
# Coordination Sequence:
#
# PCOD8122395 Si02
#       7
#     4   4   4   4   2   4   4
#     4  12  25  44  63  87 122 169 226 266 318 394
#     4  12  22  40  64  96 125 157 210 284 320 370
#     4  12  23  41  65  91 126 164 216 273 311 375
#     4  11  19  36  64  94 135 158 198 257 317 345
#     4  12  26  42  66  78 124 172 218 272 338 380
#     4   9  19  34  58 100 140 164 190 234 309 386
#     4  12  24  42  62  88 124 162 217 272 330 385
#
# _framework density 20.988900000000001
#
# number of rings (size 3 to 8) (size 9 to 14) (size 15 to 20)
#    0.000    0.615    7.692    0.462    0.000    0.615 
#    0.000    1.538    0.000    0.000    0.000   14.000 
#    0.000    0.000    0.000    0.000    0.000    0.000 
#
# Total GULP energy -322098.215155 kJ/mol
# GULP energy per Si atom -12388.392891 kJ/mol
# Density = 2.094113 g / cm^3
# Si number density = 20.988900 Si / 1000 Ang^3
#
#
#
# Elastic Constant Matrix: (Units=GPa)
#
#
# Indices 1 2 3 4 5 6 
#
# 1 67.7238 30.7574 34.7663 0.0000 -4.3853 0.0000
# 2 30.7574 75.6605 33.1262 0.0000 1.5920 0.0000
# 3 34.7663 33.1262 88.4194 0.0000 -12.4145 0.0000
# 4 0.0000 0.0000 0.0000 34.9997 0.0000 -2.2805
# 5 -4.3853 1.5920 -12.4145 0.0000 53.1161 0.0000
# 6 0.0000 0.0000 0.0000 -2.2805 0.0000 20.7496
#
#
#
# Elastic Compliance Matrix: (Units=1/GPa)
#
#
# Indices 1 2 3 4 5 6 
#
# 1 0.020387 -0.005765 -0.005785 0.000000 0.000504 0.000000
# 2 -0.005765 0.017633 -0.004632 0.000000 -0.002087 0.000000
# 3 -0.005785 -0.004632 0.015791 0.000000 0.003352 0.000000
# 4 0.000000 0.000000 0.000000 0.028778 0.000000 0.003163
# 5 0.000504 -0.002087 0.003352 0.000000 0.019714 0.000000
# 6 0.000000 0.000000 0.000000 0.003163 0.000000 0.048541
#
#
# Mechanical properties :
#
#
# Convention : Reuss Voigt Hill
#
# Bulk Modulus (GPa) = 46.63224 47.67817 47.15521
# Shear Modulus (GPa) = 26.26647 30.65002 28.45825
#
# Velocity S-wave (km/s) = 3.54142 3.82553 3.68621
# Velocity P-wave (km/s) = 6.24403 6.50216 6.37440
#
# Compressibility (1/GPa) = 0.02144439
#
# Stress axis : x y z
#
# Youngs Moduli (GPa) = 49.05156 56.71310 63.32881
#
# Poissons Ratio (x) = 0.32696 0.36638
# Poissons Ratio (y) = 0.28279 0.29335
# Poissons Ratio (z) = 0.28378 0.26271
#
# Static dielectric constant tensor:
#      x y z
#    x 4.154370 0.000000 -0.101170 
#    y 0.000000 3.902490 0.000000 
#    z -0.101170 0.000000 4.528390 
# 
# 
# High freq. dielectric constant tensor:
#      x y z
#    x 1.798960 0.000000 -0.001360 
#    y 0.000000 1.799120 0.000000 
#    z -0.001360 0.000000 1.856660 
# 
# From -- ./inp_files/21156.got.cif
#   From: 2010.06.25/outbox.cif.g09.slc.cpg/sg13_11_cif.got.tgz:21156.got - 2010.06.28 04:50:58.
