data_PCOD8122329
_publ_section_title
;
Structure prediction by ZEFSAII (Michael W. Deem and Ramdas Pophale) SiO2 
 PCOD8122329
Probable space group: P 2/C
;
_chemical_formula_sum "Si O2"
_cell_formula_units_Z 24
_cell_length_a 13.087541
_cell_length_b 6.341863
_cell_length_c 24.995804
_cell_angle_alpha 90.000000
_cell_angle_beta 31.893507
_cell_angle_gamma 90.000000
_cell_volume 1096.117870
_symmetry_space_group_name_H-M "P 2/C"
_symmetry_group_IT_number 13
_symmetry_cell_setting 'monoclinic'
loop_
_space_group_symop_operation_xyz
x,y,z
-x,y,1/2-z
-x,-y,-z
x,-y,1/2+z
loop_
_atom_site_type_symbol
_atom_site_label
_atom_site_fract_x
_atom_site_fract_y
_atom_site_fract_z
Si Si1 0.000000 0.820498 0.250000
Si Si2 0.588645 0.914702 0.618769
Si Si3 0.788223 0.489874 0.071671
Si Si4 0.500000 0.213922 0.750000
Si Si5 0.791168 0.167938 0.273139
Si Si6 0.273385 0.538294 0.602602
Si Si7 0.847336 0.764774 0.946831
O O1 0.152373 0.677834 0.148356
O O2 0.128526 0.957557 0.233891
O O3 0.685052 0.736504 0.613532
O O4 0.431015 0.840544 0.646111
O O5 0.475496 0.075107 0.707757
O O6 0.761306 0.019389 0.508361
O O7 0.683615 0.636774 0.161336
O O8 0.787407 0.574990 0.011820
O O9 0.000000 0.500000 0.000000
O O10 0.801256 0.366841 0.308202
O O11 0.920997 0.211816 0.162600
O O12 0.500000 0.500000 0.500000
O O13 0.234315 0.715076 0.575419
#
# Coordination Sequence:
#
# PCOD8122329 Si02
#       7
#     2   4   4   2   4   4   4
#     4  12  24  44  68 100 144 190 224 292 336 408
#     4  11  27  45  72 101 139 183 231 299 348 422
#     4  11  27  46  75 102 138 183 233 295 356 419
#     4  10  26  48  68 106 132 180 234 286 362 414
#     4  12  26  44  70 105 139 185 237 281 355 417
#     4  12  25  45  70 102 147 183 236 286 344 420
#     4  11  25  44  66 109 135 182 240 278 358 415
#
# _framework density 21.895454999999998
#
# number of rings (size 3 to 8) (size 9 to 14) (size 15 to 20)
#    0.000    0.667    3.333    2.500   11.667    4.000 
#    0.000    0.000    0.000    0.000    0.000    0.000 
#    0.000    0.000    0.000    0.000    0.000    0.000 
#
# Total GULP energy -297619.351094 kJ/mol
# GULP energy per Si atom -12400.806296 kJ/mol
# Density = 2.184562 g / cm^3
# Si number density = 21.895455 Si / 1000 Ang^3
#
#
#
# Elastic Constant Matrix: (Units=GPa)
#
#
# Indices 1 2 3 4 5 6 
#
# 1 94.5488 37.9552 37.4582 0.0000 -20.3710 0.0000
# 2 37.9552 118.5077 53.6538 0.0000 -8.4843 0.0000
# 3 37.4582 53.6538 148.4704 0.0000 -0.1134 0.0000
# 4 0.0000 0.0000 0.0000 35.0173 0.0000 -6.0019
# 5 -20.3710 -8.4843 -0.1134 0.0000 42.1156 0.0000
# 6 0.0000 0.0000 0.0000 -6.0019 0.0000 23.5963
#
#
#
# Elastic Compliance Matrix: (Units=1/GPa)
#
#
# Indices 1 2 3 4 5 6 
#
# 1 0.014079 -0.002939 -0.002485 0.000000 0.006211 0.000000
# 2 -0.002939 0.010878 -0.003189 0.000000 0.000761 0.000000
# 3 -0.002485 -0.003189 0.008513 0.000000 -0.001822 0.000000
# 4 0.000000 0.000000 0.000000 0.029859 0.000000 0.007595
# 5 0.006211 0.000761 -0.001822 0.000000 0.026897 0.000000
# 6 0.000000 0.000000 0.000000 0.007595 0.000000 0.044311
#
#
# Mechanical properties :
#
#
# Convention : Reuss Voigt Hill
#
# Bulk Modulus (GPa) = 61.56233 68.85126 65.20679
# Shear Modulus (GPa) = 31.81079 35.64315 33.72697
#
# Velocity S-wave (km/s) = 3.81576 4.03908 3.92900
# Velocity P-wave (km/s) = 6.89862 7.29835 7.10130
#
# Compressibility (1/GPa) = 0.01624370
#
# Stress axis : x y z
#
# Youngs Moduli (GPa) = 71.02599 91.92924 117.46304
#
# Poissons Ratio (x) = 0.27022 0.29191
# Poissons Ratio (y) = 0.20878 0.37457
# Poissons Ratio (z) = 0.17651 0.29315
#
# Static dielectric constant tensor:
#      x y z
#    x 3.687610 0.000000 0.222110 
#    y 0.000000 4.200110 0.000000 
#    z 0.222110 0.000000 4.488720 
# 
# 
# High freq. dielectric constant tensor:
#      x y z
#    x 1.851270 0.000000 0.000470 
#    y 0.000000 1.867450 0.000000 
#    z 0.000470 0.000000 1.886820 
# 
# From -- ./inp_files/92625.got.cif
#   From: 2010.06.25/outbox.cif.g09.slc.cpg/sg13_47_cif.got.tgz:92625.got - 2010.06.28 04:50:58.
