data_PCOD8122902
_publ_section_title
;
Structure prediction by ZEFSAII (Michael W. Deem and Ramdas Pophale) SiO2 
 PCOD8122902
Probable space group: P 2/C
;
_chemical_formula_sum "Si O2"
_cell_formula_units_Z 16
_cell_length_a 6.835037
_cell_length_b 27.306971
_cell_length_c 4.955383
_cell_angle_alpha 90.000000
_cell_angle_beta 48.334663
_cell_angle_gamma 90.000000
_cell_volume 690.932740
_symmetry_space_group_name_H-M "P 2/C"
_symmetry_group_IT_number 13
_symmetry_cell_setting 'monoclinic'
loop_
_space_group_symop_operation_xyz
x,y,z
-x,y,1/2-z
-x,-y,-z
x,-y,1/2+z
loop_
_atom_site_type_symbol
_atom_site_label
_atom_site_fract_x
_atom_site_fract_y
_atom_site_fract_z
Si Si1 0.000000 0.266720 0.250000
Si Si2 0.500000 0.397899 0.250000
Si Si3 0.000000 0.202229 0.750000
Si Si4 0.500000 0.669800 0.250000
Si Si5 0.760013 0.882810 0.179886
Si Si6 0.000000 0.964422 0.250000
Si Si7 0.000000 0.535273 0.250000
O O1 0.106861 0.234843 0.404039
O O2 0.755771 0.298125 0.581978
O O3 0.572846 0.363906 0.432653
O O4 0.253403 0.431247 0.541208
O O5 0.770318 0.167776 0.839760
O O6 0.500000 0.884896 0.250000
O O7 0.760638 0.927092 0.400256
O O8 0.000000 0.887970 0.750000
O O9 0.000000 0.000000 0.500000
O O10 0.000000 0.500000 0.500000
#
# Coordination Sequence:
#
# PCOD8122902 Si02
#       7
#     2   2   2   2   4   2   2
#     4  12  26  44  70  99 136 175 244 284 344 430
#     4  12  24  45  68  96 148 180 228 295 346 410
#     4  11  26  47  70 103 136 181 226 305 346 411
#     4  12  26  45  68 102 134 192 228 283 360 412
#     4  11  26  47  71 103 139 182 228 282 363 412
#     4  11  24  47  72 105 140 183 230 283 340 429
#     4  12  24  42  70 105 136 185 238 286 344 408
#
# _framework density 23.157101999999998
#
# number of rings (size 3 to 8) (size 9 to 14) (size 15 to 20)
#    0.000    0.500    2.500    5.250    1.750    7.000 
#    0.000    0.000    0.000    0.000    0.000    0.000 
#    0.000    0.000    0.000    0.000    0.000    0.000 
#
# Total GULP energy -198338.227600 kJ/mol
# GULP energy per Si atom -12396.139225 kJ/mol
# Density = 2.310440 g / cm^3
# Si number density = 23.157102 Si / 1000 Ang^3
#
#
#
# Elastic Constant Matrix: (Units=GPa)
#
#
# Indices 1 2 3 4 5 6 
#
# 1 192.7225 78.8041 63.6772 0.0000 3.0732 0.0000
# 2 78.8041 157.7823 56.9142 0.0000 7.2608 0.0000
# 3 63.6772 56.9142 109.1558 0.0000 0.7183 0.0000
# 4 0.0000 0.0000 0.0000 13.3720 0.0000 23.3766
# 5 3.0732 7.2608 0.7183 0.0000 63.5246 0.0000
# 6 0.0000 0.0000 0.0000 23.3766 0.0000 49.5835
#
#
#
# Elastic Compliance Matrix: (Units=1/GPa)
#
#
# Indices 1 2 3 4 5 6 
#
# 1 0.007177 -0.002553 -0.002855 0.000000 -0.000023 0.000000
# 2 -0.002553 0.008760 -0.003073 0.000000 -0.000843 0.000000
# 3 -0.002855 -0.003073 0.012426 0.000000 0.000349 0.000000
# 4 0.000000 0.000000 0.000000 0.425382 0.000000 -0.200551
# 5 -0.000023 -0.000843 0.000349 0.000000 0.015835 0.000000
# 6 0.000000 0.000000 0.000000 -0.200551 0.000000 0.114720
#
#
# Mechanical properties :
#
#
# Convention : Reuss Voigt Hill
#
# Bulk Modulus (GPa) = 87.70878 95.38353 91.54615
# Shear Modulus (GPa) = 8.26360 42.64701 25.45531
#
# Velocity S-wave (km/s) = 1.89110 4.29609 3.31908
# Velocity P-wave (km/s) = 6.53652 8.11712 7.36932
#
# Compressibility (1/GPa) = 0.01140137
#
# Stress axis : x y z
#
# Youngs Moduli (GPa) = 139.34178 114.15207 80.47348
#
# Poissons Ratio (x) = 0.29148 0.22975
# Poissons Ratio (y) = 0.35580 0.24726
# Poissons Ratio (z) = 0.39782 0.35073
#
# Static dielectric constant tensor:
#      x y z
#    x 4.356980 0.000000 0.192430 
#    y 0.000000 2.355330 0.000000 
#    z 0.192430 0.000000 4.715420 
# 
# 
# High freq. dielectric constant tensor:
#      x y z
#    x 1.940590 0.000000 0.021040 
#    y 0.000000 1.942380 0.000000 
#    z 0.021040 0.000000 1.901090 
# 
# From -- ./inp_files/578.got.cif
#   From: 2010.06.25/outbox.cif.g09.slc.cpg/sg13_1_cif.got.tgz:578.got - 2010.06.28 04:50:58.
