data_PCOD8122943
_publ_section_title
;
Structure prediction by ZEFSAII (Michael W. Deem and Ramdas Pophale) SiO2 
 PCOD8122943
Probable space group: P 2/C
;
_chemical_formula_sum "Si O2"
_cell_formula_units_Z 28
_cell_length_a 11.551467
_cell_length_b 9.073869
_cell_length_c 13.023469
_cell_angle_alpha 90.000000
_cell_angle_beta 75.168718
_cell_angle_gamma 90.000000
_cell_volume 1319.595294
_symmetry_space_group_name_H-M "P 2/C"
_symmetry_group_IT_number 13
_symmetry_cell_setting 'monoclinic'
loop_
_space_group_symop_operation_xyz
x,y,z
-x,y,1/2-z
-x,-y,-z
x,-y,1/2+z
loop_
_atom_site_type_symbol
_atom_site_label
_atom_site_fract_x
_atom_site_fract_y
_atom_site_fract_z
Si Si1 0.676504 0.933295 0.916616
Si Si2 0.500000 0.408977 0.750000
Si Si3 0.675140 0.598103 0.583882
Si Si4 0.104208 0.409233 0.027556
Si Si5 0.124309 0.084685 0.974012
Si Si6 0.216488 0.855991 0.810810
Si Si7 0.460882 0.234213 0.554967
Si Si8 0.000000 0.287913 0.250000
O O1 0.683760 0.869964 0.799862
O O2 0.628622 0.097916 0.927372
O O3 0.810707 0.936287 0.930926
O O4 0.594875 0.822048 0.000924
O O5 0.609913 0.510756 0.689698
O O6 0.455830 0.306634 0.667425
O O7 0.769896 0.492089 0.507212
O O8 0.742039 0.738286 0.615124
O O9 0.578295 0.647312 0.521381
O O10 0.078139 0.387398 0.154686
O O11 0.108030 0.258290 0.961067
O O12 0.000000 0.500000 0.000000
O O13 0.208085 0.015942 0.866454
O O14 0.000000 0.000000 0.000000
O O15 0.085758 0.812857 0.799429
#
# Coordination Sequence:
#
# PCOD8122943 Si02
#       8
#     4   2   4   4   4   4   4   2
#     4  11  25  45  74 102 141 188 240 302 347 429
#     4  12  28  42  72 106 140 190 232 296 364 432
#     4  12  26  47  71 104 149 184 236 298 367 430
#     4  12  26  45  71 106 146 186 232 300 355 429
#     4  12  23  45  72 103 139 180 241 292 347 423
#     4  12  24  45  75  99 140 191 232 291 362 419
#     4  11  27  47  68 108 142 184 246 294 359 431
#     4  12  24  46  70 102 140 192 236 282 366 422
#
# _framework density 21.218626
#
# number of rings (size 3 to 8) (size 9 to 14) (size 15 to 20)
#    0.000    0.286    5.714    2.143    6.000    0.000 
#    0.000    0.000    0.000    0.000    0.000    0.000 
#    0.000    0.000    0.000    0.000    0.000    0.000 
#
# Total GULP energy -347364.350127 kJ/mol
# GULP energy per Si atom -12405.869647 kJ/mol
# Density = 2.117033 g / cm^3
# Si number density = 21.218626 Si / 1000 Ang^3
#
#
#
# Elastic Constant Matrix: (Units=GPa)
#
#
# Indices 1 2 3 4 5 6 
#
# 1 108.5402 58.8288 34.9336 0.0000 7.4825 0.0000
# 2 58.8288 147.2724 69.8152 0.0000 1.4792 0.0000
# 3 34.9336 69.8152 144.4318 0.0000 2.1436 0.0000
# 4 0.0000 0.0000 0.0000 49.0825 0.0000 -0.1777
# 5 7.4825 1.4792 2.1436 0.0000 38.6465 0.0000
# 6 0.0000 0.0000 0.0000 -0.1777 0.0000 29.6157
#
#
#
# Elastic Compliance Matrix: (Units=1/GPa)
#
#
# Indices 1 2 3 4 5 6 
#
# 1 0.011991 -0.004422 -0.000731 0.000000 -0.002112 0.000000
# 2 -0.004422 0.010440 -0.003987 0.000000 0.000678 0.000000
# 3 -0.000731 -0.003987 0.009031 0.000000 -0.000207 0.000000
# 4 0.000000 0.000000 0.000000 0.020374 0.000000 0.000122
# 5 -0.002112 0.000678 -0.000207 0.000000 0.026270 0.000000
# 6 0.000000 0.000000 0.000000 0.000122 0.000000 0.033767
#
#
# Mechanical properties :
#
#
# Convention : Reuss Voigt Hill
#
# Bulk Modulus (GPa) = 75.86672 80.82219 78.34446
# Shear Modulus (GPa) = 37.16198 39.24671 38.20435
#
# Velocity S-wave (km/s) = 4.18949 4.30540 4.24784
# Velocity P-wave (km/s) = 7.69642 7.93021 7.81419
#
# Compressibility (1/GPa) = 0.01318101
#
# Stress axis : x y z
#
# Youngs Moduli (GPa) = 83.39714 95.78862 110.73191
#
# Poissons Ratio (x) = 0.42356 0.08099
# Poissons Ratio (y) = 0.36877 0.44147
# Poissons Ratio (z) = 0.06100 0.38190
#
# Static dielectric constant tensor:
#      x y z
#    x 3.850230 0.000000 -0.004460 
#    y 0.000000 4.056760 0.000000 
#    z -0.004460 0.000000 4.195710 
# 
# 
# High freq. dielectric constant tensor:
#      x y z
#    x 1.841890 0.000000 -0.003940 
#    y 0.000000 1.844580 0.000000 
#    z -0.003940 0.000000 1.839980 
# 
# From -- ./inp_files/50273.got.cif
#   From: 2010.06.25/outbox.cif.g09.slc.cpg/sg13_26_cif.got.tgz:50273.got - 2010.06.28 04:50:58.
