data_PCOD8122822
_publ_section_title
;
Structure prediction by ZEFSAII (Michael W. Deem and Ramdas Pophale) SiO2 
 PCOD8122822
Probable space group: P 2/C
;
_chemical_formula_sum "Si O2"
_cell_formula_units_Z 22
_cell_length_a 19.290899
_cell_length_b 8.877738
_cell_length_c 9.268296
_cell_angle_alpha 90.000000
_cell_angle_beta 140.304269
_cell_angle_gamma 90.000000
_cell_volume 1013.815052
_symmetry_space_group_name_H-M "P 2/C"
_symmetry_group_IT_number 13
_symmetry_cell_setting 'monoclinic'
loop_
_space_group_symop_operation_xyz
x,y,z
-x,y,1/2-z
-x,-y,-z
x,-y,1/2+z
loop_
_atom_site_type_symbol
_atom_site_label
_atom_site_fract_x
_atom_site_fract_y
_atom_site_fract_z
Si Si1 0.326678 0.615746 0.747035
Si Si2 0.881787 0.196797 0.541243
Si Si3 0.500000 0.683756 0.250000
Si Si4 0.671851 0.717775 0.306166
Si Si5 0.809057 0.039807 0.154094
Si Si6 0.619092 0.164032 0.420462
O O1 0.211868 0.677357 0.625271
O O2 0.306095 0.459511 0.630232
O O3 0.373960 0.739124 0.713791
O O4 0.414742 0.587658 0.015676
O O5 0.886972 0.093292 0.407159
O O6 0.000000 0.274715 0.750000
O O7 0.865230 0.090719 0.653083
O O8 0.574614 0.776798 0.256201
O O9 0.779121 0.815884 0.507959
O O10 0.643200 0.728859 0.093396
O O11 0.699062 0.977220 0.049376
O O12 0.500000 0.094188 0.250000
#
# Coordination Sequence:
#
# PCOD8122822 Si02
#       6
#     4   4   2   4   4   4
#     4  11  25  40  66  97 131 172 213 263 318 387
#     4  11  24  47  69  93 127 170 221 272 323 375
#     4  12  22  38  68  96 134 172 206 254 328 390
#     4  12  24  40  63  99 135 168 212 260 325 385
#     4  11  24  43  67  96 128 169 217 269 322 385
#     4  11  24  39  62  96 136 171 209 260 321 389
#
# _framework density 21.700210999999999
#
# number of rings (size 3 to 8) (size 9 to 14) (size 15 to 20)
#    0.000    0.727    5.455    2.182    3.818    0.727 
#    0.000    1.818    0.000    0.000    0.000    0.000 
#    0.000    0.000    0.000    0.000    0.000    0.000 
#
# Total GULP energy -272735.906334 kJ/mol
# GULP energy per Si atom -12397.086652 kJ/mol
# Density = 2.165082 g / cm^3
# Si number density = 21.700211 Si / 1000 Ang^3
#
#
#
# Elastic Constant Matrix: (Units=GPa)
#
#
# Indices 1 2 3 4 5 6 
#
# 1 78.8092 11.7041 50.8751 0.0000 3.5105 0.0000
# 2 11.7041 60.4601 29.1769 0.0000 11.4688 0.0000
# 3 50.8751 29.1769 104.0299 0.0000 10.8118 0.0000
# 4 0.0000 0.0000 0.0000 20.5089 0.0000 -6.8804
# 5 3.5105 11.4688 10.8118 0.0000 41.8203 0.0000
# 6 0.0000 0.0000 0.0000 -6.8804 0.0000 19.8274
#
#
#
# Elastic Compliance Matrix: (Units=1/GPa)
#
#
# Indices 1 2 3 4 5 6 
#
# 1 0.018603 0.000809 -0.009391 0.000000 0.000645 0.000000
# 2 0.000809 0.019826 -0.005533 0.000000 -0.004075 0.000000
# 3 -0.009391 -0.005533 0.015946 0.000000 -0.001817 0.000000
# 4 0.000000 0.000000 0.000000 0.055184 0.000000 0.019149
# 5 0.000645 -0.004075 -0.001817 0.000000 0.025445 0.000000
# 6 0.000000 0.000000 0.000000 0.019149 0.000000 0.057080
#
#
# Mechanical properties :
#
#
# Convention : Reuss Voigt Hill
#
# Bulk Modulus (GPa) = 38.24935 47.42349 42.83642
# Shear Modulus (GPa) = 21.83134 26.53419 24.18277
#
# Velocity S-wave (km/s) = 3.17526 3.50060 3.34189
# Velocity P-wave (km/s) = 5.57741 6.18387 5.88846
#
# Compressibility (1/GPa) = 0.02614424
#
# Stress axis : x y z
#
# Youngs Moduli (GPa) = 53.75597 50.43846 62.71212
#
# Poissons Ratio (x) = -0.04078 0.58895
# Poissons Ratio (y) = -0.04347 0.34696
# Poissons Ratio (z) = 0.50484 0.27905
#
# Static dielectric constant tensor:
#      x y z
#    x 3.982750 0.000000 -0.099310 
#    y 0.000000 3.540420 0.000000 
#    z -0.099310 0.000000 3.894200 
# 
# 
# High freq. dielectric constant tensor:
#      x y z
#    x 1.853670 0.000000 -0.017400 
#    y 0.000000 1.832020 0.000000 
#    z -0.017400 0.000000 1.855520 
# 
# From -- ./inp_files/17888.got.cif
#   From: 2010.06.25/outbox.cif.g09.slc.cpg/sg13_9_cif.got.tgz:17888.got - 2010.06.28 04:50:58.
