data_PCOD8122310
_publ_section_title
;
Structure prediction by ZEFSAII (Michael W. Deem and Ramdas Pophale) SiO2 
 PCOD8122310
Probable space group: P 2/C
;
_chemical_formula_sum "Si O2"
_cell_formula_units_Z 18
_cell_length_a 8.906008
_cell_length_b 9.868001
_cell_length_c 8.200525
_cell_angle_alpha 90.000000
_cell_angle_beta 86.267711
_cell_angle_gamma 90.000000
_cell_volume 719.170470
_symmetry_space_group_name_H-M "P 2/C"
_symmetry_group_IT_number 13
_symmetry_cell_setting 'monoclinic'
loop_
_space_group_symop_operation_xyz
x,y,z
-x,y,1/2-z
-x,-y,-z
x,-y,1/2+z
loop_
_atom_site_type_symbol
_atom_site_label
_atom_site_fract_x
_atom_site_fract_y
_atom_site_fract_z
Si Si1 0.257442 0.367858 0.525446
Si Si2 0.000000 0.760203 0.250000
Si Si3 0.661778 0.357235 0.322391
Si Si4 0.755832 0.886102 0.048168
Si Si5 0.611645 0.900148 0.394870
O O1 0.109704 0.337264 0.641086
O O2 0.218513 0.370227 0.335660
O O3 0.331186 0.509769 0.567816
O O4 0.387216 0.254189 0.544392
O O5 0.908786 0.853961 0.130620
O O6 0.500000 0.340679 0.250000
O O7 0.706155 0.230307 0.428403
O O8 0.617249 0.897996 0.194287
O O9 0.770172 0.026950 0.944643
O O10 0.500000 0.000000 0.500000
#
# Coordination Sequence:
#
# PCOD8122310 Si02
#       5
#     4   2   4   4   4
#     4  11  24  41  67  94 135 170 209 266 314 389
#     4  10  26  46  62  96 130 176 220 250 320 384
#     4  12  24  43  68 100 127 165 214 271 329 373
#     4  11  24  40  65  92 131 170 214 266 314 385
#     4  11  21  40  65  97 128 168 215 269 326 373
#
# _framework density 25.028836999999999
#
# number of rings (size 3 to 8) (size 9 to 14) (size 15 to 20)
#    0.000    0.889    0.000    8.000    0.000    8.000 
#    0.000    0.000    0.000    0.000    0.000    0.000 
#    0.000    0.000    0.000    0.000    0.000    0.000 
#
# Total GULP energy -223112.271107 kJ/mol
# GULP energy per Si atom -12395.126173 kJ/mol
# Density = 2.497187 g / cm^3
# Si number density = 25.028837 Si / 1000 Ang^3
#
#
#
# Elastic Constant Matrix: (Units=GPa)
#
#
# Indices 1 2 3 4 5 6 
#
# 1 76.9164 -25.0366 24.2890 0.0000 7.6800 0.0000
# 2 -25.0366 107.5610 40.8736 0.0000 24.9267 0.0000
# 3 24.2890 40.8736 185.5919 0.0000 15.6082 0.0000
# 4 0.0000 0.0000 0.0000 59.3928 0.0000 7.3523
# 5 7.6800 24.9267 15.6082 0.0000 46.7473 0.0000
# 6 0.0000 0.0000 0.0000 7.3523 0.0000 24.3693
#
#
#
# Elastic Compliance Matrix: (Units=1/GPa)
#
#
# Indices 1 2 3 4 5 6 
#
# 1 0.016480 0.006162 -0.003097 0.000000 -0.004959 0.000000
# 2 0.006162 0.013617 -0.003199 0.000000 -0.007205 0.000000
# 3 -0.003097 -0.003199 0.006494 0.000000 0.000046 0.000000
# 4 0.000000 0.000000 0.000000 0.017490 0.000000 -0.005277
# 5 -0.004959 -0.007205 0.000046 0.000000 0.026033 0.000000
# 6 0.000000 0.000000 0.000000 -0.005277 0.000000 0.042627
#
#
# Mechanical properties :
#
#
# Convention : Reuss Voigt Hill
#
# Bulk Modulus (GPa) = 27.53099 50.03571 38.78335
# Shear Modulus (GPa) = 37.00494 48.09810 42.55152
#
# Velocity S-wave (km/s) = 3.84929 4.38848 4.12770
# Velocity P-wave (km/s) = 5.54794 6.76114 6.18436
#
# Compressibility (1/GPa) = 0.03632270
#
# Stress axis : x y z
#
# Youngs Moduli (GPa) = 60.67963 73.43833 153.98435
#
# Poissons Ratio (x) = -0.45253 0.47686
# Poissons Ratio (y) = -0.37391 0.49266
# Poissons Ratio (z) = 0.18791 0.23496
#
# Static dielectric constant tensor:
#      x y z
#    x 5.102210 0.000000 0.267810 
#    y 0.000000 4.975150 0.000000 
#    z 0.267810 0.000000 5.546630 
# 
# 
# High freq. dielectric constant tensor:
#      x y z
#    x 1.997610 0.000000 0.002840 
#    y 0.000000 2.007280 0.000000 
#    z 0.002840 0.000000 2.041210 
# 
# From -- ./inp_files/14552.got.cif
#   From: 2010.06.25/outbox.cif.g09.slc.cpg/sg13_8_cif.got.tgz:14552.got - 2010.06.28 04:50:58.
