data_PCOD8122030
_publ_section_title
;
Structure prediction by ZEFSAII (Michael W. Deem and Ramdas Pophale) SiO2 
 PCOD8122030
Probable space group: P 2/C
;
_chemical_formula_sum "Si O2"
_cell_formula_units_Z 20
_cell_length_a 21.775519
_cell_length_b 8.037083
_cell_length_c 15.697365
_cell_angle_alpha 90.000000
_cell_angle_beta 18.984711
_cell_angle_gamma 90.000000
_cell_volume 893.714762
_symmetry_space_group_name_H-M "P 2/C"
_symmetry_group_IT_number 13
_symmetry_cell_setting 'monoclinic'
loop_
_space_group_symop_operation_xyz
x,y,z
-x,y,1/2-z
-x,-y,-z
x,-y,1/2+z
loop_
_atom_site_type_symbol
_atom_site_label
_atom_site_fract_x
_atom_site_fract_y
_atom_site_fract_z
Si Si1 0.666644 0.273529 0.763840
Si Si2 0.697928 0.125139 0.536836
Si Si3 0.961815 0.177183 0.507672
Si Si4 0.730714 0.649330 0.649598
Si Si5 0.116481 0.233371 0.711311
O O1 0.664758 0.209627 0.670613
O O2 0.805328 0.163515 0.639464
O O3 0.737710 0.463106 0.676071
O O4 0.459211 0.256246 0.075145
O O5 0.500000 0.100874 0.750000
O O6 0.840035 0.240645 0.293481
O O7 0.803512 0.950629 0.409899
O O8 0.882876 0.290150 0.689738
O O9 0.000000 0.000000 0.500000
O O10 0.753488 0.643788 0.516326
O O11 0.899641 0.759314 0.465635
#
# Coordination Sequence:
#
# PCOD8122030 Si02
#       5
#     4   4   4   4   4
#     4  11  25  47  71 100 140 181 229 280 348 415
#     4  11  25  44  71 101 134 183 232 282 340 404
#     4  10  24  41  69 103 133 178 225 282 340 400
#     4  10  25  45  69 100 137 184 225 280 347 402
#     4  10  24  44  67 100 136 176 231 279 337 402
#
# _framework density 22.378502999999998
#
# number of rings (size 3 to 8) (size 9 to 14) (size 15 to 20)
#    0.000    1.600    0.000    1.800   22.400    1.600 
#    7.200    0.000    0.000    0.000    0.000    0.000 
#    0.000    0.000    0.000    0.000    0.000    0.000 
#
# Total GULP energy -247922.667463 kJ/mol
# GULP energy per Si atom -12396.133373 kJ/mol
# Density = 2.232757 g / cm^3
# Si number density = 22.378503 Si / 1000 Ang^3
#
#
#
# Elastic Constant Matrix: (Units=GPa)
#
#
# Indices 1 2 3 4 5 6 
#
# 1 160.9450 39.1106 95.3654 0.0000 6.3603 0.0000
# 2 39.1106 44.6538 41.4539 0.0000 -12.9807 0.0000
# 3 95.3654 41.4539 213.8929 0.0000 10.4104 0.0000
# 4 0.0000 0.0000 0.0000 26.4488 0.0000 2.9707
# 5 6.3603 -12.9807 10.4104 0.0000 51.3337 0.0000
# 6 0.0000 0.0000 0.0000 2.9707 0.0000 17.9072
#
#
#
# Elastic Compliance Matrix: (Units=1/GPa)
#
#
# Indices 1 2 3 4 5 6 
#
# 1 0.009570 -0.006283 -0.002943 0.000000 -0.002178 0.000000
# 2 -0.006283 0.035186 -0.004534 0.000000 0.010595 0.000000
# 3 -0.002943 -0.004534 0.006973 0.000000 -0.002196 0.000000
# 4 0.000000 0.000000 0.000000 0.038527 0.000000 -0.006391
# 5 -0.002178 0.010595 -0.002196 0.000000 0.022875 0.000000
# 6 0.000000 0.000000 0.000000 -0.006391 0.000000 0.056904
#
#
# Mechanical properties :
#
#
# Convention : Reuss Voigt Hill
#
# Bulk Modulus (GPa) = 41.30559 85.70572 63.50566
# Shear Modulus (GPa) = 24.31619 35.37539 29.84579
#
# Velocity S-wave (km/s) = 3.29992 3.98021 3.65592
# Velocity P-wave (km/s) = 5.74605 7.71389 6.80151
#
# Compressibility (1/GPa) = 0.02420980
#
# Stress axis : x y z
#
# Youngs Moduli (GPa) = 104.49222 28.42012 143.40882
#
# Poissons Ratio (x) = 0.17856 0.42209
# Poissons Ratio (y) = 0.65650 0.65019
# Poissons Ratio (z) = 0.30755 0.12885
#
# Static dielectric constant tensor:
#      x y z
#    x 4.988090 0.000000 1.096820 
#    y 0.000000 3.751440 0.000000 
#    z 1.096820 0.000000 5.145010 
# 
# 
# High freq. dielectric constant tensor:
#      x y z
#    x 1.892070 0.000000 0.021030 
#    y 0.000000 1.853050 0.000000 
#    z 0.021030 0.000000 1.911030 
# 
# From -- ./inp_files/57119.got.cif
#   From: 2010.06.25/outbox.cif.g09.slc.cpg/sg13_29_cif.got.tgz:57119.got - 2010.06.28 04:50:58.
