data_PCOD8122776
_publ_section_title
;
Structure prediction by ZEFSAII (Michael W. Deem and Ramdas Pophale) SiO2 
 PCOD8122776
Probable space group: P 2/C
;
_chemical_formula_sum "Si O2"
_cell_formula_units_Z 18
_cell_length_a 18.541742
_cell_length_b 7.168929
_cell_length_c 8.833983
_cell_angle_alpha 90.000000
_cell_angle_beta 34.705337
_cell_angle_gamma 90.000000
_cell_volume 668.567640
_symmetry_space_group_name_H-M "P 2/C"
_symmetry_group_IT_number 13
_symmetry_cell_setting 'monoclinic'
loop_
_space_group_symop_operation_xyz
x,y,z
-x,y,1/2-z
-x,-y,-z
x,-y,1/2+z
loop_
_atom_site_type_symbol
_atom_site_label
_atom_site_fract_x
_atom_site_fract_y
_atom_site_fract_z
Si Si1 0.285712 0.164478 0.924700
Si Si2 0.500000 0.778963 0.250000
Si Si3 0.875198 0.020242 0.046180
Si Si4 0.116175 0.359299 0.802731
Si Si5 0.717782 0.538567 0.736537
O O1 0.416507 0.092279 0.778779
O O2 0.239098 0.031964 0.871143
O O3 0.313525 0.373778 0.826982
O O4 0.179804 0.173013 0.242379
O O5 0.407806 0.651416 0.509880
O O6 0.924167 0.838856 0.056116
O O7 0.000000 0.103718 0.750000
O O8 0.228280 0.444764 0.707521
O O9 0.175840 0.330016 0.530669
O O10 0.000000 0.500000 0.000000
#
# Coordination Sequence:
#
# PCOD8122776 Si02
#       5
#     4   2   4   4   4
#     4  11  26  48  74 110 145 205 240 310 374 446
#     4  12  26  48  76 106 156 194 270 298 372 448
#     4  11  26  48  73 109 154 191 247 312 388 448
#     4  11  23  44  76 114 144 189 253 310 382 444
#     4  11  24  46  75 108 146 199 250 313 365 440
#
# _framework density 26.923227000000001
#
# number of rings (size 3 to 8) (size 9 to 14) (size 15 to 20)
#    0.000    0.889    2.222    4.667    3.111    0.889 
#    0.000    0.000    0.000    0.000    0.000    0.000 
#    0.000    0.000    0.000    0.000    0.000    0.000 
#
# Total GULP energy -223219.950637 kJ/mol
# GULP energy per Si atom -12401.108369 kJ/mol
# Density = 2.686195 g / cm^3
# Si number density = 26.923227 Si / 1000 Ang^3
#
#
#
# Elastic Constant Matrix: (Units=GPa)
#
#
# Indices 1 2 3 4 5 6 
#
# 1 102.1772 20.1683 27.6349 0.0000 -12.9745 0.0000
# 2 20.1683 69.7955 36.2190 0.0000 -12.5683 0.0000
# 3 27.6349 36.2190 173.9963 0.0000 6.4657 0.0000
# 4 0.0000 0.0000 0.0000 46.4629 0.0000 -4.2207
# 5 -12.9745 -12.5683 6.4657 0.0000 51.6040 0.0000
# 6 0.0000 0.0000 0.0000 -4.2207 0.0000 11.7824
#
#
#
# Elastic Compliance Matrix: (Units=1/GPa)
#
#
# Indices 1 2 3 4 5 6 
#
# 1 0.010865 -0.001973 -0.001405 0.000000 0.002427 0.000000
# 2 -0.001973 0.017456 -0.003476 0.000000 0.004191 0.000000
# 3 -0.001405 -0.003476 0.006770 0.000000 -0.002048 0.000000
# 4 0.000000 0.000000 0.000000 0.022246 0.000000 0.007969
# 5 0.002427 0.004191 -0.002048 0.000000 0.021266 0.000000
# 6 0.000000 0.000000 0.000000 0.007969 0.000000 0.087727
#
#
# Mechanical properties :
#
#
# Convention : Reuss Voigt Hill
#
# Bulk Modulus (GPa) = 46.76768 57.11261 51.94014
# Shear Modulus (GPa) = 26.71423 39.43297 33.07360
#
# Velocity S-wave (km/s) = 3.15340 3.83122 3.50871
# Velocity P-wave (km/s) = 5.53778 6.38985 5.97901
#
# Compressibility (1/GPa) = 0.02138229
#
# Stress axis : x y z
#
# Youngs Moduli (GPa) = 92.04195 57.28600 147.70899
#
# Poissons Ratio (x) = 0.11304 0.20753
# Poissons Ratio (y) = 0.18163 0.51344
# Poissons Ratio (z) = 0.12932 0.19913
#
# Static dielectric constant tensor:
#      x y z
#    x 5.609330 0.000000 0.423500 
#    y 0.000000 4.889210 0.000000 
#    z 0.423500 0.000000 4.983290 
# 
# 
# High freq. dielectric constant tensor:
#      x y z
#    x 2.115880 0.000000 0.014010 
#    y 0.000000 2.079230 0.000000 
#    z 0.014010 0.000000 2.086240 
# 
# From -- ./inp_files/22635.got.cif
#   From: 2010.06.25/outbox.cif.g09.slc.cpg/sg13_12_cif.got.tgz:22635.got - 2010.06.28 04:50:58.
