data_PCOD8122198
_publ_section_title
;
Structure prediction by ZEFSAII (Michael W. Deem and Ramdas Pophale) SiO2 
 PCOD8122198
Probable space group: P 2/C
;
_chemical_formula_sum "Si O2"
_cell_formula_units_Z 28
_cell_length_a 19.815548
_cell_length_b 8.811294
_cell_length_c 14.260793
_cell_angle_alpha 90.000000
_cell_angle_beta 30.732586
_cell_angle_gamma 90.000000
_cell_volume 1272.440354
_symmetry_space_group_name_H-M "P 2/C"
_symmetry_group_IT_number 13
_symmetry_cell_setting 'monoclinic'
loop_
_space_group_symop_operation_xyz
x,y,z
-x,y,1/2-z
-x,-y,-z
x,-y,1/2+z
loop_
_atom_site_type_symbol
_atom_site_label
_atom_site_fract_x
_atom_site_fract_y
_atom_site_fract_z
Si Si1 0.327278 0.607962 0.780841
Si Si2 0.210041 0.164048 0.892603
Si Si3 0.957820 0.567410 0.453561
Si Si4 0.918141 0.130320 0.647181
Si Si5 0.739006 0.908771 0.537425
Si Si6 0.500000 0.894990 0.250000
Si Si7 0.520139 0.689709 0.389548
Si Si8 0.000000 0.359728 0.250000
O O1 0.292359 0.732823 0.902037
O O2 0.408698 0.684507 0.600858
O O3 0.419256 0.474117 0.713873
O O4 0.194091 0.537411 0.894852
O O5 0.169410 0.194273 0.833637
O O6 0.361312 0.210156 0.712751
O O7 0.198557 0.989948 0.944533
O O8 0.121936 0.259554 0.070264
O O9 0.000000 0.500000 0.500000
O O10 0.985514 0.745716 0.421921
O O11 0.050841 0.474200 0.270485
O O12 0.833293 0.071125 0.835231
O O13 0.000000 0.000000 0.500000
O O14 0.609366 0.997178 0.662071
O O15 0.448015 0.778672 0.391483
#
# Coordination Sequence:
#
# PCOD8122198 Si02
#       8
#     4   4   4   4   4   2   4   2
#     4  11  24  47  71 103 140 184 236 305 354 421
#     4  11  24  45  68 100 142 191 226 303 360 421
#     4  12  25  43  71 103 135 190 235 290 357 433
#     4  12  26  44  71 107 141 187 238 293 364 431
#     4  11  27  44  72 105 144 186 243 294 358 431
#     4  10  26  44  70 104 136 194 226 286 356 432
#     4  10  24  46  71  99 141 182 236 295 359 422
#     4  12  22  44  70  98 146 182 246 288 366 416
#
# _framework density 22.004961000000002
#
# number of rings (size 3 to 8) (size 9 to 14) (size 15 to 20)
#    0.000    0.857    2.857    2.571    6.000    4.000 
#    2.571    0.000    0.000    0.000    0.000    0.000 
#    0.000    0.000    0.000    0.000    0.000    0.000 
#
# Total GULP energy -347066.508387 kJ/mol
# GULP energy per Si atom -12395.232442 kJ/mol
# Density = 2.195488 g / cm^3
# Si number density = 22.004961 Si / 1000 Ang^3
#
#
#
# Elastic Constant Matrix: (Units=GPa)
#
#
# Indices 1 2 3 4 5 6 
#
# 1 83.4968 23.8239 15.3396 0.0000 8.2297 0.0000
# 2 23.8239 105.2125 24.9659 0.0000 6.9775 0.0000
# 3 15.3396 24.9659 85.8374 0.0000 11.4480 0.0000
# 4 0.0000 0.0000 0.0000 38.6167 0.0000 10.6514
# 5 8.2297 6.9775 11.4480 0.0000 29.4846 0.0000
# 6 0.0000 0.0000 0.0000 10.6514 0.0000 48.4709
#
#
#
# Elastic Compliance Matrix: (Units=1/GPa)
#
#
# Indices 1 2 3 4 5 6 
#
# 1 0.013183 -0.002510 -0.001281 0.000000 -0.002588 0.000000
# 2 -0.002510 0.010737 -0.002562 0.000000 -0.000846 0.000000
# 3 -0.001281 -0.002562 0.013178 0.000000 -0.004153 0.000000
# 4 0.000000 0.000000 0.000000 0.027566 0.000000 -0.006058
# 5 -0.002588 -0.000846 -0.004153 0.000000 0.036451 0.000000
# 6 0.000000 0.000000 0.000000 -0.006058 0.000000 0.021962
#
#
# Mechanical properties :
#
#
# Convention : Reuss Voigt Hill
#
# Bulk Modulus (GPa) = 40.99401 44.75614 42.87507
# Shear Modulus (GPa) = 34.74350 37.34226 36.04288
#
# Velocity S-wave (km/s) = 3.97784 4.12393 4.05154
# Velocity P-wave (km/s) = 6.30615 6.56193 6.43531
#
# Compressibility (1/GPa) = 0.02439381
#
# Stress axis : x y z
#
# Youngs Moduli (GPa) = 75.85556 93.13821 75.88582
#
# Poissons Ratio (x) = 0.23373 0.09719
# Poissons Ratio (y) = 0.19036 0.19438
# Poissons Ratio (z) = 0.09715 0.23858
#
# Static dielectric constant tensor:
#      x y z
#    x 4.318270 0.000000 0.069250 
#    y 0.000000 5.092330 0.000000 
#    z 0.069250 0.000000 4.055110 
# 
# 
# High freq. dielectric constant tensor:
#      x y z
#    x 1.865450 0.000000 0.006470 
#    y 0.000000 1.887550 0.000000 
#    z 0.006470 0.000000 1.866830 
# 
# From -- ./inp_files/57481.got.cif
#   From: 2010.06.25/outbox.cif.g09.slc.cpg/sg13_29_cif.got.tgz:57481.got - 2010.06.28 04:50:58.
