data_PCOD8122696
_publ_section_title
;
Structure prediction by ZEFSAII (Michael W. Deem and Ramdas Pophale) SiO2 
 PCOD8122696
Probable space group: P 2/C
;
_chemical_formula_sum "Si O2"
_cell_formula_units_Z 16
_cell_length_a 7.689736
_cell_length_b 17.519905
_cell_length_c 5.496273
_cell_angle_alpha 90.000000
_cell_angle_beta 113.855774
_cell_angle_gamma 90.000000
_cell_volume 677.215233
_symmetry_space_group_name_H-M "P 2/C"
_symmetry_group_IT_number 13
_symmetry_cell_setting 'monoclinic'
loop_
_space_group_symop_operation_xyz
x,y,z
-x,y,1/2-z
-x,-y,-z
x,-y,1/2+z
loop_
_atom_site_type_symbol
_atom_site_label
_atom_site_fract_x
_atom_site_fract_y
_atom_site_fract_z
Si Si1 0.000000 0.546700 0.250000
Si Si2 0.298591 0.794236 0.248854
Si Si3 0.710125 0.342013 0.424545
Si Si4 0.711498 0.970925 0.306381
Si Si5 0.000000 0.718264 0.750000
O O1 0.000000 0.500000 0.500000
O O2 0.189021 0.599935 0.331058
O O3 0.500000 0.769296 0.250000
O O4 0.292357 0.746511 0.493667
O O5 0.290941 0.884176 0.286948
O O6 0.109815 0.773419 0.995315
O O7 0.500000 0.373022 0.250000
O O8 0.843917 0.340315 0.265192
O O9 0.500000 0.002128 0.250000
O O10 0.809730 0.983702 0.631411
#
# Coordination Sequence:
#
# PCOD8122696 Si02
#       5
#     2   4   4   4   2
#     4  12  29  52  78 113 154 190 232 294 369 446
#     4  11  23  40  74 104 140 196 250 306 363 429
#     4  12  26  46  78 108 146 192 246 298 359 433
#     4   9  20  37  61  97 144 191 241 301 368 429
#     4  12  23  44  70 107 144 184 244 312 359 416
#
# _framework density 23.626166000000001
#
# number of rings (size 3 to 8) (size 9 to 14) (size 15 to 20)
#    0.000    1.000    5.000    0.750    3.500    2.000 
#    0.000    1.250    0.000    0.000    0.000    0.000 
#    0.000    0.000    0.000    0.000    0.000    0.000 
#
# Total GULP energy -198236.633778 kJ/mol
# GULP energy per Si atom -12389.789611 kJ/mol
# Density = 2.357239 g / cm^3
# Si number density = 23.626166 Si / 1000 Ang^3
#
#
#
# Elastic Constant Matrix: (Units=GPa)
#
#
# Indices 1 2 3 4 5 6 
#
# 1 128.3162 47.5575 62.5737 0.0000 20.2831 0.0000
# 2 47.5575 125.2824 50.0208 0.0000 -11.3157 0.0000
# 3 62.5737 50.0208 130.8766 0.0000 -7.6755 0.0000
# 4 0.0000 0.0000 0.0000 25.3089 0.0000 -10.4596
# 5 20.2831 -11.3157 -7.6755 0.0000 60.5278 0.0000
# 6 0.0000 0.0000 0.0000 -10.4596 0.0000 25.2891
#
#
#
# Elastic Compliance Matrix: (Units=1/GPa)
#
#
# Indices 1 2 3 4 5 6 
#
# 1 0.012208 -0.003137 -0.004949 0.000000 -0.005305 0.000000
# 2 -0.003137 0.010331 -0.002290 0.000000 0.002692 0.000000
# 3 -0.004949 -0.002290 0.011036 0.000000 0.002630 0.000000
# 4 0.000000 0.000000 0.000000 0.047658 0.000000 0.019711
# 5 -0.005305 0.002692 0.002630 0.000000 0.019136 0.000000
# 6 0.000000 0.000000 0.000000 0.019711 0.000000 0.047695
#
#
# Mechanical properties :
#
#
# Convention : Reuss Voigt Hill
#
# Bulk Modulus (GPa) = 77.99232 78.30881 78.15056
# Shear Modulus (GPa) = 28.88651 37.18005 33.03328
#
# Velocity S-wave (km/s) = 3.50043 3.97127 3.74326
# Velocity P-wave (km/s) = 7.02994 7.36511 7.19948
#
# Compressibility (1/GPa) = 0.01282178
#
# Stress axis : x y z
#
# Youngs Moduli (GPa) = 81.91411 96.79982 90.60894
#
# Poissons Ratio (x) = 0.30371 0.44840
# Poissons Ratio (y) = 0.25700 0.20753
# Poissons Ratio (z) = 0.40537 0.22171
#
# Static dielectric constant tensor:
#      x y z
#    x 6.179990 0.000000 1.008490 
#    y 0.000000 4.182270 0.000000 
#    z 1.008490 0.000000 5.050420 
# 
# 
# High freq. dielectric constant tensor:
#      x y z
#    x 1.937090 0.000000 0.002970 
#    y 0.000000 1.925440 0.000000 
#    z 0.002970 0.000000 1.942190 
# 
# From -- ./inp_files/1400.got.cif
#   From: 2010.06.25/outbox.cif.g09.slc.cpg/sg13_1_cif.got.tgz:1400.got - 2010.06.28 04:50:58.
