data_PCOD8122212
_publ_section_title
;
Structure prediction by ZEFSAII (Michael W. Deem and Ramdas Pophale) SiO2 
 PCOD8122212
Probable space group: P 2/C
;
_chemical_formula_sum "Si O2"
_cell_formula_units_Z 28
_cell_length_a 9.422267
_cell_length_b 9.183130
_cell_length_c 20.907843
_cell_angle_alpha 90.000000
_cell_angle_beta 130.932700
_cell_angle_gamma 90.000000
_cell_volume 1366.715600
_symmetry_space_group_name_H-M "P 2/C"
_symmetry_group_IT_number 13
_symmetry_cell_setting 'monoclinic'
loop_
_space_group_symop_operation_xyz
x,y,z
-x,y,1/2-z
-x,-y,-z
x,-y,1/2+z
loop_
_atom_site_type_symbol
_atom_site_label
_atom_site_fract_x
_atom_site_fract_y
_atom_site_fract_z
Si Si1 0.456007 0.749131 0.628778
Si Si2 0.212723 0.745028 0.302179
Si Si3 0.344144 0.487109 0.746040
Si Si4 0.011496 0.573688 0.934644
Si Si5 0.339337 0.610991 0.468264
Si Si6 0.334449 0.998452 0.751780
Si Si7 0.918082 0.115039 0.425258
O O1 0.518627 0.599719 0.678849
O O2 0.412330 0.724871 0.541922
O O3 0.269853 0.811436 0.605147
O O4 0.624442 0.861892 0.690080
O O5 0.227141 0.602576 0.262824
O O6 0.300980 0.713265 0.396714
O O7 0.323242 0.868620 0.297123
O O8 0.000000 0.792760 0.250000
O O9 0.500000 0.395951 0.750000
O O10 0.192327 0.566660 0.657412
O O11 0.061180 0.747995 0.955145
O O12 0.160853 0.484856 0.936892
O O13 0.000000 0.500000 0.000000
O O14 0.500000 0.500000 0.500000
O O15 0.500000 0.028232 0.750000
O O16 0.136557 0.971607 0.655991
O O17 0.000000 0.000000 0.500000
#
# Coordination Sequence:
#
# PCOD8122212 Si02
#       7
#     4   4   4   4   4   4   4
#     4  11  22  47  70  96 139 185 229 286 349 416
#     4  12  27  43  65 102 144 179 229 293 346 418
#     4  12  21  43  75  98 133 181 231 287 345 409
#     4  12  24  42  74 105 134 182 237 287 346 408
#     4  12  26  44  68 103 143 177 233 290 350 413
#     4  10  24  47  69  94 137 190 232 276 355 418
#     4  11  24  41  71 105 139 173 235 294 338 411
#
# _framework density 20.487072000000001
#
# number of rings (size 3 to 8) (size 9 to 14) (size 15 to 20)
#    0.000    0.571    7.143    0.857    4.000    2.857 
#    2.571    0.714    0.000    0.000    0.000    0.000 
#    0.000    0.000    0.000    0.000    0.000    0.000 
#
# Total GULP energy -347098.603986 kJ/mol
# GULP energy per Si atom -12396.378714 kJ/mol
# Density = 2.044044 g / cm^3
# Si number density = 20.487072 Si / 1000 Ang^3
#
#
#
# Elastic Constant Matrix: (Units=GPa)
#
#
# Indices 1 2 3 4 5 6 
#
# 1 89.7048 36.9580 26.1752 0.0000 -10.9101 0.0000
# 2 36.9580 112.9522 52.3088 0.0000 -15.5081 0.0000
# 3 26.1752 52.3088 122.5663 0.0000 -27.4855 0.0000
# 4 0.0000 0.0000 0.0000 41.7754 0.0000 -13.4026
# 5 -10.9101 -15.5081 -27.4855 0.0000 31.0605 0.0000
# 6 0.0000 0.0000 0.0000 -13.4026 0.0000 22.5296
#
#
#
# Elastic Compliance Matrix: (Units=1/GPa)
#
#
# Indices 1 2 3 4 5 6 
#
# 1 0.013133 -0.003649 -0.000775 0.000000 0.002105 0.000000
# 2 -0.003649 0.012118 -0.004146 0.000000 0.001100 0.000000
# 3 -0.000775 -0.004146 0.011937 0.000000 0.008221 0.000000
# 4 0.000000 0.000000 0.000000 0.029584 0.000000 0.017599
# 5 0.002105 0.001100 0.008221 0.000000 0.040759 0.000000
# 6 0.000000 0.000000 0.000000 0.017599 0.000000 0.054856
#
#
# Mechanical properties :
#
#
# Convention : Reuss Voigt Hill
#
# Bulk Modulus (GPa) = 49.87928 61.78971 55.83450
# Shear Modulus (GPa) = 26.85134 33.05852 29.95493
#
# Velocity S-wave (km/s) = 3.62421 4.02136 3.82794
# Velocity P-wave (km/s) = 6.47401 7.19636 6.84472
#
# Compressibility (1/GPa) = 0.02004840
#
# Stress axis : x y z
#
# Youngs Moduli (GPa) = 76.14193 82.51965 83.77065
#
# Poissons Ratio (x) = 0.30113 0.06495
# Poissons Ratio (y) = 0.27786 0.34730
# Poissons Ratio (z) = 0.05903 0.34211
#
# Static dielectric constant tensor:
#      x y z
#    x 3.769980 0.000000 -0.117600 
#    y 0.000000 4.116530 0.000000 
#    z -0.117600 0.000000 3.896070 
# 
# 
# High freq. dielectric constant tensor:
#      x y z
#    x 1.792710 0.000000 -0.005020 
#    y 0.000000 1.802850 0.000000 
#    z -0.005020 0.000000 1.820420 
# 
# From -- ./inp_files/75988.got.cif
#   From: 2010.06.25/outbox.cif.g09.slc.cpg/sg13_38_cif.got.tgz:75988.got - 2010.06.28 04:50:58.
