data_PCOD8122123
_publ_section_title
;
Structure prediction by ZEFSAII (Michael W. Deem and Ramdas Pophale) SiO2 
 PCOD8122123
Probable space group: P 2/C
;
_chemical_formula_sum "Si O2"
_cell_formula_units_Z 32
_cell_length_a 8.575010
_cell_length_b 13.032407
_cell_length_c 28.177721
_cell_angle_alpha 90.000000
_cell_angle_beta 152.181577
_cell_angle_gamma 90.000000
_cell_volume 1469.521657
_symmetry_space_group_name_H-M "P 2/C"
_symmetry_group_IT_number 13
_symmetry_cell_setting 'monoclinic'
loop_
_space_group_symop_operation_xyz
x,y,z
-x,y,1/2-z
-x,-y,-z
x,-y,1/2+z
loop_
_atom_site_type_symbol
_atom_site_label
_atom_site_fract_x
_atom_site_fract_y
_atom_site_fract_z
Si Si1 0.759178 0.924763 0.280298
Si Si2 0.635970 0.600950 0.661814
Si Si3 0.307036 0.510362 0.152198
Si Si4 0.297859 0.244308 0.936802
Si Si5 0.263177 0.088863 0.566459
Si Si6 0.027770 0.291629 0.964796
Si Si7 0.419715 0.556519 0.026464
Si Si8 0.242682 0.080784 0.449402
O O1 0.500000 0.880586 0.250000
O O2 0.593167 0.946376 0.184207
O O3 0.047951 0.841142 0.347543
O O4 0.886151 0.034044 0.337549
O O5 0.584831 0.558283 0.700835
O O6 0.375863 0.693428 0.585500
O O7 0.583770 0.505815 0.612845
O O8 0.000000 0.647510 0.750000
O O9 0.500000 0.551969 0.250000
O O10 0.206291 0.608027 0.092119
O O11 0.982406 0.439366 0.075264
O O12 0.111935 0.290069 0.931886
O O13 0.401337 0.331973 0.926952
O O14 0.650041 0.188332 0.046451
O O15 0.308278 0.103879 0.522788
O O16 0.145367 0.191970 0.561032
O O17 0.000000 0.000000 0.500000
O O18 0.500000 0.500000 0.000000
O O19 0.500000 0.000000 0.500000
#
# Coordination Sequence:
#
# PCOD8122123 Si02
#       8
#     4   4   4   4   4   4   4   4
#     4  11  22  45  70  99 133 181 233 288 353 420
#     4  11  25  44  64  99 139 180 234 281 340 422
#     4  11  25  42  69 100 138 187 231 281 348 415
#     4  11  23  41  68  97 138 174 229 287 346 413
#     4  12  24  43  73 101 136 182 230 287 351 418
#     4  11  24  43  69  98 136 182 225 286 344 416
#     4  11  21  42  66  96 138 178 220 286 344 397
#     4  10  24  44  66  99 139 174 225 295 348 419
#
# _framework density 21.775794999999999
#
# number of rings (size 3 to 8) (size 9 to 14) (size 15 to 20)
#    0.000    1.000    5.000    3.000    5.250    2.000 
#    2.250    0.625    0.000    0.000    0.000    0.000 
#    0.000    0.000    0.000    0.000    0.000    0.000 
#
# Total GULP energy -396534.181842 kJ/mol
# GULP energy per Si atom -12391.693183 kJ/mol
# Density = 2.172623 g / cm^3
# Si number density = 21.775795 Si / 1000 Ang^3
#
#
#
# Elastic Constant Matrix: (Units=GPa)
#
#
# Indices 1 2 3 4 5 6 
#
# 1 81.5685 7.9441 19.5921 0.0000 5.4070 0.0000
# 2 7.9441 64.1515 23.7234 0.0000 3.5088 0.0000
# 3 19.5921 23.7234 122.3987 0.0000 -2.9820 0.0000
# 4 0.0000 0.0000 0.0000 14.7868 0.0000 -8.9767
# 5 5.4070 3.5088 -2.9820 0.0000 33.5974 0.0000
# 6 0.0000 0.0000 0.0000 -8.9767 0.0000 15.3768
#
#
#
# Elastic Compliance Matrix: (Units=1/GPa)
#
#
# Indices 1 2 3 4 5 6 
#
# 1 0.012953 -0.000752 -0.001981 0.000000 -0.002182 0.000000
# 2 -0.000752 0.016977 -0.003217 0.000000 -0.001938 0.000000
# 3 -0.001981 -0.003217 0.009146 0.000000 0.001467 0.000000
# 4 0.000000 0.000000 0.000000 0.104752 0.000000 0.061153
# 5 -0.002182 -0.001938 0.001467 0.000000 0.030448 0.000000
# 6 0.000000 0.000000 0.000000 0.061153 0.000000 0.100733
#
#
# Mechanical properties :
#
#
# Convention : Reuss Voigt Hill
#
# Bulk Modulus (GPa) = 36.79700 41.18198 38.98949
# Shear Modulus (GPa) = 16.89363 27.20946 22.05155
#
# Velocity S-wave (km/s) = 2.78834 3.53870 3.18569
# Velocity P-wave (km/s) = 5.22506 5.97071 5.61029
#
# Compressibility (1/GPa) = 0.02717613
#
# Stress axis : x y z
#
# Youngs Moduli (GPa) = 77.20045 58.90323 109.33274
#
# Poissons Ratio (x) = 0.04431 0.21656
# Poissons Ratio (y) = 0.05807 0.35176
# Poissons Ratio (z) = 0.15292 0.18951
#
# Static dielectric constant tensor:
#      x y z
#    x 3.520960 0.000000 -0.010310 
#    y 0.000000 6.433660 0.000000 
#    z -0.010310 0.000000 4.555120 
# 
# 
# High freq. dielectric constant tensor:
#      x y z
#    x 1.868610 0.000000 0.009940 
#    y 0.000000 1.848570 0.000000 
#    z 0.009940 0.000000 1.849920 
# 
# From -- ./inp_files/96167.got.cif
#   From: 2010.06.25/outbox.cif.g09.slc.cpg/sg13_49_cif.got.tgz:96167.got - 2010.06.28 04:50:58.
