data_PCOD8122997
_publ_section_title
;
Structure prediction by ZEFSAII (Michael W. Deem and Ramdas Pophale) SiO2 
 PCOD8122997
Probable space group: P 2/C
;
_chemical_formula_sum "Si O2"
_cell_formula_units_Z 12
_cell_length_a 21.006162
_cell_length_b 4.863285
_cell_length_c 12.584028
_cell_angle_alpha 90.000000
_cell_angle_beta 23.657622
_cell_angle_gamma 90.000000
_cell_volume 515.861650
_symmetry_space_group_name_H-M "P 2/C"
_symmetry_group_IT_number 13
_symmetry_cell_setting 'monoclinic'
loop_
_space_group_symop_operation_xyz
x,y,z
-x,y,1/2-z
-x,-y,-z
x,-y,1/2+z
loop_
_atom_site_type_symbol
_atom_site_label
_atom_site_fract_x
_atom_site_fract_y
_atom_site_fract_z
Si Si1 0.386280 0.288495 0.237091
Si Si2 0.814072 0.513752 0.769557
Si Si3 0.683211 0.978342 0.354238
O O1 0.264546 0.440288 0.498652
O O2 0.281721 0.104659 0.315916
O O3 0.500000 0.500000 0.000000
O O4 0.493788 0.086009 0.146452
O O5 0.772807 0.309189 0.735704
O O6 0.000000 0.500000 0.500000
O O7 0.744853 0.813457 0.849546
#
# Coordination Sequence:
#
# PCOD8122997 Si02
#       3
#     4   4   4
#     4  11  26  46  77 105 137 190 247 290 351 427
#     4  12  28  48  72 109 150 186 235 301 367 420
#     4  11  26  47  74 107 143 191 239 293 354 434
#
# _framework density 23.262051
#
# number of rings (size 3 to 8) (size 9 to 14) (size 15 to 20)
#    0.000    0.667    3.333    2.000   14.000    1.333 
#    6.000    0.000    0.000    0.000    0.000    0.000 
#    0.000    0.000    0.000    0.000    0.000    0.000 
#
# Total GULP energy -148782.109902 kJ/mol
# GULP energy per Si atom -12398.509158 kJ/mol
# Density = 2.320911 g / cm^3
# Si number density = 23.262051 Si / 1000 Ang^3
#
#
#
# Elastic Constant Matrix: (Units=GPa)
#
#
# Indices 1 2 3 4 5 6 
#
# 1 96.5632 15.4508 66.1568 0.0000 -11.2805 0.0000
# 2 15.4508 88.2555 31.7949 0.0000 -13.1288 0.0000
# 3 66.1568 31.7949 147.7967 0.0000 -11.7656 0.0000
# 4 0.0000 0.0000 0.0000 17.5396 0.0000 -4.6784
# 5 -11.2805 -13.1288 -11.7656 0.0000 26.2957 0.0000
# 6 0.0000 0.0000 0.0000 -4.6784 0.0000 67.2128
#
#
#
# Elastic Compliance Matrix: (Units=1/GPa)
#
#
# Indices 1 2 3 4 5 6 
#
# 1 0.015267 0.000257 -0.006592 0.000000 0.003728 0.000000
# 2 0.000257 0.012994 -0.002473 0.000000 0.005491 0.000000
# 3 -0.006592 -0.002473 0.010292 0.000000 0.000542 0.000000
# 4 0.000000 0.000000 0.000000 0.058092 0.000000 0.004044
# 5 0.003728 0.005491 0.000542 0.000000 0.042612 0.000000
# 6 0.000000 0.000000 0.000000 0.004044 0.000000 0.015160
#
#
# Mechanical properties :
#
#
# Convention : Reuss Voigt Hill
#
# Bulk Modulus (GPa) = 47.76619 62.15783 54.96201
# Shear Modulus (GPa) = 27.93110 36.82381 32.37746
#
# Velocity S-wave (km/s) = 3.46889 3.98301 3.73481
# Velocity P-wave (km/s) = 6.05168 6.92324 6.50208
#
# Compressibility (1/GPa) = 0.02093531
#
# Stress axis : x y z
#
# Youngs Moduli (GPa) = 65.50210 76.96118 97.16274
#
# Poissons Ratio (x) = -0.01976 0.64051
# Poissons Ratio (y) = -0.01681 0.24029
# Poissons Ratio (z) = 0.43180 0.19033
#
# Static dielectric constant tensor:
#      x y z
#    x 4.658320 0.000000 -0.047290 
#    y 0.000000 4.594170 0.000000 
#    z -0.047290 0.000000 3.736930 
# 
# 
# High freq. dielectric constant tensor:
#      x y z
#    x 1.944440 0.000000 -0.000440 
#    y 0.000000 1.944870 0.000000 
#    z -0.000440 0.000000 1.881120 
# 
# From -- ./inp_files/30960.got.cif
#   From: 2010.06.25/outbox.cif.g09.slc.cpg/sg13_16_cif.got.tgz:30960.got - 2010.06.28 04:50:58.
