data_PCOD8122156
_publ_section_title
;
Structure prediction by ZEFSAII (Michael W. Deem and Ramdas Pophale) SiO2 
 PCOD8122156
Probable space group: P 2/C
;
_chemical_formula_sum "Si O2"
_cell_formula_units_Z 32
_cell_length_a 8.495077
_cell_length_b 11.767315
_cell_length_c 29.752508
_cell_angle_alpha 90.000000
_cell_angle_beta 148.934078
_cell_angle_gamma 90.000000
_cell_volume 1534.751762
_symmetry_space_group_name_H-M "P 2/C"
_symmetry_group_IT_number 13
_symmetry_cell_setting 'monoclinic'
loop_
_space_group_symop_operation_xyz
x,y,z
-x,y,1/2-z
-x,-y,-z
x,-y,1/2+z
loop_
_atom_site_type_symbol
_atom_site_label
_atom_site_fract_x
_atom_site_fract_y
_atom_site_fract_z
Si Si1 0.667738 0.284639 0.411652
Si Si2 0.291528 0.255541 0.908090
Si Si3 0.697825 0.284639 0.088348
Si Si4 0.815498 0.870624 0.750000
Si Si5 0.379979 0.511883 0.149810
Si Si6 0.316626 0.883749 0.250000
Si Si7 0.981116 0.511883 0.350189
Si Si8 0.657010 0.744459 0.408090
O O1 0.463702 0.314371 0.404567
O O2 0.488175 0.200238 0.334973
O O3 0.749521 0.401884 0.406889
O O4 0.983920 0.226574 0.503551
O O5 0.526724 0.236279 0.925575
O O6 0.017327 0.168372 0.835431
O O7 0.173184 0.384175 0.877973
O O8 0.462615 0.226574 0.996449
O O9 0.978337 0.200238 0.165027
O O10 0.808184 0.401884 0.093111
O O11 0.000000 0.901822 0.750000
O O12 0.710592 0.982436 0.750000
O O13 0.713439 0.481834 0.250000
O O14 0.150279 0.546772 0.133426
O O15 0.405343 0.615825 0.122026
O O16 0.500000 0.853992 0.250000
O O17 0.495257 0.831627 0.335430
#
# Coordination Sequence:
#
# PCOD8122156 Si02
#       8
#     4   4   4   4   4   4   4   4
#     4  11  23  42  67  96 131 168 212 261 316 377
#     4  12  25  42  66  95 130 169 212 260 317 380
#     4  11  23  42  67  96 131 168 212 261 316 377
#     4  10  24  45  68  93 124 167 213 263 315 372
#     4  11  22  38  64  96 132 169 210 258 316 380
#     4  12  26  45  68  93 124 165 213 267 319 374
#     4  11  22  38  64  96 132 169 210 258 316 380
#     4  12  25  42  66  95 130 169 212 260 317 380
#
# _framework density 20.850276999999998
#
# number of rings (size 3 to 8) (size 9 to 14) (size 15 to 20)
#    0.000    0.750    2.500    5.625    0.000    4.000 
#    0.000    0.000    0.000    0.000    0.000    0.000 
#    0.000    0.000    0.000    0.000    0.000    0.000 
#
# Total GULP energy -397089.889197 kJ/mol
# GULP energy per Si atom -12409.059037 kJ/mol
# Density = 2.080282 g / cm^3
# Si number density = 20.850277 Si / 1000 Ang^3
#
#
#
# Elastic Constant Matrix: (Units=GPa)
#
#
# Indices 1 2 3 4 5 6 
#
# 1 70.6355 23.5151 29.0960 0.0000 0.8343 0.0000
# 2 23.5151 109.3247 41.3743 0.0000 0.5828 0.0000
# 3 29.0960 41.3743 113.5364 0.0000 0.5659 0.0000
# 4 0.0000 0.0000 0.0000 -1.2957 0.0000 -1.0601
# 5 0.8343 0.5828 0.5659 0.0000 33.5425 0.0000
# 6 0.0000 0.0000 0.0000 -1.0601 0.0000 31.2068
#
#
#
# Elastic Compliance Matrix: (Units=1/GPa)
#
#
# Indices 1 2 3 4 5 6 
#
# 1 0.016287 -0.002230 -0.003360 0.000000 -0.000310 0.000000
# 2 -0.002230 0.010916 -0.003406 0.000000 -0.000077 0.000000
# 3 -0.003360 -0.003406 0.010910 0.000000 -0.000041 0.000000
# 4 0.000000 0.000000 0.000000 -0.750894 0.000000 -0.025509
# 5 -0.000310 -0.000077 -0.000041 0.000000 0.029823 0.000000
# 6 0.000000 0.000000 0.000000 -0.025509 0.000000 0.031178
#
#
# Mechanical properties :
#
#
# Convention : Reuss Voigt Hill
#
# Bulk Modulus (GPa) = 49.69762 53.49638 51.59700
# Shear Modulus (GPa) = -7.97345 25.99145 9.00900
#
# Velocity S-wave (km/s) = -1.95766 3.53452 2.08091
# Velocity P-wave (km/s) = 4.33328 6.50924 5.52935
#
# Compressibility (1/GPa) = 0.02012169
#
# Stress axis : x y z
#
# Youngs Moduli (GPa) = 61.39791 91.60675 91.65744
#
# Poissons Ratio (x) = 0.20430 0.30794
# Poissons Ratio (y) = 0.13693 0.31220
# Poissons Ratio (z) = 0.20628 0.31202
#
# Static dielectric constant tensor:
#      x y z
#    x 3.782470 0.000000 0.005850 
#    y 0.000000 3.591260 0.000000 
#    z 0.005850 0.000000 3.961710 
# 
# 
# High freq. dielectric constant tensor:
#      x y z
#    x 1.824380 0.000000 0.000410 
#    y 0.000000 1.808200 0.000000 
#    z 0.000410 0.000000 1.836920 
# 
# From -- ./inp_files/96161.got.cif
#   From: 2010.06.25/outbox.cif.g09.slc.cpg/sg13_49_cif.got.tgz:96161.got - 2010.06.28 04:50:58.
