data_PCOD8122955
_publ_section_title
;
Structure prediction by ZEFSAII (Michael W. Deem and Ramdas Pophale) SiO2 
 PCOD8122955
Probable space group: P 2/C
;
_chemical_formula_sum "Si O2"
_cell_formula_units_Z 20
_cell_length_a 11.131538
_cell_length_b 5.383111
_cell_length_c 20.612311
_cell_angle_alpha 90.000000
_cell_angle_beta 141.493560
_cell_angle_gamma 90.000000
_cell_volume 768.999616
_symmetry_space_group_name_H-M "P 2/C"
_symmetry_group_IT_number 13
_symmetry_cell_setting 'monoclinic'
loop_
_space_group_symop_operation_xyz
x,y,z
-x,y,1/2-z
-x,-y,-z
x,-y,1/2+z
loop_
_atom_site_type_symbol
_atom_site_label
_atom_site_fract_x
_atom_site_fract_y
_atom_site_fract_z
Si Si1 0.818312 0.896367 0.126309
Si Si2 0.173687 0.654649 0.637219
Si Si3 0.635719 0.868612 0.247418
Si Si4 0.468001 0.732453 0.049818
Si Si5 0.200574 0.387857 0.003325
O O1 0.667884 0.693477 0.094225
O O2 0.894413 0.804933 0.088017
O O3 0.000000 0.940785 0.250000
O O4 0.697889 0.150446 0.066170
O O5 0.211807 0.905782 0.692894
O O6 0.243310 0.717861 0.592909
O O7 0.943692 0.619130 0.544758
O O8 0.272516 0.406360 0.707816
O O9 0.500000 0.918990 0.250000
O O10 0.513647 0.908942 0.130290
O O11 0.397745 0.475935 0.052333
#
# Coordination Sequence:
#
# PCOD8122955 Si02
#       5
#     4   4   4   4   4
#     4  11  26  49  72 105 148 203 254 309 372 442
#     4  11  27  43  80 110 154 196 244 311 386 442
#     4  12  24  47  73 115 149 197 245 311 378 448
#     4  11  26  45  77 106 150 195 257 305 375 449
#     4  11  25  46  71 110 149 193 256 310 373 450
#
# _framework density 26.007816999999999
#
# number of rings (size 3 to 8) (size 9 to 14) (size 15 to 20)
#    0.000    0.800    2.000    3.600    8.400    2.400 
#    3.600    0.000    0.000    0.000    0.000    0.000 
#    0.000    0.000    0.000    0.000    0.000    0.000 
#
# Total GULP energy -247898.652702 kJ/mol
# GULP energy per Si atom -12394.932635 kJ/mol
# Density = 2.594862 g / cm^3
# Si number density = 26.007817 Si / 1000 Ang^3
#
#
#
# Elastic Constant Matrix: (Units=GPa)
#
#
# Indices 1 2 3 4 5 6 
#
# 1 96.3367 19.3186 36.6931 0.0000 -5.3810 0.0000
# 2 19.3186 107.5241 51.6406 0.0000 -12.5994 0.0000
# 3 36.6931 51.6406 172.9972 0.0000 -13.9071 0.0000
# 4 0.0000 0.0000 0.0000 32.7047 0.0000 -2.9511
# 5 -5.3810 -12.5994 -13.9071 0.0000 35.6778 0.0000
# 6 0.0000 0.0000 0.0000 -2.9511 0.0000 14.4457
#
#
#
# Elastic Compliance Matrix: (Units=1/GPa)
#
#
# Indices 1 2 3 4 5 6 
#
# 1 0.011401 -0.000984 -0.002079 0.000000 0.000562 0.000000
# 2 -0.000984 0.011191 -0.002917 0.000000 0.002666 0.000000
# 3 -0.002079 -0.002917 0.007210 0.000000 0.001467 0.000000
# 4 0.000000 0.000000 0.000000 0.031151 0.000000 0.006364
# 5 0.000562 0.002666 0.001467 0.000000 0.029627 0.000000
# 6 0.000000 0.000000 0.000000 0.006364 0.000000 0.070525
#
#
# Mechanical properties :
#
#
# Convention : Reuss Voigt Hill
#
# Bulk Modulus (GPa) = 56.05254 65.79585 60.92420
# Shear Modulus (GPa) = 27.93102 34.51266 31.22184
#
# Velocity S-wave (km/s) = 3.28067 3.64677 3.46855
# Velocity P-wave (km/s) = 5.99578 6.56394 6.28628
#
# Compressibility (1/GPa) = 0.01784040
#
# Stress axis : x y z
#
# Youngs Moduli (GPa) = 87.71230 89.36065 138.69166
#
# Poissons Ratio (x) = 0.08793 0.28838
# Poissons Ratio (y) = 0.08630 0.40462
# Poissons Ratio (z) = 0.18238 0.26070
#
# Static dielectric constant tensor:
#      x y z
#    x 4.988330 0.000000 -0.201150 
#    y 0.000000 4.205410 0.000000 
#    z -0.201150 0.000000 4.845110 
# 
# 
# High freq. dielectric constant tensor:
#      x y z
#    x 2.058520 0.000000 -0.007750 
#    y 0.000000 2.022420 0.000000 
#    z -0.007750 0.000000 2.047530 
# 
# From -- ./inp_files/77363.got.cif
#   From: 2010.06.25/outbox.cif.g09.slc.cpg/sg13_39_cif.got.tgz:77363.got - 2010.06.28 04:50:58.
