data_PCOD8122535
_publ_section_title
;
Structure prediction by ZEFSAII (Michael W. Deem and Ramdas Pophale) SiO2 
 PCOD8122535
Probable space group: P 2/C
;
_chemical_formula_sum "Si O2"
_cell_formula_units_Z 20
_cell_length_a 7.528309
_cell_length_b 8.961141
_cell_length_c 17.879790
_cell_angle_alpha 90.000000
_cell_angle_beta 38.016837
_cell_angle_gamma 90.000000
_cell_volume 742.896717
_symmetry_space_group_name_H-M "P 2/C"
_symmetry_group_IT_number 13
_symmetry_cell_setting 'monoclinic'
loop_
_space_group_symop_operation_xyz
x,y,z
-x,y,1/2-z
-x,-y,-z
x,-y,1/2+z
loop_
_atom_site_type_symbol
_atom_site_label
_atom_site_fract_x
_atom_site_fract_y
_atom_site_fract_z
Si Si1 0.627210 0.301206 0.289605
Si Si2 0.105868 0.883574 0.587025
Si Si3 0.697761 0.208334 0.963976
Si Si4 0.803831 0.381576 0.736050
Si Si5 0.837083 0.341963 0.555958
O O1 0.500000 0.328615 0.250000
O O2 0.366229 0.297198 0.436641
O O3 0.847490 0.440587 0.226817
O O4 0.825361 0.152717 0.232087
O O5 0.395340 0.823337 0.527335
O O6 0.025124 0.794644 0.537108
O O7 0.127805 0.059775 0.570468
O O8 0.888383 0.305419 0.838922
O O9 0.817222 0.302242 0.649578
O O10 0.485959 0.349768 0.873048
O O11 0.000000 0.500000 0.500000
#
# Coordination Sequence:
#
# PCOD8122535 Si02
#       5
#     4   4   4   4   4
#     4  12  24  46  75 102 143 188 244 312 369 446
#     4  11  26  49  71  99 155 194 241 317 372 449
#     4  11  28  47  69 110 146 194 251 299 387 449
#     4  11  23  42  72 104 140 181 243 302 362 443
#     4  11  21  44  71 102 140 187 240 301 362 431
#
# _framework density 26.921644000000001
#
# number of rings (size 3 to 8) (size 9 to 14) (size 15 to 20)
#    0.000    0.800    4.000    3.000    2.800    4.800 
#    3.600    0.000    0.000    0.000    0.000    0.000 
#    0.000    0.000    0.000    0.000    0.000    0.000 
#
# Total GULP energy -247778.257440 kJ/mol
# GULP energy per Si atom -12388.912872 kJ/mol
# Density = 2.686037 g / cm^3
# Si number density = 26.921644 Si / 1000 Ang^3
#
#
#
# Elastic Constant Matrix: (Units=GPa)
#
#
# Indices 1 2 3 4 5 6 
#
# 1 32.0346 -3.9876 12.3925 0.0000 -12.5528 0.0000
# 2 -3.9876 154.9348 68.7563 0.0000 -8.7879 0.0000
# 3 12.3925 68.7563 177.1200 0.0000 -21.3663 0.0000
# 4 0.0000 0.0000 0.0000 44.1799 0.0000 -19.1031
# 5 -12.5528 -8.7879 -21.3663 0.0000 45.3089 0.0000
# 6 0.0000 0.0000 0.0000 -19.1031 0.0000 34.6122
#
#
#
# Elastic Compliance Matrix: (Units=1/GPa)
#
#
# Indices 1 2 3 4 5 6 
#
# 1 0.036121 0.002514 -0.002372 0.000000 0.009376 0.000000
# 2 0.002514 0.007973 -0.003181 0.000000 0.000743 0.000000
# 3 -0.002372 -0.003181 0.007309 0.000000 0.002172 0.000000
# 4 0.000000 0.000000 0.000000 0.029730 0.000000 0.016408
# 5 0.009376 0.000743 0.002172 0.000000 0.025837 0.000000
# 6 0.000000 0.000000 0.000000 0.016408 0.000000 0.037948
#
#
# Mechanical properties :
#
#
# Convention : Reuss Voigt Hill
#
# Bulk Modulus (GPa) = 22.06324 57.60129 39.83226
# Shear Modulus (GPa) = 30.10167 43.94874 37.02521
#
# Velocity S-wave (km/s) = 3.34746 4.04477 3.71252
# Velocity P-wave (km/s) = 4.81184 6.57692 5.76236
#
# Compressibility (1/GPa) = 0.04532426
#
# Stress axis : x y z
#
# Youngs Moduli (GPa) = 27.68471 125.42383 136.81966
#
# Poissons Ratio (x) = -0.31534 0.32456
# Poissons Ratio (y) = -0.06960 0.43527
# Poissons Ratio (z) = 0.06567 0.39902
#
# Static dielectric constant tensor:
#      x y z
#    x 5.211340 0.000000 -0.199010 
#    y 0.000000 4.759190 0.000000 
#    z -0.199010 0.000000 5.737800 
# 
# 
# High freq. dielectric constant tensor:
#      x y z
#    x 2.109730 0.000000 -0.015630 
#    y 0.000000 2.059700 0.000000 
#    z -0.015630 0.000000 2.113940 
# 
# From -- ./inp_files/75145.got.cif
#   From: 2010.06.25/outbox.cif.g09.slc.cpg/sg13_38_cif.got.tgz:75145.got - 2010.06.28 04:50:58.
