data_PCOD8122684
_publ_section_title
;
Structure prediction by ZEFSAII (Michael W. Deem and Ramdas Pophale) SiO2 
 PCOD8122684
Probable space group: P 2/C
;
_chemical_formula_sum "Si O2"
_cell_formula_units_Z 20
_cell_length_a 19.139225
_cell_length_b 9.217516
_cell_length_c 8.548861
_cell_angle_alpha 90.000000
_cell_angle_beta 142.232789
_cell_angle_gamma 90.000000
_cell_volume 923.677836
_symmetry_space_group_name_H-M "P 2/C"
_symmetry_group_IT_number 13
_symmetry_cell_setting 'monoclinic'
loop_
_space_group_symop_operation_xyz
x,y,z
-x,y,1/2-z
-x,-y,-z
x,-y,1/2+z
loop_
_atom_site_type_symbol
_atom_site_label
_atom_site_fract_x
_atom_site_fract_y
_atom_site_fract_z
Si Si1 0.628654 0.645728 0.924496
Si Si2 0.051610 0.345951 0.625389
Si Si3 0.810078 0.158283 0.855602
Si Si4 0.271318 0.376468 0.221369
Si Si5 0.837762 0.156795 0.272192
O O1 0.500000 0.630499 0.750000
O O2 0.632132 0.638285 0.741589
O O3 0.681498 0.798763 0.075219
O O4 0.705997 0.518772 0.135947
O O5 0.103662 0.277842 0.559810
O O6 0.000000 0.500000 0.500000
O O7 0.955646 0.237623 0.522001
O O8 0.147545 0.377145 0.923490
O O9 0.846029 0.004930 0.849699
O O10 0.816217 0.155352 0.050939
O O11 0.269438 0.238649 0.335445
#
# Coordination Sequence:
#
# PCOD8122684 Si02
#       5
#     4   4   4   4   4
#     4  11  23  44  68  94 126 167 216 272 320 367
#     4  11  23  40  64  96 131 170 208 257 319 385
#     4  11  24  42  63  93 130 172 217 260 314 386
#     4  11  24  40  63  96 127 164 216 264 316 384
#     4  12  24  42  63  93 133 171 208 261 321 386
#
# _framework density 21.652570000000001
#
# number of rings (size 3 to 8) (size 9 to 14) (size 15 to 20)
#    0.000    0.800    0.000    9.600    0.000    4.800 
#    0.000    5.000    0.000    0.000    0.000    0.000 
#    0.000    0.000    0.000    0.000    0.000    0.000 
#
# Total GULP energy -248018.518301 kJ/mol
# GULP energy per Si atom -12400.925915 kJ/mol
# Density = 2.160329 g / cm^3
# Si number density = 21.652570 Si / 1000 Ang^3
#
#
#
# Elastic Constant Matrix: (Units=GPa)
#
#
# Indices 1 2 3 4 5 6 
#
# 1 180.0911 78.2121 61.8809 0.0000 -27.6796 0.0000
# 2 78.2121 169.3716 54.2388 0.0000 -1.5200 0.0000
# 3 61.8809 54.2388 64.2807 0.0000 -10.2575 0.0000
# 4 0.0000 0.0000 0.0000 27.8295 0.0000 -6.4196
# 5 -27.6796 -1.5200 -10.2575 0.0000 38.2276 0.0000
# 6 0.0000 0.0000 0.0000 -6.4196 0.0000 36.0902
#
#
#
# Elastic Compliance Matrix: (Units=1/GPa)
#
#
# Indices 1 2 3 4 5 6 
#
# 1 0.009547 -0.002302 -0.006435 0.000000 0.005094 0.000000
# 2 -0.002302 0.008737 -0.005607 0.000000 -0.002824 0.000000
# 3 -0.006435 -0.005607 0.026853 0.000000 0.002323 0.000000
# 4 0.000000 0.000000 0.000000 0.037471 0.000000 0.006665
# 5 0.005094 -0.002824 0.002323 0.000000 0.030359 0.000000
# 6 0.000000 0.000000 0.000000 0.006665 0.000000 0.028894
#
#
# Mechanical properties :
#
#
# Convention : Reuss Voigt Hill
#
# Bulk Modulus (GPa) = 60.79243 89.15632 74.97437
# Shear Modulus (GPa) = 28.40403 35.05689 31.73046
#
# Velocity S-wave (km/s) = 3.62582 4.02812 3.83225
# Velocity P-wave (km/s) = 6.75766 7.93093 7.36769
#
# Compressibility (1/GPa) = 0.01644942
#
# Stress axis : x y z
#
# Youngs Moduli (GPa) = 104.75027 114.45038 37.23950
#
# Poissons Ratio (x) = 0.26346 0.23963
# Poissons Ratio (y) = 0.24113 0.20880
# Poissons Ratio (z) = 0.67405 0.64173
#
# Static dielectric constant tensor:
#      x y z
#    x 4.954490 0.000000 -1.003050 
#    y 0.000000 3.966190 0.000000 
#    z -1.003050 0.000000 4.837510 
# 
# 
# High freq. dielectric constant tensor:
#      x y z
#    x 1.873510 0.000000 -0.021490 
#    y 0.000000 1.857340 0.000000 
#    z -0.021490 0.000000 1.836870 
# 
# From -- ./inp_files/22871.got.cif
#   From: 2010.06.25/outbox.cif.g09.slc.cpg/sg13_12_cif.got.tgz:22871.got - 2010.06.28 04:50:58.
