data_PCOD8122539
_publ_section_title
;
Structure prediction by ZEFSAII (Michael W. Deem and Ramdas Pophale) SiO2 
 PCOD8122539
Probable space group: P 2/C
;
_chemical_formula_sum "Si O2"
_cell_formula_units_Z 24
_cell_length_a 11.250678
_cell_length_b 10.870626
_cell_length_c 16.773563
_cell_angle_alpha 90.000000
_cell_angle_beta 30.281946
_cell_angle_gamma 90.000000
_cell_volume 1034.449402
_symmetry_space_group_name_H-M "P 2/C"
_symmetry_group_IT_number 13
_symmetry_cell_setting 'monoclinic'
loop_
_space_group_symop_operation_xyz
x,y,z
-x,y,1/2-z
-x,-y,-z
x,-y,1/2+z
loop_
_atom_site_type_symbol
_atom_site_label
_atom_site_fract_x
_atom_site_fract_y
_atom_site_fract_z
Si Si1 0.351807 0.564450 0.912709
Si Si2 0.991735 0.744162 0.474277
Si Si3 0.104432 0.680695 0.581033
Si Si4 0.679329 0.940643 0.714309
Si Si5 0.438663 0.186336 0.638164
Si Si6 0.398425 0.268819 0.119176
O O1 0.500000 0.518193 0.750000
O O2 0.508247 0.604146 0.897945
O O3 0.208212 0.453394 0.036490
O O4 0.192667 0.679611 0.977744
O O5 0.996827 0.674486 0.554731
O O6 0.250030 0.723929 0.287938
O O7 0.923765 0.890347 0.530838
O O8 0.301479 0.788287 0.475402
O O9 0.862700 0.710544 0.770820
O O10 0.500000 0.981218 0.750000
O O11 0.589711 0.822989 0.813745
O O12 0.674132 0.051903 0.780519
O O13 0.436940 0.213326 0.545191
#
# Coordination Sequence:
#
# PCOD8122539 Si02
#       6
#     4   4   4   4   4   4
#     4  12  22  45  74  96 136 187 243 285 341 411
#     4  11  22  43  70 104 131 179 239 290 342 405
#     4  11  25  43  71  99 137 189 234 287 338 418
#     4  11  21  46  73  99 135 184 233 289 337 416
#     4  12  26  41  66 106 141 178 232 283 361 412
#     4  11  25  47  65 102 146 183 227 289 358 410
#
# _framework density 23.200748999999998
#
# number of rings (size 3 to 8) (size 9 to 14) (size 15 to 20)
#    0.000    0.667    5.000    4.500    2.333    2.667 
#    3.000    1.667    0.000    0.000    0.000    0.000 
#    0.000    0.000    0.000    0.000    0.000    0.000 
#
# Total GULP energy -297453.575305 kJ/mol
# GULP energy per Si atom -12393.898971 kJ/mol
# Density = 2.314794 g / cm^3
# Si number density = 23.200749 Si / 1000 Ang^3
#
#
#
# Elastic Constant Matrix: (Units=GPa)
#
#
# Indices 1 2 3 4 5 6 
#
# 1 57.6112 13.1911 9.6758 0.0000 -8.8202 0.0000
# 2 13.1911 104.6112 39.9312 0.0000 -2.0290 0.0000
# 3 9.6758 39.9312 129.9974 0.0000 -2.1458 0.0000
# 4 0.0000 0.0000 0.0000 5.2606 0.0000 8.7388
# 5 -8.8202 -2.0290 -2.1458 0.0000 34.0034 0.0000
# 6 0.0000 0.0000 0.0000 8.7388 0.0000 20.5827
#
#
#
# Elastic Compliance Matrix: (Units=1/GPa)
#
#
# Indices 1 2 3 4 5 6 
#
# 1 0.018647 -0.001994 -0.000698 0.000000 0.004674 0.000000
# 2 -0.001994 0.011049 -0.003246 0.000000 -0.000063 0.000000
# 3 -0.000698 -0.003246 0.008745 0.000000 0.000177 0.000000
# 4 0.000000 0.000000 0.000000 0.644989 0.000000 -0.273843
# 5 0.004674 -0.000063 0.000177 0.000000 0.030629 0.000000
# 6 0.000000 0.000000 0.000000 -0.273843 0.000000 0.164850
#
#
# Mechanical properties :
#
#
# Convention : Reuss Voigt Hill
#
# Bulk Modulus (GPa) = 37.64672 46.42398 42.03535
# Shear Modulus (GPa) = 5.55778 27.26413 16.41096
#
# Velocity S-wave (km/s) = 1.54943 3.43175 2.66248
# Velocity P-wave (km/s) = 4.41165 5.97961 5.25444
#
# Compressibility (1/GPa) = 0.02656274
#
# Stress axis : x y z
#
# Youngs Moduli (GPa) = 53.62750 90.50892 114.35694
#
# Poissons Ratio (x) = 0.18049 0.07985
# Poissons Ratio (y) = 0.10694 0.37125
# Poissons Ratio (z) = 0.03744 0.29383
#
# Static dielectric constant tensor:
#      x y z
#    x 3.933470 0.000000 -0.058110 
#    y 0.000000 3.949870 0.000000 
#    z -0.058110 0.000000 4.543070 
# 
# 
# High freq. dielectric constant tensor:
#      x y z
#    x 1.917030 0.000000 -0.001620 
#    y 0.000000 1.909750 0.000000 
#    z -0.001620 0.000000 1.929590 
# 
# From -- ./inp_files/66567.got.cif
#   From: 2010.06.25/outbox.cif.g09.slc.cpg/sg13_34_cif.got.tgz:66567.got - 2010.06.28 04:50:58.
