data_PCOD8122543
_publ_section_title
;
Structure prediction by ZEFSAII (Michael W. Deem and Ramdas Pophale) SiO2 
 PCOD8122543
Probable space group: P 2/C
;
_chemical_formula_sum "Si O2"
_cell_formula_units_Z 26
_cell_length_a 26.187467
_cell_length_b 6.527050
_cell_length_c 22.866110
_cell_angle_alpha 90.000000
_cell_angle_beta 159.046315
_cell_angle_gamma 90.000000
_cell_volume 1397.707288
_symmetry_space_group_name_H-M "P 2/C"
_symmetry_group_IT_number 13
_symmetry_cell_setting 'monoclinic'
loop_
_space_group_symop_operation_xyz
x,y,z
-x,y,1/2-z
-x,-y,-z
x,-y,1/2+z
loop_
_atom_site_type_symbol
_atom_site_label
_atom_site_fract_x
_atom_site_fract_y
_atom_site_fract_z
Si Si1 0.615555 0.137708 0.309307
Si Si2 0.344588 0.946339 0.774349
Si Si3 0.908595 0.197306 0.416539
Si Si4 0.405544 0.696150 0.412261
Si Si5 0.337288 0.613838 0.531917
Si Si6 0.500000 0.238411 0.750000
Si Si7 0.844177 0.448508 0.772260
O O1 0.707905 0.257424 0.457940
O O2 0.470690 0.268724 0.145122
O O3 0.703078 0.111662 0.342663
O O4 0.577835 0.905643 0.286343
O O5 0.356056 0.191258 0.798939
O O6 0.234735 0.849718 0.702098
O O7 0.502358 0.854900 0.951537
O O8 0.863282 0.309920 0.307441
O O9 0.001583 0.345758 0.556734
O O10 0.000000 0.000000 0.500000
O O11 0.500000 0.500000 0.500000
O O12 0.264496 0.644374 0.297078
O O13 0.381002 0.381110 0.592790
O O14 0.206006 0.595408 0.347249
#
# Coordination Sequence:
#
# PCOD8122543 Si02
#       7
#     4   4   4   4   4   2   4
#     4   9  19  34  56  87 114 146 193 245 299 336
#     4  11  22  36  59  87 121 151 192 248 288 351
#     4  11  24  40  55  84 120 160 196 232 298 356
#     4  11  22  34  58  92 113 149 190 244 296 337
#     4   9  19  35  57  84 113 150 193 241 297 347
#     4   8  18  32  52  86 114 146 184 242 302 342
#     4  11  22  39  60  82 118 156 195 239 295 357
#
# _framework density 18.601891999999999
#
# number of rings (size 3 to 8) (size 9 to 14) (size 15 to 20)
#    0.000    2.154    4.615    0.000    2.154    2.462 
#    0.000    0.769    0.000    0.000    0.000    0.000 
#    0.000    0.000    0.000    0.000    0.000    0.000 
#
# Total GULP energy -322241.075429 kJ/mol
# GULP energy per Si atom -12393.887516 kJ/mol
# Density = 1.855955 g / cm^3
# Si number density = 18.601892 Si / 1000 Ang^3
#
#
#
# Elastic Constant Matrix: (Units=GPa)
#
#
# Indices 1 2 3 4 5 6 
#
# 1 89.3167 41.4250 29.9802 0.0000 -24.0231 0.0000
# 2 41.4250 127.1590 29.1881 0.0000 -9.8631 0.0000
# 3 29.9802 29.1881 75.6855 0.0000 -16.3120 0.0000
# 4 0.0000 0.0000 0.0000 32.2913 0.0000 0.9866
# 5 -24.0231 -9.8631 -16.3120 0.0000 34.5948 0.0000
# 6 0.0000 0.0000 0.0000 0.9866 0.0000 21.0236
#
#
#
# Elastic Compliance Matrix: (Units=1/GPa)
#
#
# Indices 1 2 3 4 5 6 
#
# 1 0.016446 -0.003965 -0.003081 0.000000 0.008837 0.000000
# 2 -0.003965 0.009615 -0.002382 0.000000 -0.001135 0.000000
# 3 -0.003081 -0.002382 0.016412 0.000000 0.004920 0.000000
# 4 0.000000 0.000000 0.000000 0.031013 0.000000 -0.001455
# 5 0.008837 -0.001135 0.004920 0.000000 0.037039 0.000000
# 6 0.000000 0.000000 0.000000 -0.001455 0.000000 0.047634
#
#
# Mechanical properties :
#
#
# Convention : Reuss Voigt Hill
#
# Bulk Modulus (GPa) = 42.34229 54.81642 48.57935
# Shear Modulus (GPa) = 27.04368 30.35313 28.69841
#
# Velocity S-wave (km/s) = 3.81703 4.04384 3.93207
# Velocity P-wave (km/s) = 6.49908 7.16489 6.84009
#
# Compressibility (1/GPa) = 0.02361705
#
# Stress axis : x y z
#
# Youngs Moduli (GPa) = 60.80439 104.00883 60.93141
#
# Poissons Ratio (x) = 0.41240 0.18772
# Poissons Ratio (y) = 0.24109 0.14513
# Poissons Ratio (z) = 0.18732 0.24774
#
# Static dielectric constant tensor:
#      x y z
#    x 3.342280 0.000000 -0.073900 
#    y 0.000000 3.735120 0.000000 
#    z -0.073900 0.000000 3.332120 
# 
# 
# High freq. dielectric constant tensor:
#      x y z
#    x 1.705160 0.000000 -0.008230 
#    y 0.000000 1.740880 0.000000 
#    z -0.008230 0.000000 1.701770 
# 
# From -- ./inp_files/89446.got.cif
#   From: 2010.06.25/outbox.cif.g09.slc.cpg/sg13_45_cif.got.tgz:89446.got - 2010.06.28 04:50:58.
