data_PCOD8122736
_publ_section_title
;
Structure prediction by ZEFSAII (Michael W. Deem and Ramdas Pophale) SiO2 
 PCOD8122736
Probable space group: P 2/C
;
_chemical_formula_sum "Si O2"
_cell_formula_units_Z 20
_cell_length_a 17.086189
_cell_length_b 12.379547
_cell_length_c 9.182238
_cell_angle_alpha 90.000000
_cell_angle_beta 29.472046
_cell_angle_gamma 90.000000
_cell_volume 955.570215
_symmetry_space_group_name_H-M "P 2/C"
_symmetry_group_IT_number 13
_symmetry_cell_setting 'monoclinic'
loop_
_space_group_symop_operation_xyz
x,y,z
-x,y,1/2-z
-x,-y,-z
x,-y,1/2+z
loop_
_atom_site_type_symbol
_atom_site_label
_atom_site_fract_x
_atom_site_fract_y
_atom_site_fract_z
Si Si1 0.182259 0.293991 0.424401
Si Si2 0.313983 0.887825 0.526636
Si Si3 0.815477 0.083603 0.581220
Si Si4 0.884623 0.471412 0.556903
Si Si5 0.315255 0.275174 0.518985
O O1 0.200532 0.421243 0.365166
O O2 0.288263 0.261397 0.390995
O O3 0.247255 0.229862 0.179088
O O4 0.000000 0.263032 0.750000
O O5 0.500000 0.895959 0.250000
O O6 0.283473 0.908188 0.406689
O O7 0.225876 0.973778 0.770125
O O8 0.778915 0.182778 0.745414
O O9 0.000000 0.083562 0.250000
O O10 0.000000 0.500000 0.500000
O O11 0.746470 0.390767 0.827078
O O12 0.000000 0.417327 0.250000
O O13 0.500000 0.264315 0.250000
#
# Coordination Sequence:
#
# PCOD8122736 Si02
#       5
#     4   4   4   4   4
#     4  11  23  43  66  92 130 172 216 261 315 387
#     4  12  25  43  66  97 133 167 212 270 325 377
#     4  12  25  43  69  95 128 174 216 261 319 392
#     4  11  23  44  69  94 129 174 216 264 317 383
#     4  12  25  42  66  98 132 167 215 271 320 376
#
# _framework density 20.929912000000002
#
# number of rings (size 3 to 8) (size 9 to 14) (size 15 to 20)
#    0.000    0.400    4.000    6.600    2.800    1.600 
#    0.000    0.000    0.000    0.000    0.000    0.000 
#    0.000    0.000    0.000    0.000    0.000    0.000 
#
# Total GULP energy -248136.547220 kJ/mol
# GULP energy per Si atom -12406.827361 kJ/mol
# Density = 2.088227 g / cm^3
# Si number density = 20.929912 Si / 1000 Ang^3
#
#
#
# Elastic Constant Matrix: (Units=GPa)
#
#
# Indices 1 2 3 4 5 6 
#
# 1 91.7231 0.6793 -7.6325 0.0000 2.4739 0.0000
# 2 0.6793 93.5167 32.9589 0.0000 0.6655 0.0000
# 3 -7.6325 32.9589 78.7472 0.0000 -13.8233 0.0000
# 4 0.0000 0.0000 0.0000 -79.9424 0.0000 -40.0452
# 5 2.4739 0.6655 -13.8233 0.0000 48.9733 0.0000
# 6 0.0000 0.0000 0.0000 -40.0452 0.0000 8.3374
#
#
#
# Elastic Compliance Matrix: (Units=1/GPa)
#
#
# Indices 1 2 3 4 5 6 
#
# 1 0.011016 -0.000519 0.001251 0.000000 -0.000196 0.000000
# 2 -0.000519 0.012710 -0.005677 0.000000 -0.001749 0.000000
# 3 0.001251 -0.005677 0.015991 0.000000 0.004528 0.000000
# 4 0.000000 0.000000 0.000000 -0.003673 0.000000 -0.017640
# 5 -0.000196 -0.001749 0.004528 0.000000 0.021731 0.000000
# 6 0.000000 0.000000 0.000000 -0.017640 0.000000 0.035215
#
#
# Mechanical properties :
#
#
# Convention : Reuss Voigt Hill
#
# Bulk Modulus (GPa) = 33.52888 35.11092 34.31990
# Shear Modulus (GPa) = 44.31697 11.33907 27.82802
#
# Velocity S-wave (km/s) = 4.60651 2.33011 3.65030
# Velocity P-wave (km/s) = 6.65940 4.90419 5.84802
#
# Compressibility (1/GPa) = 0.02982503
#
# Stress axis : x y z
#
# Youngs Moduli (GPa) = 90.78045 78.67612 62.53532
#
# Poissons Ratio (x) = 0.04086 -0.07821
# Poissons Ratio (y) = 0.04715 0.35502
# Poissons Ratio (z) = -0.11353 0.44666
#
# Static dielectric constant tensor:
#      x y z
#    x 4.047710 0.000000 0.176620 
#    y 0.000000 3.283890 0.000000 
#    z 0.176620 0.000000 3.733840 
# 
# 
# High freq. dielectric constant tensor:
#      x y z
#    x 1.837640 0.000000 0.007360 
#    y 0.000000 1.831430 0.000000 
#    z 0.007360 0.000000 1.829530 
# 
# From -- ./inp_files/11665.got.cif
#   From: 2010.06.25/outbox.cif.g09.slc.cpg/sg13_6_cif.got.tgz:11665.got - 2010.06.28 04:50:58.
