data_PCOD8122764
_publ_section_title
;
Structure prediction by ZEFSAII (Michael W. Deem and Ramdas Pophale) SiO2 
 PCOD8122764
Probable space group: P 2/C
;
_chemical_formula_sum "Si O2"
_cell_formula_units_Z 18
_cell_length_a 9.046339
_cell_length_b 7.592910
_cell_length_c 16.760463
_cell_angle_alpha 90.000000
_cell_angle_beta 136.853848
_cell_angle_gamma 90.000000
_cell_volume 787.291213
_symmetry_space_group_name_H-M "P 2/C"
_symmetry_group_IT_number 13
_symmetry_cell_setting 'monoclinic'
loop_
_space_group_symop_operation_xyz
x,y,z
-x,y,1/2-z
-x,-y,-z
x,-y,1/2+z
loop_
_atom_site_type_symbol
_atom_site_label
_atom_site_fract_x
_atom_site_fract_y
_atom_site_fract_z
Si Si1 0.826445 0.462677 0.096019
Si Si2 0.500000 0.286846 0.250000
Si Si3 0.074601 0.223117 0.620015
Si Si4 0.600235 0.436189 0.658608
Si Si5 0.956118 0.166353 0.401186
O O1 0.800378 0.504494 0.179871
O O2 0.890245 0.638390 0.072661
O O3 0.006996 0.311948 0.152521
O O4 0.600235 0.378122 0.975409
O O5 0.485194 0.404674 0.322500
O O6 0.710492 0.164615 0.336986
O O7 0.304826 0.278050 0.749649
O O8 0.105832 0.218493 0.536238
O O9 0.998612 0.027536 0.617002
#
# Coordination Sequence:
#
# PCOD8122764 Si02
#       5
#     4   2   4   4   4
#     4  11  23  47  66 102 135 185 220 286 344 409
#     4  12  22  42  66 100 128 184 222 284 344 400
#     4  11  23  44  68 102 131 182 229 281 338 412
#     4  11  24  42  73  96 140 174 232 280 343 405
#     4  11  25  42  72  96 141 175 234 281 344 403
#
# _framework density 22.863202999999999
#
# number of rings (size 3 to 8) (size 9 to 14) (size 15 to 20)
#    0.000    0.889    4.444    2.667    0.000    4.444 
#    8.000    2.222    0.000    0.000    0.000    0.000 
#    0.000    0.000    0.000    0.000    0.000    0.000 
#
# Total GULP energy -223211.858387 kJ/mol
# GULP energy per Si atom -12400.658799 kJ/mol
# Density = 2.281117 g / cm^3
# Si number density = 22.863203 Si / 1000 Ang^3
#
#
#
# Elastic Constant Matrix: (Units=GPa)
#
#
# Indices 1 2 3 4 5 6 
#
# 1 92.4669 54.7495 5.9316 0.0000 10.1229 0.0000
# 2 54.7495 174.2819 40.1057 0.0000 -4.2212 0.0000
# 3 5.9316 40.1057 90.0486 0.0000 0.8279 0.0000
# 4 0.0000 0.0000 0.0000 29.8023 0.0000 -2.4298
# 5 10.1229 -4.2212 0.8279 0.0000 30.4767 0.0000
# 6 0.0000 0.0000 0.0000 -2.4298 0.0000 11.1542
#
#
#
# Elastic Compliance Matrix: (Units=1/GPa)
#
#
# Indices 1 2 3 4 5 6 
#
# 1 0.014228 -0.004899 0.001295 0.000000 -0.005440 0.000000
# 2 -0.004899 0.008109 -0.003315 0.000000 0.002840 0.000000
# 3 0.001295 -0.003315 0.012507 0.000000 -0.001229 0.000000
# 4 0.000000 0.000000 0.000000 0.034161 0.000000 0.007442
# 5 -0.005440 0.002840 -0.001229 0.000000 0.035046 0.000000
# 6 0.000000 0.000000 0.000000 0.007442 0.000000 0.091274
#
#
# Mechanical properties :
#
#
# Convention : Reuss Voigt Hill
#
# Bulk Modulus (GPa) = 47.60659 62.04123 54.82391
# Shear Modulus (GPa) = 23.13051 31.35401 27.24226
#
# Velocity S-wave (km/s) = 3.18416 3.70722 3.45560
# Velocity P-wave (km/s) = 5.86396 6.74681 6.32082
#
# Compressibility (1/GPa) = 0.02100550
#
# Stress axis : x y z
#
# Youngs Moduli (GPa) = 70.28376 123.32707 79.95246
#
# Poissons Ratio (x) = 0.60422 -0.10353
# Poissons Ratio (y) = 0.34435 0.26502
# Poissons Ratio (z) = -0.09101 0.40880
#
# Static dielectric constant tensor:
#      x y z
#    x 4.152170 0.000000 0.099930 
#    y 0.000000 3.838770 0.000000 
#    z 0.099930 0.000000 4.295450 
# 
# 
# High freq. dielectric constant tensor:
#      x y z
#    x 1.900810 0.000000 0.005930 
#    y 0.000000 1.881690 0.000000 
#    z 0.005930 0.000000 1.925960 
# 
# From -- ./inp_files/63578.got.cif
#   From: 2010.06.25/outbox.cif.g09.slc.cpg/sg13_32_cif.got.tgz:63578.got - 2010.06.28 04:50:58.
