data_PCOD8122840
_publ_section_title
;
Structure prediction by ZEFSAII (Michael W. Deem and Ramdas Pophale) SiO2 
 PCOD8122840
Probable space group: P 2/C
;
_chemical_formula_sum "Si O2"
_cell_formula_units_Z 20
_cell_length_a 8.137521
_cell_length_b 7.661918
_cell_length_c 17.172664
_cell_angle_alpha 90.000000
_cell_angle_beta 49.409054
_cell_angle_gamma 90.000000
_cell_volume 813.060935
_symmetry_space_group_name_H-M "P 2/C"
_symmetry_group_IT_number 13
_symmetry_cell_setting 'monoclinic'
loop_
_space_group_symop_operation_xyz
x,y,z
-x,y,1/2-z
-x,-y,-z
x,-y,1/2+z
loop_
_atom_site_type_symbol
_atom_site_label
_atom_site_fract_x
_atom_site_fract_y
_atom_site_fract_z
Si Si1 0.910780 0.355149 0.930959
Si Si2 0.439666 0.577558 0.854880
Si Si3 0.264966 0.033317 0.604990
Si Si4 0.346236 0.769655 0.235795
Si Si5 0.799809 0.344405 0.358322
O O1 0.851169 0.170064 0.913400
O O2 0.776947 0.515794 0.934132
O O3 0.170535 0.350302 0.839469
O O4 0.815375 0.373161 0.048875
O O5 0.500000 0.642697 0.750000
O O6 0.497929 0.374275 0.851338
O O7 0.583452 0.681400 0.874029
O O8 0.254602 0.101996 0.698181
O O9 0.500000 0.000000 0.500000
O O10 0.135935 0.851311 0.634929
O O11 0.500000 0.874396 0.250000
O O12 0.000000 0.427872 0.250000
#
# Coordination Sequence:
#
# PCOD8122840 Si02
#       5
#     4   4   4   4   4
#     4  12  23  48  73  98 142 186 231 290 350 412
#     4  11  24  42  67 103 136 179 228 283 348 415
#     4  12  24  43  72 105 136 181 237 285 344 416
#     4  11  25  46  72 105 145 183 232 293 352 414
#     4  12  22  42  73 101 131 179 233 284 343 419
#
# _framework density 24.598402
#
# number of rings (size 3 to 8) (size 9 to 14) (size 15 to 20)
#    0.000    0.400    6.000    3.600    0.000    4.000 
#    3.600    1.000    0.000    0.000    0.000    0.000 
#    0.000    0.000    0.000    0.000    0.000    0.000 
#
# Total GULP energy -247834.614939 kJ/mol
# GULP energy per Si atom -12391.730747 kJ/mol
# Density = 2.454242 g / cm^3
# Si number density = 24.598402 Si / 1000 Ang^3
#
#
#
# Elastic Constant Matrix: (Units=GPa)
#
#
# Indices 1 2 3 4 5 6 
#
# 1 42.1227 3.9063 9.8254 0.0000 -1.0256 0.0000
# 2 3.9063 126.7600 12.4468 0.0000 14.8799 0.0000
# 3 9.8254 12.4468 148.9916 0.0000 -5.3557 0.0000
# 4 0.0000 0.0000 0.0000 32.6738 0.0000 -13.1607
# 5 -1.0256 14.8799 -5.3557 0.0000 39.4770 0.0000
# 6 0.0000 0.0000 0.0000 -13.1607 0.0000 2.7157
#
#
#
# Elastic Compliance Matrix: (Units=1/GPa)
#
#
# Indices 1 2 3 4 5 6 
#
# 1 0.024172 -0.000676 -0.001513 0.000000 0.000677 0.000000
# 2 -0.000676 0.008370 -0.000772 0.000000 -0.003277 0.000000
# 3 -0.001513 -0.000772 0.006919 0.000000 0.001191 0.000000
# 4 0.000000 0.000000 0.000000 -0.032150 0.000000 -0.155801
# 5 0.000677 -0.003277 0.001191 0.000000 0.026746 0.000000
# 6 0.000000 0.000000 0.000000 -0.155801 0.000000 -0.386802
#
#
# Mechanical properties :
#
#
# Convention : Reuss Voigt Hill
#
# Bulk Modulus (GPa) = 29.81660 41.13679 35.47670
# Shear Modulus (GPa) = -14.89682 34.41969 9.76144
#
# Velocity S-wave (km/s) = -2.46357 3.74473 1.99423
# Velocity P-wave (km/s) = 2.01382 5.95458 4.44480
#
# Compressibility (1/GPa) = 0.03353836
#
# Stress axis : x y z
#
# Youngs Moduli (GPa) = 41.36968 119.46970 144.53138
#
# Poissons Ratio (x) = 0.08074 0.21871
# Poissons Ratio (y) = 0.02796 0.11165
# Poissons Ratio (z) = 0.06260 0.09229
#
# Static dielectric constant tensor:
#      x y z
#    x 6.046520 0.000000 -0.923750 
#    y 0.000000 4.442320 0.000000 
#    z -0.923750 0.000000 5.150670 
# 
# 
# High freq. dielectric constant tensor:
#      x y z
#    x 1.961670 0.000000 -0.015970 
#    y 0.000000 1.970180 0.000000 
#    z -0.015970 0.000000 2.000700 
# 
# From -- ./inp_files/63664.got.cif
#   From: 2010.06.25/outbox.cif.g09.slc.cpg/sg13_32_cif.got.tgz:63664.got - 2010.06.28 04:50:58.
