data_PCOD8122404
_publ_section_title
;
Structure prediction by ZEFSAII (Michael W. Deem and Ramdas Pophale) SiO2 
 PCOD8122404
Probable space group: P 2/C
;
_chemical_formula_sum "Si O2"
_cell_formula_units_Z 26
_cell_length_a 16.106700
_cell_length_b 6.539689
_cell_length_c 13.962737
_cell_angle_alpha 90.000000
_cell_angle_beta 89.666117
_cell_angle_gamma 90.000000
_cell_volume 1470.709335
_symmetry_space_group_name_H-M "P 2/C"
_symmetry_group_IT_number 13
_symmetry_cell_setting 'monoclinic'
loop_
_space_group_symop_operation_xyz
x,y,z
-x,y,1/2-z
-x,-y,-z
x,-y,1/2+z
loop_
_atom_site_type_symbol
_atom_site_label
_atom_site_fract_x
_atom_site_fract_y
_atom_site_fract_z
Si Si1 0.307699 0.719121 0.251493
Si Si2 0.594383 0.021624 0.601020
Si Si3 0.887745 0.749264 0.250790
Si Si4 0.408903 0.669846 0.762697
Si Si5 0.999894 0.992931 0.114987
Si Si6 0.000000 0.632007 0.750000
Si Si7 0.593692 0.973764 0.386725
O O1 0.341730 0.841715 0.341624
O O2 0.210223 0.745339 0.247720
O O3 0.332867 0.484782 0.263240
O O4 0.347727 0.794887 0.152312
O O5 0.500951 0.108641 0.614071
O O6 0.595033 0.787588 0.636234
O O7 0.623660 0.030447 0.492020
O O8 0.919859 0.870378 0.345095
O O9 0.919406 0.514881 0.250574
O O10 0.919607 0.870138 0.155832
O O11 0.500000 0.564776 0.750000
O O12 0.394738 0.827771 0.677535
O O13 0.999883 0.225158 0.155232
O O14 0.000000 0.000000 0.000000
#
# Coordination Sequence:
#
# PCOD8122404 Si02
#       7
#     4   4   4   4   4   2   4
#     4  11  20  33  51  76 109 134 166 214 259 302
#     4   9  19  35  52  72 102 141 182 217 249 292
#     4   9  21  34  52  83 105 130 166 204 259 309
#     4   9  18  32  51  72  98 139 178 211 258 300
#     4   9  19  39  62  76  96 135 171 201 248 310
#     4   8  18  38  54  74 108 130 158 212 250 304
#     4   9  19  35  52  72 102 141 182 217 249 292
#
# _framework density 17.678545
#
# number of rings (size 3 to 8) (size 9 to 14) (size 15 to 20)
#    0.000    3.077    0.000    2.308    0.000    9.846 
#    0.000    7.692    0.000    0.000    0.000    0.000 
#    0.000    0.000    0.000    0.000    0.000    0.000 
#
# Total GULP energy -322302.810540 kJ/mol
# GULP energy per Si atom -12396.261944 kJ/mol
# Density = 1.763831 g / cm^3
# Si number density = 17.678545 Si / 1000 Ang^3
#
#
#
# Elastic Constant Matrix: (Units=GPa)
#
#
# Indices 1 2 3 4 5 6 
#
# 1 133.7431 45.3234 43.2572 0.0000 3.0599 0.0000
# 2 45.3234 95.1942 32.3161 0.0000 1.4781 0.0000
# 3 43.2572 32.3161 127.7155 0.0000 3.5710 0.0000
# 4 0.0000 0.0000 0.0000 10.1132 0.0000 3.5978
# 5 3.0599 1.4781 3.5710 0.0000 16.8295 0.0000
# 6 0.0000 0.0000 0.0000 3.5978 0.0000 -10.1155
#
#
#
# Elastic Compliance Matrix: (Units=1/GPa)
#
#
# Indices 1 2 3 4 5 6 
#
# 1 0.009492 -0.003744 -0.002242 0.000000 -0.000921 0.000000
# 2 -0.003744 0.012971 -0.002013 0.000000 -0.000031 0.000000
# 3 -0.002242 -0.002013 0.009136 0.000000 -0.001354 0.000000
# 4 0.000000 0.000000 0.000000 0.087774 0.000000 0.031219
# 5 -0.000921 -0.000031 -0.001354 0.000000 0.059877 0.000000
# 6 0.000000 0.000000 0.000000 0.031219 0.000000 -0.087755
#
#
# Mechanical properties :
#
#
# Convention : Reuss Voigt Hill
#
# Bulk Modulus (GPa) = 64.09507 66.49400 65.29454
# Shear Modulus (GPa) = 44.36758 19.08252 31.72505
#
# Velocity S-wave (km/s) = 5.01511 3.28901 4.24081
# Velocity P-wave (km/s) = 8.35881 7.21928 7.80985
#
# Compressibility (1/GPa) = 0.01560182
#
# Stress axis : x y z
#
# Youngs Moduli (GPa) = 105.35259 77.09329 109.45128
#
# Poissons Ratio (x) = 0.28863 0.24537
# Poissons Ratio (y) = 0.39443 0.22035
# Poissons Ratio (z) = 0.23618 0.15521
#
# Static dielectric constant tensor:
#      x y z
#    x 3.109370 0.000000 -0.004110 
#    y 0.000000 3.280910 0.000000 
#    z -0.004110 0.000000 3.309170 
# 
# 
# High freq. dielectric constant tensor:
#      x y z
#    x 1.669740 0.000000 0.000870 
#    y 0.000000 1.686330 0.000000 
#    z 0.000870 0.000000 1.682020 
# 
# From -- ./inp_files/54280.got.cif
#   From: 2010.06.25/outbox.cif.g09.slc.cpg/sg13_28_cif.got.tgz:54280.got - 2010.06.28 04:50:58.
