data_PCOD8122437
_publ_section_title
;
Structure prediction by ZEFSAII (Michael W. Deem and Ramdas Pophale) SiO2 
 PCOD8122437
Probable space group: P 2/C
;
_chemical_formula_sum "Si O2"
_cell_formula_units_Z 32
_cell_length_a 12.321462
_cell_length_b 14.386467
_cell_length_c 17.360642
_cell_angle_alpha 90.000000
_cell_angle_beta 29.640211
_cell_angle_gamma 90.000000
_cell_volume 1521.928019
_symmetry_space_group_name_H-M "P 2/C"
_symmetry_group_IT_number 13
_symmetry_cell_setting 'monoclinic'
loop_
_space_group_symop_operation_xyz
x,y,z
-x,y,1/2-z
-x,-y,-z
x,-y,1/2+z
loop_
_atom_site_type_symbol
_atom_site_label
_atom_site_fract_x
_atom_site_fract_y
_atom_site_fract_z
Si Si1 0.450483 0.862162 0.644522
Si Si2 0.766978 0.968253 0.168311
Si Si3 0.820239 0.098367 0.804626
Si Si4 0.878164 0.707622 0.198527
Si Si5 0.485048 0.607429 0.526464
Si Si6 0.095845 0.252012 0.272726
Si Si7 0.739196 0.231318 0.619006
Si Si8 0.630907 0.324570 0.094341
O O1 0.591431 0.902298 0.488621
O O2 0.236023 0.823526 0.733067
O O3 0.582069 0.784334 0.610743
O O4 0.397695 0.943923 0.738880
O O5 0.777922 0.955158 0.252798
O O6 0.704173 0.879645 0.155073
O O7 0.000000 0.000000 0.000000
O O8 0.906989 0.200883 0.731519
O O9 0.000000 0.050370 0.750000
O O10 0.669081 0.653782 0.359748
O O11 0.843817 0.726472 0.130344
O O12 0.109477 0.653793 0.060182
O O13 0.500000 0.500000 0.500000
O O14 0.244800 0.655773 0.663057
O O15 0.540656 0.614321 0.581274
O O16 0.000000 0.215570 0.250000
O O17 0.886119 0.266171 0.457131
O O18 0.500000 0.273570 0.750000
O O19 0.500000 0.358629 0.250000
#
# Coordination Sequence:
#
# PCOD8122437 Si02
#       8
#     4   4   4   4   4   4   4   4
#     4  11  22  41  61  92 128 173 226 274 326 384
#     4  11  25  40  57  92 134 173 227 284 325 375
#     4  11  21  38  64  91 124 172 222 275 332 390
#     4  11  20  43  69  96 129 171 220 266 331 403
#     4  11  24  44  71 103 132 165 212 272 333 403
#     4  11  23  42  67  91 128 175 219 263 333 403
#     4  11  25  43  65  91 134 181 222 268 330 387
#     4  11  23  40  72  99 134 172 220 271 333 396
#
# _framework density 21.025962
#
# number of rings (size 3 to 8) (size 9 to 14) (size 15 to 20)
#    0.000    1.000    5.000    3.000    3.500    3.000 
#    0.000    4.375    0.000    0.000    0.000    0.000 
#    0.000    0.000    0.000    0.000    0.000    0.000 
#
# Total GULP energy -396614.071324 kJ/mol
# GULP energy per Si atom -12394.189729 kJ/mol
# Density = 2.097811 g / cm^3
# Si number density = 21.025962 Si / 1000 Ang^3
#
#
#
# Elastic Constant Matrix: (Units=GPa)
#
#
# Indices 1 2 3 4 5 6 
#
# 1 74.9750 22.1116 41.1495 0.0000 0.9796 0.0000
# 2 22.1116 75.6126 20.4693 0.0000 11.5355 0.0000
# 3 41.1495 20.4693 172.3020 0.0000 12.4081 0.0000
# 4 0.0000 0.0000 0.0000 19.7363 0.0000 7.2903
# 5 0.9796 11.5355 12.4081 0.0000 43.0188 0.0000
# 6 0.0000 0.0000 0.0000 7.2903 0.0000 15.3664
#
#
#
# Elastic Compliance Matrix: (Units=1/GPa)
#
#
# Indices 1 2 3 4 5 6 
#
# 1 0.016494 -0.004124 -0.003576 0.000000 0.001762 0.000000
# 2 -0.004124 0.015160 -0.000541 0.000000 -0.003815 0.000000
# 3 -0.003576 -0.000541 0.006848 0.000000 -0.001749 0.000000
# 4 0.000000 0.000000 0.000000 0.061434 0.000000 -0.029147
# 5 0.001762 -0.003815 -0.001749 0.000000 0.024733 0.000000
# 6 0.000000 0.000000 0.000000 -0.029147 0.000000 0.078905
#
#
# Mechanical properties :
#
#
# Convention : Reuss Voigt Hill
#
# Bulk Modulus (GPa) = 45.41550 54.48340 49.94945
# Shear Modulus (GPa) = 21.98803 31.56825 26.77814
#
# Velocity S-wave (km/s) = 3.23732 3.87899 3.57259
# Velocity P-wave (km/s) = 5.96827 6.78460 6.38948
#
# Compressibility (1/GPa) = 0.02201892
#
# Stress axis : x y z
#
# Youngs Moduli (GPa) = 60.62934 65.96361 146.02758
#
# Poissons Ratio (x) = 0.27203 0.52219
# Poissons Ratio (y) = 0.25003 0.07905
# Poissons Ratio (z) = 0.21681 0.03571
#
# Static dielectric constant tensor:
#      x y z
#    x 3.731210 0.000000 -0.037650 
#    y 0.000000 4.026680 0.000000 
#    z -0.037650 0.000000 4.028870 
# 
# 
# High freq. dielectric constant tensor:
#      x y z
#    x 1.836460 0.000000 0.004620 
#    y 0.000000 1.785060 0.000000 
#    z 0.004620 0.000000 1.850290 
# 
# From -- ./inp_files/66923.got.cif
#   From: 2010.06.25/outbox.cif.g09.slc.cpg/sg13_34_cif.got.tgz:66923.got - 2010.06.28 04:50:58.
