data_PCOD8122738
_publ_section_title
;
Structure prediction by ZEFSAII (Michael W. Deem and Ramdas Pophale) SiO2 
 PCOD8122738
Probable space group: P 2/C
;
_chemical_formula_sum "Si O2"
_cell_formula_units_Z 20
_cell_length_a 5.832415
_cell_length_b 6.836386
_cell_length_c 24.845401
_cell_angle_alpha 90.000000
_cell_angle_beta 65.309170
_cell_angle_gamma 90.000000
_cell_volume 900.081445
_symmetry_space_group_name_H-M "P 2/C"
_symmetry_group_IT_number 13
_symmetry_cell_setting 'monoclinic'
loop_
_space_group_symop_operation_xyz
x,y,z
-x,y,1/2-z
-x,-y,-z
x,-y,1/2+z
loop_
_atom_site_type_symbol
_atom_site_label
_atom_site_fract_x
_atom_site_fract_y
_atom_site_fract_z
Si Si1 0.746314 0.111674 0.503735
Si Si2 0.172006 0.120898 0.184207
Si Si3 0.051317 0.595142 0.604449
Si Si4 0.509539 0.444351 0.186469
Si Si5 0.637398 0.734314 0.382404
O O1 0.846041 0.272092 0.452951
O O2 0.640034 0.220339 0.566959
O O3 0.500000 0.000000 0.500000
O O4 0.000000 0.000000 0.500000
O O5 0.041987 0.289078 0.161949
O O6 0.420263 0.221732 0.185149
O O7 0.000000 0.050174 0.250000
O O8 0.226052 0.940486 0.140082
O O9 0.215499 0.397101 0.588340
O O10 0.764199 0.531144 0.627182
O O11 0.500000 0.494345 0.250000
O O12 0.347458 0.616829 0.175178
#
# Coordination Sequence:
#
# PCOD8122738 Si02
#       5
#     4   4   4   4   4
#     4  12  27  50  78 105 148 194 248 302 370 436
#     4  11  23  43  67 100 143 186 235 299 366 437
#     4  11  25  46  72 100 145 183 243 302 361 432
#     4  11  25  43  67 104 143 187 240 301 364 435
#     4  11  27  43  73 105 138 191 245 298 369 434
#
# _framework density 22.220210999999999
#
# number of rings (size 3 to 8) (size 9 to 14) (size 15 to 20)
#    0.000    0.800    4.000    1.800    8.400    3.200 
#    0.000    0.000    0.000    0.000    0.000    0.000 
#    0.000    0.000    0.000    0.000    0.000    0.000 
#
# Total GULP energy -247782.126361 kJ/mol
# GULP energy per Si atom -12389.106318 kJ/mol
# Density = 2.216964 g / cm^3
# Si number density = 22.220211 Si / 1000 Ang^3
#
#
#
# Elastic Constant Matrix: (Units=GPa)
#
#
# Indices 1 2 3 4 5 6 
#
# 1 112.3226 47.3038 24.6795 0.0000 -11.3151 0.0000
# 2 47.3038 119.1692 39.8515 0.0000 -5.1801 0.0000
# 3 24.6795 39.8515 111.1929 0.0000 -16.5955 0.0000
# 4 0.0000 0.0000 0.0000 37.8999 0.0000 9.6405
# 5 -11.3151 -5.1801 -16.5955 0.0000 41.6933 0.0000
# 6 0.0000 0.0000 0.0000 9.6405 0.0000 21.5230
#
#
#
# Elastic Compliance Matrix: (Units=1/GPa)
#
#
# Indices 1 2 3 4 5 6 
#
# 1 0.010971 -0.004039 -0.000657 0.000000 0.002214 0.000000
# 2 -0.004039 0.011022 -0.003203 0.000000 -0.001002 0.000000
# 3 -0.000657 -0.003203 0.010846 0.000000 0.003741 0.000000
# 4 0.000000 0.000000 0.000000 0.029778 0.000000 -0.013338
# 5 0.002214 -0.001002 0.003741 0.000000 0.025950 0.000000
# 6 0.000000 0.000000 0.000000 -0.013338 0.000000 0.052436
#
#
# Mechanical properties :
#
#
# Convention : Reuss Voigt Hill
#
# Bulk Modulus (GPa) = 58.68466 62.92827 60.80646
# Shear Modulus (GPa) = 30.77245 35.61323 33.19284
#
# Velocity S-wave (km/s) = 3.72544 4.00777 3.86918
# Velocity P-wave (km/s) = 6.70619 7.05677 6.88372
#
# Compressibility (1/GPa) = 0.01704023
#
# Stress axis : x y z
#
# Youngs Moduli (GPa) = 91.14630 90.72382 92.20301
#
# Poissons Ratio (x) = 0.36644 0.06058
# Poissons Ratio (y) = 0.36815 0.29537
# Poissons Ratio (z) = 0.05989 0.29063
#
# Static dielectric constant tensor:
#      x y z
#    x 4.344610 0.000000 0.083940 
#    y 0.000000 4.011380 0.000000 
#    z 0.083940 0.000000 4.038280 
# 
# 
# High freq. dielectric constant tensor:
#      x y z
#    x 1.873990 0.000000 -0.005800 
#    y 0.000000 1.881720 0.000000 
#    z -0.005800 0.000000 1.889750 
# 
# From -- ./inp_files/83014.got.cif
#   From: 2010.06.25/outbox.cif.g09.slc.cpg/sg13_42_cif.got.tgz:83014.got - 2010.06.28 04:50:58.
