data_PCOD8122269
_publ_section_title
;
Structure prediction by ZEFSAII (Michael W. Deem and Ramdas Pophale) SiO2 
 PCOD8122269
Probable space group: P 2/C
;
_chemical_formula_sum "Si O2"
_cell_formula_units_Z 18
_cell_length_a 19.732575
_cell_length_b 5.630868
_cell_length_c 8.886696
_cell_angle_alpha 90.000000
_cell_angle_beta 132.495689
_cell_angle_gamma 90.000000
_cell_volume 728.048410
_symmetry_space_group_name_H-M "P 2/C"
_symmetry_group_IT_number 13
_symmetry_cell_setting 'monoclinic'
loop_
_space_group_symop_operation_xyz
x,y,z
-x,y,1/2-z
-x,-y,-z
x,-y,1/2+z
loop_
_atom_site_type_symbol
_atom_site_label
_atom_site_fract_x
_atom_site_fract_y
_atom_site_fract_z
Si Si1 0.000000 0.000002 0.750000
Si Si2 0.079305 0.688087 0.118958
Si Si3 0.607664 0.298514 0.411496
Si Si4 0.245085 0.667428 0.867628
Si Si5 0.703835 0.000001 0.805753
O O1 0.069295 0.154218 0.752856
O O2 0.930706 0.845785 0.544971
O O3 0.176982 0.557622 0.265471
O O4 0.000000 0.500000 0.000000
O O5 0.500000 0.339506 0.250000
O O6 0.652395 0.560930 0.478591
O O7 0.637780 0.158510 0.308601
O O8 0.637780 0.158514 0.604742
O O9 0.230880 0.831452 0.698915
O O10 0.230879 0.831452 0.993723
#
# Coordination Sequence:
#
# PCOD8122269 Si02
#       5
#     2   4   4   4   4
#     4  10  26  48  74 108 142 178 232 290 344 418
#     4  11  26  47  74 105 143 186 230 284 352 417
#     4  11  24  43  70 103 140 183 232 290 354 418
#     4  11  26  46  71 102 139 186 236 289 350 415
#     4  10  25  45  69 101 140 182 235 289 345 419
#
# _framework density 24.723628999999999
#
# number of rings (size 3 to 8) (size 9 to 14) (size 15 to 20)
#    0.000    1.333    0.000    2.667    0.000   24.889 
#    0.000    6.667    0.000    0.000    0.000    0.000 
#    0.000    0.000    0.000    0.000    0.000    0.000 
#
# Total GULP energy -223310.762490 kJ/mol
# GULP energy per Si atom -12406.153472 kJ/mol
# Density = 2.466736 g / cm^3
# Si number density = 24.723629 Si / 1000 Ang^3
#
#
#
# Elastic Constant Matrix: (Units=GPa)
#
#
# Indices 1 2 3 4 5 6 
#
# 1 126.7617 81.4509 105.5486 0.0000 -12.6461 0.0000
# 2 81.4509 169.1674 86.3310 0.0000 -13.8474 0.0000
# 3 105.5486 86.3310 140.3737 0.0000 -25.9761 0.0000
# 4 0.0000 0.0000 0.0000 -305.8995 0.0000 296.3278
# 5 -12.6461 -13.8474 -25.9761 0.0000 50.6594 0.0000
# 6 0.0000 0.0000 0.0000 296.3278 0.0000 -201.4527
#
#
#
# Elastic Compliance Matrix: (Units=1/GPa)
#
#
# Indices 1 2 3 4 5 6 
#
# 1 0.022678 -0.003171 -0.015704 0.000000 -0.003258 0.000000
# 2 -0.003171 0.009066 -0.003181 0.000000 0.000055 0.000000
# 3 -0.015704 -0.003181 0.022099 0.000000 0.006542 0.000000
# 4 0.000000 0.000000 0.000000 0.007693 0.000000 0.011316
# 5 -0.003258 0.000055 0.006542 0.000000 0.022296 0.000000
# 6 0.000000 0.000000 0.000000 0.011316 0.000000 0.011682
#
#
# Mechanical properties :
#
#
# Convention : Reuss Voigt Hill
#
# Bulk Modulus (GPa) = 102.77718 109.21820 105.99769
# Shear Modulus (GPa) = 34.99710 -80.47375 -22.73832
#
# Velocity S-wave (km/s) = 3.76644 -5.71139 -3.03595
# Velocity P-wave (km/s) = 7.78302 0.88217 5.53867
#
# Compressibility (1/GPa) = 0.00972979
#
# Stress axis : x y z
#
# Youngs Moduli (GPa) = 44.09652 110.30131 45.25143
#
# Poissons Ratio (x) = 0.34980 0.71063
# Poissons Ratio (y) = 0.13984 0.14394
# Poissons Ratio (z) = 0.69250 0.35086
#
# Static dielectric constant tensor:
#      x y z
#    x 5.039590 0.000000 0.148520 
#    y 0.000000 4.650890 0.000000 
#    z 0.148520 0.000000 4.987290 
# 
# 
# High freq. dielectric constant tensor:
#      x y z
#    x 1.987430 0.000000 -0.017240 
#    y 0.000000 2.006230 0.000000 
#    z -0.017240 0.000000 1.993510 
# 
# From -- ./inp_files/17642.got.cif
#   From: 2010.06.25/outbox.cif.g09.slc.cpg/sg13_9_cif.got.tgz:17642.got - 2010.06.28 04:50:58.
