data_PCOD8122179
_publ_section_title
;
Structure prediction by ZEFSAII (Michael W. Deem and Ramdas Pophale) SiO2 
 PCOD8122179
Probable space group: P 2/C
;
_chemical_formula_sum "Si O2"
_cell_formula_units_Z 26
_cell_length_a 9.261573
_cell_length_b 14.117574
_cell_length_c 16.991867
_cell_angle_alpha 90.000000
_cell_angle_beta 147.139382
_cell_angle_gamma 90.000000
_cell_volume 1205.489649
_symmetry_space_group_name_H-M "P 2/C"
_symmetry_group_IT_number 13
_symmetry_cell_setting 'monoclinic'
loop_
_space_group_symop_operation_xyz
x,y,z
-x,y,1/2-z
-x,-y,-z
x,-y,1/2+z
loop_
_atom_site_type_symbol
_atom_site_label
_atom_site_fract_x
_atom_site_fract_y
_atom_site_fract_z
Si Si1 0.000000 0.753418 0.250000
Si Si2 0.953947 0.251574 0.044842
Si Si3 0.223411 0.104167 0.412080
Si Si4 0.665218 0.408669 0.667662
Si Si5 0.500000 0.838269 0.750000
Si Si6 0.085928 0.424649 0.368324
Si Si7 0.500000 0.320172 0.750000
Si Si8 0.297678 0.102123 0.987474
O O1 0.753624 0.687452 0.163672
O O2 0.916551 0.817138 0.134955
O O3 0.792534 0.182093 0.027783
O O4 0.983353 0.357710 0.091038
O O5 0.247534 0.223655 0.155423
O O6 0.761516 0.255001 0.881385
O O7 0.497253 0.108878 0.490694
O O8 0.000000 0.132789 0.250000
O O9 0.164723 0.001455 0.423558
O O10 0.399227 0.451794 0.504511
O O11 0.558848 0.387736 0.704930
O O12 0.913990 0.478949 0.789373
O O13 0.423751 0.893277 0.633831
O O14 0.000000 0.368206 0.250000
#
# Coordination Sequence:
#
# PCOD8122179 Si02
#       8
#     2   4   4   4   2   4   2   4
#     4  12  24  44  68 100 134 182 224 282 330 420
#     4  11  25  43  70  94 143 175 227 273 345 399
#     4  11  22  47  69  97 131 187 224 277 329 418
#     4  11  25  41  71  94 135 170 231 270 346 395
#     4  12  26  40  66 114 132 178 226 290 334 400
#     4  11  24  43  66 100 126 177 222 285 324 406
#     4  10  24  46  60 100 132 188 210 278 348 408
#     4  11  25  42  72  99 138 175 233 278 344 394
#
# _framework density 21.567999
#
# number of rings (size 3 to 8) (size 9 to 14) (size 15 to 20)
#    0.000    0.923    3.077    3.692    2.154    5.538 
#    0.000    0.000    0.000    0.000    0.000    0.000 
#    0.000    0.000    0.000    0.000    0.000    0.000 
#
# Total GULP energy -322151.692589 kJ/mol
# GULP energy per Si atom -12390.449715 kJ/mol
# Density = 2.151891 g / cm^3
# Si number density = 21.567999 Si / 1000 Ang^3
#
#
#
# Elastic Constant Matrix: (Units=GPa)
#
#
# Indices 1 2 3 4 5 6 
#
# 1 92.5842 22.2507 27.5084 0.0000 -0.1510 0.0000
# 2 22.2507 93.9556 32.0064 0.0000 2.6251 0.0000
# 3 27.5084 32.0064 142.7396 0.0000 3.6038 0.0000
# 4 0.0000 0.0000 0.0000 27.9612 0.0000 5.7668
# 5 -0.1510 2.6251 3.6038 0.0000 31.9941 0.0000
# 6 0.0000 0.0000 0.0000 5.7668 0.0000 7.4310
#
#
#
# Elastic Compliance Matrix: (Units=1/GPa)
#
#
# Indices 1 2 3 4 5 6 
#
# 1 0.011868 -0.002209 -0.001803 0.000000 0.000440 0.000000
# 2 -0.002209 0.011948 -0.002235 0.000000 -0.000739 0.000000
# 3 -0.001803 -0.002235 0.007872 0.000000 -0.000712 0.000000
# 4 0.000000 0.000000 0.000000 0.042579 0.000000 -0.033043
# 5 0.000440 -0.000739 -0.000712 0.000000 0.031399 0.000000
# 6 0.000000 0.000000 0.000000 -0.033043 0.000000 0.160214
#
#
# Mechanical properties :
#
#
# Convention : Reuss Voigt Hill
#
# Bulk Modulus (GPa) = 52.09517 54.75670 53.42594
# Shear Modulus (GPa) = 17.55788 29.97818 23.76803
#
# Velocity S-wave (km/s) = 2.85629 3.73223 3.32325
# Velocity P-wave (km/s) = 5.92319 6.63444 6.28888
#
# Compressibility (1/GPa) = 0.01919564
#
# Stress axis : x y z
#
# Youngs Moduli (GPa) = 84.25846 83.69348 127.02702
#
# Poissons Ratio (x) = 0.18486 0.22904
# Poissons Ratio (y) = 0.18610 0.28389
# Poissons Ratio (z) = 0.15192 0.18704
#
# Static dielectric constant tensor:
#      x y z
#    x 3.648950 0.000000 -0.037590 
#    y 0.000000 3.819650 0.000000 
#    z -0.037590 0.000000 4.324940 
# 
# 
# High freq. dielectric constant tensor:
#      x y z
#    x 1.851940 0.000000 0.003080 
#    y 0.000000 1.842630 0.000000 
#    z 0.003080 0.000000 1.869140 
# 
# From -- ./inp_files/47968.got.cif
#   From: 2010.06.25/outbox.cif.g09.slc.cpg/sg13_24_cif.got.tgz:47968.got - 2010.06.28 04:50:58.
