data_PCOD8122376
_publ_section_title
;
Structure prediction by ZEFSAII (Michael W. Deem and Ramdas Pophale) SiO2 
 PCOD8122376
Probable space group: P 2/C
;
_chemical_formula_sum "Si O2"
_cell_formula_units_Z 24
_cell_length_a 16.122482
_cell_length_b 7.470040
_cell_length_c 13.945768
_cell_angle_alpha 90.000000
_cell_angle_beta 138.302491
_cell_angle_gamma 90.000000
_cell_volume 1117.244252
_symmetry_space_group_name_H-M "P 2/C"
_symmetry_group_IT_number 13
_symmetry_cell_setting 'monoclinic'
loop_
_space_group_symop_operation_xyz
x,y,z
-x,y,1/2-z
-x,-y,-z
x,-y,1/2+z
loop_
_atom_site_type_symbol
_atom_site_label
_atom_site_fract_x
_atom_site_fract_y
_atom_site_fract_z
Si Si1 0.464112 0.571228 0.327586
Si Si2 0.736675 0.284179 0.303956
Si Si3 0.407659 0.956600 0.301938
Si Si4 0.858096 0.717460 0.106494
Si Si5 0.737953 0.605450 0.604377
Si Si6 0.325066 0.985299 0.015159
O O1 0.500000 0.625072 0.250000
O O2 0.380428 0.395549 0.255357
O O3 0.390094 0.744042 0.307261
O O4 0.594963 0.535189 0.495182
O O5 0.839876 0.269840 0.475776
O O6 0.795376 0.379459 0.261241
O O7 0.685076 0.090083 0.220287
O O8 0.372729 0.007276 0.163623
O O9 0.553458 0.004683 0.449213
O O10 0.823599 0.521426 0.114506
O O11 0.000000 0.763459 0.250000
O O12 0.773565 0.858533 0.091731
O O13 0.741564 0.794788 0.553974
#
# Coordination Sequence:
#
# PCOD8122376 Si02
#       6
#     4   4   4   4   4   4
#     4  11  18  34  60  91 120 147 177 224 289 352
#     4  11  23  35  60  88 115 151 188 227 284 343
#     4   9  17  33  57  83 116 147 178 221 282 343
#     4  11  24  41  59  78 111 156 197 240 280 320
#     4  11  22  38  59  89 116 146 187 234 284 343
#     4   9  18  35  57  81 112 148 183 227 280 336
#
# _framework density 21.481427
#
# number of rings (size 3 to 8) (size 9 to 14) (size 15 to 20)
#    0.000    1.667    5.000    1.500    2.333    5.333 
#    0.000    0.833    0.000    0.000    0.000    0.000 
#    0.000    0.000    0.000    0.000    0.000    0.000 
#
# Total GULP energy -297561.231854 kJ/mol
# GULP energy per Si atom -12398.384661 kJ/mol
# Density = 2.143253 g / cm^3
# Si number density = 21.481427 Si / 1000 Ang^3
#
#
#
# Elastic Constant Matrix: (Units=GPa)
#
#
# Indices 1 2 3 4 5 6 
#
# 1 25.7697 14.3092 21.8885 0.0000 4.3034 0.0000
# 2 14.3092 106.5571 33.9341 0.0000 11.2440 0.0000
# 3 21.8885 33.9341 121.4101 0.0000 3.9990 0.0000
# 4 0.0000 0.0000 0.0000 21.5542 0.0000 1.7761
# 5 4.3034 11.2440 3.9990 0.0000 19.8667 0.0000
# 6 0.0000 0.0000 0.0000 1.7761 0.0000 13.1078
#
#
#
# Elastic Compliance Matrix: (Units=1/GPa)
#
#
# Indices 1 2 3 4 5 6 
#
# 1 0.048230 -0.003335 -0.007531 0.000000 -0.007044 0.000000
# 2 -0.003335 0.011115 -0.002337 0.000000 -0.005098 0.000000
# 3 -0.007531 -0.002337 0.010218 0.000000 0.000897 0.000000
# 4 0.000000 0.000000 0.000000 0.046918 0.000000 -0.006357
# 5 -0.007044 -0.005098 0.000897 0.000000 0.054566 0.000000
# 6 0.000000 0.000000 0.000000 -0.006357 0.000000 0.077152
#
#
# Mechanical properties :
#
#
# Convention : Reuss Voigt Hill
#
# Bulk Modulus (GPa) = 23.17176 43.77782 33.47479
# Shear Modulus (GPa) = 17.30155 23.14609 20.22382
#
# Velocity S-wave (km/s) = 2.84107 3.28608 3.07164
# Velocity P-wave (km/s) = 4.64462 5.90096 5.31008
#
# Compressibility (1/GPa) = 0.04315598
#
# Stress axis : x y z
#
# Youngs Moduli (GPa) = 20.73391 89.97031 97.86621
#
# Poissons Ratio (x) = 0.30005 0.73704
# Poissons Ratio (y) = 0.06915 0.22875
# Poissons Ratio (z) = 0.15615 0.21030
#
# Static dielectric constant tensor:
#      x y z
#    x 3.559030 0.000000 -0.269960 
#    y 0.000000 3.998850 0.000000 
#    z -0.269960 0.000000 3.823080 
# 
# 
# High freq. dielectric constant tensor:
#      x y z
#    x 1.805480 0.000000 -0.035950 
#    y 0.000000 1.857860 0.000000 
#    z -0.035950 0.000000 1.830040 
# 
# From -- ./inp_files/70422.got.cif
#   From: 2010.06.25/outbox.cif.g09.slc.cpg/sg13_36_cif.got.tgz:70422.got - 2010.06.28 04:50:58.
