data_PCOD8122521
_publ_section_title
;
Structure prediction by ZEFSAII (Michael W. Deem and Ramdas Pophale) SiO2 
 PCOD8122521
Probable space group: P 2/C
;
_chemical_formula_sum "Si O2"
_cell_formula_units_Z 28
_cell_length_a 8.910984
_cell_length_b 8.863645
_cell_length_c 16.115980
_cell_angle_alpha 90.000000
_cell_angle_beta 93.789445
_cell_angle_gamma 90.000000
_cell_volume 1270.118327
_symmetry_space_group_name_H-M "P 2/C"
_symmetry_group_IT_number 13
_symmetry_cell_setting 'monoclinic'
loop_
_space_group_symop_operation_xyz
x,y,z
-x,y,1/2-z
-x,-y,-z
x,-y,1/2+z
loop_
_atom_site_type_symbol
_atom_site_label
_atom_site_fract_x
_atom_site_fract_y
_atom_site_fract_z
Si Si1 0.957285 0.164209 0.399974
Si Si2 0.264719 0.976064 0.892622
Si Si3 0.742709 0.715357 0.020654
Si Si4 0.000000 0.388827 0.250000
Si Si5 0.498124 0.258153 0.121273
Si Si6 0.708391 0.528084 0.172054
Si Si7 0.500000 0.232863 0.750000
Si Si8 0.302191 0.025282 0.200517
O O1 0.898571 0.251416 0.479039
O O2 0.839196 0.034619 0.366641
O O3 0.110705 0.080558 0.429026
O O4 0.982525 0.286286 0.329591
O O5 0.396097 0.861158 0.922358
O O6 0.243880 0.978426 0.792489
O O7 0.307191 0.139062 0.928468
O O8 0.765434 0.572591 0.082076
O O9 0.613515 0.670663 0.950526
O O10 0.147528 0.493147 0.265397
O O11 0.597362 0.386893 0.167002
O O12 0.402679 0.174778 0.189650
O O13 0.618064 0.669090 0.204248
O O14 0.595591 0.122386 0.815039
#
# Coordination Sequence:
#
# PCOD8122521 Si02
#       8
#     4   4   4   2   4   4   2   4
#     4  11  24  43  75 100 134 190 236 282 348 418
#     4  12  20  43  68 102 137 176 239 289 333 416
#     4  11  26  43  65 105 145 180 228 291 357 403
#     4  12  26  46  72 102 134 194 234 282 344 430
#     4  11  23  42  73  97 140 188 231 282 347 427
#     4  12  27  46  67 104 145 181 232 289 353 421
#     4  12  26  40  70 104 140 176 230 298 342 398
#     4  11  21  42  70 102 135 177 239 292 334 406
#
# _framework density 22.045190999999999
#
# number of rings (size 3 to 8) (size 9 to 14) (size 15 to 20)
#    0.000    0.571    5.714    1.286    6.000    2.857 
#    0.000    0.000    0.000    0.000    0.000    0.000 
#    0.000    0.000    0.000    0.000    0.000    0.000 
#
# Total GULP energy -347272.843549 kJ/mol
# GULP energy per Si atom -12402.601555 kJ/mol
# Density = 2.199501 g / cm^3
# Si number density = 22.045191 Si / 1000 Ang^3
#
#
#
# Elastic Constant Matrix: (Units=GPa)
#
#
# Indices 1 2 3 4 5 6 
#
# 1 105.3445 19.4282 8.5892 0.0000 -0.9201 0.0000
# 2 19.4282 90.0560 18.0641 0.0000 -8.6789 0.0000
# 3 8.5892 18.0641 58.4048 0.0000 -7.4949 0.0000
# 4 0.0000 0.0000 0.0000 23.9409 0.0000 -6.8038
# 5 -0.9201 -8.6789 -7.4949 0.0000 28.0228 0.0000
# 6 0.0000 0.0000 0.0000 -6.8038 0.0000 37.2446
#
#
#
# Elastic Compliance Matrix: (Units=1/GPa)
#
#
# Indices 1 2 3 4 5 6 
#
# 1 0.009933 -0.002013 -0.000908 0.000000 -0.000540 0.000000
# 2 -0.002013 0.012460 -0.003180 0.000000 0.002942 0.000000
# 3 -0.000908 -0.003180 0.018752 0.000000 0.004001 0.000000
# 4 0.000000 0.000000 0.000000 0.044057 0.000000 0.008048
# 5 -0.000540 0.002942 0.004001 0.000000 0.037649 0.000000
# 6 0.000000 0.000000 0.000000 0.008048 0.000000 0.028320
#
#
# Mechanical properties :
#
#
# Convention : Reuss Voigt Hill
#
# Bulk Modulus (GPa) = 34.54919 38.44092 36.49506
# Shear Modulus (GPa) = 28.89840 31.68992 30.29416
#
# Velocity S-wave (km/s) = 3.62452 3.79555 3.71102
# Velocity P-wave (km/s) = 5.76387 6.05669 5.91209
#
# Compressibility (1/GPa) = 0.02894424
#
# Stress axis : x y z
#
# Youngs Moduli (GPa) = 100.67273 80.25747 53.32674
#
# Poissons Ratio (x) = 0.16155 0.04840
# Poissons Ratio (y) = 0.20265 0.16959
# Poissons Ratio (z) = 0.09136 0.25523
#
# Static dielectric constant tensor:
#      x y z
#    x 4.350530 0.000000 -0.035590 
#    y 0.000000 3.976610 0.000000 
#    z -0.035590 0.000000 3.968920 
# 
# 
# High freq. dielectric constant tensor:
#      x y z
#    x 1.882000 0.000000 -0.010680 
#    y 0.000000 1.861740 0.000000 
#    z -0.010680 0.000000 1.861320 
# 
# From -- ./inp_files/63844.got.cif
#   From: 2010.06.25/outbox.cif.g09.slc.cpg/sg13_32_cif.got.tgz:63844.got - 2010.06.28 04:50:58.
