data_PCOD8122183
_publ_section_title
;
Structure prediction by ZEFSAII (Michael W. Deem and Ramdas Pophale) SiO2 
 PCOD8122183
Probable space group: P 2/C
;
_chemical_formula_sum "Si O2"
_cell_formula_units_Z 26
_cell_length_a 13.746937
_cell_length_b 8.791586
_cell_length_c 9.895785
_cell_angle_alpha 90.000000
_cell_angle_beta 113.483237
_cell_angle_gamma 90.000000
_cell_volume 1096.923736
_symmetry_space_group_name_H-M "P 2/C"
_symmetry_group_IT_number 13
_symmetry_cell_setting 'monoclinic'
loop_
_space_group_symop_operation_xyz
x,y,z
-x,y,1/2-z
-x,-y,-z
x,-y,1/2+z
loop_
_atom_site_type_symbol
_atom_site_label
_atom_site_fract_x
_atom_site_fract_y
_atom_site_fract_z
Si Si1 0.403334 0.988553 0.044970
Si Si2 0.086127 0.081225 0.136373
Si Si3 0.500000 0.273990 0.750000
Si Si4 0.350554 0.481153 0.276743
Si Si5 0.812215 0.105082 0.581847
Si Si6 0.205697 0.543939 0.437669
Si Si7 0.500000 0.243800 0.250000
Si Si8 0.000000 0.645349 0.750000
O O1 0.408218 0.138497 0.139995
O O2 0.413314 0.829533 0.126699
O O3 0.288276 0.008558 0.916378
O O4 0.500000 0.000000 0.000000
O O5 0.050664 0.251238 0.159377
O O6 0.099637 0.980348 0.279331
O O7 0.181337 0.090233 0.078500
O O8 0.000000 0.000000 0.000000
O O9 0.574775 0.370594 0.692203
O O10 0.293577 0.471337 0.388459
O O11 0.434991 0.343868 0.321319
O O12 0.257549 0.472081 0.113667
O O13 0.812256 0.282588 0.619323
O O14 0.092920 0.457321 0.367616
#
# Coordination Sequence:
#
# PCOD8122183 Si02
#       8
#     4   4   2   4   4   4   2   2
#     4  11  25  43  71 109 148 195 248 300 356 441
#     4  12  28  53  76 108 145 193 249 310 377 439
#     4  10  26  40  74 108 146 200 242 296 356 446
#     4  11  26  48  73 105 150 194 240 298 372 437
#     4  12  28  49  79 109 150 197 245 309 372 444
#     4  12  29  48  76 108 148 192 249 308 377 441
#     4  10  24  46  66 106 148 192 240 298 362 440
#     4  12  30  48  80 110 142 192 252 316 372 450
#
# _framework density 23.702649999999998
#
# number of rings (size 3 to 8) (size 9 to 14) (size 15 to 20)
#    0.000    0.615    3.077    1.846   15.077    2.462 
#    0.000    0.000    0.000    0.000    0.000    0.000 
#    0.000    0.000    0.000    0.000    0.000    0.000 
#
# Total GULP energy -322240.284292 kJ/mol
# GULP energy per Si atom -12393.857088 kJ/mol
# Density = 2.364870 g / cm^3
# Si number density = 23.702650 Si / 1000 Ang^3
#
#
#
# Elastic Constant Matrix: (Units=GPa)
#
#
# Indices 1 2 3 4 5 6 
#
# 1 113.1343 26.6588 12.4812 0.0000 -1.0388 0.0000
# 2 26.6588 133.8561 24.0177 0.0000 15.6790 0.0000
# 3 12.4812 24.0177 82.0486 0.0000 6.9514 0.0000
# 4 0.0000 0.0000 0.0000 4.7638 0.0000 -7.4330
# 5 -1.0388 15.6790 6.9514 0.0000 49.8006 0.0000
# 6 0.0000 0.0000 0.0000 -7.4330 0.0000 23.8892
#
#
#
# Elastic Compliance Matrix: (Units=1/GPa)
#
#
# Indices 1 2 3 4 5 6 
#
# 1 0.009379 -0.001798 -0.000976 0.000000 0.000898 0.000000
# 2 -0.001798 0.008472 -0.002001 0.000000 -0.002425 0.000000
# 3 -0.000976 -0.002001 0.013025 0.000000 -0.001208 0.000000
# 4 0.000000 0.000000 0.000000 0.407990 0.000000 0.126944
# 5 0.000898 -0.002425 -0.001208 0.000000 0.021031 0.000000
# 6 0.000000 0.000000 0.000000 0.126944 0.000000 0.081358
#
#
# Mechanical properties :
#
#
# Convention : Reuss Voigt Hill
#
# Bulk Modulus (GPa) = 46.89430 50.59495 48.74463
# Shear Modulus (GPa) = 8.96198 33.41615 21.18906
#
# Velocity S-wave (km/s) = 1.94659 3.75881 2.99315
# Velocity P-wave (km/s) = 4.98795 6.34273 5.70569
#
# Compressibility (1/GPa) = 0.02132455
#
# Stress axis : x y z
#
# Youngs Moduli (GPa) = 106.62501 118.03732 76.77809
#
# Poissons Ratio (x) = 0.21221 0.07497
# Poissons Ratio (y) = 0.19169 0.15363
# Poissons Ratio (z) = 0.10412 0.23619
#
# Static dielectric constant tensor:
#      x y z
#    x 4.647700 0.000000 0.224990 
#    y 0.000000 4.002580 0.000000 
#    z 0.224990 0.000000 3.128040 
# 
# 
# High freq. dielectric constant tensor:
#      x y z
#    x 1.956340 0.000000 0.007380 
#    y 0.000000 1.954790 0.000000 
#    z 0.007380 0.000000 1.933970 
# 
# From -- ./inp_files/36312.got.cif
#   From: 2010.06.25/outbox.cif.g09.slc.cpg/sg13_19_cif.got.tgz:36312.got - 2010.06.28 04:50:58.
