data_PCOD8122519
_publ_section_title
;
Structure prediction by ZEFSAII (Michael W. Deem and Ramdas Pophale) SiO2 
 PCOD8122519
Probable space group: P 2/C
;
_chemical_formula_sum "Si O2"
_cell_formula_units_Z 28
_cell_length_a 23.107938
_cell_length_b 11.018331
_cell_length_c 28.169015
_cell_angle_alpha 90.000000
_cell_angle_beta 169.199790
_cell_angle_gamma 90.000000
_cell_volume 1343.950568
_symmetry_space_group_name_H-M "P 2/C"
_symmetry_group_IT_number 13
_symmetry_cell_setting 'monoclinic'
loop_
_space_group_symop_operation_xyz
x,y,z
-x,y,1/2-z
-x,-y,-z
x,-y,1/2+z
loop_
_atom_site_type_symbol
_atom_site_label
_atom_site_fract_x
_atom_site_fract_y
_atom_site_fract_z
Si Si1 0.823923 0.995203 0.405617
Si Si2 0.841172 0.719847 0.422599
Si Si3 0.338240 0.379136 0.388266
Si Si4 0.872194 0.793406 0.290800
Si Si5 0.749621 0.346753 0.337551
Si Si6 0.318018 0.429249 0.480012
Si Si7 0.729828 0.149092 0.568641
O O1 0.851500 0.859297 0.447582
O O2 0.000000 0.000000 0.500000
O O3 0.004585 0.084743 0.585856
O O4 0.477296 0.032443 0.111298
O O5 0.473506 0.690953 0.127360
O O6 0.019645 0.637829 0.604136
O O7 0.981388 0.689802 0.483175
O O8 0.500000 0.500000 0.500000
O O9 0.540980 0.257100 0.542037
O O10 0.241640 0.402811 0.364206
O O11 0.860598 0.835044 0.227073
O O12 0.115552 0.685281 0.501079
O O13 0.615039 0.481212 0.225066
O O14 0.449184 0.271242 0.084559
O O15 0.000000 0.467801 0.250000
O O16 0.000000 0.139962 0.750000
#
# Coordination Sequence:
#
# PCOD8122519 Si02
#       7
#     4   4   4   4   4   4   4
#     4  11  22  41  63  96 132 172 226 275 324 411
#     4  12  23  42  68  97 131 171 229 271 321 409
#     4  12  22  40  70  97 126 176 227 272 334 404
#     4  11  22  40  70  98 128 180 221 275 337 401
#     4  11  21  42  68  98 128 167 228 278 325 406
#     4  12  26  43  65  98 139 173 213 283 348 393
#     4  11  24  42  65 101 136 169 222 285 340 387
#
# _framework density 20.834099999999999
#
# number of rings (size 3 to 8) (size 9 to 14) (size 15 to 20)
#    0.000    0.571    7.143    1.714    0.000    6.857 
#    0.000    2.857    0.000    0.000    0.000    0.000 
#    0.000    0.000    0.000    0.000    0.000    0.000 
#
# Total GULP energy -346866.181513 kJ/mol
# GULP energy per Si atom -12388.077911 kJ/mol
# Density = 2.078668 g / cm^3
# Si number density = 20.834100 Si / 1000 Ang^3
#
#
#
# Elastic Constant Matrix: (Units=GPa)
#
#
# Indices 1 2 3 4 5 6 
#
# 1 141.3646 29.8028 67.0486 0.0000 -14.2207 0.0000
# 2 29.8028 93.7060 22.6195 0.0000 -7.8891 0.0000
# 3 67.0486 22.6195 132.1704 0.0000 5.0094 0.0000
# 4 0.0000 0.0000 0.0000 41.1921 0.0000 0.6025
# 5 -14.2207 -7.8891 5.0094 0.0000 51.3136 0.0000
# 6 0.0000 0.0000 0.0000 0.6025 0.0000 16.8414
#
#
#
# Elastic Compliance Matrix: (Units=1/GPa)
#
#
# Indices 1 2 3 4 5 6 
#
# 1 0.010086 -0.001765 -0.004928 0.000000 0.003005 0.000000
# 2 -0.001765 0.011629 -0.001148 0.000000 0.001411 0.000000
# 3 -0.004928 -0.001148 0.010359 0.000000 -0.002554 0.000000
# 4 0.000000 0.000000 0.000000 0.024289 0.000000 -0.000869
# 5 0.003005 0.001411 -0.002554 0.000000 0.020787 0.000000
# 6 0.000000 0.000000 0.000000 -0.000869 0.000000 0.059408
#
#
# Mechanical properties :
#
#
# Convention : Reuss Voigt Hill
#
# Bulk Modulus (GPa) = 61.00925 67.35366 64.18145
# Shear Modulus (GPa) = 31.70469 38.38744 35.04606
#
# Velocity S-wave (km/s) = 3.90522 4.29713 4.10585
# Velocity P-wave (km/s) = 7.04849 7.55110 7.30412
#
# Compressibility (1/GPa) = 0.01639096
#
# Stress axis : x y z
#
# Youngs Moduli (GPa) = 99.15004 85.99189 96.53170
#
# Poissons Ratio (x) = 0.15179 0.47573
# Poissons Ratio (y) = 0.17501 0.11084
# Poissons Ratio (z) = 0.48863 0.09874
#
# Static dielectric constant tensor:
#      x y z
#    x 3.664190 0.000000 -0.238350 
#    y 0.000000 3.689360 0.000000 
#    z -0.238350 0.000000 3.880260 
# 
# 
# High freq. dielectric constant tensor:
#      x y z
#    x 1.802440 0.000000 -0.026780 
#    y 0.000000 1.826260 0.000000 
#    z -0.026780 0.000000 1.826230 
# 
# From -- ./inp_files/97725.got.cif
#   From: 2010.06.25/outbox.cif.g09.slc.cpg/sg13_49_cif.got.tgz:97725.got - 2010.06.28 04:50:58.
