data_PCOD8122176
_publ_section_title
;
Structure prediction by ZEFSAII (Michael W. Deem and Ramdas Pophale) SiO2 
 PCOD8122176
Probable space group: P 2/C
;
_chemical_formula_sum "Si O2"
_cell_formula_units_Z 16
_cell_length_a 5.145361
_cell_length_b 4.941782
_cell_length_c 26.643965
_cell_angle_alpha 90.000000
_cell_angle_beta 110.342471
_cell_angle_gamma 90.000000
_cell_volume 635.229240
_symmetry_space_group_name_H-M "P 2/C"
_symmetry_group_IT_number 13
_symmetry_cell_setting 'monoclinic'
loop_
_space_group_symop_operation_xyz
x,y,z
-x,y,1/2-z
-x,-y,-z
x,-y,1/2+z
loop_
_atom_site_type_symbol
_atom_site_label
_atom_site_fract_x
_atom_site_fract_y
_atom_site_fract_z
Si Si1 0.963460 0.039372 0.109192
Si Si2 0.583663 0.684237 0.810244
Si Si3 0.913097 0.670430 0.190144
Si Si4 0.185180 0.538458 0.464000
O O1 0.289668 0.075793 0.146406
O O2 0.860076 0.333193 0.084986
O O3 0.811409 0.924422 0.149306
O O4 0.901692 0.836955 0.059573
O O5 0.500000 0.804152 0.750000
O O6 0.821818 0.460384 0.818811
O O7 0.325533 0.553216 0.821482
O O8 0.000000 0.789152 0.250000
O O9 0.500000 0.500000 0.500000
O O10 0.000000 0.500000 0.500000
#
# Coordination Sequence:
#
# PCOD8122176 Si02
#       4
#     4   4   4   4
#     4  12  26  52  80 108 152 202 246 312 390 440
#     4  10  24  45  74 114 156 196 245 300 375 472
#     4  10  24  45  74 114 156 196 245 300 375 472
#     4  12  30  52  76 108 144 196 264 324 370 436
#
# _framework density 25.187756
#
# number of rings (size 3 to 8) (size 9 to 14) (size 15 to 20)
#    0.000    1.000    2.500    1.500    3.500   12.000 
#    0.000    0.000    0.000    0.000    0.000    0.000 
#    0.000    0.000    0.000    0.000    0.000    0.000 
#
# Total GULP energy -198333.731601 kJ/mol
# GULP energy per Si atom -12395.858225 kJ/mol
# Density = 2.513043 g / cm^3
# Si number density = 25.187756 Si / 1000 Ang^3
#
#
#
# Elastic Constant Matrix: (Units=GPa)
#
#
# Indices 1 2 3 4 5 6 
#
# 1 97.7244 7.4626 32.7427 0.0000 16.7383 0.0000
# 2 7.4626 84.3337 30.5757 0.0000 17.6059 0.0000
# 3 32.7427 30.5757 159.9125 0.0000 23.5708 0.0000
# 4 0.0000 0.0000 0.0000 -31.9532 0.0000 -4.1363
# 5 16.7383 17.6059 23.5708 0.0000 37.2320 0.0000
# 6 0.0000 0.0000 0.0000 -4.1363 0.0000 24.7477
#
#
#
# Elastic Compliance Matrix: (Units=1/GPa)
#
#
# Indices 1 2 3 4 5 6 
#
# 1 0.011540 0.000538 -0.001835 0.000000 -0.004281 0.000000
# 2 0.000538 0.013648 -0.001911 0.000000 -0.005486 0.000000
# 3 -0.001835 -0.001911 0.007433 0.000000 -0.002977 0.000000
# 4 0.000000 0.000000 0.000000 -0.030633 0.000000 -0.005120
# 5 -0.004281 -0.005486 -0.002977 0.000000 0.033262 0.000000
# 6 0.000000 0.000000 0.000000 -0.005120 0.000000 0.039552
#
#
# Mechanical properties :
#
#
# Convention : Reuss Voigt Hill
#
# Bulk Modulus (GPa) = 38.16057 53.72587 45.94322
# Shear Modulus (GPa) = 55.58436 24.08460 39.83448
#
# Velocity S-wave (km/s) = 4.70276 3.09561 3.98112
# Velocity P-wave (km/s) = 6.68365 5.84410 6.27793
#
# Compressibility (1/GPa) = 0.02620506
#
# Stress axis : x y z
#
# Youngs Moduli (GPa) = 86.65749 73.26995 134.52909
#
# Poissons Ratio (x) = -0.03939 0.24681
# Poissons Ratio (y) = -0.04659 0.25710
# Poissons Ratio (z) = 0.15899 0.14003
#
# Static dielectric constant tensor:
#      x y z
#    x 4.242960 0.000000 0.267720 
#    y 0.000000 4.551270 0.000000 
#    z 0.267720 0.000000 5.288150 
# 
# 
# High freq. dielectric constant tensor:
#      x y z
#    x 1.998160 0.000000 0.004570 
#    y 0.000000 2.009190 0.000000 
#    z 0.004570 0.000000 2.029950 
# 
# From -- ./inp_files/89837.got.cif
#   From: 2010.06.25/outbox.cif.g09.slc.cpg/sg13_45_cif.got.tgz:89837.got - 2010.06.28 04:50:58.
