data_PCOD8122266
_publ_section_title
;
Structure prediction by ZEFSAII (Michael W. Deem and Ramdas Pophale) SiO2 
 PCOD8122266
Probable space group: P 2/C
;
_chemical_formula_sum "Si O2"
_cell_formula_units_Z 30
_cell_length_a 7.868796
_cell_length_b 14.947173
_cell_length_c 12.430888
_cell_angle_alpha 90.000000
_cell_angle_beta 106.402384
_cell_angle_gamma 90.000000
_cell_volume 1402.571317
_symmetry_space_group_name_H-M "P 2/C"
_symmetry_group_IT_number 13
_symmetry_cell_setting 'monoclinic'
loop_
_space_group_symop_operation_xyz
x,y,z
-x,y,1/2-z
-x,-y,-z
x,-y,1/2+z
loop_
_atom_site_type_symbol
_atom_site_label
_atom_site_fract_x
_atom_site_fract_y
_atom_site_fract_z
Si Si1 0.828666 0.053701 0.654972
Si Si2 0.307770 0.124669 0.453609
Si Si3 0.000000 0.529625 0.250000
Si Si4 0.791910 0.343857 0.554515
Si Si5 0.804215 0.760914 0.752352
Si Si6 0.691571 0.420782 0.314820
Si Si7 0.058012 0.170546 0.015884
Si Si8 0.590022 0.796827 0.155164
O O1 0.867819 0.093701 0.545555
O O2 0.750220 0.135194 0.713506
O O3 0.000000 0.017266 0.750000
O O4 0.698365 0.971529 0.606038
O O5 0.314962 0.196809 0.360810
O O6 0.477356 0.137888 0.558125
O O7 0.143060 0.145212 0.500261
O O8 0.899104 0.591022 0.148844
O O9 0.857079 0.473827 0.293501
O O10 0.708548 0.407371 0.446942
O O11 0.928081 0.270693 0.530590
O O12 0.643882 0.292208 0.599373
O O13 0.689191 0.676534 0.763160
O O14 0.000000 0.730998 0.750000
O O15 0.827148 0.831388 0.854087
O O16 0.500000 0.465370 0.250000
O O17 0.500000 0.765416 0.250000
#
# Coordination Sequence:
#
# PCOD8122266 Si02
#       8
#     4   4   2   4   4   4   4   4
#     4  11  22  38  59  90 133 171 222 270 324 382
#     4  11  21  37  62  95 123 171 222 272 321 383
#     4  12  26  44  72 100 138 172 226 276 348 418
#     4  10  25  45  67  98 132 176 221 272 342 413
#     4   9  18  37  62  90 125 168 219 265 333 396
#     4  11  23  45  69 101 135 173 220 287 342 406
#     4   9  20  36  63  89 127 176 213 265 323 396
#     4  11  25  41  63  93 132 177 221 276 330 394
#
# _framework density 21.389288000000001
#
# number of rings (size 3 to 8) (size 9 to 14) (size 15 to 20)
#    0.000    1.600    0.667    4.000    5.600    2.133 
#    0.000    2.000    0.000    0.000    0.000    0.000 
#    0.000    0.000    0.000    0.000    0.000    0.000 
#
# Total GULP energy -371887.495469 kJ/mol
# GULP energy per Si atom -12396.249849 kJ/mol
# Density = 2.134061 g / cm^3
# Si number density = 21.389288 Si / 1000 Ang^3
#
#
#
# Elastic Constant Matrix: (Units=GPa)
#
#
# Indices 1 2 3 4 5 6 
#
# 1 92.2861 43.9816 47.6769 0.0000 -11.1958 0.0000
# 2 43.9816 38.7123 16.0331 0.0000 10.6612 0.0000
# 3 47.6769 16.0331 97.7787 0.0000 3.1382 0.0000
# 4 0.0000 0.0000 0.0000 24.7352 0.0000 7.7102
# 5 -11.1958 10.6612 3.1382 0.0000 35.7705 0.0000
# 6 0.0000 0.0000 0.0000 7.7102 0.0000 19.8987
#
#
#
# Elastic Compliance Matrix: (Units=1/GPa)
#
#
# Indices 1 2 3 4 5 6 
#
# 1 0.059450 -0.071246 -0.018637 0.000000 0.041477 0.000000
# 2 -0.071246 0.115506 0.017670 0.000000 -0.058275 0.000000
# 3 -0.018637 0.017670 0.016821 0.000000 -0.012575 0.000000
# 4 0.000000 0.000000 0.000000 0.045982 0.000000 -0.017817
# 5 0.041477 -0.058275 -0.012575 0.000000 0.059410 0.000000
# 6 0.000000 0.000000 0.000000 -0.017817 0.000000 0.057158
#
#
# Mechanical properties :
#
#
# Convention : Reuss Voigt Hill
#
# Bulk Modulus (GPa) = 21.11876 49.35115 35.23495
# Shear Modulus (GPa) = 9.71749 24.15324 16.93536
#
# Velocity S-wave (km/s) = 2.13378 3.36403 2.81689
# Velocity P-wave (km/s) = 3.99570 6.18158 5.20469
#
# Compressibility (1/GPa) = 0.04735127
#
# Stress axis : x y z
#
# Youngs Moduli (GPa) = 16.82079 8.65755 59.45101
#
# Poissons Ratio (x) = 0.61682 1.10797
# Poissons Ratio (y) = 1.19842 -1.05050
# Poissons Ratio (z) = 0.31348 -0.15298
#
# Static dielectric constant tensor:
#      x y z
#    x 4.113480 0.000000 -0.083020 
#    y 0.000000 3.751620 0.000000 
#    z -0.083020 0.000000 3.901950 
# 
# 
# High freq. dielectric constant tensor:
#      x y z
#    x 1.836220 0.000000 -0.005680 
#    y 0.000000 1.833640 0.000000 
#    z -0.005680 0.000000 1.853910 
# 
# From -- ./inp_files/30452.got.cif
#   From: 2010.06.25/outbox.cif.g09.slc.cpg/sg13_16_cif.got.tgz:30452.got - 2010.06.28 04:50:58.
