data_PCOD8122255
_publ_section_title
;
Structure prediction by ZEFSAII (Michael W. Deem and Ramdas Pophale) SiO2 
 PCOD8122255
Probable space group: P 2/C
;
_chemical_formula_sum "Si O2"
_cell_formula_units_Z 26
_cell_length_a 9.448072
_cell_length_b 10.860733
_cell_length_c 17.169640
_cell_angle_alpha 90.000000
_cell_angle_beta 133.645978
_cell_angle_gamma 90.000000
_cell_volume 1274.890899
_symmetry_space_group_name_H-M "P 2/C"
_symmetry_group_IT_number 13
_symmetry_cell_setting 'monoclinic'
loop_
_space_group_symop_operation_xyz
x,y,z
-x,y,1/2-z
-x,-y,-z
x,-y,1/2+z
loop_
_atom_site_type_symbol
_atom_site_label
_atom_site_fract_x
_atom_site_fract_y
_atom_site_fract_z
Si Si1 0.276858 0.073816 0.478196
Si Si2 0.621345 0.135983 0.719910
Si Si3 0.951530 0.687473 0.315386
Si Si4 0.000000 0.548724 0.750000
Si Si5 0.290489 0.245458 0.339587
Si Si6 0.151359 0.104716 0.145561
Si Si7 0.715291 0.811948 0.971055
O O1 0.471498 0.125961 0.591700
O O2 0.251214 0.134475 0.384462
O O3 0.081841 0.093365 0.457606
O O4 0.300108 0.927184 0.475603
O O5 0.500000 0.151852 0.750000
O O6 0.738766 0.263256 0.756431
O O7 0.764368 0.018712 0.782276
O O8 0.959471 0.538572 0.310050
O O9 0.000000 0.749203 0.250000
O O10 0.104016 0.725300 0.439983
O O11 0.193616 0.630878 0.837484
O O12 0.183173 0.215696 0.217837
O O13 0.518561 0.267342 0.407580
O O14 0.265103 0.134384 0.108903
#
# Coordination Sequence:
#
# PCOD8122255 Si02
#       7
#     4   4   4   2   4   4   4
#     4  12  23  37  69 104 131 177 208 261 348 411
#     4  12  22  40  65 102 142 167 205 271 345 404
#     4  10  25  44  67  90 132 174 228 279 311 378
#     4  10  26  50  64  88 130 184 232 286 302 362
#     4  12  24  43  67  94 134 176 229 265 323 390
#     4  12  23  41  65 104 149 165 199 278 343 413
#     4  12  23  40  68 107 132 170 210 273 349 405
#
# _framework density 20.393901
#
# number of rings (size 3 to 8) (size 9 to 14) (size 15 to 20)
#    0.462    0.000    6.154    3.231    2.154    0.615 
#    0.000    2.308    0.000    0.000    0.000    0.000 
#    0.000    0.000    0.000    0.000    0.000    0.000 
#
# Total GULP energy -322402.395660 kJ/mol
# GULP energy per Si atom -12400.092141 kJ/mol
# Density = 2.034748 g / cm^3
# Si number density = 20.393901 Si / 1000 Ang^3
#
#
#
# Elastic Constant Matrix: (Units=GPa)
#
#
# Indices 1 2 3 4 5 6 
#
# 1 84.1794 35.6314 36.8744 0.0000 26.8528 0.0000
# 2 35.6314 116.2944 51.0731 0.0000 10.3973 0.0000
# 3 36.8744 51.0731 108.1122 0.0000 20.9412 0.0000
# 4 0.0000 0.0000 0.0000 17.2094 0.0000 5.1825
# 5 26.8528 10.3973 20.9412 0.0000 47.0452 0.0000
# 6 0.0000 0.0000 0.0000 5.1825 0.0000 37.8307
#
#
#
# Elastic Compliance Matrix: (Units=1/GPa)
#
#
# Indices 1 2 3 4 5 6 
#
# 1 0.016933 -0.003304 -0.002718 0.000000 -0.007725 0.000000
# 2 -0.003304 0.011495 -0.004571 0.000000 0.001380 0.000000
# 3 -0.002718 -0.004571 0.012957 0.000000 -0.003206 0.000000
# 4 0.000000 0.000000 0.000000 0.060608 0.000000 -0.008303
# 5 -0.007725 0.001380 -0.003206 0.000000 0.026787 0.000000
# 6 0.000000 0.000000 0.000000 -0.008303 0.000000 0.027571
#
#
# Mechanical properties :
#
#
# Convention : Reuss Voigt Hill
#
# Bulk Modulus (GPa) = 49.50684 61.74931 55.62808
# Shear Modulus (GPa) = 27.13408 32.75088 29.94248
#
# Velocity S-wave (km/s) = 3.65156 4.01173 3.83588
# Velocity P-wave (km/s) = 6.48895 7.19741 6.85235
#
# Compressibility (1/GPa) = 0.02019923
#
# Stress axis : x y z
#
# Youngs Moduli (GPa) = 59.05743 86.99388 77.17776
#
# Poissons Ratio (x) = 0.28738 0.20980
# Poissons Ratio (y) = 0.19510 0.35277
# Poissons Ratio (z) = 0.16054 0.39764
#
# Static dielectric constant tensor:
#      x y z
#    x 3.799550 0.000000 0.085790 
#    y 0.000000 3.448000 0.000000 
#    z 0.085790 0.000000 2.563600 
# 
# 
# High freq. dielectric constant tensor:
#      x y z
#    x 1.811710 0.000000 0.012050 
#    y 0.000000 1.764610 0.000000 
#    z 0.012050 0.000000 1.803380 
# 
# From -- ./inp_files/64341.got.cif
#   From: 2010.06.25/outbox.cif.g09.slc.cpg/sg13_33_cif.got.tgz:64341.got - 2010.06.28 04:50:58.
