data_PCOD8122815
_publ_section_title
;
Structure prediction by ZEFSAII (Michael W. Deem and Ramdas Pophale) SiO2 
 PCOD8122815
Probable space group: P 2/C
;
_chemical_formula_sum "Si O2"
_cell_formula_units_Z 16
_cell_length_a 12.244268
_cell_length_b 7.336542
_cell_length_c 7.300145
_cell_angle_alpha 90.000000
_cell_angle_beta 62.588240
_cell_angle_gamma 90.000000
_cell_volume 582.146340
_symmetry_space_group_name_H-M "P 2/C"
_symmetry_group_IT_number 13
_symmetry_cell_setting 'monoclinic'
loop_
_space_group_symop_operation_xyz
x,y,z
-x,y,1/2-z
-x,-y,-z
x,-y,1/2+z
loop_
_atom_site_type_symbol
_atom_site_label
_atom_site_fract_x
_atom_site_fract_y
_atom_site_fract_z
Si Si1 0.055200 0.740362 0.898963
Si Si2 0.629864 0.723595 0.074459
Si Si3 0.711985 0.335606 0.125080
Si Si4 0.813397 0.875491 0.216332
O O1 0.153490 0.592896 0.901052
O O2 0.000000 0.677625 0.750000
O O3 0.146495 0.914569 0.810267
O O4 0.943606 0.768924 0.125039
O O5 0.500000 0.794748 0.250000
O O6 0.641505 0.506950 0.097215
O O7 0.739691 0.833669 0.086882
O O8 0.633552 0.754775 0.851937
O O9 0.730690 0.183452 0.953134
#
# Coordination Sequence:
#
# PCOD8122815 Si02
#       4
#     4   4   4   4
#     4  11  23  47  73 104 146 181 230 302 364 423
#     4  12  27  48  70 105 147 194 243 291 349 421
#     4  12  25  45  75 104 142 193 236 294 360 418
#     4  11  24  45  73 105 144 184 235 298 362 422
#
# _framework density 27.484496
#
# number of rings (size 3 to 8) (size 9 to 14) (size 15 to 20)
#    0.000    0.500    5.000    4.500    0.000    1.000 
#    4.500    2.500    0.000    0.000    0.000    0.000 
#    0.000    0.000    0.000    0.000    0.000    0.000 
#
# Total GULP energy -198344.159864 kJ/mol
# GULP energy per Si atom -12396.509992 kJ/mol
# Density = 2.742194 g / cm^3
# Si number density = 27.484496 Si / 1000 Ang^3
#
#
#
# Elastic Constant Matrix: (Units=GPa)
#
#
# Indices 1 2 3 4 5 6 
#
# 1 56.2880 19.1526 23.5925 0.0000 -2.5491 0.0000
# 2 19.1526 61.0996 30.6400 0.0000 4.6469 0.0000
# 3 23.5925 30.6400 203.1241 0.0000 4.5482 0.0000
# 4 0.0000 0.0000 0.0000 29.4277 0.0000 -5.7882
# 5 -2.5491 4.6469 4.5482 0.0000 62.1957 0.0000
# 6 0.0000 0.0000 0.0000 -5.7882 0.0000 27.0208
#
#
#
# Elastic Compliance Matrix: (Units=1/GPa)
#
#
# Indices 1 2 3 4 5 6 
#
# 1 0.020425 -0.005736 -0.001538 0.000000 0.001378 0.000000
# 2 -0.005736 0.019397 -0.002226 0.000000 -0.001522 0.000000
# 3 -0.001538 -0.002226 0.005444 0.000000 -0.000295 0.000000
# 4 0.000000 0.000000 0.000000 0.035476 0.000000 0.007600
# 5 0.001378 -0.001522 -0.000295 0.000000 0.016270 0.000000
# 6 0.000000 0.000000 0.000000 0.007600 0.000000 0.038637
#
#
# Mechanical properties :
#
#
# Convention : Reuss Voigt Hill
#
# Bulk Modulus (GPa) = 38.07170 51.92022 44.99596
# Shear Modulus (GPa) = 30.59934 40.20393 35.40163
#
# Velocity S-wave (km/s) = 3.34028 3.82879 3.59285
# Velocity P-wave (km/s) = 5.36272 6.20306 5.79813
#
# Compressibility (1/GPa) = 0.02626623
#
# Stress axis : x y z
#
# Youngs Moduli (GPa) = 48.96079 51.55563 183.68732
#
# Poissons Ratio (x) = 0.29572 0.28249
# Poissons Ratio (y) = 0.28084 0.40881
# Poissons Ratio (z) = 0.07530 0.11474
#
# Static dielectric constant tensor:
#      x y z
#    x 5.195600 0.000000 0.033790 
#    y 0.000000 4.703580 0.000000 
#    z 0.033790 0.000000 5.257780 
# 
# 
# High freq. dielectric constant tensor:
#      x y z
#    x 2.106280 0.000000 0.005910 
#    y 0.000000 2.087040 0.000000 
#    z 0.005910 0.000000 2.130150 
# 
# From -- ./inp_files/14706.got.cif
#   From: 2010.06.25/outbox.cif.g09.slc.cpg/sg13_8_cif.got.tgz:14706.got - 2010.06.28 04:50:58.
