data_PCOD8122761
_publ_section_title
;
Structure prediction by ZEFSAII (Michael W. Deem and Ramdas Pophale) SiO2 
 PCOD8122761
Probable space group: P 2/C
;
_chemical_formula_sum "Si O2"
_cell_formula_units_Z 32
_cell_length_a 10.910826
_cell_length_b 9.296928
_cell_length_c 28.187711
_cell_angle_alpha 90.000000
_cell_angle_beta 32.034351
_cell_angle_gamma 90.000000
_cell_volume 1516.641818
_symmetry_space_group_name_H-M "P 2/C"
_symmetry_group_IT_number 13
_symmetry_cell_setting 'monoclinic'
loop_
_space_group_symop_operation_xyz
x,y,z
-x,y,1/2-z
-x,-y,-z
x,-y,1/2+z
loop_
_atom_site_type_symbol
_atom_site_label
_atom_site_fract_x
_atom_site_fract_y
_atom_site_fract_z
Si Si1 0.342506 0.838086 0.494935
Si Si2 0.423855 0.366655 0.886070
Si Si3 0.097802 0.972942 0.335687
Si Si4 0.287162 0.679140 0.953605
Si Si5 0.174031 0.847767 0.410664
Si Si6 0.524162 0.037811 0.128350
Si Si7 0.942756 0.275649 0.718811
Si Si8 0.635485 0.356744 0.962374
O O1 0.299363 0.704235 0.472981
O O2 0.486250 0.781626 0.493244
O O3 0.498554 0.955201 0.414790
O O4 0.097281 0.904816 0.592654
O O5 0.337371 0.530511 0.909844
O O6 0.363483 0.277562 0.858284
O O7 0.699262 0.355663 0.799410
O O8 0.204492 0.921886 0.350155
O O9 0.992299 0.835981 0.344156
O O10 0.310647 0.015930 0.232890
O O11 0.487886 0.792185 0.875834
O O12 0.278670 0.659952 0.012258
O O13 0.064223 0.761061 0.005897
O O14 0.230773 0.975457 0.430420
O O15 0.000000 0.199785 0.750000
O O16 0.142476 0.391817 0.643535
O O17 0.500000 0.500000 0.000000
#
# Coordination Sequence:
#
# PCOD8122761 Si02
#       8
#     4   4   4   4   4   4   4   4
#     4  11  23  44  67 100 136 182 230 289 341 417
#     4  11  25  44  70  99 143 180 233 280 350 423
#     4  12  24  41  74  99 133 186 234 287 347 406
#     4  12  24  44  70 104 136 188 228 288 357 407
#     4  11  23  45  70  96 137 182 230 286 343 412
#     4  11  24  43  69 101 139 177 238 291 344 411
#     4  12  22  43  69  99 139 186 225 282 355 412
#     4  12  24  43  70 100 141 184 230 283 349 428
#
# _framework density 21.099247999999999
#
# number of rings (size 3 to 8) (size 9 to 14) (size 15 to 20)
#    0.000    0.500    7.500    1.125    1.750    4.000 
#    0.000    1.250    2.750    0.000    0.000    0.000 
#    0.000    0.000    0.000    0.000    0.000    0.000 
#
# Total GULP energy -396434.157390 kJ/mol
# GULP energy per Si atom -12388.567418 kJ/mol
# Density = 2.105123 g / cm^3
# Si number density = 21.099248 Si / 1000 Ang^3
#
#
#
# Elastic Constant Matrix: (Units=GPa)
#
#
# Indices 1 2 3 4 5 6 
#
# 1 86.7106 20.7248 23.3561 0.0000 -7.2301 0.0000
# 2 20.7248 129.4711 42.5886 0.0000 -3.4505 0.0000
# 3 23.3561 42.5886 100.9606 0.0000 -16.9186 0.0000
# 4 0.0000 0.0000 0.0000 28.8686 0.0000 -0.8327
# 5 -7.2301 -3.4505 -16.9186 0.0000 25.4801 0.0000
# 6 0.0000 0.0000 0.0000 -0.8327 0.0000 26.3640
#
#
#
# Elastic Compliance Matrix: (Units=1/GPa)
#
#
# Indices 1 2 3 4 5 6 
#
# 1 0.012555 -0.001292 -0.002016 0.000000 0.002049 0.000000
# 2 -0.001292 0.009150 -0.003842 0.000000 -0.001679 0.000000
# 3 -0.002016 -0.003842 0.013287 0.000000 0.007730 0.000000
# 4 0.000000 0.000000 0.000000 0.034671 0.000000 0.001095
# 5 0.002049 -0.001679 0.007730 0.000000 0.044733 0.000000
# 6 0.000000 0.000000 0.000000 0.001095 0.000000 0.037965
#
#
# Mechanical properties :
#
#
# Convention : Reuss Voigt Hill
#
# Bulk Modulus (GPa) = 48.32789 54.49791 51.41290
# Shear Modulus (GPa) = 28.80853 31.50740 30.15796
#
# Velocity S-wave (km/s) = 3.69912 3.86851 3.78476
# Velocity P-wave (km/s) = 6.41867 6.77047 6.59692
#
# Compressibility (1/GPa) = 0.02069198
#
# Stress axis : x y z
#
# Youngs Moduli (GPa) = 79.64753 109.29422 75.25918
#
# Poissons Ratio (x) = 0.14120 0.15174
# Poissons Ratio (y) = 0.10290 0.28915
# Poissons Ratio (z) = 0.16058 0.41991
#
# Static dielectric constant tensor:
#      x y z
#    x 3.865710 0.000000 -0.129290 
#    y 0.000000 3.963210 0.000000 
#    z -0.129290 0.000000 3.794920 
# 
# 
# High freq. dielectric constant tensor:
#      x y z
#    x 1.839540 0.000000 -0.002600 
#    y 0.000000 1.821940 0.000000 
#    z -0.002600 0.000000 1.826290 
# 
# From -- ./inp_files/96686.got.cif
#   From: 2010.06.25/outbox.cif.g09.slc.cpg/sg13_49_cif.got.tgz:96686.got - 2010.06.28 04:50:58.
