data_PCOD8122582
_publ_section_title
;
Structure prediction by ZEFSAII (Michael W. Deem and Ramdas Pophale) SiO2 
 PCOD8122582
Probable space group: P 2/C
;
_chemical_formula_sum "Si O2"
_cell_formula_units_Z 28
_cell_length_a 14.493294
_cell_length_b 20.009814
_cell_length_c 8.559297
_cell_angle_alpha 90.000000
_cell_angle_beta 149.024624
_cell_angle_gamma 90.000000
_cell_volume 1277.546753
_symmetry_space_group_name_H-M "P 2/C"
_symmetry_group_IT_number 13
_symmetry_cell_setting 'monoclinic'
loop_
_space_group_symop_operation_xyz
x,y,z
-x,y,1/2-z
-x,-y,-z
x,-y,1/2+z
loop_
_atom_site_type_symbol
_atom_site_label
_atom_site_fract_x
_atom_site_fract_y
_atom_site_fract_z
Si Si1 0.689430 0.944215 0.452812
Si Si2 0.971716 0.851079 0.030305
Si Si3 0.038152 0.299279 0.982891
Si Si4 0.685509 0.391502 0.929239
Si Si5 0.314523 0.651545 0.413622
Si Si6 0.135518 0.471881 0.817484
Si Si7 0.312087 0.913731 0.413809
O O1 0.500000 0.924063 0.250000
O O2 0.678418 0.933713 0.252588
O O3 0.738154 0.021034 0.557243
O O4 0.837554 0.898902 0.746885
O O5 0.889429 0.776277 0.900346
O O6 0.000000 0.872929 0.250000
O O7 0.163573 0.856783 0.223250
O O8 0.000000 0.320384 0.750000
O O9 0.849105 0.298080 0.798968
O O10 0.171734 0.353281 0.253722
O O11 0.500000 0.398081 0.750000
O O12 0.656088 0.351642 0.728310
O O13 0.746322 0.464782 0.958299
O O14 0.267471 0.582962 0.436517
O O15 0.500000 0.680475 0.750000
O O16 0.000000 0.441580 0.750000
O O17 0.000000 0.500000 0.500000
O O18 0.500000 0.884551 0.750000
#
# Coordination Sequence:
#
# PCOD8122582 Si02
#       7
#     4   4   4   4   4   4   4
#     4  11  22  39  64  95 130 167 207 259 312 369
#     4  11  24  42  65  92 124 166 213 258 315 373
#     4  11  25  46  67  89 124 166 211 267 312 368
#     4  12  26  43  66  95 126 166 211 256 315 377
#     4  12  26  42  67  95 127 166 208 259 313 378
#     4  12  23  41  69  96 129 164 204 260 318 372
#     4  11  22  39  64  95 130 167 207 259 311 370
#
# _framework density 21.917007999999999
#
# number of rings (size 3 to 8) (size 9 to 14) (size 15 to 20)
#    0.000    0.571    2.857    6.429    2.000    4.571 
#    0.000    0.000    0.000    0.000    0.000    0.000 
#    0.000    0.000    0.000    0.000    0.000    0.000 
#
# Total GULP energy -347152.293801 kJ/mol
# GULP energy per Si atom -12398.296207 kJ/mol
# Density = 2.186712 g / cm^3
# Si number density = 21.917008 Si / 1000 Ang^3
#
#
#
# Elastic Constant Matrix: (Units=GPa)
#
#
# Indices 1 2 3 4 5 6 
#
# 1 140.4285 9.1161 29.5976 0.0000 -5.0005 0.0000
# 2 9.1161 63.0545 24.4525 0.0000 6.8426 0.0000
# 3 29.5976 24.4525 114.0939 0.0000 6.3093 0.0000
# 4 0.0000 0.0000 0.0000 62.4174 0.0000 -0.0859
# 5 -5.0005 6.8426 6.3093 0.0000 49.8950 0.0000
# 6 0.0000 0.0000 0.0000 -0.0859 0.0000 26.5834
#
#
#
# Elastic Compliance Matrix: (Units=1/GPa)
#
#
# Indices 1 2 3 4 5 6 
#
# 1 0.007596 -0.000466 -0.001930 0.000000 0.001069 0.000000
# 2 -0.000466 0.017509 -0.003521 0.000000 -0.002003 0.000000
# 3 -0.001930 -0.003521 0.010074 0.000000 -0.000984 0.000000
# 4 0.000000 0.000000 0.000000 0.016021 0.000000 0.000052
# 5 0.001069 -0.002003 -0.000984 0.000000 0.020548 0.000000
# 6 0.000000 0.000000 0.000000 0.000052 0.000000 0.037618
#
#
# Mechanical properties :
#
#
# Convention : Reuss Voigt Hill
#
# Bulk Modulus (GPa) = 42.83285 49.32326 46.07806
# Shear Modulus (GPa) = 38.76487 44.73988 41.75237
#
# Velocity S-wave (km/s) = 4.21017 4.52301 4.36939
# Velocity P-wave (km/s) = 6.57417 7.05905 6.82092
#
# Compressibility (1/GPa) = 0.02334657
#
# Stress axis : x y z
#
# Youngs Moduli (GPa) = 131.64620 57.11209 99.26155
#
# Poissons Ratio (x) = 0.02661 0.19156
# Poissons Ratio (y) = 0.06133 0.34950
# Poissons Ratio (z) = 0.25405 0.20109
#
# Static dielectric constant tensor:
#      x y z
#    x 4.043710 0.000000 -0.009330 
#    y 0.000000 3.876070 0.000000 
#    z -0.009330 0.000000 4.085450 
# 
# 
# High freq. dielectric constant tensor:
#      x y z
#    x 1.879840 0.000000 -0.004250 
#    y 0.000000 1.851660 0.000000 
#    z -0.004250 0.000000 1.873490 
# 
# From -- ./inp_files/20207.got.cif
#   From: 2010.06.25/outbox.cif.g09.slc.cpg/sg13_11_cif.got.tgz:20207.got - 2010.06.28 04:50:58.
