data_PCOD8122165
_publ_section_title
;
Structure prediction by ZEFSAII (Michael W. Deem and Ramdas Pophale) SiO2 
 PCOD8122165
Probable space group: P 2/C
;
_chemical_formula_sum "Si O2"
_cell_formula_units_Z 32
_cell_length_a 15.220104
_cell_length_b 11.581829
_cell_length_c 8.377536
_cell_angle_alpha 90.000000
_cell_angle_beta 88.010891
_cell_angle_gamma 90.000000
_cell_volume 1475.874079
_symmetry_space_group_name_H-M "P 2/C"
_symmetry_group_IT_number 13
_symmetry_cell_setting 'monoclinic'
loop_
_space_group_symop_operation_xyz
x,y,z
-x,y,1/2-z
-x,-y,-z
x,-y,1/2+z
loop_
_atom_site_type_symbol
_atom_site_label
_atom_site_fract_x
_atom_site_fract_y
_atom_site_fract_z
Si Si1 0.975532 0.244555 0.566778
Si Si2 0.151641 0.932154 0.563344
Si Si3 0.689126 0.196610 0.555600
Si Si4 0.244104 0.626684 0.051377
Si Si5 0.583899 0.710518 0.343806
Si Si6 0.852233 0.829637 0.579433
Si Si7 0.186218 0.606552 0.405598
Si Si8 0.516542 0.124459 0.429285
O O1 0.928757 0.124140 0.526841
O O2 0.910232 0.352145 0.528831
O O3 0.000000 0.245595 0.750000
O O4 0.061359 0.251418 0.447819
O O5 0.240012 0.905506 0.457259
O O6 0.155987 0.884289 0.744142
O O7 0.141008 0.070270 0.556087
O O8 0.641283 0.202695 0.730442
O O9 0.738806 0.316609 0.513023
O O10 0.615662 0.170113 0.430990
O O11 0.348530 0.613950 0.090489
O O12 0.186950 0.626781 0.215836
O O13 0.230239 0.746533 0.955455
O O14 0.208867 0.524644 0.942554
O O15 0.500000 0.657275 0.250000
O O16 0.549214 0.783532 0.492283
O O17 0.500000 0.110639 0.250000
O O18 0.500000 0.000000 0.500000
#
# Coordination Sequence:
#
# PCOD8122165 Si02
#       8
#     4   4   4   4   4   4   4   4
#     4  11  22  47  67  95 137 178 225 283 348 404
#     4  11  26  41  69  99 139 177 232 280 347 418
#     4   9  22  43  65  93 136 178 223 282 336 398
#     4  11  25  44  72 100 138 181 234 283 346 402
#     4   9  21  44  66  97 138 178 226 275 340 403
#     4  12  26  42  68 102 136 183 227 288 348 416
#     4  10  24  45  70  96 134 179 229 291 334 411
#     4  11  23  37  63  99 138 180 220 279 340 415
#
# _framework density 21.682065999999999
#
# number of rings (size 3 to 8) (size 9 to 14) (size 15 to 20)
#    0.000    1.500    1.250    2.625   10.500    0.500 
#    0.000    6.250    0.000    0.000    0.000    0.000 
#    0.000    0.000    0.000    0.000    0.000    0.000 
#
# Total GULP energy -396683.355162 kJ/mol
# GULP energy per Si atom -12396.354849 kJ/mol
# Density = 2.163272 g / cm^3
# Si number density = 21.682066 Si / 1000 Ang^3
#
#
#
# Elastic Constant Matrix: (Units=GPa)
#
#
# Indices 1 2 3 4 5 6 
#
# 1 124.3284 36.9206 40.8461 0.0000 6.8370 0.0000
# 2 36.9206 113.9640 38.9281 0.0000 23.0759 0.0000
# 3 40.8461 38.9281 95.6563 0.0000 23.0796 0.0000
# 4 0.0000 0.0000 0.0000 25.9794 0.0000 6.8118
# 5 6.8370 23.0759 23.0796 0.0000 31.1160 0.0000
# 6 0.0000 0.0000 0.0000 6.8118 0.0000 21.4270
#
#
#
# Elastic Compliance Matrix: (Units=1/GPa)
#
#
# Indices 1 2 3 4 5 6 
#
# 1 0.009877 -0.002384 -0.003837 0.000000 0.002444 0.000000
# 2 -0.002384 0.011590 -0.002133 0.000000 -0.006489 0.000000
# 3 -0.003837 -0.002133 0.015073 0.000000 -0.008755 0.000000
# 4 0.000000 0.000000 0.000000 0.041992 0.000000 -0.013350
# 5 0.002444 -0.006489 -0.008755 0.000000 0.042907 0.000000
# 6 0.000000 0.000000 0.000000 -0.013350 0.000000 0.050914
#
#
# Mechanical properties :
#
#
# Convention : Reuss Voigt Hill
#
# Bulk Modulus (GPa) = 50.42379 63.03757 56.73068
# Shear Modulus (GPa) = 25.55291 30.18808 27.87049
#
# Velocity S-wave (km/s) = 3.43669 3.73541 3.58916
# Velocity P-wave (km/s) = 6.24934 6.90949 6.58769
#
# Compressibility (1/GPa) = 0.01983191
#
# Stress axis : x y z
#
# Youngs Moduli (GPa) = 101.24067 86.28485 66.34386
#
# Poissons Ratio (x) = 0.20571 0.25457
# Poissons Ratio (y) = 0.24137 0.14149
# Poissons Ratio (z) = 0.38848 0.18402
#
# Static dielectric constant tensor:
#      x y z
#    x 4.263690 0.000000 0.181810 
#    y 0.000000 3.714650 0.000000 
#    z 0.181810 0.000000 3.810820 
# 
# 
# High freq. dielectric constant tensor:
#      x y z
#    x 1.869830 0.000000 0.003920 
#    y 0.000000 1.829560 0.000000 
#    z 0.003920 0.000000 1.851250 
# 
# From -- ./inp_files/19048.got.cif
#   From: 2010.06.25/outbox.cif.g09.slc.cpg/sg13_10_cif.got.tgz:19048.got - 2010.06.28 04:50:58.
