data_PCOD8122518
_publ_section_title
;
Structure prediction by ZEFSAII (Michael W. Deem and Ramdas Pophale) SiO2 
 PCOD8122518
Probable space group: P 2/C
;
_chemical_formula_sum "Si O2"
_cell_formula_units_Z 28
_cell_length_a 7.319004
_cell_length_b 6.832604
_cell_length_c 27.075308
_cell_angle_alpha 90.000000
_cell_angle_beta 88.114756
_cell_angle_gamma 90.000000
_cell_volume 1353.245225
_symmetry_space_group_name_H-M "P 2/C"
_symmetry_group_IT_number 13
_symmetry_cell_setting 'monoclinic'
loop_
_space_group_symop_operation_xyz
x,y,z
-x,y,1/2-z
-x,-y,-z
x,-y,1/2+z
loop_
_atom_site_type_symbol
_atom_site_label
_atom_site_fract_x
_atom_site_fract_y
_atom_site_fract_z
Si Si1 0.915927 0.901734 0.952619
Si Si2 0.500000 0.040862 0.250000
Si Si3 0.855569 0.561173 0.593501
Si Si4 0.294211 0.444894 0.007316
Si Si5 0.653392 0.693843 0.306921
Si Si6 0.669292 0.613673 0.692347
Si Si7 0.000000 0.536953 0.250000
Si Si8 0.830767 0.707847 0.404406
O O1 0.061354 0.767254 0.923495
O O2 0.860697 0.062828 0.912987
O O3 0.739456 0.770609 0.969372
O O4 0.000000 0.000000 0.000000
O O5 0.381865 0.172745 0.287942
O O6 0.614398 0.908512 0.286538
O O7 0.791368 0.445950 0.545861
O O8 0.691889 0.608668 0.632909
O O9 0.994937 0.409912 0.618919
O O10 0.500000 0.500000 0.000000
O O11 0.207799 0.609838 0.042575
O O12 0.491886 0.542284 0.292302
O O13 0.666067 0.691257 0.366406
O O14 0.855774 0.655737 0.284198
O O15 0.868785 0.583211 0.714532
#
# Coordination Sequence:
#
# PCOD8122518 Si02
#       8
#     4   2   4   4   4   4   2   4
#     4  11  21  42  66  96 136 179 233 277 333 418
#     4  12  26  48  72 106 144 174 240 304 342 424
#     4  11  23  41  72  98 132 189 227 278 353 413
#     4  11  23  41  64  97 140 178 220 285 348 405
#     4  12  26  47  71 105 139 183 233 295 352 415
#     4  12  26  48  72 104 143 179 236 292 349 428
#     4  12  22  48  76  90 142 190 216 288 368 402
#     4  11  23  42  71  97 134 184 231 281 343 418
#
# _framework density 20.691001
#
# number of rings (size 3 to 8) (size 9 to 14) (size 15 to 20)
#    0.000    0.571    7.143    1.714    0.000    8.000 
#    2.571    0.000    0.000    0.000    0.000    0.000 
#    0.000    0.000    0.000    0.000    0.000    0.000 
#
# Total GULP energy -347009.491341 kJ/mol
# GULP energy per Si atom -12393.196119 kJ/mol
# Density = 2.064391 g / cm^3
# Si number density = 20.691001 Si / 1000 Ang^3
#
#
#
# Elastic Constant Matrix: (Units=GPa)
#
#
# Indices 1 2 3 4 5 6 
#
# 1 129.4375 57.3525 40.8520 0.0000 -8.2650 0.0000
# 2 57.3525 150.5221 48.9072 0.0000 -5.5352 0.0000
# 3 40.8520 48.9072 125.5850 0.0000 0.2119 0.0000
# 4 0.0000 0.0000 0.0000 28.1119 0.0000 7.2906
# 5 -8.2650 -5.5352 0.2119 0.0000 36.0323 0.0000
# 6 0.0000 0.0000 0.0000 7.2906 0.0000 28.4783
#
#
#
# Elastic Compliance Matrix: (Units=1/GPa)
#
#
# Indices 1 2 3 4 5 6 
#
# 1 0.009815 -0.003017 -0.002021 0.000000 0.001800 0.000000
# 2 -0.003017 0.008584 -0.002363 0.000000 0.000641 0.000000
# 3 -0.002021 -0.002363 0.009542 0.000000 -0.000883 0.000000
# 4 0.000000 0.000000 0.000000 0.038102 0.000000 -0.009754
# 5 0.001800 0.000641 -0.000883 0.000000 0.028269 0.000000
# 6 0.000000 0.000000 0.000000 -0.009754 0.000000 0.037612
#
#
# Mechanical properties :
#
#
# Convention : Reuss Voigt Hill
#
# Bulk Modulus (GPa) = 76.10343 77.75200 76.92771
# Shear Modulus (GPa) = 33.08946 35.75336 34.42141
#
# Velocity S-wave (km/s) = 4.00336 4.16139 4.08314
# Velocity P-wave (km/s) = 7.63086 7.79415 7.71294
#
# Compressibility (1/GPa) = 0.01314001
#
# Stress axis : x y z
#
# Youngs Moduli (GPa) = 101.88154 116.49105 104.80259
#
# Poissons Ratio (x) = 0.35146 0.21180
# Poissons Ratio (y) = 0.30738 0.24762
# Poissons Ratio (z) = 0.20590 0.27523
#
# Static dielectric constant tensor:
#      x y z
#    x 3.514420 0.000000 -0.162590 
#    y 0.000000 3.750130 0.000000 
#    z -0.162590 0.000000 3.586890 
# 
# 
# High freq. dielectric constant tensor:
#      x y z
#    x 1.806270 0.000000 0.003090 
#    y 0.000000 1.806760 0.000000 
#    z 0.003090 0.000000 1.832440 
# 
# From -- ./inp_files/90815.got.cif
#   From: 2010.06.25/outbox.cif.g09.slc.cpg/sg13_46_cif.got.tgz:90815.got - 2010.06.28 04:50:58.
