data_PCOD8122936
_publ_section_title
;
Structure prediction by ZEFSAII (Michael W. Deem and Ramdas Pophale) SiO2 
 PCOD8122936
Probable space group: P 2/C
;
_chemical_formula_sum "Si O2"
_cell_formula_units_Z 24
_cell_length_a 8.535789
_cell_length_b 14.584549
_cell_length_c 8.862891
_cell_angle_alpha 90.000000
_cell_angle_beta 81.521343
_cell_angle_gamma 90.000000
_cell_volume 1091.288271
_symmetry_space_group_name_H-M "P 2/C"
_symmetry_group_IT_number 13
_symmetry_cell_setting 'monoclinic'
loop_
_space_group_symop_operation_xyz
x,y,z
-x,y,1/2-z
-x,-y,-z
x,-y,1/2+z
loop_
_atom_site_type_symbol
_atom_site_label
_atom_site_fract_x
_atom_site_fract_y
_atom_site_fract_z
Si Si1 0.385846 0.730827 0.634636
Si Si2 0.670596 0.953884 0.513705
Si Si3 0.832220 0.383794 0.712533
Si Si4 0.833960 0.570065 0.857763
Si Si5 0.389014 0.226393 0.644410
Si Si6 0.183605 0.902902 0.695244
O O1 0.500000 0.765162 0.750000
O O2 0.294362 0.638960 0.693525
O O3 0.497243 0.711575 0.475941
O O4 0.258402 0.809946 0.619019
O O5 0.696003 0.853473 0.436690
O O6 0.707839 0.940411 0.683761
O O7 0.500000 0.000000 0.500000
O O8 0.808229 0.019703 0.433644
O O9 0.772523 0.468410 0.824783
O O10 0.847037 0.415351 0.535997
O O11 0.724324 0.295205 0.749488
O O12 0.000000 0.351074 0.750000
O O13 0.000000 0.587563 0.750000
O O14 0.500000 0.175105 0.750000
O O15 0.000000 0.882861 0.750000
#
# Coordination Sequence:
#
# PCOD8122936 Si02
#       6
#     4   4   4   4   4   4
#     4  12  25  44  69  99 135 185 228 284 350 411
#     4  12  24  46  71  98 139 183 228 287 352 417
#     4  11  26  44  69 101 136 184 230 285 352 412
#     4  11  25  45  70  98 141 182 227 288 347 415
#     4  12  25  45  68 101 138 175 235 285 347 414
#     4  12  26  44  68 103 136 181 237 285 348 418
#
# _framework density 21.992356999999998
#
# number of rings (size 3 to 8) (size 9 to 14) (size 15 to 20)
#    0.000    0.333    5.000    4.500    4.667    3.333 
#    0.000    0.000    0.000    0.000    0.000    0.000 
#    0.000    0.000    0.000    0.000    0.000    0.000 
#
# Total GULP energy -297545.106318 kJ/mol
# GULP energy per Si atom -12397.712763 kJ/mol
# Density = 2.194230 g / cm^3
# Si number density = 21.992357 Si / 1000 Ang^3
#
#
#
# Elastic Constant Matrix: (Units=GPa)
#
#
# Indices 1 2 3 4 5 6 
#
# 1 87.8626 40.0279 21.2254 0.0000 -3.8863 0.0000
# 2 40.0279 110.1684 21.3391 0.0000 -14.1941 0.0000
# 3 21.2254 21.3391 103.9333 0.0000 -2.6689 0.0000
# 4 0.0000 0.0000 0.0000 35.3203 0.0000 2.1993
# 5 -3.8863 -14.1941 -2.6689 0.0000 32.4709 0.0000
# 6 0.0000 0.0000 0.0000 2.1993 0.0000 22.2612
#
#
#
# Elastic Compliance Matrix: (Units=1/GPa)
#
#
# Indices 1 2 3 4 5 6 
#
# 1 0.013996 -0.004794 -0.001889 0.000000 -0.000576 0.000000
# 2 -0.004794 0.011638 -0.001297 0.000000 0.004407 0.000000
# 3 -0.001889 -0.001297 0.010275 0.000000 0.000051 0.000000
# 4 0.000000 0.000000 0.000000 0.028488 0.000000 -0.002814
# 5 -0.000576 0.004407 0.000051 0.000000 0.032659 0.000000
# 6 0.000000 0.000000 0.000000 -0.002814 0.000000 0.045199
#
#
# Mechanical properties :
#
#
# Convention : Reuss Voigt Hill
#
# Bulk Modulus (GPa) = 50.12696 51.90546 51.01621
# Shear Modulus (GPa) = 30.32814 32.63527 31.48171
#
# Velocity S-wave (km/s) = 3.71756 3.85637 3.78760
# Velocity P-wave (km/s) = 6.42412 6.59406 6.50965
#
# Compressibility (1/GPa) = 0.01994934
#
# Stress axis : x y z
#
# Youngs Moduli (GPa) = 71.44869 85.92746 97.32372
#
# Poissons Ratio (x) = 0.41189 0.18383
# Poissons Ratio (y) = 0.34249 0.12626
# Poissons Ratio (z) = 0.13496 0.11147
#
# Static dielectric constant tensor:
#      x y z
#    x 3.962020 0.000000 0.102510 
#    y 0.000000 3.998350 0.000000 
#    z 0.102510 0.000000 4.404890 
# 
# 
# High freq. dielectric constant tensor:
#      x y z
#    x 1.862130 0.000000 0.000990 
#    y 0.000000 1.872720 0.000000 
#    z 0.000990 0.000000 1.880190 
# 
# From -- ./inp_files/12405.got.cif
#   From: 2010.06.25/outbox.cif.g09.slc.cpg/sg13_7_cif.got.tgz:12405.got - 2010.06.28 04:50:58.
