data_PCOD8122237
_publ_section_title
;
Structure prediction by ZEFSAII (Michael W. Deem and Ramdas Pophale) SiO2 
 PCOD8122237
Probable space group: P 2/C
;
_chemical_formula_sum "Si O2"
_cell_formula_units_Z 20
_cell_length_a 5.103561
_cell_length_b 8.940797
_cell_length_c 20.053766
_cell_angle_alpha 90.000000
_cell_angle_beta 73.202875
_cell_angle_gamma 90.000000
_cell_volume 876.009812
_symmetry_space_group_name_H-M "P 2/C"
_symmetry_group_IT_number 13
_symmetry_cell_setting 'monoclinic'
loop_
_space_group_symop_operation_xyz
x,y,z
-x,y,1/2-z
-x,-y,-z
x,-y,1/2+z
loop_
_atom_site_type_symbol
_atom_site_label
_atom_site_fract_x
_atom_site_fract_y
_atom_site_fract_z
Si Si1 0.311594 0.114327 0.706069
Si Si2 0.118656 0.498662 0.586627
Si Si3 0.379736 0.993950 0.436049
Si Si4 0.969766 0.748568 0.501363
Si Si5 0.502367 0.452241 0.676030
O O1 0.500000 0.045069 0.750000
O O2 0.373583 0.021146 0.634577
O O3 0.384499 0.286249 0.689907
O O4 0.000000 0.094256 0.750000
O O5 0.211072 0.351435 0.537376
O O6 0.807729 0.460893 0.627542
O O7 0.143777 0.642403 0.537438
O O8 0.304018 0.533470 0.637446
O O9 0.172292 0.854353 0.443669
O O10 0.500000 0.000000 0.500000
O O11 0.223032 0.150874 0.437011
O O12 0.500000 0.527486 0.750000
#
# Coordination Sequence:
#
# PCOD8122237 Si02
#       5
#     4   4   4   4   4
#     4  11  24  42  68 101 135 178 229 283 339 407
#     4  11  23  42  68 104 135 172 227 286 344 402
#     4  11  24  43  72 101 137 183 234 286 337 414
#     4  10  25  40  69 103 138 176 226 293 347 401
#     4  11  22  40  68  99 133 178 227 278 339 413
#
# _framework density 22.830794999999998
#
# number of rings (size 3 to 8) (size 9 to 14) (size 15 to 20)
#    0.000    1.200    2.000    4.200    8.400    1.600 
#    0.000    1.000    4.400    0.000    0.000    0.000 
#    0.000    0.000    0.000    0.000    0.000    0.000 
#
# Total GULP energy -247990.112483 kJ/mol
# GULP energy per Si atom -12399.505624 kJ/mol
# Density = 2.277883 g / cm^3
# Si number density = 22.830795 Si / 1000 Ang^3
#
#
#
# Elastic Constant Matrix: (Units=GPa)
#
#
# Indices 1 2 3 4 5 6 
#
# 1 121.2854 19.7456 60.0402 0.0000 -6.6689 0.0000
# 2 19.7456 96.7560 38.2728 0.0000 -4.3996 0.0000
# 3 60.0402 38.2728 146.8486 0.0000 5.4826 0.0000
# 4 0.0000 0.0000 0.0000 20.8464 0.0000 2.2845
# 5 -6.6689 -4.3996 5.4826 0.0000 63.2248 0.0000
# 6 0.0000 0.0000 0.0000 2.2845 0.0000 7.9540
#
#
#
# Elastic Compliance Matrix: (Units=1/GPa)
#
#
# Indices 1 2 3 4 5 6 
#
# 1 0.010487 -0.000398 -0.004238 0.000000 0.001446 0.000000
# 2 -0.000398 0.011610 -0.002901 0.000000 0.001018 0.000000
# 3 -0.004238 -0.002901 0.009353 0.000000 -0.001460 0.000000
# 4 0.000000 0.000000 0.000000 0.049529 0.000000 -0.014225
# 5 0.001446 0.001018 -0.001460 0.000000 0.016167 0.000000
# 6 0.000000 0.000000 0.000000 -0.014225 0.000000 0.129808
#
#
# Mechanical properties :
#
#
# Convention : Reuss Voigt Hill
#
# Bulk Modulus (GPa) = 61.06438 66.77857 63.92148
# Shear Modulus (GPa) = 20.20305 34.86049 27.53177
#
# Velocity S-wave (km/s) = 2.97796 3.91180 3.47638
# Velocity P-wave (km/s) = 6.21521 7.05094 6.64623
#
# Compressibility (1/GPa) = 0.01637616
#
# Stress axis : x y z
#
# Youngs Moduli (GPa) = 95.35345 86.12973 106.91590
#
# Poissons Ratio (x) = 0.03428 0.45312
# Poissons Ratio (y) = 0.03796 0.31019
# Poissons Ratio (z) = 0.40411 0.24988
#
# Static dielectric constant tensor:
#      x y z
#    x 5.314080 0.000000 -0.637410 
#    y 0.000000 4.154770 0.000000 
#    z -0.637410 0.000000 5.091890 
# 
# 
# High freq. dielectric constant tensor:
#      x y z
#    x 1.906280 0.000000 0.001230 
#    y 0.000000 1.880700 0.000000 
#    z 0.001230 0.000000 1.911430 
# 
# From -- ./inp_files/60583.got.cif
#   From: 2010.06.25/outbox.cif.g09.slc.cpg/sg13_31_cif.got.tgz:60583.got - 2010.06.28 04:50:58.
