data_PCOD8122146
_publ_section_title
;
Structure prediction by ZEFSAII (Michael W. Deem and Ramdas Pophale) SiO2 
 PCOD8122146
Probable space group: P 2/C
;
_chemical_formula_sum "Si O2"
_cell_formula_units_Z 18
_cell_length_a 6.052958
_cell_length_b 11.130690
_cell_length_c 10.849851
_cell_angle_alpha 90.000000
_cell_angle_beta 92.406387
_cell_angle_gamma 90.000000
_cell_volume 730.348889
_symmetry_space_group_name_H-M "P 2/C"
_symmetry_group_IT_number 13
_symmetry_cell_setting 'monoclinic'
loop_
_space_group_symop_operation_xyz
x,y,z
-x,y,1/2-z
-x,-y,-z
x,-y,1/2+z
loop_
_atom_site_type_symbol
_atom_site_label
_atom_site_fract_x
_atom_site_fract_y
_atom_site_fract_z
Si Si1 0.456011 0.743128 0.888468
Si Si2 0.828711 0.902768 0.450555
Si Si3 0.128651 0.474559 0.374221
Si Si4 0.207849 0.733122 0.404907
Si Si5 0.500000 0.900202 0.250000
O O1 0.500000 0.777724 0.750000
O O2 0.322020 0.619744 0.904739
O O3 0.324103 0.857316 0.941392
O O4 0.698066 0.721931 0.953641
O O5 0.682338 0.968478 0.338811
O O6 0.959589 0.787529 0.398481
O O7 0.000000 0.000000 0.500000
O O8 0.218721 0.605248 0.336726
O O9 0.000000 0.425513 0.250000
O O10 0.000000 0.500000 0.500000
O O11 0.377779 0.819053 0.344461
#
# Coordination Sequence:
#
# PCOD8122146 Si02
#       5
#     4   4   4   4   2
#     4  11  26  45  71 109 146 190 247 302 375 439
#     4  11  25  50  73 102 145 192 248 304 367 436
#     4  12  24  42  74 105 150 195 238 307 375 444
#     4  11  24  46  70 104 145 189 244 295 368 446
#     4  10  24  44  74 106 132 188 248 300 362 448
#
# _framework density 24.645754
#
# number of rings (size 3 to 8) (size 9 to 14) (size 15 to 20)
#    0.000    0.889    2.222    4.000    4.667    3.556 
#   12.000    0.000    0.000    0.000    0.000    0.000 
#    0.000    0.000    0.000    0.000    0.000    0.000 
#
# Total GULP energy -223111.482487 kJ/mol
# GULP energy per Si atom -12395.082360 kJ/mol
# Density = 2.458966 g / cm^3
# Si number density = 24.645754 Si / 1000 Ang^3
#
#
#
# Elastic Constant Matrix: (Units=GPa)
#
#
# Indices 1 2 3 4 5 6 
#
# 1 107.0381 21.2019 62.5616 0.0000 24.8645 0.0000
# 2 21.2019 86.6610 20.8494 0.0000 19.2043 0.0000
# 3 62.5616 20.8494 158.2633 0.0000 19.4051 0.0000
# 4 0.0000 0.0000 0.0000 54.0315 0.0000 81.9830
# 5 24.8645 19.2043 19.4051 0.0000 55.7761 0.0000
# 6 0.0000 0.0000 0.0000 81.9830 0.0000 237.3310
#
#
#
# Elastic Compliance Matrix: (Units=1/GPa)
#
#
# Indices 1 2 3 4 5 6 
#
# 1 0.013151 -0.001270 -0.004561 0.000000 -0.003839 0.000000
# 2 -0.001270 0.012825 -0.000748 0.000000 -0.003590 0.000000
# 3 -0.004561 -0.000748 0.008293 0.000000 -0.000595 0.000000
# 4 0.000000 0.000000 0.000000 0.038893 0.000000 -0.013435
# 5 -0.003839 -0.003590 -0.000595 0.000000 0.021083 0.000000
# 6 0.000000 0.000000 0.000000 -0.013435 0.000000 0.008855
#
#
# Mechanical properties :
#
#
# Convention : Reuss Voigt Hill
#
# Bulk Modulus (GPa) = 47.36284 62.35425 54.85854
# Shear Modulus (GPa) = 40.55349 85.91766 63.23558
#
# Velocity S-wave (km/s) = 4.06082 5.91073 5.07085
# Velocity P-wave (km/s) = 6.42232 8.48159 7.52275
#
# Compressibility (1/GPa) = 0.02111360
#
# Stress axis : x y z
#
# Youngs Moduli (GPa) = 76.03750 77.97159 120.58551
#
# Poissons Ratio (x) = 0.09899 0.54997
# Poissons Ratio (y) = 0.09653 0.09014
# Poissons Ratio (z) = 0.34679 0.05829
#
# Static dielectric constant tensor:
#      x y z
#    x 4.634410 0.000000 0.453410 
#    y 0.000000 4.507130 0.000000 
#    z 0.453410 0.000000 4.501810 
# 
# 
# High freq. dielectric constant tensor:
#      x y z
#    x 1.987060 0.000000 0.010930 
#    y 0.000000 1.976280 0.000000 
#    z 0.010930 0.000000 2.000290 
# 
# From -- ./inp_files/25722.got.cif
#   From: 2010.06.25/outbox.cif.g09.slc.cpg/sg13_13_cif.got.tgz:25722.got - 2010.06.28 04:50:58.
