data_PCOD8122488
_publ_section_title
;
Structure prediction by ZEFSAII (Michael W. Deem and Ramdas Pophale) SiO2 
 PCOD8122488
Probable space group: P 2/C
;
_chemical_formula_sum "Si O2"
_cell_formula_units_Z 32
_cell_length_a 17.252433
_cell_length_b 11.432227
_cell_length_c 22.781939
_cell_angle_alpha 90.000000
_cell_angle_beta 20.147164
_cell_angle_gamma 90.000000
_cell_volume 1547.662057
_symmetry_space_group_name_H-M "P 2/C"
_symmetry_group_IT_number 13
_symmetry_cell_setting 'monoclinic'
loop_
_space_group_symop_operation_xyz
x,y,z
-x,y,1/2-z
-x,-y,-z
x,-y,1/2+z
loop_
_atom_site_type_symbol
_atom_site_label
_atom_site_fract_x
_atom_site_fract_y
_atom_site_fract_z
Si Si1 0.158333 0.632653 0.013675
Si Si2 0.277501 0.883770 0.940968
Si Si3 0.458589 0.834876 0.593890
Si Si4 0.262679 0.025604 0.062400
Si Si5 0.570556 0.370870 0.297104
Si Si6 0.561309 0.787916 0.394219
Si Si7 0.916142 0.988090 0.124382
Si Si8 0.679122 0.460425 0.823937
O O1 0.924473 0.559459 0.180850
O O2 0.125382 0.767285 0.059683
O O3 0.243988 0.638733 0.885660
O O4 0.340998 0.577459 0.930023
O O5 0.500000 0.837701 0.750000
O O6 0.363194 0.957008 0.935542
O O7 0.136665 0.981516 0.007152
O O8 0.642739 0.940111 0.454160
O O9 0.487890 0.755570 0.631830
O O10 0.490991 0.761781 0.511751
O O11 0.213454 0.893673 0.766628
O O12 0.000000 0.029583 0.250000
O O13 0.354739 0.156913 0.004200
O O14 0.681698 0.445850 0.269972
O O15 0.614001 0.657799 0.334995
O O16 0.773724 0.870401 0.233467
O O17 0.000000 0.000000 0.000000
O O18 0.500000 0.500000 0.000000
#
# Coordination Sequence:
#
# PCOD8122488 Si02
#       8
#     4   4   4   4   4   4   4   4
#     4  11  23  44  70  98 130 170 228 292 336 401
#     4  12  20  38  65  98 129 163 221 277 329 401
#     4  11  21  39  64  96 130 170 215 272 337 400
#     4  11  22  36  61  92 128 170 207 267 341 397
#     4  11  23  45  71 101 129 174 235 286 340 404
#     4  11  23  42  59  92 136 169 218 270 335 410
#     4  11  22  37  64  95 129 173 213 273 342 404
#     4  12  26  45  69  97 134 183 231 283 343 406
#
# _framework density 20.676348999999998
#
# number of rings (size 3 to 8) (size 9 to 14) (size 15 to 20)
#    0.000    0.750    5.000    5.625    0.000    0.500 
#    2.250    0.000    5.500    0.000    0.000    0.000 
#    0.000    0.000    0.000    0.000    0.000    0.000 
#
# Total GULP energy -396567.178129 kJ/mol
# GULP energy per Si atom -12392.724317 kJ/mol
# Density = 2.062929 g / cm^3
# Si number density = 20.676349 Si / 1000 Ang^3
#
#
#
# Elastic Constant Matrix: (Units=GPa)
#
#
# Indices 1 2 3 4 5 6 
#
# 1 79.2178 26.7471 29.7318 0.0000 -8.4185 0.0000
# 2 26.7471 84.9526 26.5598 0.0000 -8.6507 0.0000
# 3 29.7318 26.5598 107.1537 0.0000 -14.9074 0.0000
# 4 0.0000 0.0000 0.0000 82.3689 0.0000 -28.7862
# 5 -8.4185 -8.6507 -14.9074 0.0000 40.8771 0.0000
# 6 0.0000 0.0000 0.0000 -28.7862 0.0000 52.8095
#
#
#
# Elastic Compliance Matrix: (Units=1/GPa)
#
#
# Indices 1 2 3 4 5 6 
#
# 1 0.015167 -0.003674 -0.003130 0.000000 0.001205 0.000000
# 2 -0.003674 0.013754 -0.002202 0.000000 0.001351 0.000000
# 3 -0.003130 -0.002202 0.011158 0.000000 0.002959 0.000000
# 4 0.000000 0.000000 0.000000 0.014998 0.000000 0.008175
# 5 0.001205 0.001351 0.002959 0.000000 0.026077 0.000000
# 6 0.000000 0.000000 0.000000 0.008175 0.000000 0.023392
#
#
# Mechanical properties :
#
#
# Convention : Reuss Voigt Hill
#
# Bulk Modulus (GPa) = 45.31584 48.60016 46.95800
# Shear Modulus (GPa) = 38.48746 47.76346 43.12546
#
# Velocity S-wave (km/s) = 4.31910 4.81152 4.57194
# Velocity P-wave (km/s) = 6.84377 7.37725 7.11551
#
# Compressibility (1/GPa) = 0.02206734
#
# Stress axis : x y z
#
# Youngs Moduli (GPa) = 65.93410 72.70635 89.61985
#
# Poissons Ratio (x) = 0.26712 0.28051
# Poissons Ratio (y) = 0.24224 0.19732
# Poissons Ratio (z) = 0.20638 0.16008
#
# Static dielectric constant tensor:
#      x y z
#    x 3.664230 0.000000 -0.113480 
#    y 0.000000 3.741920 0.000000 
#    z -0.113480 0.000000 3.702080 
# 
# 
# High freq. dielectric constant tensor:
#      x y z
#    x 1.817440 0.000000 -0.002670 
#    y 0.000000 1.794510 0.000000 
#    z -0.002670 0.000000 1.811600 
# 
# From -- ./inp_files/88176.got.cif
#   From: 2010.06.25/outbox.cif.g09.slc.cpg/sg13_45_cif.got.tgz:88176.got - 2010.06.28 04:50:58.
