data_PCOD8122297
_publ_section_title
;
Structure prediction by ZEFSAII (Michael W. Deem and Ramdas Pophale) SiO2 
 PCOD8122297
Probable space group: P 2/C
;
_chemical_formula_sum "Si O2"
_cell_formula_units_Z 32
_cell_length_a 14.717602
_cell_length_b 22.656729
_cell_length_c 9.176489
_cell_angle_alpha 90.000000
_cell_angle_beta 148.625415
_cell_angle_gamma 90.000000
_cell_volume 1593.091823
_symmetry_space_group_name_H-M "P 2/C"
_symmetry_group_IT_number 13
_symmetry_cell_setting 'monoclinic'
loop_
_space_group_symop_operation_xyz
x,y,z
-x,y,1/2-z
-x,-y,-z
x,-y,1/2+z
loop_
_atom_site_type_symbol
_atom_site_label
_atom_site_fract_x
_atom_site_fract_y
_atom_site_fract_z
Si Si1 0.096896 0.544815 0.234415
Si Si2 0.340405 0.252587 0.938744
Si Si3 0.801541 0.930414 0.481407
Si Si4 0.483962 0.828543 0.394672
Si Si5 0.839627 0.633005 0.420837
Si Si6 0.606186 0.462565 0.759275
Si Si7 0.805793 0.844336 0.038352
Si Si8 0.293203 0.035664 0.954447
O O1 0.112005 0.605087 0.167552
O O2 0.275508 0.513423 0.512979
O O3 0.000000 0.560203 0.250000
O O4 0.000000 0.500000 0.000000
O O5 0.414237 0.224886 0.893262
O O6 0.216816 0.302586 0.706261
O O7 0.243706 0.204270 0.907231
O O8 0.500000 0.280497 0.250000
O O9 0.657949 0.879930 0.293390
O O10 0.762344 0.969789 0.287925
O O11 0.776110 0.973996 0.580956
O O12 0.000000 0.904906 0.750000
O O13 0.500000 0.807581 0.250000
O O14 0.672175 0.846657 0.718846
O O15 0.695757 0.592992 0.303973
O O16 0.000000 0.638643 0.750000
O O17 0.500000 0.435461 0.750000
O O18 0.500000 0.500000 0.500000
O O19 0.803854 0.908437 0.108570
O O20 0.000000 0.829446 0.250000
O O21 0.500000 0.043869 0.250000
#
# Coordination Sequence:
#
# PCOD8122297 Si02
#       8
#     4   4   4   4   4   4   4   4
#     4  12  21  42  65  95 140 176 210 268 333 394
#     4  10  25  51  68  93 134 179 228 279 337 401
#     4  12  26  40  67 103 142 177 224 282 345 411
#     4  11  25  45  71 100 134 178 226 286 342 405
#     4  12  26  43  69 101 134 178 225 276 329 406
#     4  12  23  38  65 101 135 174 215 265 333 394
#     4  11  24  46  73  96 135 182 225 277 349 411
#     4  12  23  44  65 100 143 178 222 285 344 409
#
# _framework density 20.086728000000001
#
# number of rings (size 3 to 8) (size 9 to 14) (size 15 to 20)
#    0.000    0.500    6.250    1.875    5.250    2.500 
#    0.000    2.500    0.000    0.000    0.000    0.000 
#    0.000    0.000    0.000    0.000    0.000    0.000 
#
# Total GULP energy -396721.799851 kJ/mol
# GULP energy per Si atom -12397.556245 kJ/mol
# Density = 2.004101 g / cm^3
# Si number density = 20.086728 Si / 1000 Ang^3
#
#
#
# Elastic Constant Matrix: (Units=GPa)
#
#
# Indices 1 2 3 4 5 6 
#
# 1 147.2317 35.0953 60.1328 0.0000 -10.5379 0.0000
# 2 35.0953 95.2089 48.3677 0.0000 -3.1473 0.0000
# 3 60.1328 48.3677 141.8832 0.0000 3.3725 0.0000
# 4 0.0000 0.0000 0.0000 151.7537 0.0000 171.1569
# 5 -10.5379 -3.1473 3.3725 0.0000 38.0628 0.0000
# 6 0.0000 0.0000 0.0000 171.1569 0.0000 309.3475
#
#
#
# Elastic Compliance Matrix: (Units=1/GPa)
#
#
# Indices 1 2 3 4 5 6 
#
# 1 0.008640 -0.001463 -0.003224 0.000000 0.002557 0.000000
# 2 -0.001463 0.013030 -0.003846 0.000000 0.001013 0.000000
# 3 -0.003224 -0.003846 0.009775 0.000000 -0.002077 0.000000
# 4 0.000000 0.000000 0.000000 0.017527 0.000000 -0.009697
# 5 0.002557 0.001013 -0.002077 0.000000 0.027248 0.000000
# 6 0.000000 0.000000 0.000000 -0.009697 0.000000 0.008598
#
#
# Mechanical properties :
#
#
# Convention : Reuss Voigt Hill
#
# Bulk Modulus (GPa) = 69.54282 74.61282 72.07782
# Shear Modulus (GPa) = 46.87059 115.88132 81.37596
#
# Velocity S-wave (km/s) = 4.83578 7.60367 6.37183
# Velocity P-wave (km/s) = 8.11641 10.69175 9.49183
#
# Compressibility (1/GPa) = 0.01437963
#
# Stress axis : x y z
#
# Youngs Moduli (GPa) = 115.73431 76.74791 102.30194
#
# Poissons Ratio (x) = 0.11225 0.32984
# Poissons Ratio (y) = 0.16927 0.39346
# Poissons Ratio (z) = 0.37315 0.29517
#
# Static dielectric constant tensor:
#      x y z
#    x 1.620000 0.000000 1.163340 
#    y 0.000000 3.422940 0.000000 
#    z 1.163340 0.000000 3.369430 
# 
# 
# High freq. dielectric constant tensor:
#      x y z
#    x 1.802120 0.000000 -0.009480 
#    y 0.000000 1.772540 0.000000 
#    z -0.009480 0.000000 1.805740 
# 
# From -- ./inp_files/20234.got.cif
#   From: 2010.06.25/outbox.cif.g09.slc.cpg/sg13_11_cif.got.tgz:20234.got - 2010.06.28 04:50:58.
