data_PCOD8122620
_publ_section_title
;
Structure prediction by ZEFSAII (Michael W. Deem and Ramdas Pophale) SiO2 
 PCOD8122620
Probable space group: P 2/C
;
_chemical_formula_sum "Si O2"
_cell_formula_units_Z 26
_cell_length_a 10.598361
_cell_length_b 6.678107
_cell_length_c 18.562682
_cell_angle_alpha 90.000000
_cell_angle_beta 116.592647
_cell_angle_gamma 90.000000
_cell_volume 1174.824921
_symmetry_space_group_name_H-M "P 2/C"
_symmetry_group_IT_number 13
_symmetry_cell_setting 'monoclinic'
loop_
_space_group_symop_operation_xyz
x,y,z
-x,y,1/2-z
-x,-y,-z
x,-y,1/2+z
loop_
_atom_site_type_symbol
_atom_site_label
_atom_site_fract_x
_atom_site_fract_y
_atom_site_fract_z
Si Si1 0.542374 0.215892 0.989414
Si Si2 0.374840 0.054257 0.638306
Si Si3 0.705161 0.521341 0.112552
Si Si4 0.500000 0.267483 0.250000
Si Si5 0.291221 0.393920 0.720966
Si Si6 0.092085 0.814341 0.543911
Si Si7 0.019419 0.528926 0.398160
O O1 0.606666 0.202056 0.924983
O O2 0.397426 0.339050 0.960569
O O3 0.658328 0.298082 0.075883
O O4 0.500000 0.000000 0.000000
O O5 0.364444 0.198828 0.705767
O O6 0.500407 0.889337 0.682012
O O7 0.242569 0.905876 0.599457
O O8 0.677320 0.587537 0.186713
O O9 0.871388 0.540411 0.139937
O O10 0.640308 0.402977 0.293244
O O11 0.126453 0.368297 0.662021
O O12 0.096733 0.647209 0.482336
O O13 0.017888 0.701547 0.592318
O O14 0.000000 0.000000 0.500000
#
# Coordination Sequence:
#
# PCOD8122620 Si02
#       7
#     4   4   4   2   4   4   4
#     4  11  24  44  68  99 133 179 228 285 341 408
#     4  12  24  43  72 101 137 182 239 288 343 423
#     4  11  25  43  67  97 138 177 223 278 350 411
#     4  12  24  42  66  98 136 180 230 292 344 406
#     4  12  25  44  67 100 138 180 223 286 350 415
#     4  11  22  42  69 100 130 172 233 281 333 411
#     4  11  24  42  69  99 134 179 222 282 347 408
#
# _framework density 22.130956000000001
#
# number of rings (size 3 to 8) (size 9 to 14) (size 15 to 20)
#    0.000    0.615    3.077    5.538    2.154    2.462 
#    0.000    0.000    0.000    0.000    0.000    0.000 
#    0.000    0.000    0.000    0.000    0.000    0.000 
#
# Total GULP energy -322163.434414 kJ/mol
# GULP energy per Si atom -12390.901324 kJ/mol
# Density = 2.208059 g / cm^3
# Si number density = 22.130956 Si / 1000 Ang^3
#
#
#
# Elastic Constant Matrix: (Units=GPa)
#
#
# Indices 1 2 3 4 5 6 
#
# 1 118.7105 47.4242 33.5944 0.0000 2.0657 0.0000
# 2 47.4242 129.3895 40.5906 0.0000 8.6809 0.0000
# 3 33.5944 40.5906 88.5179 0.0000 -2.8829 0.0000
# 4 0.0000 0.0000 0.0000 52.1115 0.0000 8.2427
# 5 2.0657 8.6809 -2.8829 0.0000 36.0971 0.0000
# 6 0.0000 0.0000 0.0000 8.2427 0.0000 37.0064
#
#
#
# Elastic Compliance Matrix: (Units=1/GPa)
#
#
# Indices 1 2 3 4 5 6 
#
# 1 0.010341 -0.002982 -0.002560 0.000000 -0.000079 0.000000
# 2 -0.002982 0.010119 -0.003592 0.000000 -0.002550 0.000000
# 3 -0.002560 -0.003592 0.013985 0.000000 0.002127 0.000000
# 4 0.000000 0.000000 0.000000 0.019890 0.000000 -0.004430
# 5 -0.000079 -0.002550 0.002127 0.000000 0.028491 0.000000
# 6 0.000000 0.000000 0.000000 -0.004430 0.000000 0.028009
#
#
# Mechanical properties :
#
#
# Convention : Reuss Voigt Hill
#
# Bulk Modulus (GPa) = 61.81047 64.42625 63.11836
# Shear Modulus (GPa) = 37.17620 39.37694 38.27657
#
# Velocity S-wave (km/s) = 4.10302 4.22271 4.16330
# Velocity P-wave (km/s) = 7.10186 7.27665 7.18979
#
# Compressibility (1/GPa) = 0.01617849
#
# Stress axis : x y z
#
# Youngs Moduli (GPa) = 96.70374 98.82098 71.50564
#
# Poissons Ratio (x) = 0.29467 0.18304
# Poissons Ratio (y) = 0.28835 0.25682
# Poissons Ratio (z) = 0.24754 0.35493
#
# Static dielectric constant tensor:
#      x y z
#    x 3.524500 0.000000 0.343540 
#    y 0.000000 4.411650 0.000000 
#    z 0.343540 0.000000 3.610250 
# 
# 
# High freq. dielectric constant tensor:
#      x y z
#    x 1.863440 0.000000 0.016840 
#    y 0.000000 1.887420 0.000000 
#    z 0.016840 0.000000 1.874440 
# 
# From -- ./inp_files/77341.got.cif
#   From: 2010.06.25/outbox.cif.g09.slc.cpg/sg13_39_cif.got.tgz:77341.got - 2010.06.28 04:50:58.
