data_PCOD8122841
_publ_section_title
;
Structure prediction by ZEFSAII (Michael W. Deem and Ramdas Pophale) SiO2 
 PCOD8122841
Probable space group: P 2/C
;
_chemical_formula_sum "Si O2"
_cell_formula_units_Z 20
_cell_length_a 6.339063
_cell_length_b 9.285481
_cell_length_c 17.112619
_cell_angle_alpha 90.000000
_cell_angle_beta 81.660512
_cell_angle_gamma 90.000000
_cell_volume 996.619319
_symmetry_space_group_name_H-M "P 2/C"
_symmetry_group_IT_number 13
_symmetry_cell_setting 'monoclinic'
loop_
_space_group_symop_operation_xyz
x,y,z
-x,y,1/2-z
-x,-y,-z
x,-y,1/2+z
loop_
_atom_site_type_symbol
_atom_site_label
_atom_site_fract_x
_atom_site_fract_y
_atom_site_fract_z
Si Si1 0.695463 0.573013 0.534633
Si Si2 0.070575 0.048883 0.835867
Si Si3 0.572244 0.193946 0.161938
Si Si4 0.919277 0.288173 0.557222
Si Si5 0.295604 0.927008 0.551225
O O1 0.500000 0.500000 0.500000
O O2 0.635077 0.664246 0.613149
O O3 0.832865 0.448554 0.565814
O O4 0.827683 0.684410 0.472263
O O5 0.140631 0.210700 0.856560
O O6 0.000000 0.043858 0.750000
O O7 0.245270 0.927878 0.842947
O O8 0.890304 0.036148 0.913889
O O9 0.500000 0.245619 0.250000
O O10 0.364972 0.130890 0.131543
O O11 0.800838 0.201107 0.494694
O O12 0.500000 0.000000 0.500000
#
# Coordination Sequence:
#
# PCOD8122841 Si02
#       5
#     4   4   4   4   4
#     4  11  24  44  66  94 132 179 225 271 333 406
#     4  12  25  43  65  99 136 169 220 284 342 399
#     4  12  24  43  66  97 133 176 220 278 344 403
#     4  11  24  42  67  96 129 173 230 275 327 409
#     4  12  22  39  72  97 126 171 226 281 333 397
#
# _framework density 20.067843
#
# number of rings (size 3 to 8) (size 9 to 14) (size 15 to 20)
#    0.000    0.400    8.000    1.800    0.000    0.000 
#    3.600    0.000    0.000    0.000    0.000    0.000 
#    0.000    0.000    0.000    0.000    0.000    0.000 
#
# Total GULP energy -247801.936296 kJ/mol
# GULP energy per Si atom -12390.096815 kJ/mol
# Density = 2.002217 g / cm^3
# Si number density = 20.067843 Si / 1000 Ang^3
#
#
#
# Elastic Constant Matrix: (Units=GPa)
#
#
# Indices 1 2 3 4 5 6 
#
# 1 100.7137 38.8725 45.3351 0.0000 2.9639 0.0000
# 2 38.8725 118.0564 60.0839 0.0000 -1.9895 0.0000
# 3 45.3351 60.0839 113.8155 0.0000 5.1108 0.0000
# 4 0.0000 0.0000 0.0000 31.7576 0.0000 1.4853
# 5 2.9639 -1.9895 5.1108 0.0000 41.5757 0.0000
# 6 0.0000 0.0000 0.0000 1.4853 0.0000 38.6606
#
#
#
# Elastic Compliance Matrix: (Units=1/GPa)
#
#
# Indices 1 2 3 4 5 6 
#
# 1 0.012500 -0.002192 -0.003798 0.000000 -0.000529 0.000000
# 2 -0.002192 0.012038 -0.005546 0.000000 0.001414 0.000000
# 3 -0.003798 -0.005546 0.013300 0.000000 -0.001630 0.000000
# 4 0.000000 0.000000 0.000000 0.031545 0.000000 -0.001212
# 5 -0.000529 0.001414 -0.001630 0.000000 0.024358 0.000000
# 6 0.000000 0.000000 0.000000 -0.001212 0.000000 0.025913
#
#
# Mechanical properties :
#
#
# Convention : Reuss Voigt Hill
#
# Bulk Modulus (GPa) = 67.71772 69.01873 68.36823
# Shear Modulus (GPa) = 33.86414 34.95174 34.40794
#
# Velocity S-wave (km/s) = 4.11235 4.17787 4.14524
# Velocity P-wave (km/s) = 7.50775 7.59869 7.55336
#
# Compressibility (1/GPa) = 0.01476718
#
# Stress axis : x y z
#
# Youngs Moduli (GPa) = 79.99700 83.06713 75.18879
#
# Poissons Ratio (x) = 0.18207 0.28559
# Poissons Ratio (y) = 0.17534 0.41697
# Poissons Ratio (z) = 0.30386 0.46066
#
# Static dielectric constant tensor:
#      x y z
#    x 4.474040 0.000000 -0.028690 
#    y 0.000000 3.795330 0.000000 
#    z -0.028690 0.000000 3.729670 
# 
# 
# High freq. dielectric constant tensor:
#      x y z
#    x 1.798850 0.000000 0.004220 
#    y 0.000000 1.797110 0.000000 
#    z 0.004220 0.000000 1.777540 
# 
# From -- ./inp_files/60579.got.cif
#   From: 2010.06.25/outbox.cif.g09.slc.cpg/sg13_31_cif.got.tgz:60579.got - 2010.06.28 04:50:58.
