data_PCOD8122676
_publ_section_title
;
Structure prediction by ZEFSAII (Michael W. Deem and Ramdas Pophale) SiO2 
 PCOD8122676
Probable space group: P 2/C
;
_chemical_formula_sum "Si O2"
_cell_formula_units_Z 28
_cell_length_a 14.821322
_cell_length_b 8.888565
_cell_length_c 10.886725
_cell_angle_alpha 90.000000
_cell_angle_beta 67.512273
_cell_angle_gamma 90.000000
_cell_volume 1325.164264
_symmetry_space_group_name_H-M "P 2/C"
_symmetry_group_IT_number 13
_symmetry_cell_setting 'monoclinic'
loop_
_space_group_symop_operation_xyz
x,y,z
-x,y,1/2-z
-x,-y,-z
x,-y,1/2+z
loop_
_atom_site_type_symbol
_atom_site_label
_atom_site_fract_x
_atom_site_fract_y
_atom_site_fract_z
Si Si1 0.959397 0.191996 0.401112
Si Si2 0.053424 0.837980 0.101663
Si Si3 0.270770 0.134589 0.444048
Si Si4 0.735846 0.211014 0.536528
Si Si5 0.591490 0.609254 0.277931
Si Si6 0.351110 0.703772 0.675948
Si Si7 0.538090 0.164283 0.007184
O O1 0.849691 0.252469 0.473661
O O2 0.000000 0.258590 0.250000
O O3 0.018814 0.243786 0.492818
O O4 0.970572 0.013467 0.391277
O O5 0.000000 0.767647 0.250000
O O6 0.169196 0.818291 0.059585
O O7 0.281275 0.236970 0.318944
O O8 0.353903 0.172140 0.497259
O O9 0.275568 0.958609 0.406239
O O10 0.679526 0.325242 0.652587
O O11 0.691255 0.225271 0.425207
O O12 0.500000 0.540646 0.250000
O O13 0.641715 0.477425 0.331973
O O14 0.540102 0.739711 0.382285
O O15 0.460721 0.764344 0.641738
O O16 0.500000 0.000000 0.000000
#
# Coordination Sequence:
#
# PCOD8122676 Si02
#       7
#     4   4   4   4   4   4   4
#     4   9  18  36  61  89 126 164 206 268 328 379
#     4   9  19  34  59  95 128 159 210 269 329 381
#     4  11  23  39  66  96 129 166 214 269 327 382
#     4  11  24  40  65  96 128 167 214 270 322 383
#     4  12  25  42  63  89 133 175 218 262 322 395
#     4  12  25  42  64  92 131 174 215 259 324 395
#     4  12  23  41  65  94 130 169 213 270 326 379
#
# _framework density 21.129456000000001
#
# number of rings (size 3 to 8) (size 9 to 14) (size 15 to 20)
#    0.000    1.143    2.857    3.429    4.000    2.286 
#    0.000    0.000    0.000    4.286    0.000    0.000 
#    0.000    0.000    0.000    0.000    0.000    0.000 
#
# Total GULP energy -347177.116567 kJ/mol
# GULP energy per Si atom -12399.182735 kJ/mol
# Density = 2.108136 g / cm^3
# Si number density = 21.129456 Si / 1000 Ang^3
#
#
#
# Elastic Constant Matrix: (Units=GPa)
#
#
# Indices 1 2 3 4 5 6 
#
# 1 126.9717 21.9797 43.0151 0.0000 -13.8289 0.0000
# 2 21.9797 90.4713 36.2167 0.0000 -3.5898 0.0000
# 3 43.0151 36.2167 126.6860 0.0000 -9.2570 0.0000
# 4 0.0000 0.0000 0.0000 25.6914 0.0000 1.5910
# 5 -13.8289 -3.5898 -9.2570 0.0000 36.6152 0.0000
# 6 0.0000 0.0000 0.0000 1.5910 0.0000 24.0677
#
#
#
# Elastic Compliance Matrix: (Units=1/GPa)
#
#
# Indices 1 2 3 4 5 6 
#
# 1 0.009252 -0.001086 -0.002632 0.000000 0.002722 0.000000
# 2 -0.001086 0.012613 -0.003236 0.000000 0.000008 0.000000
# 3 -0.002632 -0.003236 0.009798 0.000000 0.001166 0.000000
# 4 0.000000 0.000000 0.000000 0.039084 0.000000 -0.002584
# 5 0.002722 0.000008 0.001166 0.000000 0.028635 0.000000
# 6 0.000000 0.000000 0.000000 -0.002584 0.000000 0.041720
#
#
# Mechanical properties :
#
#
# Convention : Reuss Voigt Hill
#
# Bulk Modulus (GPa) = 56.32679 60.72800 58.52740
# Shear Modulus (GPa) = 31.06980 33.46934 32.26957
#
# Velocity S-wave (km/s) = 3.83880 3.98428 3.91222
# Velocity P-wave (km/s) = 6.80914 7.06890 6.94023
#
# Compressibility (1/GPa) = 0.01775354
#
# Stress axis : x y z
#
# Youngs Moduli (GPa) = 108.08528 79.28337 102.06591
#
# Poissons Ratio (x) = 0.08611 0.26864
# Poissons Ratio (y) = 0.11739 0.33033
# Poissons Ratio (z) = 0.28448 0.25659
#
# Static dielectric constant tensor:
#      x y z
#    x 3.989860 0.000000 0.021800 
#    y 0.000000 3.559150 0.000000 
#    z 0.021800 0.000000 4.249850 
# 
# 
# High freq. dielectric constant tensor:
#      x y z
#    x 1.837130 0.000000 -0.007230 
#    y 0.000000 1.796340 0.000000 
#    z -0.007230 0.000000 1.840110 
# 
# From -- ./inp_files/36093.got.cif
#   From: 2010.06.25/outbox.cif.g09.slc.cpg/sg13_19_cif.got.tgz:36093.got - 2010.06.28 04:50:58.
