data_PCOD8122173
_publ_section_title
;
Structure prediction by ZEFSAII (Michael W. Deem and Ramdas Pophale) SiO2 
 PCOD8122173
Probable space group: P 2/C
;
_chemical_formula_sum "Si O2"
_cell_formula_units_Z 22
_cell_length_a 22.799483
_cell_length_b 4.712580
_cell_length_c 21.892201
_cell_angle_alpha 90.000000
_cell_angle_beta 160.086523
_cell_angle_gamma 90.000000
_cell_volume 801.158999
_symmetry_space_group_name_H-M "P 2/C"
_symmetry_group_IT_number 13
_symmetry_cell_setting 'monoclinic'
loop_
_space_group_symop_operation_xyz
x,y,z
-x,y,1/2-z
-x,-y,-z
x,-y,1/2+z
loop_
_atom_site_type_symbol
_atom_site_label
_atom_site_fract_x
_atom_site_fract_y
_atom_site_fract_z
Si Si1 0.849239 0.077173 0.146583
Si Si2 0.212655 0.830701 0.647676
Si Si3 0.657598 0.003457 0.107721
Si Si4 0.500000 0.745462 0.250000
Si Si5 0.412273 0.655346 0.294334
Si Si6 0.118669 0.412677 0.739004
O O1 0.864085 0.256549 0.225508
O O2 0.000000 0.186458 0.250000
O O3 0.883478 0.752752 0.198590
O O4 0.663413 0.071429 0.932255
O O5 0.188630 0.870738 0.698047
O O6 0.381100 0.634182 0.800630
O O7 0.053438 0.656374 0.466164
O O8 0.253443 0.125953 0.652310
O O9 0.717420 0.698625 0.140073
O O10 0.597055 0.208865 0.993598
O O11 0.500000 0.000000 0.000000
O O12 0.430277 0.568540 0.240175
#
# Coordination Sequence:
#
# PCOD8122173 Si02
#       6
#     4   4   4   2   4   4
#     4  12  28  47  72 108 146 192 246 305 359 453
#     4  11  24  45  73 101 146 185 236 301 371 424
#     4  10  24  45  72 105 146 185 245 298 359 447
#     4  12  26  46  76  96 150 188 246 292 374 412
#     4  11  25  44  69 107 136 193 243 294 359 441
#     4  12  25  47  70 107 144 186 247 297 376 432
#
# _framework density 27.460215999999999
#
# number of rings (size 3 to 8) (size 9 to 14) (size 15 to 20)
#    0.000    0.727    1.818    4.909    5.091    5.818 
#    0.000    6.364    0.000    0.000    0.000    0.000 
#    0.000    0.000    0.000    0.000    0.000    0.000 
#
# Total GULP energy -272678.458077 kJ/mol
# GULP energy per Si atom -12394.475367 kJ/mol
# Density = 2.739771 g / cm^3
# Si number density = 27.460216 Si / 1000 Ang^3
#
#
#
# Elastic Constant Matrix: (Units=GPa)
#
#
# Indices 1 2 3 4 5 6 
#
# 1 125.0654 -8.7390 14.9048 0.0000 -12.8476 0.0000
# 2 -8.7390 60.8410 -26.0278 0.0000 2.9130 0.0000
# 3 14.9048 -26.0278 133.2939 0.0000 -4.4715 0.0000
# 4 0.0000 0.0000 0.0000 25.7225 0.0000 9.8237
# 5 -12.8476 2.9130 -4.4715 0.0000 50.8314 0.0000
# 6 0.0000 0.0000 0.0000 9.8237 0.0000 29.3429
#
#
#
# Elastic Compliance Matrix: (Units=1/GPa)
#
#
# Indices 1 2 3 4 5 6 
#
# 1 0.008342 0.000799 -0.000710 0.000000 0.002000 0.000000
# 2 0.000799 0.018037 0.003415 0.000000 -0.000531 0.000000
# 3 -0.000710 0.003415 0.008260 0.000000 0.000352 0.000000
# 4 0.000000 0.000000 0.000000 0.044576 0.000000 -0.014924
# 5 0.002000 -0.000531 0.000352 0.000000 0.020240 0.000000
# 6 0.000000 0.000000 0.000000 -0.014924 0.000000 0.039076
#
#
# Mechanical properties :
#
#
# Convention : Reuss Voigt Hill
#
# Bulk Modulus (GPa) = 24.01111 31.05293 27.53202
# Shear Modulus (GPa) = 34.38661 43.78350 39.08506
#
# Velocity S-wave (km/s) = 3.54253 3.99737 3.77680
# Velocity P-wave (km/s) = 5.04932 5.71298 5.39137
#
# Compressibility (1/GPa) = 0.04164738
#
# Stress axis : x y z
#
# Youngs Moduli (GPa) = 119.87991 55.44041 121.06257
#
# Poissons Ratio (x) = -0.04429 0.08592
# Poissons Ratio (y) = -0.09576 -0.41342
# Poissons Ratio (z) = 0.08508 -0.18933
#
# Static dielectric constant tensor:
#      x y z
#    x 5.715140 0.000000 -0.562080 
#    y 0.000000 4.636380 0.000000 
#    z -0.562080 0.000000 5.579750 
# 
# 
# High freq. dielectric constant tensor:
#      x y z
#    x 2.125920 0.000000 0.005940 
#    y 0.000000 2.088520 0.000000 
#    z 0.005940 0.000000 2.129920 
# 
# From -- ./inp_files/88808.got.cif
#   From: 2010.06.25/outbox.cif.g09.slc.cpg/sg13_45_cif.got.tgz:88808.got - 2010.06.28 04:50:58.
