data_PCOD8122796
_publ_section_title
;
Structure prediction by ZEFSAII (Michael W. Deem and Ramdas Pophale) SiO2 
 PCOD8122796
Probable space group: P 2/C
;
_chemical_formula_sum "Si O2"
_cell_formula_units_Z 12
_cell_length_a 7.997353
_cell_length_b 7.100587
_cell_length_c 18.846910
_cell_angle_alpha 90.000000
_cell_angle_beta 150.934467
_cell_angle_gamma 90.000000
_cell_volume 519.932332
_symmetry_space_group_name_H-M "P 2/C"
_symmetry_group_IT_number 13
_symmetry_cell_setting 'monoclinic'
loop_
_space_group_symop_operation_xyz
x,y,z
-x,y,1/2-z
-x,-y,-z
x,-y,1/2+z
loop_
_atom_site_type_symbol
_atom_site_label
_atom_site_fract_x
_atom_site_fract_y
_atom_site_fract_z
Si Si1 0.616594 0.404444 0.616856
Si Si2 0.689499 0.203173 0.187735
Si Si3 0.878537 0.064457 0.031796
O O1 0.500000 0.500000 0.500000
O O2 0.625787 0.575236 0.677615
O O3 0.351751 0.253633 0.549950
O O4 0.000000 0.316074 0.750000
O O5 0.000000 0.174717 0.250000
O O6 0.781600 0.095624 0.294995
O O7 0.356497 0.107910 0.027581
O O8 0.000000 0.000000 0.000000
#
# Coordination Sequence:
#
# PCOD8122796 Si02
#       3
#     4   4   4
#     4  11  23  45  75 107 138 195 253 296 351 446
#     4  11  24  44  73 103 140 195 252 292 360 446
#     4  12  26  44  68 110 150 187 237 313 372 420
#
# _framework density 23.079926
#
# number of rings (size 3 to 8) (size 9 to 14) (size 15 to 20)
#    0.000    0.667    6.667    3.000    4.667    1.333 
#    0.000    3.333    0.000    0.000    0.000    0.000 
#    0.000    0.000    0.000    0.000    0.000    0.000 
#
# Total GULP energy -148739.558059 kJ/mol
# GULP energy per Si atom -12394.963172 kJ/mol
# Density = 2.302740 g / cm^3
# Si number density = 23.079926 Si / 1000 Ang^3
#
#
#
# Elastic Constant Matrix: (Units=GPa)
#
#
# Indices 1 2 3 4 5 6 
#
# 1 99.0508 54.5144 20.2165 0.0000 -3.2188 0.0000
# 2 54.5144 118.8568 25.8146 0.0000 8.4671 0.0000
# 3 20.2165 25.8146 96.7146 0.0000 -3.8089 0.0000
# 4 0.0000 0.0000 0.0000 40.2984 0.0000 0.0345
# 5 -3.2188 8.4671 -3.8089 0.0000 35.9592 0.0000
# 6 0.0000 0.0000 0.0000 0.0345 0.0000 34.8788
#
#
#
# Elastic Compliance Matrix: (Units=1/GPa)
#
#
# Indices 1 2 3 4 5 6 
#
# 1 0.013881 -0.006311 -0.001114 0.000000 0.002610 0.000000
# 2 -0.006311 0.012005 -0.002027 0.000000 -0.003606 0.000000
# 3 -0.001114 -0.002027 0.011175 0.000000 0.001561 0.000000
# 4 0.000000 0.000000 0.000000 0.024815 0.000000 -0.000025
# 5 0.002610 -0.003606 0.001561 0.000000 0.029057 0.000000
# 6 0.000000 0.000000 0.000000 -0.000025 0.000000 0.028671
#
#
# Mechanical properties :
#
#
# Convention : Reuss Voigt Hill
#
# Bulk Modulus (GPa) = 55.07520 57.30149 56.18834
# Shear Modulus (GPa) = 34.58729 36.49907 35.54318
#
# Velocity S-wave (km/s) = 3.87536 3.98102 3.92855
# Velocity P-wave (km/s) = 6.62866 6.78327 6.70641
#
# Compressibility (1/GPa) = 0.01815699
#
# Stress axis : x y z
#
# Youngs Moduli (GPa) = 72.03931 83.29779 89.48352
#
# Poissons Ratio (x) = 0.52566 0.09972
# Poissons Ratio (y) = 0.45462 0.18140
# Poissons Ratio (z) = 0.08028 0.16886
#
# Static dielectric constant tensor:
#      x y z
#    x 3.649100 0.000000 -0.982110 
#    y 0.000000 4.985190 0.000000 
#    z -0.982110 0.000000 -0.072140 
# 
# 
# High freq. dielectric constant tensor:
#      x y z
#    x 1.887040 0.000000 0.011440 
#    y 0.000000 1.925060 0.000000 
#    z 0.011440 0.000000 1.933160 
# 
# From -- ./inp_files/10560.got.cif
#   From: 2010.06.25/outbox.cif.g09.slc.cpg/sg13_6_cif.got.tgz:10560.got - 2010.06.28 04:50:58.
