data_PCOD8122589
_publ_section_title
;
Structure prediction by ZEFSAII (Michael W. Deem and Ramdas Pophale) SiO2 
 PCOD8122589
Probable space group: P 2/C
;
_chemical_formula_sum "Si O2"
_cell_formula_units_Z 20
_cell_length_a 14.708622
_cell_length_b 8.972336
_cell_length_c 13.134682
_cell_angle_alpha 90.000000
_cell_angle_beta 28.518861
_cell_angle_gamma 90.000000
_cell_volume 827.605148
_symmetry_space_group_name_H-M "P 2/C"
_symmetry_group_IT_number 13
_symmetry_cell_setting 'monoclinic'
loop_
_space_group_symop_operation_xyz
x,y,z
-x,y,1/2-z
-x,-y,-z
x,-y,1/2+z
loop_
_atom_site_type_symbol
_atom_site_label
_atom_site_fract_x
_atom_site_fract_y
_atom_site_fract_z
Si Si1 0.603490 0.933855 0.747821
Si Si2 0.194542 0.588101 0.320516
Si Si3 0.654286 0.816566 0.908877
Si Si4 0.455467 0.504179 0.909452
Si Si5 0.057654 0.857227 0.583633
O O1 0.500000 0.862574 0.750000
O O2 0.820520 0.992131 0.516627
O O3 0.601767 0.811780 0.839890
O O4 0.486621 0.079064 0.891768
O O5 0.343735 0.478542 0.230044
O O6 0.180542 0.738802 0.398219
O O7 0.000000 0.500000 0.500000
O O8 0.295040 0.619654 0.111516
O O9 0.865510 0.887779 0.709424
O O10 0.640134 0.657591 0.976916
O O11 0.500000 0.538362 0.750000
O O12 0.000000 0.788397 0.750000
#
# Coordination Sequence:
#
# PCOD8122589 Si02
#       5
#     4   4   4   4   4
#     4  11  23  41  65  96 132 172 218 271 328 387
#     4  11  24  38  67 101 129 163 228 274 314 394
#     4  11  22  39  69  95 129 171 223 271 316 399
#     4  11  23  44  69  94 130 181 218 265 334 392
#     4  12  22  40  71  96 129 178 222 262 331 398
#
# _framework density 24.166114
#
# number of rings (size 3 to 8) (size 9 to 14) (size 15 to 20)
#    0.000    0.800    6.000    2.400    0.000    0.000 
#    0.000    4.000    4.400    0.000    0.000    0.000 
#    0.000    0.000    0.000    0.000    0.000    0.000 
#
# Total GULP energy -247910.324016 kJ/mol
# GULP energy per Si atom -12395.516201 kJ/mol
# Density = 2.411111 g / cm^3
# Si number density = 24.166114 Si / 1000 Ang^3
#
#
#
# Elastic Constant Matrix: (Units=GPa)
#
#
# Indices 1 2 3 4 5 6 
#
# 1 138.8993 -4.1780 63.0965 0.0000 7.3299 0.0000
# 2 -4.1780 50.4675 21.4481 0.0000 4.1339 0.0000
# 3 63.0965 21.4481 164.5840 0.0000 13.2324 0.0000
# 4 0.0000 0.0000 0.0000 12.9439 0.0000 0.2534
# 5 7.3299 4.1339 13.2324 0.0000 72.6855 0.0000
# 6 0.0000 0.0000 0.0000 0.2534 0.0000 21.6076
#
#
#
# Elastic Compliance Matrix: (Units=1/GPa)
#
#
# Indices 1 2 3 4 5 6 
#
# 1 0.008979 0.002354 -0.003720 0.000000 -0.000362 0.000000
# 2 0.002354 0.021629 -0.003657 0.000000 -0.000802 0.000000
# 3 -0.003720 -0.003657 0.008050 0.000000 -0.000882 0.000000
# 4 0.000000 0.000000 0.000000 0.077274 0.000000 -0.000906
# 5 -0.000362 -0.000802 -0.000882 0.000000 0.014001 0.000000
# 6 0.000000 0.000000 0.000000 -0.000906 0.000000 0.046291
#
#
# Mechanical properties :
#
#
# Convention : Reuss Voigt Hill
#
# Bulk Modulus (GPa) = 34.94948 57.18709 46.06828
# Shear Modulus (GPa) = 25.53544 39.68636 32.61090
#
# Velocity S-wave (km/s) = 3.25416 4.05684 3.67747
# Velocity P-wave (km/s) = 5.34911 6.75718 6.09395
#
# Compressibility (1/GPa) = 0.02861273
#
# Stress axis : x y z
#
# Youngs Moduli (GPa) = 111.36807 46.23355 124.23093
#
# Poissons Ratio (x) = -0.10883 0.46214
# Poissons Ratio (y) = -0.26216 0.45427
# Poissons Ratio (z) = 0.41429 0.16906
#
# Static dielectric constant tensor:
#      x y z
#    x 4.765930 0.000000 -0.077530 
#    y 0.000000 3.938710 0.000000 
#    z -0.077530 0.000000 4.842580 
# 
# 
# High freq. dielectric constant tensor:
#      x y z
#    x 1.965780 0.000000 -0.005290 
#    y 0.000000 1.932020 0.000000 
#    z -0.005290 0.000000 1.984230 
# 
# From -- ./inp_files/37070.got.cif
#   From: 2010.06.25/outbox.cif.g09.slc.cpg/sg13_19_cif.got.tgz:37070.got - 2010.06.28 04:50:58.
