data_PCOD8122549
_publ_section_title
;
Structure prediction by ZEFSAII (Michael W. Deem and Ramdas Pophale) SiO2 
 PCOD8122549
Probable space group: P 2/C
;
_chemical_formula_sum "Si O2"
_cell_formula_units_Z 28
_cell_length_a 15.816803
_cell_length_b 11.781425
_cell_length_c 8.492357
_cell_angle_alpha 90.000000
_cell_angle_beta 117.596502
_cell_angle_gamma 90.000000
_cell_volume 1402.465321
_symmetry_space_group_name_H-M "P 2/C"
_symmetry_group_IT_number 13
_symmetry_cell_setting 'monoclinic'
loop_
_space_group_symop_operation_xyz
x,y,z
-x,y,1/2-z
-x,-y,-z
x,-y,1/2+z
loop_
_atom_site_type_symbol
_atom_site_label
_atom_site_fract_x
_atom_site_fract_y
_atom_site_fract_z
Si Si1 0.396165 0.435984 0.716024
Si Si2 0.728671 0.339982 0.417423
Si Si3 0.899233 0.658720 0.608818
Si Si4 0.560006 0.693770 0.945160
Si Si5 0.458139 0.888219 0.043439
Si Si6 0.284926 0.248946 0.432198
Si Si7 0.097725 0.580369 0.249091
O O1 0.500000 0.472309 0.750000
O O2 0.319628 0.535976 0.636446
O O3 0.361468 0.330218 0.581570
O O4 0.404854 0.404685 0.907441
O O5 0.656524 0.255656 0.449610
O O6 0.750478 0.291594 0.266238
O O7 0.824271 0.342200 0.600040
O O8 0.813352 0.751848 0.549376
O O9 0.906195 0.608992 0.438852
O O10 0.878229 0.552964 0.708174
O O11 0.000000 0.714767 0.750000
O O12 0.500000 0.638360 0.750000
O O13 0.495147 0.786078 0.970103
O O14 0.500000 0.879460 0.250000
O O15 0.341935 0.872142 0.959264
O O16 0.500000 0.000000 0.000000
O O17 0.000000 0.611946 0.250000
#
# Coordination Sequence:
#
# PCOD8122549 Si02
#       7
#     4   4   4   4   4   4   4
#     4  12  22  36  52  83 127 169 201 246 291 361
#     4  12  24  33  58  86 127 168 208 243 298 355
#     4  11  22  38  58  85 125 168 211 257 297 352
#     4  12  22  40  56  87 117 162 208 251 300 370
#     4  12  26  46  66  86 118 157 206 264 321 374
#     4  12  22  40  59  90 120 162 210 252 301 368
#     4  11  22  37  56  84 124 175 216 247 292 353
#
# _framework density 19.964842999999998
#
# number of rings (size 3 to 8) (size 9 to 14) (size 15 to 20)
#    0.000    0.286    5.714    6.000    0.000    1.714 
#    0.000    0.000    0.000    0.000    0.000    2.000 
#    0.000    0.000    0.000    0.000    0.000    0.000 
#
# Total GULP energy -346964.425311 kJ/mol
# GULP energy per Si atom -12391.586618 kJ/mol
# Density = 1.991940 g / cm^3
# Si number density = 19.964843 Si / 1000 Ang^3
#
#
#
# Elastic Constant Matrix: (Units=GPa)
#
#
# Indices 1 2 3 4 5 6 
#
# 1 143.0566 33.8370 45.4095 0.0000 11.3064 0.0000
# 2 33.8370 48.5964 25.9663 0.0000 2.8857 0.0000
# 3 45.4095 25.9663 138.9408 0.0000 0.8323 0.0000
# 4 0.0000 0.0000 0.0000 -6.4760 0.0000 9.5531
# 5 11.3064 2.8857 0.8323 0.0000 43.8771 0.0000
# 6 0.0000 0.0000 0.0000 9.5531 0.0000 17.6839
#
#
#
# Elastic Compliance Matrix: (Units=1/GPa)
#
#
# Indices 1 2 3 4 5 6 
#
# 1 0.008970 -0.005077 -0.001971 0.000000 -0.001940 0.000000
# 2 -0.005077 0.025824 -0.003165 0.000000 -0.000330 0.000000
# 3 -0.001971 -0.003165 0.008430 0.000000 0.000556 0.000000
# 4 0.000000 0.000000 0.000000 -0.085935 0.000000 0.046423
# 5 -0.001940 -0.000330 0.000556 0.000000 0.023302 0.000000
# 6 0.000000 0.000000 0.000000 0.046423 0.000000 0.031470
#
#
# Mechanical properties :
#
#
# Convention : Reuss Voigt Hill
#
# Bulk Modulus (GPa) = 43.86563 60.11326 51.98945
# Shear Modulus (GPa) = 124.73166 26.04239 75.38703
#
# Velocity S-wave (km/s) = 7.91273 3.61558 6.15157
# Velocity P-wave (km/s) = 10.27136 6.89963 8.74945
#
# Compressibility (1/GPa) = 0.02279689
#
# Stress axis : x y z
#
# Youngs Moduli (GPa) = 111.48000 38.72437 118.62881
#
# Poissons Ratio (x) = 0.19662 0.23384
# Poissons Ratio (y) = 0.56603 0.37543
# Poissons Ratio (z) = 0.21975 0.12255
#
# Static dielectric constant tensor:
#      x y z
#    x 4.176890 0.000000 -0.145940 
#    y 0.000000 3.248050 0.000000 
#    z -0.145940 0.000000 4.124650 
# 
# 
# High freq. dielectric constant tensor:
#      x y z
#    x 1.799900 0.000000 -0.008450 
#    y 0.000000 1.703510 0.000000 
#    z -0.008450 0.000000 1.808530 
# 
# From -- ./inp_files/19093.got.cif
#   From: 2010.06.25/outbox.cif.g09.slc.cpg/sg13_10_cif.got.tgz:19093.got - 2010.06.28 04:50:58.
