data_PCOD8122185
_publ_section_title
;
Structure prediction by ZEFSAII (Michael W. Deem and Ramdas Pophale) SiO2 
 PCOD8122185
Probable space group: P 2/C
;
_chemical_formula_sum "Si O2"
_cell_formula_units_Z 26
_cell_length_a 9.252023
_cell_length_b 19.206402
_cell_length_c 9.433198
_cell_angle_alpha 90.000000
_cell_angle_beta 134.902052
_cell_angle_gamma 90.000000
_cell_volume 1187.320144
_symmetry_space_group_name_H-M "P 2/C"
_symmetry_group_IT_number 13
_symmetry_cell_setting 'monoclinic'
loop_
_space_group_symop_operation_xyz
x,y,z
-x,y,1/2-z
-x,-y,-z
x,-y,1/2+z
loop_
_atom_site_type_symbol
_atom_site_label
_atom_site_fract_x
_atom_site_fract_y
_atom_site_fract_z
Si Si1 0.007413 0.428482 0.422315
Si Si2 0.654415 0.679581 0.238863
Si Si3 0.630931 0.338143 0.203387
Si Si4 0.500000 0.014251 0.250000
Si Si5 0.565244 0.906907 0.526106
Si Si6 0.149499 0.177928 0.719848
Si Si7 0.867463 0.206359 0.282176
O O1 0.803097 0.394510 0.335945
O O2 0.000000 0.441963 0.250000
O O3 0.000000 0.500000 0.500000
O O4 0.195913 0.378170 0.592002
O O5 0.500000 0.710185 0.250000
O O6 0.769126 0.743229 0.241556
O O7 0.513700 0.641763 0.026857
O O8 0.500000 0.340541 0.250000
O O9 0.732185 0.262216 0.268681
O O10 0.620363 0.964309 0.443975
O O11 0.378666 0.064075 0.276563
O O12 0.330532 0.879257 0.357307
O O13 0.716670 0.844988 0.595881
O O14 0.000000 0.172742 0.750000
O O15 0.011986 0.162595 0.487091
O O16 0.000000 0.244093 0.250000
#
# Coordination Sequence:
#
# PCOD8122185 Si02
#       7
#     4   4   4   2   4   4   4
#     4  12  29  50  73 104 149 189 231 286 349 418
#     4  12  25  45  73 104 144 181 235 291 350 411
#     4  12  26  44  72 109 143 182 235 294 349 414
#     4  10  24  46  66  94 142 190 222 284 354 430
#     4  11  24  45  68  96 142 184 231 287 353 408
#     4  12  25  40  72 109 136 179 234 293 351 405
#     4  12  24  42  72 106 136 179 238 291 350 408
#
# _framework density 21.898054999999999
#
# number of rings (size 3 to 8) (size 9 to 14) (size 15 to 20)
#    0.000    0.308    4.615    4.154    4.308    1.231 
#    0.000   15.385    0.000    0.000    0.000    0.000 
#    0.000    0.000    0.000    0.000    0.000    0.000 
#
# Total GULP energy -322264.351740 kJ/mol
# GULP energy per Si atom -12394.782759 kJ/mol
# Density = 2.184821 g / cm^3
# Si number density = 21.898055 Si / 1000 Ang^3
#
#
#
# Elastic Constant Matrix: (Units=GPa)
#
#
# Indices 1 2 3 4 5 6 
#
# 1 144.4733 37.3477 63.5592 0.0000 -5.6784 0.0000
# 2 37.3477 111.0798 40.6011 0.0000 7.2543 0.0000
# 3 63.5592 40.6011 136.1197 0.0000 -0.8057 0.0000
# 4 0.0000 0.0000 0.0000 36.4154 0.0000 -7.5340
# 5 -5.6784 7.2543 -0.8057 0.0000 42.8059 0.0000
# 6 0.0000 0.0000 0.0000 -7.5340 0.0000 27.3996
#
#
#
# Elastic Compliance Matrix: (Units=1/GPa)
#
#
# Indices 1 2 3 4 5 6 
#
# 1 0.009065 -0.001793 -0.003689 0.000000 0.001437 0.000000
# 2 -0.001793 0.010595 -0.002335 0.000000 -0.002077 0.000000
# 3 -0.003689 -0.002335 0.009766 0.000000 0.000090 0.000000
# 4 0.000000 0.000000 0.000000 0.029117 0.000000 0.008006
# 5 0.001437 -0.002077 0.000090 0.000000 0.023906 0.000000
# 6 0.000000 0.000000 0.000000 0.008006 0.000000 0.038698
#
#
# Mechanical properties :
#
#
# Convention : Reuss Voigt Hill
#
# Bulk Modulus (GPa) = 72.51409 74.96541 73.73975
# Shear Modulus (GPa) = 35.36594 38.00182 36.68388
#
# Velocity S-wave (km/s) = 4.02310 4.17033 4.09738
# Velocity P-wave (km/s) = 7.40045 7.58268 7.49212
#
# Compressibility (1/GPa) = 0.01379042
#
# Stress axis : x y z
#
# Youngs Moduli (GPa) = 110.31699 94.38757 102.39403
#
# Poissons Ratio (x) = 0.16925 0.37776
# Poissons Ratio (y) = 0.19781 0.23910
# Poissons Ratio (z) = 0.40699 0.22041
#
# Static dielectric constant tensor:
#      x y z
#    x 4.016620 0.000000 0.116200 
#    y 0.000000 3.612240 0.000000 
#    z 0.116200 0.000000 4.252760 
# 
# 
# High freq. dielectric constant tensor:
#      x y z
#    x 1.873390 0.000000 -0.008340 
#    y 0.000000 1.856590 0.000000 
#    z -0.008340 0.000000 1.877580 
# 
# From -- ./inp_files/13685.got.cif
#   From: 2010.06.25/outbox.cif.g09.slc.cpg/sg13_7_cif.got.tgz:13685.got - 2010.06.28 04:50:58.
