data_PCOD8122568
_publ_section_title
;
Structure prediction by ZEFSAII (Michael W. Deem and Ramdas Pophale) SiO2 
 PCOD8122568
Probable space group: P 2/C
;
_chemical_formula_sum "Si O2"
_cell_formula_units_Z 16
_cell_length_a 9.766877
_cell_length_b 9.265738
_cell_length_c 10.098589
_cell_angle_alpha 90.000000
_cell_angle_beta 122.284367
_cell_angle_gamma 90.000000
_cell_volume 772.614009
_symmetry_space_group_name_H-M "P 2/C"
_symmetry_group_IT_number 13
_symmetry_cell_setting 'monoclinic'
loop_
_space_group_symop_operation_xyz
x,y,z
-x,y,1/2-z
-x,-y,-z
x,-y,1/2+z
loop_
_atom_site_type_symbol
_atom_site_label
_atom_site_fract_x
_atom_site_fract_y
_atom_site_fract_z
Si Si1 0.653303 0.911808 0.531939
Si Si2 0.696731 0.368542 0.356125
Si Si3 0.822663 0.062861 0.390708
Si Si4 0.662379 0.581664 0.556667
O O1 0.787368 0.936089 0.715554
O O2 0.616592 0.743578 0.491965
O O3 0.500000 0.000000 0.500000
O O4 0.705208 0.960232 0.413192
O O5 0.500000 0.341823 0.250000
O O6 0.792734 0.221489 0.438996
O O7 0.752840 0.492968 0.487417
O O8 0.762062 0.418868 0.245526
O O9 0.000000 0.000000 0.500000
O O10 0.500000 0.500000 0.500000
#
# Coordination Sequence:
#
# PCOD8122568 Si02
#       4
#     4   4   4   4
#     4  11  22  38  62  90 116 153 202 244 287 351
#     4   9  18  35  57  85 115 149 194 243 288 345
#     4  11  23  39  58  86 122 156 192 243 298 349
#     4   9  18  32  55  85 114 144 191 246 287 335
#
# _framework density 20.708917
#
# number of rings (size 3 to 8) (size 9 to 14) (size 15 to 20)
#    0.000    2.000    0.000    6.000    0.000    8.000 
#    0.000    1.250    0.000    9.000    0.000    0.000 
#    0.000    0.000    0.000    0.000    0.000    0.000 
#
# Total GULP energy -198246.873031 kJ/mol
# GULP energy per Si atom -12390.429564 kJ/mol
# Density = 2.066178 g / cm^3
# Si number density = 20.708917 Si / 1000 Ang^3
#
#
#
# Elastic Constant Matrix: (Units=GPa)
#
#
# Indices 1 2 3 4 5 6 
#
# 1 70.6379 56.2032 18.9580 0.0000 -6.1985 0.0000
# 2 56.2032 196.8034 60.6333 0.0000 -15.6105 0.0000
# 3 18.9580 60.6333 64.3238 0.0000 -6.9765 0.0000
# 4 0.0000 0.0000 0.0000 35.8519 0.0000 -12.0523
# 5 -6.1985 -15.6105 -6.9765 0.0000 40.8635 0.0000
# 6 0.0000 0.0000 0.0000 -12.0523 0.0000 33.2908
#
#
#
# Elastic Compliance Matrix: (Units=1/GPa)
#
#
# Indices 1 2 3 4 5 6 
#
# 1 0.018363 -0.004990 -0.000624 0.000000 0.000772 0.000000
# 2 -0.004990 0.008623 -0.006503 0.000000 0.001427 0.000000
# 3 -0.000624 -0.006503 0.021987 0.000000 0.001175 0.000000
# 4 0.000000 0.000000 0.000000 0.031758 0.000000 0.011497
# 5 0.000772 0.001427 0.001175 0.000000 0.025335 0.000000
# 6 0.000000 0.000000 0.000000 0.011497 0.000000 0.034201
#
#
# Mechanical properties :
#
#
# Convention : Reuss Voigt Hill
#
# Bulk Modulus (GPa) = 40.42272 67.03934 53.73103
# Shear Modulus (GPa) = 28.94418 35.06595 32.00506
#
# Velocity S-wave (km/s) = 3.74259 4.11941 3.93551
# Velocity P-wave (km/s) = 6.18368 7.42082 6.83031
#
# Compressibility (1/GPa) = 0.02473857
#
# Stress axis : x y z
#
# Youngs Moduli (GPa) = 54.45832 115.96902 45.48083
#
# Poissons Ratio (x) = 0.57874 0.02838
# Poissons Ratio (y) = 0.27177 0.29575
# Poissons Ratio (z) = 0.03398 0.75411
#
# Static dielectric constant tensor:
#      x y z
#    x 3.883810 0.000000 -1.076820 
#    y 0.000000 4.425940 0.000000 
#    z -1.076820 0.000000 4.478390 
# 
# 
# High freq. dielectric constant tensor:
#      x y z
#    x 1.793210 0.000000 -0.036090 
#    y 0.000000 1.827540 0.000000 
#    z -0.036090 0.000000 1.800410 
# 
# From -- ./inp_files/27851.got.cif
#   From: 2010.06.25/outbox.cif.g09.slc.cpg/sg13_14_cif.got.tgz:27851.got - 2010.06.28 04:50:58.
