data_PCOD8122733
_publ_section_title
;
Structure prediction by ZEFSAII (Michael W. Deem and Ramdas Pophale) SiO2 
 PCOD8122733
Probable space group: P 2/C
;
_chemical_formula_sum "Si O2"
_cell_formula_units_Z 16
_cell_length_a 8.539338
_cell_length_b 17.834558
_cell_length_c 9.609316
_cell_angle_alpha 90.000000
_cell_angle_beta 148.341603
_cell_angle_gamma 90.000000
_cell_volume 768.099210
_symmetry_space_group_name_H-M "P 2/C"
_symmetry_group_IT_number 13
_symmetry_cell_setting 'monoclinic'
loop_
_space_group_symop_operation_xyz
x,y,z
-x,y,1/2-z
-x,-y,-z
x,-y,1/2+z
loop_
_atom_site_type_symbol
_atom_site_label
_atom_site_fract_x
_atom_site_fract_y
_atom_site_fract_z
Si Si1 0.719797 0.717523 0.797541
Si Si2 0.193014 0.957719 0.258722
Si Si3 0.647410 0.792676 0.212991
Si Si4 0.177557 0.448347 0.029372
O O1 0.500000 0.750435 0.750000
O O2 0.585221 0.742754 0.549283
O O3 0.750031 0.628566 0.835539
O O4 0.047734 0.748586 0.055928
O O5 0.277834 0.872816 0.292689
O O6 0.000000 0.961668 0.250000
O O7 0.500000 0.000000 0.500000
O O8 0.000000 0.000000 0.000000
O O9 0.500000 0.804454 0.250000
O O10 0.500000 0.487482 0.250000
O O11 0.000000 0.435615 0.750000
O O12 0.000000 0.500000 0.000000
#
# Coordination Sequence:
#
# PCOD8122733 Si02
#       4
#     4   4   4   4
#     4  11  23  43  65  92 128 171 214 263 324 387
#     4  12  25  44  67  95 130 170 213 266 323 385
#     4  12  25  42  65  96 128 167 216 268 321 385
#     4  11  24  43  67  97 132 172 217 271 328 391
#
# _framework density 20.830641
#
# number of rings (size 3 to 8) (size 9 to 14) (size 15 to 20)
#    0.000    0.500    0.000   10.500    0.000    3.000 
#    0.000    0.000    0.000    0.000    0.000    0.000 
#    0.000    0.000    0.000    0.000    0.000    0.000 
#
# Total GULP energy -198393.930413 kJ/mol
# GULP energy per Si atom -12399.620651 kJ/mol
# Density = 2.078323 g / cm^3
# Si number density = 20.830641 Si / 1000 Ang^3
#
#
#
# Elastic Constant Matrix: (Units=GPa)
#
#
# Indices 1 2 3 4 5 6 
#
# 1 208.4497 64.5737 84.1276 0.0000 20.2526 0.0000
# 2 64.5737 114.6073 60.9394 0.0000 -1.5787 0.0000
# 3 84.1276 60.9394 200.9107 0.0000 16.4543 0.0000
# 4 0.0000 0.0000 0.0000 -12.0508 0.0000 1.8198
# 5 20.2526 -1.5787 16.4543 0.0000 57.2441 0.0000
# 6 0.0000 0.0000 0.0000 1.8198 0.0000 42.9909
#
#
#
# Elastic Compliance Matrix: (Units=1/GPa)
#
#
# Indices 1 2 3 4 5 6 
#
# 1 0.006548 -0.002790 -0.001741 0.000000 -0.001893 0.000000
# 2 -0.002790 0.011676 -0.002540 0.000000 0.002039 0.000000
# 3 -0.001741 -0.002540 0.006587 0.000000 -0.001348 0.000000
# 4 0.000000 0.000000 0.000000 -0.082455 0.000000 0.003490
# 5 -0.001893 0.002039 -0.001348 0.000000 0.018582 0.000000
# 6 0.000000 0.000000 0.000000 0.003490 0.000000 0.023113
#
#
# Mechanical properties :
#
#
# Convention : Reuss Voigt Hill
#
# Bulk Modulus (GPa) = 93.72446 104.80544 99.26495
# Shear Modulus (GPa) = 2856.89181 38.59199 1447.74190
#
# Velocity S-wave (km/s) = 37.07375 4.30892 26.39157
# Velocity P-wave (km/s) = 43.33253 8.67053 31.24809
#
# Compressibility (1/GPa) = 0.01066957
#
# Stress axis : x y z
#
# Youngs Moduli (GPa) = 152.71819 85.64384 151.81263
#
# Poissons Ratio (x) = 0.23894 0.26424
# Poissons Ratio (y) = 0.42608 0.38566
# Poissons Ratio (z) = 0.26582 0.21757
#
# Static dielectric constant tensor:
#      x y z
#    x 4.197190 0.000000 0.224830 
#    y 0.000000 3.777840 0.000000 
#    z 0.224830 0.000000 4.206880 
# 
# 
# High freq. dielectric constant tensor:
#      x y z
#    x 1.839750 0.000000 0.013600 
#    y 0.000000 1.824880 0.000000 
#    z 0.013600 0.000000 1.839630 
# 
# From -- ./inp_files/9627.got.cif
#   From: 2010.06.25/outbox.cif.g09.slc.cpg/sg13_5_cif.got.tgz:9627.got - 2010.06.28 04:50:58.
