data_PCOD8122085
_publ_section_title
;
Structure prediction by ZEFSAII (Michael W. Deem and Ramdas Pophale) SiO2 
 PCOD8122085
Probable space group: P 2/C
;
_chemical_formula_sum "Si O2"
_cell_formula_units_Z 26
_cell_length_a 7.235755
_cell_length_b 10.869060
_cell_length_c 18.163265
_cell_angle_alpha 90.000000
_cell_angle_beta 121.900862
_cell_angle_gamma 90.000000
_cell_volume 1212.715418
_symmetry_space_group_name_H-M "P 2/C"
_symmetry_group_IT_number 13
_symmetry_cell_setting 'monoclinic'
loop_
_space_group_symop_operation_xyz
x,y,z
-x,y,1/2-z
-x,-y,-z
x,-y,1/2+z
loop_
_atom_site_type_symbol
_atom_site_label
_atom_site_fract_x
_atom_site_fract_y
_atom_site_fract_z
Si Si1 0.500000 0.259777 0.750000
Si Si2 0.025279 0.395164 0.334566
Si Si3 0.482782 0.395552 0.054364
Si Si4 0.889853 0.764346 0.011363
Si Si5 0.244601 0.835425 0.677110
Si Si6 0.209190 0.439790 0.601418
Si Si7 0.888319 0.899527 0.304169
O O1 0.384150 0.346247 0.667995
O O2 0.335691 0.170653 0.757159
O O3 0.866308 0.279921 0.307559
O O4 0.962364 0.503573 0.377110
O O5 0.000000 0.458673 0.250000
O O6 0.273329 0.345983 0.386584
O O7 0.332202 0.283133 0.996707
O O8 0.355382 0.451958 0.097944
O O9 0.500000 0.500000 0.000000
O O10 0.815786 0.838131 0.922770
O O11 0.047295 0.647825 0.018070
O O12 0.997585 0.847743 0.097306
O O13 0.500000 0.826519 0.750000
O O14 0.146152 0.956716 0.692129
O O15 0.000000 0.875787 0.250000
#
# Coordination Sequence:
#
# PCOD8122085 Si02
#       7
#     2   4   4   4   4   4   4
#     4  10  24  42  70  94 138 184 222 288 344 404
#     4  12  25  40  68 104 140 187 232 281 351 418
#     4  12  23  40  64 103 143 179 222 284 346 417
#     4  11  24  45  74 103 141 187 227 289 351 415
#     4  12  25  49  72  97 143 184 235 292 349 406
#     4  11  23  42  67 104 145 180 228 283 351 416
#     4  11  26  49  72 101 134 182 242 290 343 410
#
# _framework density 21.439492000000001
#
# number of rings (size 3 to 8) (size 9 to 14) (size 15 to 20)
#    0.000    0.615    3.846    4.154    3.231    2.462 
#    0.000    1.538    0.000    0.000    0.000    0.000 
#    0.000    0.000    0.000    0.000    0.000    0.000 
#
# Total GULP energy -322125.642705 kJ/mol
# GULP energy per Si atom -12389.447796 kJ/mol
# Density = 2.139069 g / cm^3
# Si number density = 21.439492 Si / 1000 Ang^3
#
#
#
# Elastic Constant Matrix: (Units=GPa)
#
#
# Indices 1 2 3 4 5 6 
#
# 1 135.3060 37.0123 58.8268 0.0000 7.5541 0.0000
# 2 37.0123 85.9632 27.9441 0.0000 3.2509 0.0000
# 3 58.8268 27.9441 101.0197 0.0000 6.5944 0.0000
# 4 0.0000 0.0000 0.0000 17.0433 0.0000 23.6392
# 5 7.5541 3.2509 6.5944 0.0000 35.4763 0.0000
# 6 0.0000 0.0000 0.0000 23.6392 0.0000 19.4492
#
#
#
# Elastic Compliance Matrix: (Units=1/GPa)
#
#
# Indices 1 2 3 4 5 6 
#
# 1 0.010500 -0.002765 -0.005284 0.000000 -0.001000 0.000000
# 2 -0.002765 0.013520 -0.002113 0.000000 -0.000257 0.000000
# 3 -0.005284 -0.002113 0.013640 0.000000 -0.001217 0.000000
# 4 0.000000 0.000000 0.000000 -0.085555 0.000000 0.103986
# 5 -0.001000 -0.000257 -0.001217 0.000000 0.028651 0.000000
# 6 0.000000 0.000000 0.000000 0.103986 0.000000 -0.074972
#
#
# Mechanical properties :
#
#
# Convention : Reuss Voigt Hill
#
# Bulk Modulus (GPa) = 57.68514 63.31728 60.50121
# Shear Modulus (GPa) = -73.40844 27.62749 -22.89047
#
# Velocity S-wave (km/s) = -5.85783 3.59364 -3.27108
# Velocity P-wave (km/s) = 4.33449 6.84223 3.74355
#
# Compressibility (1/GPa) = 0.01733549
#
# Stress axis : x y z
#
# Youngs Moduli (GPa) = 95.23360 73.96400 73.31260
#
# Poissons Ratio (x) = 0.20454 0.38742
# Poissons Ratio (y) = 0.26336 0.15489
# Poissons Ratio (z) = 0.50326 0.15627
#
# Static dielectric constant tensor:
#      x y z
#    x 3.581080 0.000000 -0.066450 
#    y 0.000000 3.907400 0.000000 
#    z -0.066450 0.000000 3.979890 
# 
# 
# High freq. dielectric constant tensor:
#      x y z
#    x 1.853710 0.000000 0.015760 
#    y 0.000000 1.842230 0.000000 
#    z 0.015760 0.000000 1.854650 
# 
# From -- ./inp_files/73708.got.cif
#   From: 2010.06.25/outbox.cif.g09.slc.cpg/sg13_37_cif.got.tgz:73708.got - 2010.06.28 04:50:58.
