data_PCOD8122174
_publ_section_title
;
Structure prediction by ZEFSAII (Michael W. Deem and Ramdas Pophale) SiO2 
 PCOD8122174
Probable space group: P 2/C
;
_chemical_formula_sum "Si O2"
_cell_formula_units_Z 20
_cell_length_a 13.389157
_cell_length_b 9.697198
_cell_length_c 19.469183
_cell_angle_alpha 90.000000
_cell_angle_beta 160.173885
_cell_angle_gamma 90.000000
_cell_volume 857.354578
_symmetry_space_group_name_H-M "P 2/C"
_symmetry_group_IT_number 13
_symmetry_cell_setting 'monoclinic'
loop_
_space_group_symop_operation_xyz
x,y,z
-x,y,1/2-z
-x,-y,-z
x,-y,1/2+z
loop_
_atom_site_type_symbol
_atom_site_label
_atom_site_fract_x
_atom_site_fract_y
_atom_site_fract_z
Si Si1 0.209920 0.922638 0.518370
Si Si2 0.677535 0.733379 0.030357
Si Si3 0.163012 0.453960 0.174762
Si Si4 0.340775 0.255030 0.830216
Si Si5 0.255043 0.233858 0.535792
O O1 0.500000 0.894388 0.750000
O O2 0.282177 0.871362 0.488486
O O3 0.930672 0.841856 0.369824
O O4 0.119379 0.082823 0.460014
O O5 0.548659 0.780563 0.021277
O O6 0.000000 0.665314 0.250000
O O7 0.470506 0.623774 0.856668
O O8 0.225968 0.588848 0.259547
O O9 0.000000 0.500000 0.000000
O O10 0.986158 0.351077 0.109753
O O11 0.612286 0.239572 0.954595
O O12 0.500000 0.267555 0.750000
#
# Coordination Sequence:
#
# PCOD8122174 Si02
#       5
#     4   4   4   4   4
#     4  10  24  45  73 100 148 196 247 300 367 443
#     4  10  25  47  73 104 146 192 242 304 379 431
#     4  12  25  46  76 105 143 193 249 304 365 443
#     4  11  25  46  70 105 149 185 245 308 373 436
#     4  11  26  43  72 113 141 192 252 302 368 440
#
# _framework density 23.327570999999999
#
# number of rings (size 3 to 8) (size 9 to 14) (size 15 to 20)
#    0.000    1.200    2.000    1.800    8.400    4.000 
#    7.200    0.000    0.000    0.000    0.000    0.000 
#    0.000    0.000    0.000    0.000    0.000    0.000 
#
# Total GULP energy -248031.325358 kJ/mol
# GULP energy per Si atom -12401.566268 kJ/mol
# Density = 2.327448 g / cm^3
# Si number density = 23.327571 Si / 1000 Ang^3
#
#
#
# Elastic Constant Matrix: (Units=GPa)
#
#
# Indices 1 2 3 4 5 6 
#
# 1 122.0048 12.5999 24.7576 0.0000 7.3491 0.0000
# 2 12.5999 130.7994 36.9156 0.0000 24.6739 0.0000
# 3 24.7576 36.9156 98.4739 0.0000 7.9871 0.0000
# 4 0.0000 0.0000 0.0000 7.1073 0.0000 6.0930
# 5 7.3491 24.6739 7.9871 0.0000 36.6309 0.0000
# 6 0.0000 0.0000 0.0000 6.0930 0.0000 38.6000
#
#
#
# Elastic Compliance Matrix: (Units=1/GPa)
#
#
# Indices 1 2 3 4 5 6 
#
# 1 0.008697 -0.000008 -0.002079 0.000000 -0.001286 0.000000
# 2 -0.000008 0.009625 -0.003136 0.000000 -0.005798 0.000000
# 3 -0.002079 -0.003136 0.011858 0.000000 -0.000056 0.000000
# 4 0.000000 0.000000 0.000000 0.162720 0.000000 -0.025685
# 5 -0.001286 -0.005798 -0.000056 0.000000 0.031475 0.000000
# 6 0.000000 0.000000 0.000000 -0.025685 0.000000 0.029961
#
#
# Mechanical properties :
#
#
# Convention : Reuss Voigt Hill
#
# Bulk Modulus (GPa) = 50.67716 55.53606 53.10661
# Shear Modulus (GPa) = 18.42574 34.93463 26.68018
#
# Velocity S-wave (km/s) = 2.81351 3.87404 3.38556
# Velocity P-wave (km/s) = 5.68558 6.62342 6.17233
#
# Compressibility (1/GPa) = 0.01973276
#
# Stress axis : x y z
#
# Youngs Moduli (GPa) = 114.98757 103.89845 84.33315
#
# Poissons Ratio (x) = 0.00088 0.17533
# Poissons Ratio (y) = 0.00097 0.26445
# Poissons Ratio (z) = 0.23906 0.32580
#
# Static dielectric constant tensor:
#      x y z
#    x 4.173350 0.000000 -0.019260 
#    y 0.000000 4.284170 0.000000 
#    z -0.019260 0.000000 4.380470 
# 
# 
# High freq. dielectric constant tensor:
#      x y z
#    x 1.925020 0.000000 -0.002140 
#    y 0.000000 1.926600 0.000000 
#    z -0.002140 0.000000 1.929390 
# 
# From -- ./inp_files/79890.got.cif
#   From: 2010.06.25/outbox.cif.g09.slc.cpg/sg13_40_cif.got.tgz:79890.got - 2010.06.28 04:50:58.
