data_PCOD8122444
_publ_section_title
;
Structure prediction by ZEFSAII (Michael W. Deem and Ramdas Pophale) SiO2 
 PCOD8122444
Probable space group: P 2/C
;
_chemical_formula_sum "Si O2"
_cell_formula_units_Z 28
_cell_length_a 26.956582
_cell_length_b 9.101999
_cell_length_c 9.619579
_cell_angle_alpha 90.000000
_cell_angle_beta 145.450977
_cell_angle_gamma 90.000000
_cell_volume 1338.523095
_symmetry_space_group_name_H-M "P 2/C"
_symmetry_group_IT_number 13
_symmetry_cell_setting 'monoclinic'
loop_
_space_group_symop_operation_xyz
x,y,z
-x,y,1/2-z
-x,-y,-z
x,-y,1/2+z
loop_
_atom_site_type_symbol
_atom_site_label
_atom_site_fract_x
_atom_site_fract_y
_atom_site_fract_z
Si Si1 0.098188 0.293345 0.507688
Si Si2 0.943697 0.972752 0.003822
Si Si3 0.407480 0.163940 0.084669
Si Si4 0.219970 0.301959 0.036501
Si Si5 0.252449 0.377110 0.657538
Si Si6 0.344111 0.948584 0.707027
Si Si7 0.782551 0.191905 0.171849
O O1 0.163744 0.342659 0.537251
O O2 0.000000 0.357843 0.250000
O O3 0.092563 0.117823 0.502845
O O4 0.137331 0.345385 0.747707
O O5 0.863547 0.873257 0.771841
O O6 0.000000 0.887149 0.250000
O O7 0.000000 0.000000 0.000000
O O8 0.333642 0.289450 0.910186
O O9 0.386330 0.022666 0.939492
O O10 0.500000 0.231855 0.250000
O O11 0.416461 0.111338 0.265448
O O12 0.272033 0.449286 0.200687
O O13 0.283238 0.188489 0.106220
O O14 0.186458 0.228639 0.101345
O O15 0.245716 0.334403 0.479584
O O16 0.292263 0.069542 0.497919
#
# Coordination Sequence:
#
# PCOD8122444 Si02
#       7
#     4   4   4   4   4   4   4
#     4  11  23  41  66  93 133 175 221 279 326 381
#     4  11  21  34  58  90 122 158 217 278 319 363
#     4  11  23  44  71 102 134 168 216 272 333 396
#     4  12  23  42  66  94 134 176 220 270 328 395
#     4  11  25  42  65  94 135 179 216 264 336 397
#     4  11  22  41  70  97 130 167 217 273 324 387
#     4  11  22  38  65  91 121 176 217 264 332 385
#
# _framework density 20.918578
#
# number of rings (size 3 to 8) (size 9 to 14) (size 15 to 20)
#    0.000    0.857    4.286    3.857    2.000    0.571 
#    0.000    4.286    0.000    0.000    0.000    0.000 
#    0.000    0.000    0.000    0.000    0.000    0.000 
#
# Total GULP energy -347096.003265 kJ/mol
# GULP energy per Si atom -12396.285831 kJ/mol
# Density = 2.087097 g / cm^3
# Si number density = 20.918578 Si / 1000 Ang^3
#
#
#
# Elastic Constant Matrix: (Units=GPa)
#
#
# Indices 1 2 3 4 5 6 
#
# 1 131.4818 33.2095 46.2378 0.0000 -3.0577 0.0000
# 2 33.2095 95.2330 17.3202 0.0000 1.2889 0.0000
# 3 46.2378 17.3202 73.4796 0.0000 -3.3062 0.0000
# 4 0.0000 0.0000 0.0000 13.9648 0.0000 -0.2544
# 5 -3.0577 1.2889 -3.3062 0.0000 42.8277 0.0000
# 6 0.0000 0.0000 0.0000 -0.2544 0.0000 12.8797
#
#
#
# Elastic Compliance Matrix: (Units=1/GPa)
#
#
# Indices 1 2 3 4 5 6 
#
# 1 0.010323 -0.002535 -0.005882 0.000000 0.000359 0.000000
# 2 -0.002535 0.011605 -0.001168 0.000000 -0.000620 0.000000
# 3 -0.005882 -0.001168 0.017630 0.000000 0.000976 0.000000
# 4 0.000000 0.000000 0.000000 0.071634 0.000000 0.001415
# 5 0.000359 -0.000620 0.000976 0.000000 0.023469 0.000000
# 6 0.000000 0.000000 0.000000 0.001415 0.000000 0.077670
#
#
# Mechanical properties :
#
#
# Convention : Reuss Voigt Hill
#
# Bulk Modulus (GPa) = 49.04971 54.85883 51.95427
# Shear Modulus (GPa) = 20.98218 27.49623 24.23920
#
# Velocity S-wave (km/s) = 3.17052 3.62945 3.40772
# Velocity P-wave (km/s) = 6.07468 6.62161 6.35403
#
# Compressibility (1/GPa) = 0.02038748
#
# Stress axis : x y z
#
# Youngs Moduli (GPa) = 96.87376 86.16680 56.72192
#
# Poissons Ratio (x) = 0.21842 0.33364
# Poissons Ratio (y) = 0.24556 0.06628
# Poissons Ratio (z) = 0.56981 0.10068
#
# Static dielectric constant tensor:
#      x y z
#    x 3.746580 0.000000 -0.099800 
#    y 0.000000 3.698650 0.000000 
#    z -0.099800 0.000000 4.022770 
# 
# 
# High freq. dielectric constant tensor:
#      x y z
#    x 1.827560 0.000000 -0.017500 
#    y 0.000000 1.803850 0.000000 
#    z -0.017500 0.000000 1.816230 
# 
# From -- ./inp_files/24507.got.cif
#   From: 2010.06.25/outbox.cif.g09.slc.cpg/sg13_13_cif.got.tgz:24507.got - 2010.06.28 04:50:58.
