data_PCOD8122643
_publ_section_title
;
Structure prediction by ZEFSAII (Michael W. Deem and Ramdas Pophale) SiO2 
 PCOD8122643
Probable space group: P 2/C
;
_chemical_formula_sum "Si O2"
_cell_formula_units_Z 20
_cell_length_a 11.580878
_cell_length_b 11.024913
_cell_length_c 9.334879
_cell_angle_alpha 90.000000
_cell_angle_beta 46.870210
_cell_angle_gamma 90.000000
_cell_volume 869.827889
_symmetry_space_group_name_H-M "P 2/C"
_symmetry_group_IT_number 13
_symmetry_cell_setting 'monoclinic'
loop_
_space_group_symop_operation_xyz
x,y,z
-x,y,1/2-z
-x,-y,-z
x,-y,1/2+z
loop_
_atom_site_type_symbol
_atom_site_label
_atom_site_fract_x
_atom_site_fract_y
_atom_site_fract_z
Si Si1 0.556130 0.727457 0.540333
Si Si2 0.651309 0.973851 0.541471
Si Si3 0.854033 0.092755 0.136998
Si Si4 0.824622 0.434913 0.902490
Si Si5 0.228256 0.350952 0.247010
O O1 0.500000 0.721908 0.750000
O O2 0.600542 0.867966 0.472135
O O3 0.708873 0.641039 0.395069
O O4 0.410510 0.689646 0.561742
O O5 0.500000 0.034209 0.750000
O O6 0.759081 0.912652 0.570862
O O7 0.749629 0.068593 0.366556
O O8 0.891429 0.236032 0.126897
O O9 0.000000 0.000000 0.000000
O O10 0.830497 0.572742 0.839086
O O11 0.000000 0.377884 0.750000
O O12 0.769466 0.435858 0.113793
#
# Coordination Sequence:
#
# PCOD8122643 Si02
#       5
#     4   4   4   4   4
#     4   9  19  41  71  90 131 179 232 273 343 412
#     4  11  22  45  71  98 139 188 233 290 356 421
#     4  12  26  43  71 105 145 181 238 298 360 416
#     4  11  23  41  69  95 139 181 227 284 350 413
#     4  11  24  46  65 102 139 184 232 286 349 430
#
# _framework density 22.993054000000001
#
# number of rings (size 3 to 8) (size 9 to 14) (size 15 to 20)
#    0.000    1.200    6.000    2.400    2.800    1.600 
#    3.600    3.000    0.000    0.000    0.000    0.000 
#    0.000    0.000    0.000    0.000    0.000    0.000 
#
# Total GULP energy -247889.931262 kJ/mol
# GULP energy per Si atom -12394.496563 kJ/mol
# Density = 2.294072 g / cm^3
# Si number density = 22.993054 Si / 1000 Ang^3
#
#
#
# Elastic Constant Matrix: (Units=GPa)
#
#
# Indices 1 2 3 4 5 6 
#
# 1 62.1282 29.2797 41.4709 0.0000 -21.9572 0.0000
# 2 29.2797 109.1530 57.5300 0.0000 5.1859 0.0000
# 3 41.4709 57.5300 84.0160 0.0000 -6.8649 0.0000
# 4 0.0000 0.0000 0.0000 34.9655 0.0000 -4.1014
# 5 -21.9572 5.1859 -6.8649 0.0000 44.1017 0.0000
# 6 0.0000 0.0000 0.0000 -4.1014 0.0000 36.1383
#
#
#
# Elastic Compliance Matrix: (Units=1/GPa)
#
#
# Indices 1 2 3 4 5 6 
#
# 1 0.029981 -0.002264 -0.012162 0.000000 0.013300 0.000000
# 2 -0.002264 0.014983 -0.009499 0.000000 -0.004368 0.000000
# 3 -0.012162 -0.009499 0.024316 0.000000 -0.001153 0.000000
# 4 0.000000 0.000000 0.000000 0.028986 0.000000 0.003290
# 5 0.013300 -0.004368 -0.001153 0.000000 0.029631 0.000000
# 6 0.000000 0.000000 0.000000 0.003290 0.000000 0.028045
#
#
# Mechanical properties :
#
#
# Convention : Reuss Voigt Hill
#
# Bulk Modulus (GPa) = 46.66295 56.87317 51.76806
# Shear Modulus (GPa) = 23.70416 31.50889 27.60652
#
# Velocity S-wave (km/s) = 3.21429 3.70586 3.46879
# Velocity P-wave (km/s) = 5.84072 6.56505 6.21344
#
# Compressibility (1/GPa) = 0.02143028
#
# Stress axis : x y z
#
# Youngs Moduli (GPa) = 33.35402 66.74389 41.12590
#
# Poissons Ratio (x) = 0.15113 0.50017
# Poissons Ratio (y) = 0.07552 0.39064
# Poissons Ratio (z) = 0.40565 0.63397
#
# Static dielectric constant tensor:
#      x y z
#    x 4.650250 0.000000 -0.739820 
#    y 0.000000 4.362690 0.000000 
#    z -0.739820 0.000000 4.502550 
# 
# 
# High freq. dielectric constant tensor:
#      x y z
#    x 1.908620 0.000000 -0.012770 
#    y 0.000000 1.904240 0.000000 
#    z -0.012770 0.000000 1.887610 
# 
# From -- ./inp_files/11853.got.cif
#   From: 2010.06.25/outbox.cif.g09.slc.cpg/sg13_6_cif.got.tgz:11853.got - 2010.06.28 04:50:58.
