data_PCOD8122249
_publ_section_title
;
Structure prediction by ZEFSAII (Michael W. Deem and Ramdas Pophale) SiO2 
 PCOD8122249
Probable space group: P 2/C
;
_chemical_formula_sum "Si O2"
_cell_formula_units_Z 26
_cell_length_a 15.433047
_cell_length_b 11.318507
_cell_length_c 20.715228
_cell_angle_alpha 90.000000
_cell_angle_beta 159.715650
_cell_angle_gamma 90.000000
_cell_volume 1254.465297
_symmetry_space_group_name_H-M "P 2/C"
_symmetry_group_IT_number 13
_symmetry_cell_setting 'monoclinic'
loop_
_space_group_symop_operation_xyz
x,y,z
-x,y,1/2-z
-x,-y,-z
x,-y,1/2+z
loop_
_atom_site_type_symbol
_atom_site_label
_atom_site_fract_x
_atom_site_fract_y
_atom_site_fract_z
Si Si1 0.425133 0.801809 0.895856
Si Si2 0.966343 0.871349 0.297728
Si Si3 0.268358 0.435695 0.511258
Si Si4 0.277217 0.418016 0.366786
Si Si5 0.500000 0.773255 0.250000
Si Si6 0.952904 0.050950 0.038050
Si Si7 0.388097 0.302603 0.105455
O O1 0.331100 0.713178 0.883617
O O2 0.456929 0.742598 0.847871
O O3 0.215998 0.899609 0.744675
O O4 0.672210 0.855882 0.101059
O O5 0.000000 0.928739 0.250000
O O6 0.103449 0.742975 0.396922
O O7 0.101383 0.949699 0.446871
O O8 0.249261 0.422705 0.422590
O O9 0.404371 0.315741 0.628171
O O10 0.416122 0.555893 0.629872
O O11 0.994214 0.452069 0.352335
O O12 0.500000 0.500000 0.500000
O O13 0.725000 0.854891 0.379637
O O14 0.000000 0.000000 0.000000
O O15 0.500000 0.249141 0.250000
#
# Coordination Sequence:
#
# PCOD8122249 Si02
#       7
#     4   4   4   4   2   4   4
#     4  11  23  44  67 102 130 177 236 273 343 412
#     4  10  25  43  72  98 132 182 234 281 339 408
#     4  11  24  43  67 100 140 179 218 279 344 415
#     4  11  22  41  68 100 137 175 223 277 333 411
#     4  12  28  48  64 102 142 182 226 280 362 406
#     4  12  28  47  70  99 138 181 237 290 344 405
#     4  11  22  42  69 100 139 175 221 281 347 406
#
# _framework density 20.725961000000002
#
# number of rings (size 3 to 8) (size 9 to 14) (size 15 to 20)
#    0.000    0.923    3.846    2.308   11.846    1.231 
#    2.769    2.308    0.000    0.000    0.000    0.000 
#    0.000    0.000    0.000    0.000    0.000    0.000 
#
# Total GULP energy -322267.157565 kJ/mol
# GULP energy per Si atom -12394.890676 kJ/mol
# Density = 2.067879 g / cm^3
# Si number density = 20.725961 Si / 1000 Ang^3
#
#
#
# Elastic Constant Matrix: (Units=GPa)
#
#
# Indices 1 2 3 4 5 6 
#
# 1 81.1915 41.4076 41.5840 0.0000 1.3498 0.0000
# 2 41.4076 105.0381 26.7473 0.0000 -4.0669 0.0000
# 3 41.5840 26.7473 97.0598 0.0000 -1.3509 0.0000
# 4 0.0000 0.0000 0.0000 6.6307 0.0000 6.6422
# 5 1.3498 -4.0669 -1.3509 0.0000 29.3961 0.0000
# 6 0.0000 0.0000 0.0000 6.6422 0.0000 43.6189
#
#
#
# Elastic Compliance Matrix: (Units=1/GPa)
#
#
# Indices 1 2 3 4 5 6 
#
# 1 0.018563 -0.005765 -0.006391 0.000000 -0.001944 0.000000
# 2 -0.005765 0.012079 -0.000832 0.000000 0.001898 0.000000
# 3 -0.006391 -0.000832 0.013281 0.000000 0.000789 0.000000
# 4 0.000000 0.000000 0.000000 0.177960 0.000000 -0.027099
# 5 -0.001944 0.001898 0.000789 0.000000 0.034406 0.000000
# 6 0.000000 0.000000 0.000000 -0.027099 0.000000 0.027052
#
#
# Mechanical properties :
#
#
# Convention : Reuss Voigt Hill
#
# Bulk Modulus (GPa) = 55.72482 55.86301 55.79392
# Shear Modulus (GPa) = 15.85791 27.49919 21.67855
#
# Velocity S-wave (km/s) = 2.76909 3.64648 3.23764
# Velocity P-wave (km/s) = 6.09661 6.68885 6.39958
#
# Compressibility (1/GPa) = 0.01794533
#
# Stress axis : x y z
#
# Youngs Moduli (GPa) = 53.87172 82.79158 75.29342
#
# Poissons Ratio (x) = 0.47733 0.48121
# Poissons Ratio (y) = 0.31059 0.06264
# Poissons Ratio (z) = 0.34430 0.06888
#
# Static dielectric constant tensor:
#      x y z
#    x 3.821290 0.000000 0.178010 
#    y 0.000000 3.776760 0.000000 
#    z 0.178010 0.000000 4.079140 
# 
# 
# High freq. dielectric constant tensor:
#      x y z
#    x 1.816130 0.000000 -0.000720 
#    y 0.000000 1.813670 0.000000 
#    z -0.000720 0.000000 1.825530 
# 
# From -- ./inp_files/80226.got.cif
#   From: 2010.06.25/outbox.cif.g09.slc.cpg/sg13_41_cif.got.tgz:80226.got - 2010.06.28 04:50:58.
