data_PCOD8122122
_publ_section_title
;
Structure prediction by ZEFSAII (Michael W. Deem and Ramdas Pophale) SiO2 
 PCOD8122122
Probable space group: P 2/C
;
_chemical_formula_sum "Si O2"
_cell_formula_units_Z 28
_cell_length_a 14.066758
_cell_length_b 11.192099
_cell_length_c 8.928084
_cell_angle_alpha 90.000000
_cell_angle_beta 60.787841
_cell_angle_gamma 90.000000
_cell_volume 1226.839592
_symmetry_space_group_name_H-M "P 2/C"
_symmetry_group_IT_number 13
_symmetry_cell_setting 'monoclinic'
loop_
_space_group_symop_operation_xyz
x,y,z
-x,y,1/2-z
-x,-y,-z
x,-y,1/2+z
loop_
_atom_site_type_symbol
_atom_site_label
_atom_site_fract_x
_atom_site_fract_y
_atom_site_fract_z
Si Si1 0.124708 0.091002 0.134302
Si Si2 0.438641 0.708685 0.455028
Si Si3 0.233388 0.481817 0.418397
Si Si4 0.757245 0.089396 0.750014
Si Si5 0.341272 0.652740 0.097925
Si Si6 0.571650 0.924713 0.837222
Si Si7 0.196710 0.654158 0.671396
O O1 0.149473 0.214287 0.200394
O O2 0.000000 0.055664 0.250000
O O3 0.196203 0.982508 0.144212
O O4 0.147120 0.115153 0.941968
O O5 0.500000 0.742016 0.250000
O O6 0.527477 0.647255 0.493675
O O7 0.388229 0.817566 0.588932
O O8 0.326722 0.634370 0.524397
O O9 0.300484 0.571450 0.263279
O O10 0.308873 0.395191 0.460507
O O11 0.148441 0.560147 0.585334
O O12 0.168313 0.391634 0.359360
O O13 0.701457 0.210934 0.850248
O O14 0.673451 0.008483 0.716758
O O15 0.500000 0.882834 0.750000
O O16 0.500000 0.000000 0.000000
#
# Coordination Sequence:
#
# PCOD8122122 Si02
#       7
#     4   4   4   4   4   4   4
#     4  12  27  48  72  99 130 173 230 298 354 398
#     4  12  23  38  61  98 139 184 219 272 324 404
#     4  10  24  44  66  98 137 187 222 277 325 409
#     4  12  25  45  70 102 136 178 220 287 342 416
#     4  11  24  41  69  98 143 177 230 260 340 404
#     4  12  25  37  63 101 140 178 215 261 336 415
#     4  11  24  44  68  94 139 175 229 280 339 393
#
# _framework density 22.822870000000002
#
# number of rings (size 3 to 8) (size 9 to 14) (size 15 to 20)
#    0.000    0.571    5.714    1.714    4.000    3.429 
#    0.000    0.714    0.000    0.000    0.000    0.000 
#    0.000    0.000    0.000    0.000    0.000    0.000 
#
# Total GULP energy -346972.703550 kJ/mol
# GULP energy per Si atom -12391.882270 kJ/mol
# Density = 2.277092 g / cm^3
# Si number density = 22.822870 Si / 1000 Ang^3
#
#
#
# Elastic Constant Matrix: (Units=GPa)
#
#
# Indices 1 2 3 4 5 6 
#
# 1 64.0303 29.0148 27.1333 0.0000 7.7335 0.0000
# 2 29.0148 117.5161 24.8991 0.0000 23.0431 0.0000
# 3 27.1333 24.8991 82.6631 0.0000 29.1257 0.0000
# 4 0.0000 0.0000 0.0000 35.1843 0.0000 13.3697
# 5 7.7335 23.0431 29.1257 0.0000 38.5260 0.0000
# 6 0.0000 0.0000 0.0000 13.3697 0.0000 18.3004
#
#
#
# Elastic Compliance Matrix: (Units=1/GPa)
#
#
# Indices 1 2 3 4 5 6 
#
# 1 0.019842 -0.004200 -0.006447 0.000000 0.003403 0.000000
# 2 -0.004200 0.010616 0.000165 0.000000 -0.005631 0.000000
# 3 -0.006447 0.000165 0.018732 0.000000 -0.012966 0.000000
# 4 0.000000 0.000000 0.000000 0.039344 0.000000 -0.028743
# 5 0.003403 -0.005631 -0.012966 0.000000 0.038444 0.000000
# 6 0.000000 0.000000 0.000000 -0.028743 0.000000 0.075643
#
#
# Mechanical properties :
#
#
# Convention : Reuss Voigt Hill
#
# Bulk Modulus (GPa) = 35.42822 47.36710 41.39766
# Shear Modulus (GPa) = 21.45989 30.61294 26.03642
#
# Velocity S-wave (km/s) = 3.06973 3.66639 3.38124
# Velocity P-wave (km/s) = 5.30293 6.22274 5.78116
#
# Compressibility (1/GPa) = 0.02822609
#
# Stress axis : x y z
#
# Youngs Moduli (GPa) = 50.39869 94.19983 53.38416
#
# Poissons Ratio (x) = 0.39567 0.34415
# Poissons Ratio (y) = 0.21169 -0.00882
# Poissons Ratio (z) = 0.32491 -0.01557
#
# Static dielectric constant tensor:
#      x y z
#    x 3.825560 0.000000 0.251740 
#    y 0.000000 4.043430 0.000000 
#    z 0.251740 0.000000 4.016330 
# 
# 
# High freq. dielectric constant tensor:
#      x y z
#    x 1.874140 0.000000 0.027320 
#    y 0.000000 1.920210 0.000000 
#    z 0.027320 0.000000 1.902520 
# 
# From -- ./inp_files/18912.got.cif
#   From: 2010.06.25/outbox.cif.g09.slc.cpg/sg13_10_cif.got.tgz:18912.got - 2010.06.28 04:50:58.
