data_PCOD8122986
_publ_section_title
;
Structure prediction by ZEFSAII (Michael W. Deem and Ramdas Pophale) SiO2 
 PCOD8122986
Probable space group: P 2/C
;
_chemical_formula_sum "Si O2"
_cell_formula_units_Z 14
_cell_length_a 9.511488
_cell_length_b 6.017262
_cell_length_c 15.551099
_cell_angle_alpha 90.000000
_cell_angle_beta 36.635571
_cell_angle_gamma 90.000000
_cell_volume 531.106206
_symmetry_space_group_name_H-M "P 2/C"
_symmetry_group_IT_number 13
_symmetry_cell_setting 'monoclinic'
loop_
_space_group_symop_operation_xyz
x,y,z
-x,y,1/2-z
-x,-y,-z
x,-y,1/2+z
loop_
_atom_site_type_symbol
_atom_site_label
_atom_site_fract_x
_atom_site_fract_y
_atom_site_fract_z
Si Si1 0.170279 0.695737 0.884701
Si Si2 0.400340 0.586572 0.139549
Si Si3 0.239513 0.961132 0.492016
Si Si4 0.000000 0.807456 0.250000
O O1 0.383478 0.605076 0.719847
O O2 0.014092 0.859651 0.904464
O O3 0.000000 0.500000 0.000000
O O4 0.293566 0.836720 0.900428
O O5 0.129484 0.661339 0.259030
O O6 0.500000 0.500000 0.000000
O O7 0.552211 0.781542 0.109030
O O8 0.210186 0.053096 0.603165
#
# Coordination Sequence:
#
# PCOD8122986 Si02
#       4
#     4   4   4   2
#     4  11  25  54  74 112 161 200 268 327 393 477
#     4  12  26  49  83 117 156 210 265 326 400 475
#     4  11  26  49  80 113 155 213 260 327 403 472
#     4  12  24  52  72 114 162 198 264 328 386 480
#
# _framework density 26.360075999999999
#
# number of rings (size 3 to 8) (size 9 to 14) (size 15 to 20)
#    0.000    0.571    2.857    4.286    0.000    1.143 
#   10.286    0.000    0.000    0.000    0.000    0.000 
#    0.000    0.000    0.000    0.000    0.000    0.000 
#
# Total GULP energy -173648.076765 kJ/mol
# GULP energy per Si atom -12403.434055 kJ/mol
# Density = 2.630008 g / cm^3
# Si number density = 26.360076 Si / 1000 Ang^3
#
#
#
# Elastic Constant Matrix: (Units=GPa)
#
#
# Indices 1 2 3 4 5 6 
#
# 1 123.8195 66.8485 49.5325 0.0000 1.9749 0.0000
# 2 66.8485 160.1359 86.7199 0.0000 14.9635 0.0000
# 3 49.5325 86.7199 176.8633 0.0000 28.9099 0.0000
# 4 0.0000 0.0000 0.0000 68.7995 0.0000 -7.1502
# 5 1.9749 14.9635 28.9099 0.0000 48.0704 0.0000
# 6 0.0000 0.0000 0.0000 -7.1502 0.0000 63.5336
#
#
#
# Elastic Compliance Matrix: (Units=1/GPa)
#
#
# Indices 1 2 3 4 5 6 
#
# 1 0.010684 -0.003877 -0.001349 0.000000 0.001579 0.000000
# 2 -0.003877 0.009910 -0.003654 0.000000 -0.000728 0.000000
# 3 -0.001349 -0.003654 0.008461 0.000000 -0.003895 0.000000
# 4 0.000000 0.000000 0.000000 0.014707 0.000000 0.001655
# 5 0.001579 -0.000728 -0.003895 0.000000 0.023307 0.000000
# 6 0.000000 0.000000 0.000000 0.001655 0.000000 0.015926
#
#
# Mechanical properties :
#
#
# Convention : Reuss Voigt Hill
#
# Bulk Modulus (GPa) = 88.54849 96.33561 92.44205
# Shear Modulus (GPa) = 47.83753 53.26188 50.54970
#
# Velocity S-wave (km/s) = 4.26464 4.49993 4.38386
# Velocity P-wave (km/s) = 7.61015 7.97650 7.79547
#
# Compressibility (1/GPa) = 0.01129325
#
# Stress axis : x y z
#
# Youngs Moduli (GPa) = 93.59836 100.90734 118.19550
#
# Poissons Ratio (x) = 0.39120 0.15950
# Poissons Ratio (y) = 0.36286 0.43194
# Poissons Ratio (z) = 0.12631 0.36876
#
# Static dielectric constant tensor:
#      x y z
#    x 4.780140 0.000000 0.089760 
#    y 0.000000 5.169900 0.000000 
#    z 0.089760 0.000000 4.580410 
# 
# 
# High freq. dielectric constant tensor:
#      x y z
#    x 2.072860 0.000000 0.002080 
#    y 0.000000 2.069030 0.000000 
#    z 0.002080 0.000000 2.064880 
# 
# From -- ./inp_files/45090.got.cif
#   From: 2010.06.25/outbox.cif.g09.slc.cpg/sg13_23_cif.got.tgz:45090.got - 2010.06.28 04:50:58.
