data_PCOD8122670
_publ_section_title
;
Structure prediction by ZEFSAII (Michael W. Deem and Ramdas Pophale) SiO2 
 PCOD8122670
Probable space group: P 2/C
;
_chemical_formula_sum "Si O2"
_cell_formula_units_Z 26
_cell_length_a 20.246354
_cell_length_b 9.864111
_cell_length_c 16.701368
_cell_angle_alpha 90.000000
_cell_angle_beta 21.411108
_cell_angle_gamma 90.000000
_cell_volume 1217.637006
_symmetry_space_group_name_H-M "P 2/C"
_symmetry_group_IT_number 13
_symmetry_cell_setting 'monoclinic'
loop_
_space_group_symop_operation_xyz
x,y,z
-x,y,1/2-z
-x,-y,-z
x,-y,1/2+z
loop_
_atom_site_type_symbol
_atom_site_label
_atom_site_fract_x
_atom_site_fract_y
_atom_site_fract_z
Si Si1 0.500000 0.794735 0.250000
Si Si2 0.805058 0.924721 0.004292
Si Si3 0.793034 0.231205 0.989992
Si Si4 0.730890 0.633454 0.870364
Si Si5 0.186845 0.333601 0.696359
Si Si6 0.221536 0.412981 0.358424
Si Si7 0.140242 0.714483 0.424304
O O1 0.339544 0.886522 0.398978
O O2 0.430095 0.707649 0.403076
O O3 0.786223 0.842141 0.108271
O O4 0.000000 0.889128 0.750000
O O5 0.778210 0.084703 0.048103
O O6 0.724179 0.240759 0.974966
O O7 0.000000 0.279254 0.750000
O O8 0.688081 0.339494 0.165989
O O9 0.737098 0.483872 0.899834
O O10 0.671264 0.620987 0.844368
O O11 0.921851 0.710896 0.666639
O O12 0.229408 0.269497 0.735441
O O13 0.971486 0.342946 0.935624
O O14 0.208368 0.574159 0.387788
#
# Coordination Sequence:
#
# PCOD8122670 Si02
#       7
#     2   4   4   4   4   4   4
#     4  12  24  38  58  88 126 150 202 248 290 352
#     4  11  23  39  58  88 120 160 200 239 295 350
#     4   9  18  34  57  88 119 160 200 236 296 360
#     4   9  18  35  58  91 117 153 195 250 296 342
#     4   8  16  33  60  89 118 152 198 244 296 353
#     4   8  16  32  60  89 118 148 200 247 292 349
#     4   9  17  35  63  90 114 153 199 244 297 346
#
# _framework density 21.352834000000001
#
# number of rings (size 3 to 8) (size 9 to 14) (size 15 to 20)
#    0.000    2.769    1.538    1.846    2.154    0.615 
#    2.769    7.692    0.000    0.000    0.000    0.000 
#    0.000    0.000    0.000    0.000    0.000    0.000 
#
# Total GULP energy -322215.704361 kJ/mol
# GULP energy per Si atom -12392.911706 kJ/mol
# Density = 2.130423 g / cm^3
# Si number density = 21.352834 Si / 1000 Ang^3
#
#
#
# Elastic Constant Matrix: (Units=GPa)
#
#
# Indices 1 2 3 4 5 6 
#
# 1 103.3959 59.1785 36.1633 0.0000 32.3685 0.0000
# 2 59.1785 102.9266 41.9437 0.0000 35.0939 0.0000
# 3 36.1633 41.9437 72.8939 0.0000 22.5782 0.0000
# 4 0.0000 0.0000 0.0000 -20.8830 0.0000 57.8225
# 5 32.3685 35.0939 22.5782 0.0000 39.5883 0.0000
# 6 0.0000 0.0000 0.0000 57.8225 0.0000 -31.8926
#
#
#
# Elastic Compliance Matrix: (Units=1/GPa)
#
#
# Indices 1 2 3 4 5 6 
#
# 1 0.015957 -0.006006 -0.002512 0.000000 -0.006290 0.000000
# 2 -0.006006 0.017934 -0.004781 0.000000 -0.008260 0.000000
# 3 -0.002512 -0.004781 0.019150 0.000000 -0.004629 0.000000
# 4 0.000000 0.000000 0.000000 0.011912 0.000000 0.021596
# 5 -0.006290 -0.008260 -0.004629 0.000000 0.040365 0.000000
# 6 0.000000 0.000000 0.000000 0.021596 0.000000 0.007800
#
#
# Mechanical properties :
#
#
# Convention : Reuss Voigt Hill
#
# Bulk Modulus (GPa) = 37.81908 61.53192 49.67550
# Shear Modulus (GPa) = 33.66337 6.82458 20.24398
#
# Velocity S-wave (km/s) = 3.97486 1.78970 3.08241
# Velocity P-wave (km/s) = 6.23025 5.75761 5.99858
#
# Compressibility (1/GPa) = 0.02644168
#
# Stress axis : x y z
#
# Youngs Moduli (GPa) = 62.66881 55.76112 52.21998
#
# Poissons Ratio (x) = 0.33492 0.13118
# Poissons Ratio (y) = 0.37641 0.24966
# Poissons Ratio (z) = 0.15743 0.26659
#
# Static dielectric constant tensor:
#      x y z
#    x 4.284840 0.000000 0.585100 
#    y 0.000000 3.626440 0.000000 
#    z 0.585100 0.000000 3.856330 
# 
# 
# High freq. dielectric constant tensor:
#      x y z
#    x 1.834580 0.000000 0.021000 
#    y 0.000000 1.818660 0.000000 
#    z 0.021000 0.000000 1.823470 
# 
# From -- ./inp_files/57580.got.cif
#   From: 2010.06.25/outbox.cif.g09.slc.cpg/sg13_29_cif.got.tgz:57580.got - 2010.06.28 04:50:58.
