data_PCOD8122104
_publ_section_title
;
Structure prediction by ZEFSAII (Michael W. Deem and Ramdas Pophale) SiO2 
 PCOD8122104
Probable space group: P 2/C
;
_chemical_formula_sum "Si O2"
_cell_formula_units_Z 20
_cell_length_a 32.295057
_cell_length_b 5.168105
_cell_length_c 18.774319
_cell_angle_alpha 90.000000
_cell_angle_beta 163.372633
_cell_angle_gamma 90.000000
_cell_volume 896.642594
_symmetry_space_group_name_H-M "P 2/C"
_symmetry_group_IT_number 13
_symmetry_cell_setting 'monoclinic'
loop_
_space_group_symop_operation_xyz
x,y,z
-x,y,1/2-z
-x,-y,-z
x,-y,1/2+z
loop_
_atom_site_type_symbol
_atom_site_label
_atom_site_fract_x
_atom_site_fract_y
_atom_site_fract_z
Si Si1 0.803116 0.850488 0.847356
Si Si2 0.081014 0.358074 0.512014
Si Si3 0.658611 0.423582 0.990051
Si Si4 0.668273 0.050400 0.274478
Si Si5 0.763199 0.435646 0.010545
O O1 0.917684 0.082917 0.025685
O O2 0.897079 0.587493 0.010173
O O3 0.696814 0.824636 0.602945
O O4 0.705810 0.884412 0.755656
O O5 0.933279 0.419046 0.310824
O O6 0.217800 0.358210 0.792114
O O7 0.500000 0.528525 0.750000
O O8 0.666028 0.357619 0.918580
O O9 0.716232 0.282574 0.405475
O O10 0.743370 0.781051 0.417852
O O11 0.500000 0.000000 0.000000
#
# Coordination Sequence:
#
# PCOD8122104 Si02
#       5
#     4   4   4   4   4
#     4  10  24  43  68  96 137 176 222 275 332 399
#     4  10  24  43  71  98 137 168 235 270 340 391
#     4  10  25  44  71  97 137 176 228 276 337 399
#     4  12  27  44  69 100 142 173 228 272 343 398
#     4  12  26  43  73 100 133 181 221 283 330 401
#
# _framework density 22.305432
#
# number of rings (size 3 to 8) (size 9 to 14) (size 15 to 20)
#    1.200    0.000    0.000    4.800    5.600    6.400 
#    0.000    0.000    0.000    0.000    0.000    0.000 
#    0.000    0.000    0.000    0.000    0.000    0.000 
#
# Total GULP energy -247889.640532 kJ/mol
# GULP energy per Si atom -12394.482027 kJ/mol
# Density = 2.225466 g / cm^3
# Si number density = 22.305432 Si / 1000 Ang^3
#
#
#
# Elastic Constant Matrix: (Units=GPa)
#
#
# Indices 1 2 3 4 5 6 
#
# 1 125.6386 15.8121 27.2624 0.0000 19.6112 0.0000
# 2 15.8121 122.0067 25.5979 0.0000 1.1426 0.0000
# 3 27.2624 25.5979 139.2553 0.0000 26.9003 0.0000
# 4 0.0000 0.0000 0.0000 25.7412 0.0000 3.5100
# 5 19.6112 1.1426 26.9003 0.0000 33.9952 0.0000
# 6 0.0000 0.0000 0.0000 3.5100 0.0000 25.2204
#
#
#
# Elastic Compliance Matrix: (Units=1/GPa)
#
#
# Indices 1 2 3 4 5 6 
#
# 1 0.008946 -0.000972 -0.000687 0.000000 -0.004585 0.000000
# 2 -0.000972 0.008667 -0.001717 0.000000 0.001629 0.000000
# 3 -0.000687 -0.001717 0.008905 0.000000 -0.006592 0.000000
# 4 0.000000 0.000000 0.000000 0.039600 0.000000 -0.005511
# 5 -0.004585 0.001629 -0.006592 0.000000 0.037222 0.000000
# 6 0.000000 0.000000 0.000000 -0.005511 0.000000 0.040417
#
#
# Mechanical properties :
#
#
# Convention : Reuss Voigt Hill
#
# Bulk Modulus (GPa) = 50.59547 58.24949 54.42248
# Shear Modulus (GPa) = 31.82685 38.20658 35.01671
#
# Velocity S-wave (km/s) = 3.78149 4.14319 3.96646
# Velocity P-wave (km/s) = 6.46517 7.00423 6.74009
#
# Compressibility (1/GPa) = 0.01976462
#
# Stress axis : x y z
#
# Youngs Moduli (GPa) = 111.77637 115.37515 112.30014
#
# Poissons Ratio (x) = 0.11219 0.07716
# Poissons Ratio (y) = 0.10869 0.19287
# Poissons Ratio (z) = 0.07680 0.19816
#
# Static dielectric constant tensor:
#      x y z
#    x 3.865770 0.000000 -0.013790 
#    y 0.000000 4.101160 0.000000 
#    z -0.013790 0.000000 4.283030 
# 
# 
# High freq. dielectric constant tensor:
#      x y z
#    x 1.876130 0.000000 0.012250 
#    y 0.000000 1.876000 0.000000 
#    z 0.012250 0.000000 1.881690 
# 
# From -- ./inp_files/72142.got.cif
#   From: 2010.06.25/outbox.cif.g09.slc.cpg/sg13_37_cif.got.tgz:72142.got - 2010.06.28 04:50:58.
