data_PCOD8122592
_publ_section_title
;
Structure prediction by ZEFSAII (Michael W. Deem and Ramdas Pophale) SiO2 
 PCOD8122592
Probable space group: P 2/C
;
_chemical_formula_sum "Si O2"
_cell_formula_units_Z 28
_cell_length_a 20.526022
_cell_length_b 11.090051
_cell_length_c 10.830657
_cell_angle_alpha 90.000000
_cell_angle_beta 146.877911
_cell_angle_gamma 90.000000
_cell_volume 1347.173723
_symmetry_space_group_name_H-M "P 2/C"
_symmetry_group_IT_number 13
_symmetry_cell_setting 'monoclinic'
loop_
_space_group_symop_operation_xyz
x,y,z
-x,y,1/2-z
-x,-y,-z
x,-y,1/2+z
loop_
_atom_site_type_symbol
_atom_site_label
_atom_site_fract_x
_atom_site_fract_y
_atom_site_fract_z
Si Si1 0.882234 0.711050 0.792982
Si Si2 0.879471 0.097242 0.489163
Si Si3 0.120841 0.546850 0.491515
Si Si4 0.487636 0.392538 0.377315
Si Si5 0.884436 0.175648 0.922232
Si Si6 0.757612 0.249778 0.472340
Si Si7 0.732601 0.673172 0.337424
O O1 0.853325 0.828962 0.824635
O O2 0.763605 0.666726 0.531637
O O3 0.909442 0.596536 0.921562
O O4 0.994243 0.746347 0.884483
O O5 0.766075 0.128151 0.399208
O O6 0.903538 0.964720 0.475698
O O7 0.000000 0.140543 0.750000
O O8 0.156176 0.653818 0.455013
O O9 0.225061 0.448347 0.665608
O O10 0.000000 0.484255 0.250000
O O11 0.500000 0.432614 0.250000
O O12 0.500000 0.500000 0.500000
O O13 0.371412 0.310775 0.215304
O O14 0.595710 0.304919 0.586050
O O15 0.808139 0.207235 0.681711
O O16 0.805821 0.210941 0.913478
#
# Coordination Sequence:
#
# PCOD8122592 Si02
#       7
#     4   4   4   4   4   4   4
#     4  11  23  40  65 102 137 174 225 282 350 419
#     4  11  23  42  72 100 137 184 226 285 351 418
#     4  11  22  40  64 100 140 176 214 290 352 421
#     4  12  27  48  73  97 136 190 237 289 346 421
#     4  12  23  41  68 100 138 174 222 282 346 418
#     4  11  23  44  68  99 133 179 235 281 343 417
#     4  12  27  38  65  99 132 177 231 279 352 413
#
# _framework density 20.784253
#
# number of rings (size 3 to 8) (size 9 to 14) (size 15 to 20)
#    0.000    0.571    5.714    3.429    6.000    1.143 
#    0.000    0.714    3.143    0.000    0.000    0.000 
#    0.000    0.000    0.000    0.000    0.000    0.000 
#
# Total GULP energy -346871.205616 kJ/mol
# GULP energy per Si atom -12388.257343 kJ/mol
# Density = 2.073695 g / cm^3
# Si number density = 20.784253 Si / 1000 Ang^3
#
#
#
# Elastic Constant Matrix: (Units=GPa)
#
#
# Indices 1 2 3 4 5 6 
#
# 1 98.3476 28.0815 53.2232 0.0000 0.0336 0.0000
# 2 28.0815 75.0236 23.4051 0.0000 1.5487 0.0000
# 3 53.2232 23.4051 132.1207 0.0000 2.1994 0.0000
# 4 0.0000 0.0000 0.0000 23.3668 0.0000 -9.6403
# 5 0.0336 1.5487 2.1994 0.0000 26.5185 0.0000
# 6 0.0000 0.0000 0.0000 -9.6403 0.0000 26.3711
#
#
#
# Elastic Compliance Matrix: (Units=1/GPa)
#
#
# Indices 1 2 3 4 5 6 
#
# 1 0.013899 -0.003668 -0.004959 0.000000 0.000608 0.000000
# 2 -0.003668 0.015087 -0.001182 0.000000 -0.000778 0.000000
# 3 -0.004959 -0.001182 0.009788 0.000000 -0.000737 0.000000
# 4 0.000000 0.000000 0.000000 0.050396 0.000000 0.018423
# 5 0.000608 -0.000778 -0.000737 0.000000 0.037815 0.000000
# 6 0.000000 0.000000 0.000000 0.018423 0.000000 0.044655
#
#
# Mechanical properties :
#
#
# Convention : Reuss Voigt Hill
#
# Bulk Modulus (GPa) = 52.20431 57.21240 54.70835
# Shear Modulus (GPa) = 25.29792 28.63677 26.96734
#
# Velocity S-wave (km/s) = 3.49258 3.71591 3.60598
# Velocity P-wave (km/s) = 6.43707 6.78213 6.61185
#
# Compressibility (1/GPa) = 0.01915551
#
# Stress axis : x y z
#
# Youngs Moduli (GPa) = 71.94769 66.28286 102.16221
#
# Poissons Ratio (x) = 0.24311 0.50666
# Poissons Ratio (y) = 0.26389 0.12077
# Poissons Ratio (z) = 0.35682 0.07836
#
# Static dielectric constant tensor:
#      x y z
#    x 4.188570 0.000000 -0.123680 
#    y 0.000000 3.928120 0.000000 
#    z -0.123680 0.000000 3.871470 
# 
# 
# High freq. dielectric constant tensor:
#      x y z
#    x 1.828290 0.000000 -0.019400 
#    y 0.000000 1.807650 0.000000 
#    z -0.019400 0.000000 1.806820 
# 
# From -- ./inp_files/40822.got.cif
#   From: 2010.06.25/outbox.cif.g09.slc.cpg/sg13_21_cif.got.tgz:40822.got - 2010.06.28 04:50:58.
