data_PCOD8122043
_publ_section_title
;
Structure prediction by ZEFSAII (Michael W. Deem and Ramdas Pophale) SiO2 
 PCOD8122043
Probable space group: P 2/C
;
_chemical_formula_sum "Si O2"
_cell_formula_units_Z 20
_cell_length_a 18.209670
_cell_length_b 4.665648
_cell_length_c 8.752934
_cell_angle_alpha 90.000000
_cell_angle_beta 66.165112
_cell_angle_gamma 90.000000
_cell_volume 680.225516
_symmetry_space_group_name_H-M "P 2/C"
_symmetry_group_IT_number 13
_symmetry_cell_setting 'monoclinic'
loop_
_space_group_symop_operation_xyz
x,y,z
-x,y,1/2-z
-x,-y,-z
x,-y,1/2+z
loop_
_atom_site_type_symbol
_atom_site_label
_atom_site_fract_x
_atom_site_fract_y
_atom_site_fract_z
Si Si1 0.500000 0.575042 0.250000
Si Si2 0.899881 0.764527 0.556918
Si Si3 0.000000 0.604702 0.750000
Si Si4 0.711785 0.757232 0.884995
Si Si5 0.204363 0.752913 0.373240
Si Si6 0.604873 0.246947 0.930402
O O1 0.434903 0.376247 0.386613
O O2 0.453395 0.767941 0.165700
O O3 0.933941 0.600932 0.382052
O O4 0.879083 0.082424 0.508305
O O5 0.959414 0.796665 0.650640
O O6 0.821644 0.558183 0.677420
O O7 0.769833 0.990232 0.760944
O O8 0.688364 0.441266 0.827521
O O9 0.624914 0.918278 0.954133
O O10 0.736000 0.703178 0.037468
#
# Coordination Sequence:
#
# PCOD8122043 Si02
#       6
#     2   4   2   4   4   4
#     4  10  24  42  64  90 124 160 204 250 300 360
#     4  11  24  41  64  91 122 161 202 250 302 357
#     4  10  24  42  64  90 124 160 204 250 300 360
#     4  12  24  41  64  91 124 160 202 250 302 360
#     4  12  24  41  64  91 124 160 202 250 302 360
#     4  11  24  41  64  91 122 161 202 250 302 357
#
# _framework density 29.402016
#
# number of rings (size 3 to 8) (size 9 to 14) (size 15 to 20)
#    0.000    0.800    0.000    7.200    0.000    9.600 
#    0.000    0.000    0.000    0.000    0.000    0.000 
#    0.000    0.000    0.000    0.000    0.000    0.000 
#
# Total GULP energy -248065.499362 kJ/mol
# GULP energy per Si atom -12403.274968 kJ/mol
# Density = 2.933510 g / cm^3
# Si number density = 29.402016 Si / 1000 Ang^3
#
#
#
# Elastic Constant Matrix: (Units=GPa)
#
#
# Indices 1 2 3 4 5 6 
#
# 1 136.6786 55.5557 16.2988 0.0000 44.2069 0.0000
# 2 55.5557 221.2805 30.1036 0.0000 25.1189 0.0000
# 3 16.2988 30.1036 103.5343 0.0000 33.2401 0.0000
# 4 0.0000 0.0000 0.0000 20.6249 0.0000 2.1670
# 5 44.2069 25.1189 33.2401 0.0000 56.2808 0.0000
# 6 0.0000 0.0000 0.0000 2.1670 0.0000 23.5848
#
#
#
# Elastic Compliance Matrix: (Units=1/GPa)
#
#
# Indices 1 2 3 4 5 6 
#
# 1 0.010640 -0.001931 0.001595 0.000000 -0.008438 0.000000
# 2 -0.001931 0.005174 -0.001167 0.000000 -0.000104 0.000000
# 3 0.001595 -0.001167 0.012318 0.000000 -0.008007 0.000000
# 4 0.000000 0.000000 0.000000 0.048958 0.000000 -0.004498
# 5 -0.008438 -0.000104 -0.008007 0.000000 0.029171 0.000000
# 6 0.000000 0.000000 0.000000 -0.004498 0.000000 0.042813
#
#
# Mechanical properties :
#
#
# Convention : Reuss Voigt Hill
#
# Bulk Modulus (GPa) = 39.79756 73.93438 56.86597
# Shear Modulus (GPa) = 31.16137 44.06714 37.61426
#
# Velocity S-wave (km/s) = 3.25905 3.87561 3.58062
# Velocity P-wave (km/s) = 5.26563 6.72516 6.03964
#
# Compressibility (1/GPa) = 0.02512717
#
# Stress axis : x y z
#
# Youngs Moduli (GPa) = 93.98421 193.25895 81.18469
#
# Poissons Ratio (x) = 0.37309 -0.12952
# Poissons Ratio (y) = 0.18144 0.09477
# Poissons Ratio (z) = -0.14994 0.22560
#
# Static dielectric constant tensor:
#      x y z
#    x 6.401300 0.000000 -1.233980 
#    y 0.000000 5.849440 0.000000 
#    z -1.233980 0.000000 5.757400 
# 
# 
# High freq. dielectric constant tensor:
#      x y z
#    x 2.235360 0.000000 -0.042510 
#    y 0.000000 2.228350 0.000000 
#    z -0.042510 0.000000 2.208310 
# 
# From -- ./inp_files/20486.got.cif
#   From: 2010.06.25/outbox.cif.g09.slc.cpg/sg13_11_cif.got.tgz:20486.got - 2010.06.28 04:50:58.
