data_PCOD8122232
_publ_section_title
;
Structure prediction by ZEFSAII (Michael W. Deem and Ramdas Pophale) SiO2 
 PCOD8122232
Probable space group: P 2/C
;
_chemical_formula_sum "Si O2"
_cell_formula_units_Z 20
_cell_length_a 16.189518
_cell_length_b 6.360139
_cell_length_c 22.149387
_cell_angle_alpha 90.000000
_cell_angle_beta 157.409969
_cell_angle_gamma 90.000000
_cell_volume 876.084025
_symmetry_space_group_name_H-M "P 2/C"
_symmetry_group_IT_number 13
_symmetry_cell_setting 'monoclinic'
loop_
_space_group_symop_operation_xyz
x,y,z
-x,y,1/2-z
-x,-y,-z
x,-y,1/2+z
loop_
_atom_site_type_symbol
_atom_site_label
_atom_site_fract_x
_atom_site_fract_y
_atom_site_fract_z
Si Si1 0.150111 0.261530 0.961298
Si Si2 0.500000 0.035888 0.750000
Si Si3 0.248884 0.513096 0.258100
Si Si4 0.498548 0.556405 0.316101
Si Si5 0.000000 0.994997 0.750000
Si Si6 0.375623 0.199766 0.439253
O O1 0.022608 0.134690 0.824666
O O2 0.975341 0.367643 0.887264
O O3 0.280362 0.444670 0.012169
O O4 0.289032 0.104002 0.096975
O O5 0.515874 0.189146 0.701193
O O6 0.296716 0.471686 0.219282
O O7 0.246445 0.300215 0.295563
O O8 0.457017 0.644220 0.417971
O O9 0.500000 0.452363 0.250000
O O10 0.209785 0.852503 0.880971
O O11 0.500000 0.000000 0.500000
#
# Coordination Sequence:
#
# PCOD8122232 Si02
#       6
#     4   2   4   4   2   4
#     4  12  25  47  70 110 140 190 243 295 358 430
#     4  10  24  50  70 100 146 194 234 290 362 428
#     4  11  26  42  73 104 145 186 243 296 355 426
#     4  10  25  47  68  98 143 190 234 292 353 421
#     4  12  26  44  82 102 150 190 234 302 366 422
#     4  11  24  46  66 114 144 186 234 298 363 431
#
# _framework density 22.828859000000001
#
# number of rings (size 3 to 8) (size 9 to 14) (size 15 to 20)
#    0.600    0.400    3.000    2.400    8.400    1.600 
#    0.000    0.000    0.000    0.000    0.000    0.000 
#    0.000    0.000    0.000    0.000    0.000    0.000 
#
# Total GULP energy -247833.807279 kJ/mol
# GULP energy per Si atom -12391.690364 kJ/mol
# Density = 2.277690 g / cm^3
# Si number density = 22.828859 Si / 1000 Ang^3
#
#
#
# Elastic Constant Matrix: (Units=GPa)
#
#
# Indices 1 2 3 4 5 6 
#
# 1 124.5870 26.2463 27.1268 0.0000 31.5772 0.0000
# 2 26.2463 105.6038 39.3897 0.0000 6.5848 0.0000
# 3 27.1268 39.3897 90.6290 0.0000 20.4150 0.0000
# 4 0.0000 0.0000 0.0000 35.4465 0.0000 8.6335
# 5 31.5772 6.5848 20.4150 0.0000 48.0702 0.0000
# 6 0.0000 0.0000 0.0000 8.6335 0.0000 27.4599
#
#
#
# Elastic Compliance Matrix: (Units=1/GPa)
#
#
# Indices 1 2 3 4 5 6 
#
# 1 0.010129 -0.001811 -0.000887 0.000000 -0.006029 0.000000
# 2 -0.001811 0.011641 -0.004894 0.000000 0.001673 0.000000
# 3 -0.000887 -0.004894 0.014535 0.000000 -0.004920 0.000000
# 4 0.000000 0.000000 0.000000 0.030551 0.000000 -0.009605
# 5 -0.006029 0.001673 -0.004920 0.000000 0.026624 0.000000
# 6 0.000000 0.000000 0.000000 -0.009605 0.000000 0.039437
#
#
# Mechanical properties :
#
#
# Convention : Reuss Voigt Hill
#
# Bulk Modulus (GPa) = 47.34596 56.26059 51.80328
# Shear Modulus (GPa) = 32.22898 37.39912 34.81405
#
# Velocity S-wave (km/s) = 3.76142 4.05191 3.90936
# Velocity P-wave (km/s) = 6.29674 6.82558 6.56649
#
# Compressibility (1/GPa) = 0.02112112
#
# Stress axis : x y z
#
# Youngs Moduli (GPa) = 98.72457 85.90625 68.80021
#
# Poissons Ratio (x) = 0.15556 0.06100
# Poissons Ratio (y) = 0.17877 0.33673
# Poissons Ratio (z) = 0.08754 0.42045
#
# Static dielectric constant tensor:
#      x y z
#    x 5.705340 0.000000 -0.432420 
#    y 0.000000 4.305400 0.000000 
#    z -0.432420 0.000000 4.308520 
# 
# 
# High freq. dielectric constant tensor:
#      x y z
#    x 1.899970 0.000000 0.004420 
#    y 0.000000 1.910340 0.000000 
#    z 0.004420 0.000000 1.900870 
# 
# From -- ./inp_files/48994.got.cif
#   From: 2010.06.25/outbox.cif.g09.slc.cpg/sg13_25_cif.got.tgz:48994.got - 2010.06.28 04:50:58.
