data_PCOD8122124
_publ_section_title
;
Structure prediction by ZEFSAII (Michael W. Deem and Ramdas Pophale) SiO2 
 PCOD8122124
Probable space group: P 2/C
;
_chemical_formula_sum "Si O2"
_cell_formula_units_Z 20
_cell_length_a 7.438244
_cell_length_b 7.427263
_cell_length_c 20.934601
_cell_angle_alpha 90.000000
_cell_angle_beta 130.574538
_cell_angle_gamma 90.000000
_cell_volume 878.468604
_symmetry_space_group_name_H-M "P 2/C"
_symmetry_group_IT_number 13
_symmetry_cell_setting 'monoclinic'
loop_
_space_group_symop_operation_xyz
x,y,z
-x,y,1/2-z
-x,-y,-z
x,-y,1/2+z
loop_
_atom_site_type_symbol
_atom_site_label
_atom_site_fract_x
_atom_site_fract_y
_atom_site_fract_z
Si Si1 0.484816 0.370117 0.436156
Si Si2 0.974214 0.207289 0.509049
Si Si3 0.999054 0.761161 0.627331
Si Si4 0.761075 0.862701 0.312694
Si Si5 0.231425 0.513647 0.264558
O O1 0.500000 0.500000 0.500000
O O2 0.719216 0.250183 0.481813
O O3 0.253206 0.248971 0.395462
O O4 0.454636 0.478694 0.362509
O O5 0.021524 0.303997 0.451968
O O6 0.175746 0.250362 0.608281
O O7 0.000000 0.000000 0.500000
O O8 0.209308 0.632566 0.702429
O O9 0.062410 0.970171 0.653327
O O10 0.500000 0.946232 0.250000
O O11 0.768260 0.719355 0.257498
O O12 0.000000 0.477374 0.250000
#
# Coordination Sequence:
#
# PCOD8122124 Si02
#       5
#     4   4   4   4   4
#     4  11  25  45  74 103 139 190 238 292 359 419
#     4  10  24  44  69 105 137 182 235 285 358 414
#     4  10  25  47  71 100 146 182 232 290 352 420
#     4  11  26  43  68 106 137 182 231 284 351 421
#     4  10  24  44  68 103 136 186 232 287 349 413
#
# _framework density 22.766891000000001
#
# number of rings (size 3 to 8) (size 9 to 14) (size 15 to 20)
#    0.000    1.600    0.000    2.400   11.200    7.200 
#    0.000    0.000    0.000    0.000    0.000    0.000 
#    0.000    0.000    0.000    0.000    0.000    0.000 
#
# Total GULP energy -247825.681472 kJ/mol
# GULP energy per Si atom -12391.284074 kJ/mol
# Density = 2.271507 g / cm^3
# Si number density = 22.766891 Si / 1000 Ang^3
#
#
#
# Elastic Constant Matrix: (Units=GPa)
#
#
# Indices 1 2 3 4 5 6 
#
# 1 107.6126 38.5171 48.8190 0.0000 3.1066 0.0000
# 2 38.5171 113.5936 49.6740 0.0000 -3.1896 0.0000
# 3 48.8190 49.6740 168.1882 0.0000 -5.0971 0.0000
# 4 0.0000 0.0000 0.0000 26.1224 0.0000 -0.9816
# 5 3.1066 -3.1896 -5.0971 0.0000 37.7576 0.0000
# 6 0.0000 0.0000 0.0000 -0.9816 0.0000 17.6096
#
#
#
# Elastic Compliance Matrix: (Units=1/GPa)
#
#
# Indices 1 2 3 4 5 6 
#
# 1 0.011507 -0.002829 -0.002551 0.000000 -0.001530 0.000000
# 2 -0.002829 0.010812 -0.002347 0.000000 0.000829 0.000000
# 3 -0.002551 -0.002347 0.007410 0.000000 0.001012 0.000000
# 4 0.000000 0.000000 0.000000 0.038362 0.000000 0.002138
# 5 -0.001530 0.000829 0.001012 0.000000 0.026817 0.000000
# 6 0.000000 0.000000 0.000000 0.002138 0.000000 0.056906
#
#
# Mechanical properties :
#
#
# Convention : Reuss Voigt Hill
#
# Bulk Modulus (GPa) = 70.05296 73.71275 71.88286
# Shear Modulus (GPa) = 29.06537 33.12356 31.09447
#
# Velocity S-wave (km/s) = 3.57690 3.81845 3.69965
# Velocity P-wave (km/s) = 6.92065 7.20335 7.06342
#
# Compressibility (1/GPa) = 0.01427491
#
# Stress axis : x y z
#
# Youngs Moduli (GPa) = 86.90717 92.48762 134.95340
#
# Poissons Ratio (x) = 0.26166 0.34423
# Poissons Ratio (y) = 0.24587 0.31674
# Poissons Ratio (z) = 0.22168 0.21707
#
# Static dielectric constant tensor:
#      x y z
#    x 4.222510 0.000000 -0.571660 
#    y 0.000000 3.824150 0.000000 
#    z -0.571660 0.000000 5.249610 
# 
# 
# High freq. dielectric constant tensor:
#      x y z
#    x 1.892530 0.000000 -0.006290 
#    y 0.000000 1.894100 0.000000 
#    z -0.006290 0.000000 1.926570 
# 
# From -- ./inp_files/75848.got.cif
#   From: 2010.06.25/outbox.cif.g09.slc.cpg/sg13_38_cif.got.tgz:75848.got - 2010.06.28 04:50:58.
