data_PCOD8122661
_publ_section_title
;
Structure prediction by ZEFSAII (Michael W. Deem and Ramdas Pophale) SiO2 
 PCOD8122661
Probable space group: P 2/C
;
_chemical_formula_sum "Si O2"
_cell_formula_units_Z 16
_cell_length_a 9.230609
_cell_length_b 6.576113
_cell_length_c 14.128890
_cell_angle_alpha 90.000000
_cell_angle_beta 116.415039
_cell_angle_gamma 90.000000
_cell_volume 768.102780
_symmetry_space_group_name_H-M "P 2/C"
_symmetry_group_IT_number 13
_symmetry_cell_setting 'monoclinic'
loop_
_space_group_symop_operation_xyz
x,y,z
-x,y,1/2-z
-x,-y,-z
x,-y,1/2+z
loop_
_atom_site_type_symbol
_atom_site_label
_atom_site_fract_x
_atom_site_fract_y
_atom_site_fract_z
Si Si1 0.189073 0.958835 0.784148
Si Si2 0.786574 0.913924 0.010002
Si Si3 0.126945 0.248096 0.605603
Si Si4 0.321969 0.646502 0.681260
O O1 0.284580 0.025953 0.907594
O O2 0.218146 0.140845 0.719083
O O3 0.000000 0.920001 0.750000
O O4 0.261867 0.754662 0.759815
O O5 0.935047 0.756470 0.068662
O O6 0.661995 0.804147 0.902534
O O7 0.844659 0.128112 0.983707
O O8 0.192930 0.475255 0.615847
O O9 0.500000 0.553942 0.750000
#
# Coordination Sequence:
#
# PCOD8122661 Si02
#       4
#     4   4   4   4
#     4   9  20  38  60  84 110 148 197 238 273 328
#     4   9  19  38  60  80 110 154 195 231 275 333
#     4   9  19  36  58  84 113 147 191 236 277 333
#     4  11  23  36  56  88 121 149 182 235 293 338
#
# _framework density 20.830548
#
# number of rings (size 3 to 8) (size 9 to 14) (size 15 to 20)
#    0.000    2.500    0.000    2.250    0.000   10.000 
#    0.000    2.500    0.000    0.000    0.000    0.000 
#    0.000    0.000    0.000    0.000    0.000    0.000 
#
# Total GULP energy -198332.076193 kJ/mol
# GULP energy per Si atom -12395.754762 kJ/mol
# Density = 2.078314 g / cm^3
# Si number density = 20.830548 Si / 1000 Ang^3
#
#
#
# Elastic Constant Matrix: (Units=GPa)
#
#
# Indices 1 2 3 4 5 6 
#
# 1 44.2140 29.9921 30.9179 0.0000 -4.0658 0.0000
# 2 29.9921 95.8939 31.9499 0.0000 -3.2379 0.0000
# 3 30.9179 31.9499 121.0835 0.0000 -22.7484 0.0000
# 4 0.0000 0.0000 0.0000 21.1024 0.0000 1.0384
# 5 -4.0658 -3.2379 -22.7484 0.0000 31.7992 0.0000
# 6 0.0000 0.0000 0.0000 1.0384 0.0000 13.9298
#
#
#
# Elastic Compliance Matrix: (Units=1/GPa)
#
#
# Indices 1 2 3 4 5 6 
#
# 1 0.032438 -0.008058 -0.006390 0.000000 -0.001245 0.000000
# 2 -0.008058 0.013472 -0.001655 0.000000 -0.000843 0.000000
# 3 -0.006390 -0.001655 0.011717 0.000000 0.007396 0.000000
# 4 0.000000 0.000000 0.000000 0.047563 0.000000 -0.003546
# 5 -0.001245 -0.000843 0.007396 0.000000 0.036494 0.000000
# 6 0.000000 0.000000 0.000000 -0.003546 0.000000 0.072053
#
#
# Mechanical properties :
#
#
# Convention : Reuss Voigt Hill
#
# Bulk Modulus (GPa) = 39.34181 49.65681 44.49931
# Shear Modulus (GPa) = 19.65287 24.58838 22.12062
#
# Velocity S-wave (km/s) = 3.07492 3.43942 3.26226
# Velocity P-wave (km/s) = 5.61555 6.29786 5.96647
#
# Compressibility (1/GPa) = 0.02541825
#
# Stress axis : x y z
#
# Youngs Moduli (GPa) = 30.82840 74.23025 85.34700
#
# Poissons Ratio (x) = 0.59816 0.54539
# Poissons Ratio (y) = 0.24842 0.14129
# Poissons Ratio (z) = 0.19700 0.12288
#
# Static dielectric constant tensor:
#      x y z
#    x 3.378860 0.000000 -0.197320 
#    y 0.000000 3.524590 0.000000 
#    z -0.197320 0.000000 4.013140 
# 
# 
# High freq. dielectric constant tensor:
#      x y z
#    x 1.780050 0.000000 -0.010330 
#    y 0.000000 1.801470 0.000000 
#    z -0.010330 0.000000 1.831400 
# 
# From -- ./inp_files/45135.got.cif
#   From: 2010.06.25/outbox.cif.g09.slc.cpg/sg13_23_cif.got.tgz:45135.got - 2010.06.28 04:50:58.
