data_PCOD8122464
_publ_section_title
;
Structure prediction by ZEFSAII (Michael W. Deem and Ramdas Pophale) SiO2 
 PCOD8122464
Probable space group: P 2/C
;
_chemical_formula_sum "Si O2"
_cell_formula_units_Z 32
_cell_length_a 20.664303
_cell_length_b 14.176056
_cell_length_c 9.026486
_cell_angle_alpha 90.000000
_cell_angle_beta 141.670015
_cell_angle_gamma 90.000000
_cell_volume 1639.907712
_symmetry_space_group_name_H-M "P 2/C"
_symmetry_group_IT_number 13
_symmetry_cell_setting 'monoclinic'
loop_
_space_group_symop_operation_xyz
x,y,z
-x,y,1/2-z
-x,-y,-z
x,-y,1/2+z
loop_
_atom_site_type_symbol
_atom_site_label
_atom_site_fract_x
_atom_site_fract_y
_atom_site_fract_z
Si Si1 0.247679 0.890175 0.956400
Si Si2 0.940788 0.227121 0.281454
Si Si3 0.196468 0.599495 0.958318
Si Si4 0.089038 0.231650 0.801250
Si Si5 0.629912 0.268781 0.660327
Si Si6 0.122374 0.576261 0.493945
Si Si7 0.266572 0.088767 0.142495
Si Si8 0.423054 0.802827 0.725616
O O1 0.131007 0.848319 0.761875
O O2 0.274996 0.910241 0.834749
O O3 0.330490 0.817346 0.168462
O O4 0.252991 0.983391 0.063458
O O5 0.873963 0.315890 0.101803
O O6 0.000000 0.178197 0.250000
O O7 0.030757 0.266382 0.549748
O O8 0.157109 0.576860 0.724742
O O9 0.189423 0.504696 0.038746
O O10 0.316783 0.634793 0.185558
O O11 0.151095 0.321217 0.979635
O O12 0.000000 0.192725 0.750000
O O13 0.168542 0.148400 0.909289
O O14 0.656905 0.251271 0.531467
O O15 0.502943 0.271844 0.450092
O O16 0.000000 0.555793 0.250000
O O17 0.369454 0.132825 0.252048
O O18 0.500000 0.863234 0.750000
#
# Coordination Sequence:
#
# PCOD8122464 Si02
#       8
#     4   4   4   4   4   4   4   4
#     4  11  24  39  58  95 120 164 210 253 313 376
#     4  11  24  38  59  83 127 171 208 255 303 369
#     4  11  21  37  61  91 125 165 200 260 307 373
#     4  11  22  42  56  86 125 166 209 252 302 370
#     4   8  20  43  63  86 123 150 209 257 317 372
#     4  11  22  36  57  92 131 160 212 251 300 374
#     4  12  24  39  64  86 128 163 207 264 308 367
#     4   8  21  43  66  91 114 158 210 259 317 372
#
# _framework density 19.513293999999998
#
# number of rings (size 3 to 8) (size 9 to 14) (size 15 to 20)
#    0.750    0.750    3.750    2.250    7.000    2.000 
#    0.000    0.000    0.000    6.750    0.000    0.000 
#    0.000    0.000    0.000    0.000    0.000    0.000 
#
# Total GULP energy -396506.036199 kJ/mol
# GULP energy per Si atom -12390.813631 kJ/mol
# Density = 1.946888 g / cm^3
# Si number density = 19.513294 Si / 1000 Ang^3
#
#
#
# Elastic Constant Matrix: (Units=GPa)
#
#
# Indices 1 2 3 4 5 6 
#
# 1 116.4548 38.2791 43.2606 0.0000 -12.8025 0.0000
# 2 38.2791 72.3959 41.2093 0.0000 0.2957 0.0000
# 3 43.2606 41.2093 112.2588 0.0000 -11.0728 0.0000
# 4 0.0000 0.0000 0.0000 12.7669 0.0000 -6.1387
# 5 -12.8025 0.2957 -11.0728 0.0000 26.7593 0.0000
# 6 0.0000 0.0000 0.0000 -6.1387 0.0000 14.5431
#
#
#
# Elastic Compliance Matrix: (Units=1/GPa)
#
#
# Indices 1 2 3 4 5 6 
#
# 1 0.011510 -0.004856 -0.002194 0.000000 0.004652 0.000000
# 2 -0.004856 0.019739 -0.005865 0.000000 -0.004968 0.000000
# 3 -0.002194 -0.005865 0.012312 0.000000 0.004110 0.000000
# 4 0.000000 0.000000 0.000000 0.098273 0.000000 0.041482
# 5 0.004652 -0.004968 0.004110 0.000000 0.041351 0.000000
# 6 0.000000 0.000000 0.000000 0.041482 0.000000 0.086271
#
#
# Mechanical properties :
#
#
# Convention : Reuss Voigt Hill
#
# Bulk Modulus (GPa) = 56.39770 60.73417 58.56594
# Shear Modulus (GPa) = 16.60051 22.70457 19.65254
#
# Velocity S-wave (km/s) = 2.91989 3.41478 3.17698
# Velocity P-wave (km/s) = 6.35080 6.83664 6.59819
#
# Compressibility (1/GPa) = 0.01773122
#
# Stress axis : x y z
#
# Youngs Moduli (GPa) = 86.88384 50.66080 81.22299
#
# Poissons Ratio (x) = 0.24600 0.17820
# Poissons Ratio (y) = 0.42189 0.47636
# Poissons Ratio (z) = 0.19062 0.29712
#
# Static dielectric constant tensor:
#      x y z
#    x 3.597170 0.000000 -0.138770 
#    y 0.000000 3.475570 0.000000 
#    z -0.138770 0.000000 3.776650 
# 
# 
# High freq. dielectric constant tensor:
#      x y z
#    x 1.747380 0.000000 -0.013770 
#    y 0.000000 1.739840 0.000000 
#    z -0.013770 0.000000 1.774190 
# 
# From -- ./inp_files/23573.got.cif
#   From: 2010.06.25/outbox.cif.g09.slc.cpg/sg13_12_cif.got.tgz:23573.got - 2010.06.28 04:50:58.
