data_PCOD8122703
_publ_section_title
;
Structure prediction by ZEFSAII (Michael W. Deem and Ramdas Pophale) SiO2 
 PCOD8122703
Probable space group: P 2/C
;
_chemical_formula_sum "Si O2"
_cell_formula_units_Z 24
_cell_length_a 14.456654
_cell_length_b 8.486093
_cell_length_c 13.578076
_cell_angle_alpha 90.000000
_cell_angle_beta 41.230485
_cell_angle_gamma 90.000000
_cell_volume 1097.888746
_symmetry_space_group_name_H-M "P 2/C"
_symmetry_group_IT_number 13
_symmetry_cell_setting 'monoclinic'
loop_
_space_group_symop_operation_xyz
x,y,z
-x,y,1/2-z
-x,-y,-z
x,-y,1/2+z
loop_
_atom_site_type_symbol
_atom_site_label
_atom_site_fract_x
_atom_site_fract_y
_atom_site_fract_z
Si Si1 0.693104 0.104177 0.453980
Si Si2 0.597189 0.254250 0.038702
Si Si3 0.125280 0.195835 0.376981
Si Si4 0.161630 0.111965 0.961204
Si Si5 0.590075 0.710133 0.324389
Si Si6 0.677277 0.613308 0.667820
O O1 0.768323 0.142686 0.292469
O O2 0.806379 0.126191 0.449192
O O3 0.563897 0.222662 0.575346
O O4 0.637991 0.926796 0.496108
O O5 0.607149 0.339549 0.924830
O O6 0.436352 0.258873 0.203608
O O7 0.695923 0.352621 0.035734
O O8 0.179200 0.355861 0.386930
O O9 0.970031 0.226465 0.458048
O O10 0.118055 0.065398 0.469015
O O11 0.296501 0.156551 0.789405
O O12 0.619162 0.561275 0.231273
#
# Coordination Sequence:
#
# PCOD8122703 Si02
#       6
#     4   4   4   4   4   4
#     4  12  23  42  70  98 132 175 226 272 325 399
#     4  11  23  41  66  99 130 174 216 276 330 387
#     4  11  23  45  64  94 138 173 222 269 329 393
#     4  11  25  40  67  99 129 178 221 273 321 395
#     4  12  25  42  70 102 132 169 227 273 335 394
#     4  11  25  41  66 100 137 172 213 282 334 391
#
# _framework density 21.860137000000002
#
# number of rings (size 3 to 8) (size 9 to 14) (size 15 to 20)
#    0.000    0.667    5.000    3.000    7.000    0.667 
#    0.000    0.833    0.000    0.000    0.000    0.000 
#    0.000    0.000    0.000    0.000    0.000    0.000 
#
# Total GULP energy -297651.992023 kJ/mol
# GULP energy per Si atom -12402.166334 kJ/mol
# Density = 2.181038 g / cm^3
# Si number density = 21.860137 Si / 1000 Ang^3
#
#
#
# Elastic Constant Matrix: (Units=GPa)
#
#
# Indices 1 2 3 4 5 6 
#
# 1 154.3626 53.2053 22.0303 0.0000 -3.5436 0.0000
# 2 53.2053 74.4666 13.4371 0.0000 7.0179 0.0000
# 3 22.0303 13.4371 36.3316 0.0000 -5.9066 0.0000
# 4 0.0000 0.0000 0.0000 21.2239 0.0000 0.0295
# 5 -3.5436 7.0179 -5.9066 0.0000 42.4911 0.0000
# 6 0.0000 0.0000 0.0000 0.0295 0.0000 21.7224
#
#
#
# Elastic Compliance Matrix: (Units=1/GPa)
#
#
# Indices 1 2 3 4 5 6 
#
# 1 0.009016 -0.006021 -0.003024 0.000000 0.001326 0.000000
# 2 -0.006021 0.018845 -0.003997 0.000000 -0.004170 0.000000
# 3 -0.003024 -0.003997 0.031617 0.000000 0.004803 0.000000
# 4 0.000000 0.000000 0.000000 0.047117 0.000000 -0.000064
# 5 0.001326 -0.004170 0.004803 0.000000 0.025001 0.000000
# 6 0.000000 0.000000 0.000000 -0.000064 0.000000 0.046036
#
#
# Mechanical properties :
#
#
# Convention : Reuss Voigt Hill
#
# Bulk Modulus (GPa) = 29.94594 49.16735 39.55665
# Shear Modulus (GPa) = 23.27245 28.85334 26.06290
#
# Velocity S-wave (km/s) = 3.26637 3.63699 3.45665
# Velocity P-wave (km/s) = 5.28717 6.33858 5.83660
#
# Compressibility (1/GPa) = 0.03339351
#
# Stress axis : x y z
#
# Youngs Moduli (GPa) = 110.91993 53.06529 31.62833
#
# Poissons Ratio (x) = 0.31949 0.09566
# Poissons Ratio (y) = 0.66781 0.12641
# Poissons Ratio (z) = 0.33547 0.21210
#
# Static dielectric constant tensor:
#      x y z
#    x 4.432320 0.000000 0.062410 
#    y 0.000000 3.647490 0.000000 
#    z 0.062410 0.000000 3.907740 
# 
# 
# High freq. dielectric constant tensor:
#      x y z
#    x 1.885560 0.000000 0.010630 
#    y 0.000000 1.843160 0.000000 
#    z 0.010630 0.000000 1.844660 
# 
# From -- ./inp_files/52893.got.cif
#   From: 2010.06.25/outbox.cif.g09.slc.cpg/sg13_27_cif.got.tgz:52893.got - 2010.06.28 04:50:58.
