data_PCOD8122117
_publ_section_title
;
Structure prediction by ZEFSAII (Michael W. Deem and Ramdas Pophale) SiO2 
 PCOD8122117
Probable space group: P 2/C
;
_chemical_formula_sum "Si O2"
_cell_formula_units_Z 24
_cell_length_a 7.730736
_cell_length_b 11.474620
_cell_length_c 11.814554
_cell_angle_alpha 90.000000
_cell_angle_beta 96.044929
_cell_angle_gamma 90.000000
_cell_volume 1042.209209
_symmetry_space_group_name_H-M "P 2/C"
_symmetry_group_IT_number 13
_symmetry_cell_setting 'monoclinic'
loop_
_space_group_symop_operation_xyz
x,y,z
-x,y,1/2-z
-x,-y,-z
x,-y,1/2+z
loop_
_atom_site_type_symbol
_atom_site_label
_atom_site_fract_x
_atom_site_fract_y
_atom_site_fract_z
Si Si1 0.698561 0.817350 0.883119
Si Si2 0.183014 0.943238 0.045524
Si Si3 0.157920 0.650511 0.434844
Si Si4 0.303137 0.777209 0.867713
Si Si5 0.781580 0.412856 0.973778
Si Si6 0.309507 0.747388 0.212990
O O1 0.510315 0.760546 0.884580
O O2 0.771151 0.794249 0.762832
O O3 0.688865 0.955351 0.903263
O O4 0.832906 0.760046 0.980304
O O5 0.182172 0.843345 0.144364
O O6 0.258045 0.891474 0.935731
O O7 0.000000 0.000000 0.000000
O O8 0.272829 0.544155 0.495656
O O9 0.217564 0.694064 0.316462
O O10 0.964377 0.597986 0.418283
O O11 0.213198 0.661949 0.910835
O O12 0.647433 0.356471 0.874343
O O13 0.500000 0.803054 0.250000
#
# Coordination Sequence:
#
# PCOD8122117 Si02
#       6
#     4   4   4   4   4   4
#     4  11  24  41  69  95 134 179 220 281 340 408
#     4  11  25  44  69  98 137 180 227 286 343 412
#     4  11  24  43  71 100 136 179 229 282 344 406
#     4  10  24  44  64  99 134 174 225 276 343 405
#     4  10  24  45  66 100 139 177 225 284 340 410
#     4  11  25  44  72 103 138 181 231 288 342 412
#
# _framework density 23.028006000000001
#
# number of rings (size 3 to 8) (size 9 to 14) (size 15 to 20)
#    0.000    1.333    0.000    5.000    7.000    5.333 
#    3.000    0.000    0.000    0.000    0.000    0.000 
#    0.000    0.000    0.000    0.000    0.000    0.000 
#
# Total GULP energy -297570.234901 kJ/mol
# GULP energy per Si atom -12398.759788 kJ/mol
# Density = 2.297559 g / cm^3
# Si number density = 23.028006 Si / 1000 Ang^3
#
#
#
# Elastic Constant Matrix: (Units=GPa)
#
#
# Indices 1 2 3 4 5 6 
#
# 1 67.6741 15.2494 30.7233 0.0000 -2.4391 0.0000
# 2 15.2494 135.3535 78.6735 0.0000 -10.4750 0.0000
# 3 30.7233 78.6735 187.1319 0.0000 -14.1318 0.0000
# 4 0.0000 0.0000 0.0000 36.1696 0.0000 2.2389
# 5 -2.4391 -10.4750 -14.1318 0.0000 36.9116 0.0000
# 6 0.0000 0.0000 0.0000 2.2389 0.0000 32.9924
#
#
#
# Elastic Compliance Matrix: (Units=1/GPa)
#
#
# Indices 1 2 3 4 5 6 
#
# 1 0.015980 -0.000364 -0.002470 0.000000 0.000007 0.000000
# 2 -0.000364 0.009841 -0.003984 0.000000 0.001243 0.000000
# 3 -0.002470 -0.003984 0.007545 0.000000 0.001595 0.000000
# 4 0.000000 0.000000 0.000000 0.027764 0.000000 -0.001884
# 5 0.000007 0.001243 0.001595 0.000000 0.028056 0.000000
# 6 0.000000 0.000000 0.000000 -0.001884 0.000000 0.030438
#
#
# Mechanical properties :
#
#
# Convention : Reuss Voigt Hill
#
# Bulk Modulus (GPa) = 50.68377 71.05021 60.86699
# Shear Modulus (GPa) = 35.75631 38.91560 37.33595
#
# Velocity S-wave (km/s) = 3.94475 4.11533 4.03094
# Velocity P-wave (km/s) = 6.54259 7.31451 6.93929
#
# Compressibility (1/GPa) = 0.01973018
#
# Stress axis : x y z
#
# Youngs Moduli (GPa) = 62.57678 101.61857 132.54652
#
# Poissons Ratio (x) = 0.03701 0.32739
# Poissons Ratio (y) = 0.02279 0.52800
# Poissons Ratio (z) = 0.15457 0.40480
#
# Static dielectric constant tensor:
#      x y z
#    x 4.015890 0.000000 0.035630 
#    y 0.000000 4.374940 0.000000 
#    z 0.035630 0.000000 4.322640 
# 
# 
# High freq. dielectric constant tensor:
#      x y z
#    x 1.901070 0.000000 -0.000390 
#    y 0.000000 1.915490 0.000000 
#    z -0.000390 0.000000 1.921660 
# 
# From -- ./inp_files/29472.got.cif
#   From: 2010.06.25/outbox.cif.g09.slc.cpg/sg13_15_cif.got.tgz:29472.got - 2010.06.28 04:50:58.
