data_PCOD8122632
_publ_section_title
;
Structure prediction by ZEFSAII (Michael W. Deem and Ramdas Pophale) SiO2 
 PCOD8122632
Probable space group: P 2/C
;
_chemical_formula_sum "Si O2"
_cell_formula_units_Z 32
_cell_length_a 17.686406
_cell_length_b 11.897870
_cell_length_c 14.128913
_cell_angle_alpha 90.000000
_cell_angle_beta 150.106802
_cell_angle_gamma 90.000000
_cell_volume 1481.775354
_symmetry_space_group_name_H-M "P 2/C"
_symmetry_group_IT_number 13
_symmetry_cell_setting 'monoclinic'
loop_
_space_group_symop_operation_xyz
x,y,z
-x,y,1/2-z
-x,-y,-z
x,-y,1/2+z
loop_
_atom_site_type_symbol
_atom_site_label
_atom_site_fract_x
_atom_site_fract_y
_atom_site_fract_z
Si Si1 0.149725 0.171352 0.774185
Si Si2 0.673618 0.322798 0.256728
Si Si3 0.351174 0.100807 0.705775
Si Si4 0.339702 0.705418 0.329231
Si Si5 0.157908 0.400336 0.883942
Si Si6 0.181412 0.906875 0.624731
Si Si7 0.684943 0.956077 0.535298
Si Si8 0.821216 0.496736 0.291906
O O1 0.225588 0.215916 0.761904
O O2 0.118788 0.273146 0.811176
O O3 0.996287 0.106042 0.583748
O O4 0.264984 0.080760 0.943660
O O5 0.717467 0.395426 0.397494
O O6 0.730566 0.195692 0.328825
O O7 0.753069 0.376714 0.249197
O O8 0.493140 0.321915 0.052644
O O9 0.371468 0.227294 0.767404
O O10 0.298509 0.120060 0.540452
O O11 0.233695 0.025173 0.637114
O O12 0.512704 0.037808 0.885555
O O13 0.256019 0.587151 0.220998
O O14 0.219159 0.473597 0.861496
O O15 0.000000 0.453677 0.750000
O O16 0.209978 0.906934 0.768199
O O17 0.000000 0.500000 0.500000
#
# Coordination Sequence:
#
# PCOD8122632 Si02
#       8
#     4   4   4   4   4   4   4   4
#     4  11  23  39  64  98 135 178 230 279 312 398
#     4  12  23  43  74  98 132 179 217 284 336 393
#     4  11  24  42  64  96 139 179 221 274 332 406
#     4  11  24  45  67  96 134 175 226 276 340 389
#     4  11  22  43  70 100 131 172 229 275 331 394
#     4  12  22  42  68  96 140 175 226 280 333 385
#     4  11  23  39  62  96 134 180 223 262 334 405
#     4  11  24  45  71  98 131 167 223 284 337 402
#
# _framework density 21.595715999999999
#
# number of rings (size 3 to 8) (size 9 to 14) (size 15 to 20)
#    0.000    0.750    5.000    3.375    0.000    3.000 
#    2.250    0.000    0.000    0.000    0.000    0.000 
#    0.000    0.000    0.000    0.000    0.000    0.000 
#
# Total GULP energy -396835.757400 kJ/mol
# GULP energy per Si atom -12401.117419 kJ/mol
# Density = 2.154656 g / cm^3
# Si number density = 21.595716 Si / 1000 Ang^3
#
#
#
# Elastic Constant Matrix: (Units=GPa)
#
#
# Indices 1 2 3 4 5 6 
#
# 1 93.1556 26.7092 46.1750 0.0000 -12.2105 0.0000
# 2 26.7092 58.5996 21.3564 0.0000 0.2556 0.0000
# 3 46.1750 21.3564 98.5503 0.0000 7.6884 0.0000
# 4 0.0000 0.0000 0.0000 24.4078 0.0000 -0.1928
# 5 -12.2105 0.2556 7.6884 0.0000 46.1587 0.0000
# 6 0.0000 0.0000 0.0000 -0.1928 0.0000 10.4305
#
#
#
# Elastic Compliance Matrix: (Units=1/GPa)
#
#
# Indices 1 2 3 4 5 6 
#
# 1 0.016351 -0.004916 -0.007027 0.000000 0.005523 0.000000
# 2 -0.004916 0.020021 -0.001951 0.000000 -0.001086 0.000000
# 3 -0.007027 -0.001951 0.014191 0.000000 -0.004212 0.000000
# 4 0.000000 0.000000 0.000000 0.040977 0.000000 0.000757
# 5 0.005523 -0.001086 -0.004212 0.000000 0.023833 0.000000
# 6 0.000000 0.000000 0.000000 0.000757 0.000000 0.095886
#
#
# Mechanical properties :
#
#
# Convention : Reuss Voigt Hill
#
# Bulk Modulus (GPa) = 43.90501 48.75408 46.32955
# Shear Modulus (GPa) = 20.27265 26.60374 23.43819
#
# Velocity S-wave (km/s) = 3.06720 3.51365 3.29799
# Velocity P-wave (km/s) = 5.73744 6.25186 6.00017
#
# Compressibility (1/GPa) = 0.02277644
#
# Stress axis : x y z
#
# Youngs Moduli (GPa) = 61.15782 49.94689 70.46858
#
# Poissons Ratio (x) = 0.24554 0.49517
# Poissons Ratio (y) = 0.30065 0.13746
# Poissons Ratio (z) = 0.42974 0.09743
#
# Static dielectric constant tensor:
#      x y z
#    x 4.105160 0.000000 -0.107880 
#    y 0.000000 4.016320 0.000000 
#    z -0.107880 0.000000 3.982890 
# 
# 
# High freq. dielectric constant tensor:
#      x y z
#    x 1.854250 0.000000 0.006140 
#    y 0.000000 1.837000 0.000000 
#    z 0.006140 0.000000 1.849990 
# 
# From -- ./inp_files/55833.got.cif
#   From: 2010.06.25/outbox.cif.g09.slc.cpg/sg13_28_cif.got.tgz:55833.got - 2010.06.28 04:50:58.
