data_PCOD8122195
_publ_section_title
;
Structure prediction by ZEFSAII (Michael W. Deem and Ramdas Pophale) SiO2 
 PCOD8122195
Probable space group: P 2/C
;
_chemical_formula_sum "Si O2"
_cell_formula_units_Z 30
_cell_length_a 14.787888
_cell_length_b 8.465127
_cell_length_c 12.179468
_cell_angle_alpha 90.000000
_cell_angle_beta 67.278375
_cell_angle_gamma 90.000000
_cell_volume 1406.318378
_symmetry_space_group_name_H-M "P 2/C"
_symmetry_group_IT_number 13
_symmetry_cell_setting 'monoclinic'
loop_
_space_group_symop_operation_xyz
x,y,z
-x,y,1/2-z
-x,-y,-z
x,-y,1/2+z
loop_
_atom_site_type_symbol
_atom_site_label
_atom_site_fract_x
_atom_site_fract_y
_atom_site_fract_z
Si Si1 0.500000 0.392674 0.250000
Si Si2 0.985738 0.743175 0.549355
Si Si3 0.555446 0.871850 0.116137
Si Si4 0.927086 0.052848 0.685629
Si Si5 0.130756 0.483677 0.547274
Si Si6 0.314730 0.391928 0.852698
Si Si7 0.777920 0.716098 0.323799
Si Si8 0.422435 0.203805 0.488372
O O1 0.594434 0.499938 0.224563
O O2 0.484863 0.286407 0.364283
O O3 0.905252 0.631809 0.532131
O O4 0.047445 0.837635 0.430017
O O5 0.060638 0.637500 0.587288
O O6 0.928009 0.867888 0.653303
O O7 0.500000 0.932789 0.250000
O O8 0.647906 0.768082 0.108023
O O9 0.593359 0.019644 0.029272
O O10 0.480453 0.771040 0.075667
O O11 0.820037 0.108083 0.778238
O O12 0.000000 0.085488 0.750000
O O13 0.243343 0.528148 0.473281
O O14 0.135904 0.390414 0.660970
O O15 0.250473 0.363750 0.775970
O O16 0.685782 0.725669 0.448872
#
# Coordination Sequence:
#
# PCOD8122195 Si02
#       8
#     2   4   4   4   4   4   4   4
#     4  12  24  42  68 100 138 182 224 278 342 404
#     4  10  24  46  70  96 137 174 225 279 352 413
#     4  11  23  45  66  92 133 183 222 277 339 399
#     4  11  23  44  70  97 131 177 219 280 342 415
#     4  11  24  44  69 101 133 180 223 287 343 417
#     4  12  25  41  67  99 137 174 225 278 342 407
#     4  12  24  42  69 101 136 175 227 283 339 413
#     4  11  25  43  68  97 135 182 230 280 335 409
#
# _framework density 21.332297000000001
#
# number of rings (size 3 to 8) (size 9 to 14) (size 15 to 20)
#    0.000    0.800    6.667    0.000    1.867    4.267 
#    4.800    0.000    0.000    0.000    0.000    0.000 
#    0.000    0.000    0.000    0.000    0.000    0.000 
#
# Total GULP energy -372071.225910 kJ/mol
# GULP energy per Si atom -12402.374197 kJ/mol
# Density = 2.128374 g / cm^3
# Si number density = 21.332297 Si / 1000 Ang^3
#
#
#
# Elastic Constant Matrix: (Units=GPa)
#
#
# Indices 1 2 3 4 5 6 
#
# 1 107.5767 52.9593 30.8839 0.0000 18.4898 0.0000
# 2 52.9593 121.4318 31.3082 0.0000 7.6128 0.0000
# 3 30.8839 31.3082 78.8294 0.0000 15.3105 0.0000
# 4 0.0000 0.0000 0.0000 23.2632 0.0000 0.4671
# 5 18.4898 7.6128 15.3105 0.0000 37.6641 0.0000
# 6 0.0000 0.0000 0.0000 0.4671 0.0000 27.9636
#
#
#
# Elastic Compliance Matrix: (Units=1/GPa)
#
#
# Indices 1 2 3 4 5 6 
#
# 1 0.013126 -0.004837 -0.002345 0.000000 -0.004513 0.000000
# 2 -0.004837 0.010963 -0.002703 0.000000 0.001258 0.000000
# 3 -0.002345 -0.002703 0.015578 0.000000 -0.004635 0.000000
# 4 0.000000 0.000000 0.000000 0.043001 0.000000 -0.000718
# 5 -0.004513 0.001258 -0.004635 0.000000 0.030396 0.000000
# 6 0.000000 0.000000 0.000000 -0.000718 0.000000 0.035773
#
#
# Mechanical properties :
#
#
# Convention : Reuss Voigt Hill
#
# Bulk Modulus (GPa) = 50.26009 59.79338 55.02674
# Shear Modulus (GPa) = 28.53259 30.62394 29.57826
#
# Velocity S-wave (km/s) = 3.66119 3.79300 3.72768
# Velocity P-wave (km/s) = 6.44082 6.87552 6.66172
#
# Compressibility (1/GPa) = 0.01989650
#
# Stress axis : x y z
#
# Youngs Moduli (GPa) = 76.18646 91.21843 64.19249
#
# Poissons Ratio (x) = 0.44122 0.15052
# Poissons Ratio (y) = 0.36851 0.17353
# Poissons Ratio (z) = 0.17865 0.24658
#
# Static dielectric constant tensor:
#      x y z
#    x 3.937440 0.000000 0.018790 
#    y 0.000000 3.955430 0.000000 
#    z 0.018790 0.000000 3.817790 
# 
# 
# High freq. dielectric constant tensor:
#      x y z
#    x 1.841210 0.000000 0.008410 
#    y 0.000000 1.843100 0.000000 
#    z 0.008410 0.000000 1.838090 
# 
# From -- ./inp_files/36402.got.cif
#   From: 2010.06.25/outbox.cif.g09.slc.cpg/sg13_19_cif.got.tgz:36402.got - 2010.06.28 04:50:58.
