data_PCOD8122371
_publ_section_title
;
Structure prediction by ZEFSAII (Michael W. Deem and Ramdas Pophale) SiO2 
 PCOD8122371
Probable space group: P 2/C
;
_chemical_formula_sum "Si O2"
_cell_formula_units_Z 32
_cell_length_a 21.933928
_cell_length_b 13.479188
_cell_length_c 20.745428
_cell_angle_alpha 90.000000
_cell_angle_beta 18.948091
_cell_angle_gamma 90.000000
_cell_volume 1991.590637
_symmetry_space_group_name_H-M "P 2/C"
_symmetry_group_IT_number 13
_symmetry_cell_setting 'monoclinic'
loop_
_space_group_symop_operation_xyz
x,y,z
-x,y,1/2-z
-x,-y,-z
x,-y,1/2+z
loop_
_atom_site_type_symbol
_atom_site_label
_atom_site_fract_x
_atom_site_fract_y
_atom_site_fract_z
Si Si1 0.288658 0.319114 0.057918
Si Si2 0.000042 0.898154 0.962103
Si Si3 0.288218 0.732988 0.702846
Si Si4 0.999980 0.483628 0.180412
Si Si5 0.000038 0.592210 0.049072
Si Si6 0.711852 0.267022 0.779206
Si Si7 0.000020 0.153523 0.320206
Si Si8 0.288617 0.680906 0.364801
O O1 0.284283 0.323857 0.139239
O O2 0.186047 0.416753 0.135862
O O3 0.185274 0.221159 0.136245
O O4 0.500023 0.317457 0.819684
O O5 0.815304 0.838253 0.168383
O O6 0.000104 0.916806 0.883883
O O7 0.184763 0.838267 0.798959
O O8 0.000000 0.000000 0.000000
O O9 0.500039 0.752702 0.515210
O O10 0.184301 0.659868 0.855949
O O11 0.000000 0.538708 0.250000
O O12 0.000061 0.562054 0.123266
O O13 0.185912 0.416678 0.992215
O O14 0.815795 0.659887 0.224462
O O15 0.000000 0.500000 0.000000
O O16 0.715732 0.323907 0.707796
O O17 0.814681 0.221088 0.506888
O O18 0.000000 0.096818 0.250000
#
# Coordination Sequence:
#
# PCOD8122371 Si02
#       8
#     4   4   4   4   4   4   4   4
#     4   9  16  28  45  66  94 124 149 183 232 284
#     4   9  18  33  51  71  96 120 149 197 242 283
#     4   9  18  31  50  73  93 121 160 194 233 279
#     4  11  21  29  40  65  95 125 163 199 228 267
#     4  11  18  32  48  66  94 128 164 195 222 267
#     4   9  18  31  50  73  93 121 160 194 233 279
#     4   9  17  28  43  67  95 120 147 180 228 295
#     4   9  16  28  45  66  94 124 149 183 232 284
#
# _framework density 16.067558999999999
#
# number of rings (size 3 to 8) (size 9 to 14) (size 15 to 20)
#    0.000    2.500    2.500    3.000    0.000    4.000 
#    0.000    0.000    0.000    3.000    0.000    0.000 
#    0.000    0.000    0.000    0.000    0.000    0.000 
#
# Total GULP energy -396611.655508 kJ/mol
# GULP energy per Si atom -12394.114235 kJ/mol
# Density = 1.603099 g / cm^3
# Si number density = 16.067559 Si / 1000 Ang^3
#
#
#
# Elastic Constant Matrix: (Units=GPa)
#
#
# Indices 1 2 3 4 5 6 
#
# 1 123.6531 57.0311 47.1522 0.0000 15.4982 0.0000
# 2 57.0311 70.1268 38.0717 0.0000 5.4261 0.0000
# 3 47.1522 38.0717 135.1140 0.0000 -18.9251 0.0000
# 4 0.0000 0.0000 0.0000 9.7938 0.0000 2.0739
# 5 15.4982 5.4261 -18.9251 0.0000 21.1353 0.0000
# 6 0.0000 0.0000 0.0000 2.0739 0.0000 16.9830
#
#
#
# Elastic Compliance Matrix: (Units=1/GPa)
#
#
# Indices 1 2 3 4 5 6 
#
# 1 0.015918 -0.009250 -0.004860 0.000000 -0.013649 0.000000
# 2 -0.009250 0.024195 -0.004012 0.000000 -0.003021 0.000000
# 3 -0.004860 -0.004012 0.012430 0.000000 0.015725 0.000000
# 4 0.000000 0.000000 0.000000 0.104816 0.000000 -0.012800
# 5 -0.013649 -0.003021 0.015725 0.000000 0.072179 0.000000
# 6 0.000000 0.000000 0.000000 -0.012800 0.000000 0.060446
#
#
# Mechanical properties :
#
#
# Convention : Reuss Voigt Hill
#
# Bulk Modulus (GPa) = 61.36197 68.15599 64.75898
# Shear Modulus (GPa) = 15.07558 22.02502 18.55030
#
# Velocity S-wave (km/s) = 3.06643 3.70642 3.40151
# Velocity P-wave (km/s) = 7.12813 7.79918 7.47119
#
# Compressibility (1/GPa) = 0.01629674
#
# Stress axis : x y z
#
# Youngs Moduli (GPa) = 62.82300 41.33078 80.44775
#
# Poissons Ratio (x) = 0.38233 0.39100
# Poissons Ratio (y) = 0.58114 0.32280
# Poissons Ratio (z) = 0.30534 0.16584
#
# Static dielectric constant tensor:
#      x y z
#    x 3.109150 0.000000 -0.062800 
#    y 0.000000 2.608330 0.000000 
#    z -0.062800 0.000000 3.326980 
# 
# 
# High freq. dielectric constant tensor:
#      x y z
#    x 1.616070 0.000000 -0.004000 
#    y 0.000000 1.566270 0.000000 
#    z -0.004000 0.000000 1.629950 
# 
# From -- ./inp_files/81807.got.cif
#   From: 2010.06.25/outbox.cif.g09.slc.cpg/sg13_41_cif.got.tgz:81807.got - 2010.06.28 04:50:58.
