data_PCOD8122093
_publ_section_title
;
Structure prediction by ZEFSAII (Michael W. Deem and Ramdas Pophale) SiO2 
 PCOD8122093
Probable space group: P 2/C
;
_chemical_formula_sum "Si O2"
_cell_formula_units_Z 28
_cell_length_a 8.897842
_cell_length_b 11.212495
_cell_length_c 15.836598
_cell_angle_alpha 90.000000
_cell_angle_beta 124.295859
_cell_angle_gamma 90.000000
_cell_volume 1305.274880
_symmetry_space_group_name_H-M "P 2/C"
_symmetry_group_IT_number 13
_symmetry_cell_setting 'monoclinic'
loop_
_space_group_symop_operation_xyz
x,y,z
-x,y,1/2-z
-x,-y,-z
x,-y,1/2+z
loop_
_atom_site_type_symbol
_atom_site_label
_atom_site_fract_x
_atom_site_fract_y
_atom_site_fract_z
Si Si1 0.209691 0.665364 0.996898
Si Si2 0.391896 0.288209 0.906867
Si Si3 0.090361 0.554131 0.361317
Si Si4 0.708453 0.004914 0.840089
Si Si5 0.794733 0.735626 0.324422
Si Si6 0.309490 0.050872 0.970573
Si Si7 0.006440 0.868212 0.844643
O O1 0.107450 0.543318 0.940061
O O2 0.073905 0.773636 0.934831
O O3 0.395672 0.693748 0.005682
O O4 0.261394 0.657226 0.112004
O O5 0.295002 0.409901 0.902657
O O6 0.359398 0.262999 0.796823
O O7 0.303476 0.185686 0.936395
O O8 0.000000 0.493863 0.250000
O O9 0.979777 0.674571 0.349715
O O10 0.500000 0.023443 0.750000
O O11 0.820382 0.128553 0.864761
O O12 0.805939 0.909131 0.810655
O O13 0.715781 0.957619 0.937341
O O14 0.142960 0.979587 0.876716
O O15 0.500000 0.000000 0.000000
O O16 0.000000 0.807560 0.750000
#
# Coordination Sequence:
#
# PCOD8122093 Si02
#       7
#     4   4   4   4   4   4   4
#     4  12  23  41  66  94 132 171 215 274 332 386
#     4  11  23  40  70  93 130 170 225 268 325 389
#     4  10  24  43  65  93 126 170 225 270 327 391
#     4  12  25  42  67  98 137 170 224 271 326 398
#     4  11  22  43  65  96 124 172 223 275 317 387
#     4  12  22  42  65 100 132 172 216 270 330 398
#     4  12  25  40  63  95 137 177 212 267 340 395
#
# _framework density 21.451419999999999
#
# number of rings (size 3 to 8) (size 9 to 14) (size 15 to 20)
#    0.000    0.571    2.857    6.429    2.000    1.143 
#    0.000    0.000    0.000    0.857    0.000    0.000 
#    0.000    0.000    0.000    0.000    0.000    0.000 
#
# Total GULP energy -347184.318657 kJ/mol
# GULP energy per Si atom -12399.439952 kJ/mol
# Density = 2.140260 g / cm^3
# Si number density = 21.451420 Si / 1000 Ang^3
#
#
#
# Elastic Constant Matrix: (Units=GPa)
#
#
# Indices 1 2 3 4 5 6 
#
# 1 99.1343 35.9471 34.8989 0.0000 -2.6669 0.0000
# 2 35.9471 96.8768 49.0871 0.0000 -0.4692 0.0000
# 3 34.8989 49.0871 112.0595 0.0000 -17.6684 0.0000
# 4 0.0000 0.0000 0.0000 30.2301 0.0000 -5.2601
# 5 -2.6669 -0.4692 -17.6684 0.0000 39.4546 0.0000
# 6 0.0000 0.0000 0.0000 -5.2601 0.0000 22.4866
#
#
#
# Elastic Compliance Matrix: (Units=1/GPa)
#
#
# Indices 1 2 3 4 5 6 
#
# 1 0.012109 -0.003292 -0.002374 0.000000 -0.000284 0.000000
# 2 -0.003292 0.014421 -0.005702 0.000000 -0.002605 0.000000
# 3 -0.002374 -0.005702 0.013046 0.000000 0.005614 0.000000
# 4 0.000000 0.000000 0.000000 0.034483 0.000000 0.008066
# 5 -0.000284 -0.002605 0.005614 0.000000 0.027809 0.000000
# 6 0.000000 0.000000 0.000000 0.008066 0.000000 0.046358
#
#
# Mechanical properties :
#
#
# Convention : Reuss Voigt Hill
#
# Bulk Modulus (GPa) = 59.38338 60.88189 60.13263
# Shear Modulus (GPa) = 28.31649 30.97677 29.64663
#
# Velocity S-wave (km/s) = 3.63716 3.80418 3.72161
# Velocity P-wave (km/s) = 6.73657 6.90931 6.82349
#
# Compressibility (1/GPa) = 0.01683973
#
# Stress axis : x y z
#
# Youngs Moduli (GPa) = 82.58315 69.34540 76.65038
#
# Poissons Ratio (x) = 0.22826 0.18197
# Poissons Ratio (y) = 0.27184 0.43709
# Poissons Ratio (z) = 0.19605 0.39544
#
# Static dielectric constant tensor:
#      x y z
#    x 4.130160 0.000000 -0.097240 
#    y 0.000000 3.698110 0.000000 
#    z -0.097240 0.000000 4.077920 
# 
# 
# High freq. dielectric constant tensor:
#      x y z
#    x 1.852060 0.000000 -0.003160 
#    y 0.000000 1.826830 0.000000 
#    z -0.003160 0.000000 1.849630 
# 
# From -- ./inp_files/47320.got.cif
#   From: 2010.06.25/outbox.cif.g09.slc.cpg/sg13_24_cif.got.tgz:47320.got - 2010.06.28 04:50:58.
