data_PCOD8122842
_publ_section_title
;
Structure prediction by ZEFSAII (Michael W. Deem and Ramdas Pophale) SiO2 
 PCOD8122842
Probable space group: P 2/C
;
_chemical_formula_sum "Si O2"
_cell_formula_units_Z 22
_cell_length_a 12.257466
_cell_length_b 6.540995
_cell_length_c 13.000925
_cell_angle_alpha 90.000000
_cell_angle_beta 104.564559
_cell_angle_gamma 90.000000
_cell_volume 1008.866056
_symmetry_space_group_name_H-M "P 2/C"
_symmetry_group_IT_number 13
_symmetry_cell_setting 'monoclinic'
loop_
_space_group_symop_operation_xyz
x,y,z
-x,y,1/2-z
-x,-y,-z
x,-y,1/2+z
loop_
_atom_site_type_symbol
_atom_site_label
_atom_site_fract_x
_atom_site_fract_y
_atom_site_fract_z
Si Si1 0.500000 0.026614 0.250000
Si Si2 0.312623 0.171040 0.834496
Si Si3 0.886418 0.129380 0.974211
Si Si4 0.120650 0.155309 0.297060
Si Si5 0.187001 0.517077 0.174999
Si Si6 0.695739 0.803495 0.926607
O O1 0.419304 0.167817 0.162837
O O2 0.568439 0.887170 0.186569
O O3 0.274668 0.382289 0.774465
O O4 0.220734 0.995559 0.788899
O O5 0.329805 0.207326 0.959021
O O6 0.895975 0.314175 0.894959
O O7 0.781038 0.987190 0.918968
O O8 0.865512 0.223008 0.081815
O O9 0.000000 0.000000 0.000000
O O10 0.116147 0.352828 0.222498
O O11 0.000000 0.042749 0.250000
O O12 0.252661 0.411748 0.096433
#
# Coordination Sequence:
#
# PCOD8122842 Si02
#       6
#     2   4   4   4   4   4
#     4  12  22  50  70  96 142 186 230 290 348 416
#     4  11  25  45  69 100 138 185 230 286 353 410
#     4  11  24  44  69 100 144 184 229 286 354 412
#     4  11  24  42  68 101 137 182 228 286 347 415
#     4  12  22  44  67 105 136 177 236 285 348 410
#     4  11  25  44  69 102 138 184 233 288 347 416
#
# _framework density 21.806661999999999
#
# number of rings (size 3 to 8) (size 9 to 14) (size 15 to 20)
#    0.000    0.727    3.636    3.818    0.000    7.273 
#    0.000    1.818    0.000    0.000    0.000    0.000 
#    0.000    0.000    0.000    0.000    0.000    0.000 
#
# Total GULP energy -272878.452477 kJ/mol
# GULP energy per Si atom -12403.566022 kJ/mol
# Density = 2.175703 g / cm^3
# Si number density = 21.806662 Si / 1000 Ang^3
#
#
#
# Elastic Constant Matrix: (Units=GPa)
#
#
# Indices 1 2 3 4 5 6 
#
# 1 135.3376 49.9847 60.2479 0.0000 1.7238 0.0000
# 2 49.9847 104.5934 70.3053 0.0000 -6.0586 0.0000
# 3 60.2479 70.3053 170.0703 0.0000 -8.1037 0.0000
# 4 0.0000 0.0000 0.0000 52.5150 0.0000 2.4581
# 5 1.7238 -6.0586 -8.1037 0.0000 45.2707 0.0000
# 6 0.0000 0.0000 0.0000 2.4581 0.0000 23.1006
#
#
#
# Elastic Compliance Matrix: (Units=1/GPa)
#
#
# Indices 1 2 3 4 5 6 
#
# 1 0.009524 -0.003204 -0.002105 0.000000 -0.001168 0.000000
# 2 -0.003204 0.014347 -0.004739 0.000000 0.001194 0.000000
# 3 -0.002105 -0.004739 0.008632 0.000000 0.000991 0.000000
# 4 0.000000 0.000000 0.000000 0.019137 0.000000 -0.002036
# 5 -0.001168 0.001194 0.000991 0.000000 0.022471 0.000000
# 6 0.000000 0.000000 0.000000 -0.002036 0.000000 0.043506
#
#
# Mechanical properties :
#
#
# Convention : Reuss Voigt Hill
#
# Bulk Modulus (GPa) = 80.60269 85.67523 83.13896
# Shear Modulus (GPa) = 35.24887 39.47483 37.36185
#
# Velocity S-wave (km/s) = 4.02484 4.25928 4.14372
# Velocity P-wave (km/s) = 7.65779 7.97261 7.81679
#
# Compressibility (1/GPa) = 0.01240653
#
# Stress axis : x y z
#
# Youngs Moduli (GPa) = 104.99354 69.70306 115.85075
#
# Poissons Ratio (x) = 0.22335 0.24387
# Poissons Ratio (y) = 0.33644 0.54898
# Poissons Ratio (z) = 0.22102 0.33030
#
# Static dielectric constant tensor:
#      x y z
#    x 3.923950 0.000000 -0.087940 
#    y 0.000000 3.815590 0.000000 
#    z -0.087940 0.000000 4.275130 
# 
# 
# High freq. dielectric constant tensor:
#      x y z
#    x 1.852830 0.000000 -0.006750 
#    y 0.000000 1.846110 0.000000 
#    z -0.006750 0.000000 1.891700 
# 
# From -- ./inp_files/48997.got.cif
#   From: 2010.06.25/outbox.cif.g09.slc.cpg/sg13_25_cif.got.tgz:48997.got - 2010.06.28 04:50:58.
