data_PCOD8122660
_publ_section_title
;
Structure prediction by ZEFSAII (Michael W. Deem and Ramdas Pophale) SiO2 
 PCOD8122660
Probable space group: P 2/C
;
_chemical_formula_sum "Si O2"
_cell_formula_units_Z 32
_cell_length_a 13.532521
_cell_length_b 6.720603
_cell_length_c 17.304675
_cell_angle_alpha 90.000000
_cell_angle_beta 104.280578
_cell_angle_gamma 90.000000
_cell_volume 1525.171651
_symmetry_space_group_name_H-M "P 2/C"
_symmetry_group_IT_number 13
_symmetry_cell_setting 'monoclinic'
loop_
_space_group_symop_operation_xyz
x,y,z
-x,y,1/2-z
-x,-y,-z
x,-y,1/2+z
loop_
_atom_site_type_symbol
_atom_site_label
_atom_site_fract_x
_atom_site_fract_y
_atom_site_fract_z
Si Si1 0.737869 0.858681 0.961149
Si Si2 0.568818 0.458289 0.439011
Si Si3 0.215170 0.748984 0.290001
Si Si4 0.932643 0.532137 0.813529
Si Si5 0.284459 0.734464 0.964696
Si Si6 0.124441 0.405726 0.924120
Si Si7 0.371408 0.416564 0.327223
Si Si8 0.234739 0.850036 0.706147
O O1 0.632842 0.744487 0.959611
O O2 0.741288 0.934914 0.873974
O O3 0.837322 0.716706 0.993598
O O4 0.742161 0.040431 0.021079
O O5 0.500000 0.500000 0.500000
O O6 0.650429 0.639211 0.451341
O O7 0.494644 0.447285 0.349414
O O8 0.150715 0.640832 0.210749
O O9 0.152119 0.736621 0.357143
O O10 0.322505 0.636310 0.323455
O O11 0.232872 0.975530 0.268870
O O12 0.874357 0.739302 0.816655
O O13 0.000000 0.560916 0.750000
O O14 0.004283 0.461464 0.899093
O O15 0.179788 0.617801 0.930152
O O16 0.346789 0.719810 0.897079
O O17 0.327127 0.301276 0.244494
#
# Coordination Sequence:
#
# PCOD8122660 Si02
#       8
#     4   4   4   4   4   4   4   4
#     4  11  23  36  55  87 121 151 187 237 292 340
#     4   9  20  38  60  84 110 147 194 236 275 331
#     4   9  19  36  58  84 111 145 190 237 284 336
#     4   9  20  38  60  84 109 147 197 239 278 339
#     4   9  19  36  59  85 113 148 194 241 281 335
#     4   9  19  38  60  81 111 152 194 234 280 339
#     4   9  19  37  59  80 109 152 195 234 282 341
#     4  11  23  36  55  86 121 149 183 239 297 344
#
# _framework density 20.981244
#
# number of rings (size 3 to 8) (size 9 to 14) (size 15 to 20)
#    0.000    2.500    0.000    2.250    0.000   10.500 
#    0.000    1.250    0.000    0.000    0.000    0.000 
#    0.000    0.000    0.000    0.000    0.000    0.000 
#
# Total GULP energy -396623.136275 kJ/mol
# GULP energy per Si atom -12394.473009 kJ/mol
# Density = 2.093349 g / cm^3
# Si number density = 20.981244 Si / 1000 Ang^3
#
#
#
# Elastic Constant Matrix: (Units=GPa)
#
#
# Indices 1 2 3 4 5 6 
#
# 1 70.4363 32.3610 31.7860 0.0000 32.4816 0.0000
# 2 32.3610 98.9100 26.3156 0.0000 8.0276 0.0000
# 3 31.7860 26.3156 81.8699 0.0000 24.9445 0.0000
# 4 0.0000 0.0000 0.0000 23.9117 0.0000 4.3379
# 5 32.4816 8.0276 24.9445 0.0000 38.3544 0.0000
# 6 0.0000 0.0000 0.0000 4.3379 0.0000 11.8777
#
#
#
# Elastic Compliance Matrix: (Units=1/GPa)
#
#
# Indices 1 2 3 4 5 6 
#
# 1 0.027949 -0.006840 -0.002341 0.000000 -0.020716 0.000000
# 2 -0.006840 0.012730 -0.002980 0.000000 0.005066 0.000000
# 3 -0.002341 -0.002980 0.016571 0.000000 -0.008171 0.000000
# 4 0.000000 0.000000 0.000000 0.044788 0.000000 -0.016357
# 5 -0.020716 0.005066 -0.008171 0.000000 0.047870 0.000000
# 6 0.000000 0.000000 0.000000 -0.016357 0.000000 0.090166
#
#
# Mechanical properties :
#
#
# Convention : Reuss Voigt Hill
#
# Bulk Modulus (GPa) = 30.36929 48.01572 39.19250
# Shear Modulus (GPa) = 18.15732 25.54566 21.85149
#
# Velocity S-wave (km/s) = 2.94497 3.49312 3.23069
# Velocity P-wave (km/s) = 5.10585 6.26131 5.71287
#
# Compressibility (1/GPa) = 0.03292801
#
# Stress axis : x y z
#
# Youngs Moduli (GPa) = 35.77922 78.55627 60.34756
#
# Poissons Ratio (x) = 0.53734 0.14127
# Poissons Ratio (y) = 0.24474 0.17982
# Poissons Ratio (z) = 0.08375 0.23407
#
# Static dielectric constant tensor:
#      x y z
#    x 3.782430 0.000000 0.552340 
#    y 0.000000 3.581230 0.000000 
#    z 0.552340 0.000000 3.960330 
# 
# 
# High freq. dielectric constant tensor:
#      x y z
#    x 1.804330 0.000000 0.028690 
#    y 0.000000 1.810690 0.000000 
#    z 0.028690 0.000000 1.822100 
# 
# From -- ./inp_files/67598.got.cif
#   From: 2010.06.25/outbox.cif.g09.slc.cpg/sg13_34_cif.got.tgz:67598.got - 2010.06.28 04:50:58.
