data_PCOD8122716
_publ_section_title
;
Structure prediction by ZEFSAII (Michael W. Deem and Ramdas Pophale) SiO2 
 PCOD8122716
Probable space group: P 2/C
;
_chemical_formula_sum "Si O2"
_cell_formula_units_Z 20
_cell_length_a 6.883984
_cell_length_b 11.757308
_cell_length_c 17.896392
_cell_angle_alpha 90.000000
_cell_angle_beta 44.462911
_cell_angle_gamma 90.000000
_cell_volume 1014.585770
_symmetry_space_group_name_H-M "P 2/C"
_symmetry_group_IT_number 13
_symmetry_cell_setting 'monoclinic'
loop_
_space_group_symop_operation_xyz
x,y,z
-x,y,1/2-z
-x,-y,-z
x,-y,1/2+z
loop_
_atom_site_type_symbol
_atom_site_label
_atom_site_fract_x
_atom_site_fract_y
_atom_site_fract_z
Si Si1 0.585924 0.548066 0.142191
Si Si2 0.732183 0.889484 0.626201
Si Si3 0.654782 0.065502 0.522793
Si Si4 0.729553 0.276457 0.862615
Si Si5 0.833823 0.666058 0.503921
O O1 0.500000 0.523064 0.250000
O O2 0.342535 0.613133 0.166398
O O3 0.619008 0.427260 0.092669
O O4 0.858050 0.625320 0.062555
O O5 0.500000 0.857914 0.750000
O O6 0.776339 0.785041 0.558864
O O7 0.021792 0.919232 0.587870
O O8 0.628404 0.997767 0.607649
O O9 0.520590 0.188020 0.571085
O O10 0.500000 0.000000 0.500000
O O11 0.000000 0.219812 0.750000
O O12 0.793109 0.317696 0.927838
#
# Coordination Sequence:
#
# PCOD8122716 Si02
#       5
#     4   4   4   4   4
#     4  11  23  42  66  93 128 170 212 263 325 380
#     4  11  25  43  67  96 130 174 213 262 326 378
#     4  11  25  43  65  95 133 167 217 268 312 383
#     4  12  24  41  69  96 127 170 217 263 321 378
#     4  11  23  43  64  93 134 165 213 268 315 386
#
# _framework density 19.712478000000001
#
# number of rings (size 3 to 8) (size 9 to 14) (size 15 to 20)
#    0.000    0.800    6.000    1.200    2.800    0.800 
#    0.000    0.000    0.000    0.000    0.000    0.000 
#    0.000    0.000    0.000    0.000    0.000    0.000 
#
# Total GULP energy -248113.948499 kJ/mol
# GULP energy per Si atom -12405.697425 kJ/mol
# Density = 1.966761 g / cm^3
# Si number density = 19.712478 Si / 1000 Ang^3
#
#
#
# Elastic Constant Matrix: (Units=GPa)
#
#
# Indices 1 2 3 4 5 6 
#
# 1 122.3281 36.1118 42.9750 0.0000 8.3283 0.0000
# 2 36.1118 81.4610 21.8229 0.0000 7.8534 0.0000
# 3 42.9750 21.8229 117.4289 0.0000 12.0241 0.0000
# 4 0.0000 0.0000 0.0000 110.7373 0.0000 256.6723
# 5 8.3283 7.8534 12.0241 0.0000 33.0116 0.0000
# 6 0.0000 0.0000 0.0000 256.6723 0.0000 736.1416
#
#
#
# Elastic Compliance Matrix: (Units=1/GPa)
#
#
# Indices 1 2 3 4 5 6 
#
# 1 0.010388 -0.003729 -0.003045 0.000000 -0.000625 0.000000
# 2 -0.003729 0.014426 -0.001102 0.000000 -0.002090 0.000000
# 3 -0.003045 -0.001102 0.010106 0.000000 -0.002651 0.000000
# 4 0.000000 0.000000 0.000000 0.047075 0.000000 -0.016414
# 5 -0.000625 -0.002090 -0.002651 0.000000 0.031913 0.000000
# 6 0.000000 0.000000 0.000000 -0.016414 0.000000 0.007081
#
#
# Mechanical properties :
#
#
# Convention : Reuss Voigt Hill
#
# Bulk Modulus (GPa) = 52.17042 58.11527 55.14284
# Shear Modulus (GPa) = 34.93342 190.66531 112.79937
#
# Velocity S-wave (km/s) = 4.21426 9.84546 7.57275
# Velocity P-wave (km/s) = 7.08541 12.60118 10.22235
#
# Compressibility (1/GPa) = 0.01916795
#
# Stress axis : x y z
#
# Youngs Moduli (GPa) = 96.26786 69.32106 98.94858
#
# Poissons Ratio (x) = 0.25850 0.30126
# Poissons Ratio (y) = 0.35899 0.10906
# Poissons Ratio (z) = 0.29310 0.07640
#
# Static dielectric constant tensor:
#      x y z
#    x 3.737830 0.000000 -0.061410 
#    y 0.000000 3.701210 0.000000 
#    z -0.061410 0.000000 3.661330 
# 
# 
# High freq. dielectric constant tensor:
#      x y z
#    x 1.781620 0.000000 -0.001530 
#    y 0.000000 1.780140 0.000000 
#    z -0.001530 0.000000 1.771560 
# 
# From -- ./inp_files/36809.got.cif
#   From: 2010.06.25/outbox.cif.g09.slc.cpg/sg13_19_cif.got.tgz:36809.got - 2010.06.28 04:50:58.
