data_PCOD8122057
_publ_section_title
;
Structure prediction by ZEFSAII (Michael W. Deem and Ramdas Pophale) SiO2 
 PCOD8122057
Probable space group: P 2/C
;
_chemical_formula_sum "Si O2"
_cell_formula_units_Z 18
_cell_length_a 5.184651
_cell_length_b 21.236853
_cell_length_c 8.736598
_cell_angle_alpha 90.000000
_cell_angle_beta 56.171534
_cell_angle_gamma 90.000000
_cell_volume 799.098704
_symmetry_space_group_name_H-M "P 2/C"
_symmetry_group_IT_number 13
_symmetry_cell_setting 'monoclinic'
loop_
_space_group_symop_operation_xyz
x,y,z
-x,y,1/2-z
-x,-y,-z
x,-y,1/2+z
loop_
_atom_site_type_symbol
_atom_site_label
_atom_site_fract_x
_atom_site_fract_y
_atom_site_fract_z
Si Si1 0.201126 0.412400 0.917236
Si Si2 0.000000 0.514350 0.750000
Si Si3 0.132887 0.181658 0.872529
Si Si4 0.867765 0.061244 0.124208
Si Si5 0.862744 0.701039 0.629862
O O1 0.500000 0.375744 0.750000
O O2 0.176058 0.471557 0.812520
O O3 0.238879 0.440673 0.076701
O O4 0.921343 0.361525 0.006838
O O5 0.500000 0.170164 0.750000
O O6 0.000000 0.196516 0.750000
O O7 0.963824 0.120465 0.991939
O O8 0.055063 0.240148 0.005482
O O9 0.500000 0.056316 0.250000
O O10 0.000000 0.068417 0.250000
O O11 0.000000 0.000000 0.000000
O O12 0.500000 0.716902 0.750000
O O13 0.000000 0.685867 0.750000
#
# Coordination Sequence:
#
# PCOD8122057 Si02
#       5
#     4   2   4   4   4
#     4  11  24  42  69  96 135 175 229 279 351 412
#     4  10  24  42  66 100 134 172 228 280 348 414
#     4  12  25  45  71 101 137 182 233 284 345 409
#     4  12  24  43  69 103 143 185 232 285 343 406
#     4  12  27  46  69  99 137 178 228 284 345 412
#
# _framework density 22.525376000000001
#
# number of rings (size 3 to 8) (size 9 to 14) (size 15 to 20)
#    0.000    0.444    1.111    7.333    4.667    3.556 
#    0.000    0.000    0.000    0.000    0.000    0.000 
#    0.000    0.000    0.000    0.000    0.000    0.000 
#
# Total GULP energy -223187.275280 kJ/mol
# GULP energy per Si atom -12399.293071 kJ/mol
# Density = 2.247411 g / cm^3
# Si number density = 22.525376 Si / 1000 Ang^3
#
#
#
# Elastic Constant Matrix: (Units=GPa)
#
#
# Indices 1 2 3 4 5 6 
#
# 1 122.0739 7.3887 48.4032 0.0000 -19.3468 0.0000
# 2 7.3887 141.5888 59.3463 0.0000 -14.2321 0.0000
# 3 48.4032 59.3463 148.6488 0.0000 -21.3938 0.0000
# 4 0.0000 0.0000 0.0000 -59.0885 0.0000 72.5761
# 5 -19.3468 -14.2321 -21.3938 0.0000 46.3687 0.0000
# 6 0.0000 0.0000 0.0000 72.5761 0.0000 -53.7049
#
#
#
# Elastic Compliance Matrix: (Units=1/GPa)
#
#
# Indices 1 2 3 4 5 6 
#
# 1 0.009881 0.001144 -0.003246 0.000000 0.002976 0.000000
# 2 0.001144 0.008669 -0.003622 0.000000 0.001467 0.000000
# 3 -0.003246 -0.003622 0.009507 0.000000 0.001920 0.000000
# 4 0.000000 0.000000 0.000000 0.025648 0.000000 0.034660
# 5 0.002976 0.001467 0.001920 0.000000 0.024144 0.000000
# 6 0.000000 0.000000 0.000000 0.034660 0.000000 0.028219
#
#
# Mechanical properties :
#
#
# Convention : Reuss Voigt Hill
#
# Bulk Modulus (GPa) = 60.21081 71.39864 65.80473
# Shear Modulus (GPa) = 40.63331 6.52664 23.57997
#
# Velocity S-wave (km/s) = 4.25183 1.70404 3.23897
# Velocity P-wave (km/s) = 7.13389 5.96971 6.57761
#
# Compressibility (1/GPa) = 0.01660831
#
# Stress axis : x y z
#
# Youngs Moduli (GPa) = 101.20172 115.35744 105.18882
#
# Poissons Ratio (x) = -0.13197 0.34143
# Poissons Ratio (y) = -0.11578 0.38103
# Poissons Ratio (z) = 0.32849 0.41786
#
# Static dielectric constant tensor:
#      x y z
#    x 3.902230 0.000000 -0.008120 
#    y 0.000000 4.262090 0.000000 
#    z -0.008120 0.000000 4.686640 
# 
# 
# High freq. dielectric constant tensor:
#      x y z
#    x 1.877380 0.000000 0.000190 
#    y 0.000000 1.905970 0.000000 
#    z 0.000190 0.000000 1.921470 
# 
# From -- ./inp_files/9880.got.cif
#   From: 2010.06.25/outbox.cif.g09.slc.cpg/sg13_5_cif.got.tgz:9880.got - 2010.06.28 04:50:58.
