data_PCOD8122204
_publ_section_title
;
Structure prediction by ZEFSAII (Michael W. Deem and Ramdas Pophale) SiO2 
 PCOD8122204
Probable space group: P 2/C
;
_chemical_formula_sum "Si O2"
_cell_formula_units_Z 20
_cell_length_a 10.414203
_cell_length_b 5.245614
_cell_length_c 17.936718
_cell_angle_alpha 90.000000
_cell_angle_beta 53.381784
_cell_angle_gamma 90.000000
_cell_volume 786.465342
_symmetry_space_group_name_H-M "P 2/C"
_symmetry_group_IT_number 13
_symmetry_cell_setting 'monoclinic'
loop_
_space_group_symop_operation_xyz
x,y,z
-x,y,1/2-z
-x,-y,-z
x,-y,1/2+z
loop_
_atom_site_type_symbol
_atom_site_label
_atom_site_fract_x
_atom_site_fract_y
_atom_site_fract_z
Si Si1 0.594379 0.210221 0.885301
Si Si2 0.141727 0.830357 0.325050
Si Si3 0.626720 0.914355 0.646433
Si Si4 0.964027 0.660320 0.850108
Si Si5 0.663120 0.600591 0.508720
O O1 0.761027 0.197619 0.784564
O O2 0.641922 0.166405 0.955750
O O3 0.471099 0.020005 0.890046
O O4 0.513671 0.490187 0.912180
O O5 0.052417 0.563003 0.366451
O O6 0.260010 0.876862 0.354190
O O7 0.018296 0.065176 0.361778
O O8 0.500000 0.800094 0.750000
O O9 0.728948 0.698408 0.567194
O O10 0.777294 0.617987 0.933611
O O11 0.000000 0.635884 0.750000
#
# Coordination Sequence:
#
# PCOD8122204 Si02
#       5
#     4   4   4   4   4
#     4  10  24  46  73 110 142 199 251 307 362 442
#     4  11  27  48  77 106 154 196 241 307 376 441
#     4  10  25  43  73 107 150 193 252 308 371 435
#     4  12  27  48  75 110 150 197 246 306 373 442
#     4  11  25  44  78 109 146 196 253 307 364 446
#
# _framework density 25.430237000000002
#
# number of rings (size 3 to 8) (size 9 to 14) (size 15 to 20)
#    0.000    1.200    2.000    1.200   11.200    2.400 
#    0.000    0.000    0.000    0.000    0.000    0.000 
#    0.000    0.000    0.000    0.000    0.000    0.000 
#
# Total GULP energy -247812.885969 kJ/mol
# GULP energy per Si atom -12390.644298 kJ/mol
# Density = 2.537236 g / cm^3
# Si number density = 25.430237 Si / 1000 Ang^3
#
#
#
# Elastic Constant Matrix: (Units=GPa)
#
#
# Indices 1 2 3 4 5 6 
#
# 1 75.3175 13.4572 41.6004 0.0000 -2.2473 0.0000
# 2 13.4572 63.6145 27.4670 0.0000 7.3293 0.0000
# 3 41.6004 27.4670 105.6095 0.0000 21.7871 0.0000
# 4 0.0000 0.0000 0.0000 31.6224 0.0000 -3.5285
# 5 -2.2473 7.3293 21.7871 0.0000 34.2617 0.0000
# 6 0.0000 0.0000 0.0000 -3.5285 0.0000 24.3827
#
#
#
# Elastic Compliance Matrix: (Units=1/GPa)
#
#
# Indices 1 2 3 4 5 6 
#
# 1 0.018247 -0.001050 -0.008296 0.000000 0.006697 0.000000
# 2 -0.001050 0.017798 -0.003932 0.000000 -0.001376 0.000000
# 3 -0.008296 -0.003932 0.015766 0.000000 -0.009729 0.000000
# 4 0.000000 0.000000 0.000000 0.032142 0.000000 0.004651
# 5 0.006697 -0.001376 -0.009729 0.000000 0.036107 0.000000
# 6 0.000000 0.000000 0.000000 0.004651 0.000000 0.041686
#
#
# Mechanical properties :
#
#
# Convention : Reuss Voigt Hill
#
# Bulk Modulus (GPa) = 39.59386 45.51010 42.55198
# Shear Modulus (GPa) = 25.41690 28.85449 27.13569
#
# Velocity S-wave (km/s) = 3.16488 3.37211 3.27014
# Velocity P-wave (km/s) = 5.38133 5.75295 5.57024
#
# Compressibility (1/GPa) = 0.02525644
#
# Stress axis : x y z
#
# Youngs Moduli (GPa) = 54.80448 56.18674 63.42619
#
# Poissons Ratio (x) = 0.05897 0.52619
# Poissons Ratio (y) = 0.05752 0.24937
# Poissons Ratio (z) = 0.45466 0.22090
#
# Static dielectric constant tensor:
#      x y z
#    x 4.606800 0.000000 0.053560 
#    y 0.000000 4.397960 0.000000 
#    z 0.053560 0.000000 4.856650 
# 
# 
# High freq. dielectric constant tensor:
#      x y z
#    x 2.015280 0.000000 0.006900 
#    y 0.000000 1.999980 0.000000 
#    z 0.006900 0.000000 2.031300 
# 
# From -- ./inp_files/65240.got.cif
#   From: 2010.06.25/outbox.cif.g09.slc.cpg/sg13_33_cif.got.tgz:65240.got - 2010.06.28 04:50:58.
