data_PCOD8122728
_publ_section_title
;
Structure prediction by ZEFSAII (Michael W. Deem and Ramdas Pophale) SiO2 
 PCOD8122728
Probable space group: P 2/C
;
_chemical_formula_sum "Si O2"
_cell_formula_units_Z 22
_cell_length_a 14.455505
_cell_length_b 10.810805
_cell_length_c 17.148711
_cell_angle_alpha 90.000000
_cell_angle_beta 21.802964
_cell_angle_gamma 90.000000
_cell_volume 995.366996
_symmetry_space_group_name_H-M "P 2/C"
_symmetry_group_IT_number 13
_symmetry_cell_setting 'monoclinic'
loop_
_space_group_symop_operation_xyz
x,y,z
-x,y,1/2-z
-x,-y,-z
x,-y,1/2+z
loop_
_atom_site_type_symbol
_atom_site_label
_atom_site_fract_x
_atom_site_fract_y
_atom_site_fract_z
Si Si1 0.000000 0.875612 0.250000
Si Si2 0.426360 0.245882 0.718628
Si Si3 0.424795 0.316170 0.395275
Si Si4 0.768295 0.439617 0.380679
Si Si5 0.139741 0.715364 0.828493
Si Si6 0.686083 0.064951 0.411179
O O1 0.769439 0.795798 0.463161
O O2 0.900182 0.965448 0.260775
O O3 0.500000 0.264335 0.750000
O O4 0.528862 0.360158 0.589156
O O5 0.535537 0.113628 0.604995
O O6 0.135966 0.257709 0.926156
O O7 0.500000 0.365067 0.250000
O O8 0.288043 0.417928 0.555687
O O9 0.673999 0.272706 0.244437
O O10 0.831775 0.417879 0.238719
O O11 0.000000 0.391794 0.250000
O O12 0.189031 0.816916 0.724588
O O13 0.500000 0.000000 0.500000
#
# Coordination Sequence:
#
# PCOD8122728 Si02
#       6
#     2   4   4   4   4   4
#     4  12  26  48  66  96 150 182 226 288 350 398
#     4  11  23  42  74 104 133 173 238 289 340 412
#     4  12  28  44  70 104 142 187 230 284 348 421
#     4  11  23  45  72 102 139 179 229 288 354 408
#     4  11  25  46  74 103 135 184 235 286 348 411
#     4  11  25  45  70  98 137 185 229 284 345 408
#
# _framework density 22.102401
#
# number of rings (size 3 to 8) (size 9 to 14) (size 15 to 20)
#    0.000    0.727    4.545    2.182    5.091    3.636 
#    0.000    0.000    0.000    0.000    0.000    0.000 
#    0.000    0.000    0.000    0.000    0.000    0.000 
#
# Total GULP energy -272829.012280 kJ/mol
# GULP energy per Si atom -12401.318740 kJ/mol
# Density = 2.205209 g / cm^3
# Si number density = 22.102401 Si / 1000 Ang^3
#
#
#
# Elastic Constant Matrix: (Units=GPa)
#
#
# Indices 1 2 3 4 5 6 
#
# 1 109.4031 32.1476 49.6453 0.0000 -26.6057 0.0000
# 2 32.1476 111.0888 43.0479 0.0000 -6.5468 0.0000
# 3 49.6453 43.0479 140.0679 0.0000 -26.9963 0.0000
# 4 0.0000 0.0000 0.0000 25.0522 0.0000 -4.1298
# 5 -26.6057 -6.5468 -26.9963 0.0000 41.8882 0.0000
# 6 0.0000 0.0000 0.0000 -4.1298 0.0000 29.6390
#
#
#
# Elastic Compliance Matrix: (Units=1/GPa)
#
#
# Indices 1 2 3 4 5 6 
#
# 1 0.012393 -0.002244 -0.002573 0.000000 0.005863 0.000000
# 2 -0.002244 0.010634 -0.002771 0.000000 -0.001549 0.000000
# 3 -0.002573 -0.002771 0.009711 0.000000 0.004191 0.000000
# 4 0.000000 0.000000 0.000000 0.040855 0.000000 0.005693
# 5 0.005863 -0.001549 0.004191 0.000000 0.030056 0.000000
# 6 0.000000 0.000000 0.000000 0.005693 0.000000 0.034532
#
#
# Mechanical properties :
#
#
# Convention : Reuss Voigt Hill
#
# Bulk Modulus (GPa) = 56.94365 67.80458 62.37411
# Shear Modulus (GPa) = 31.40473 35.03049 33.21761
#
# Velocity S-wave (km/s) = 3.77354 3.98542 3.88093
# Velocity P-wave (km/s) = 6.69370 7.20570 6.95442
#
# Compressibility (1/GPa) = 0.01756122
#
# Stress axis : x y z
#
# Youngs Moduli (GPa) = 80.68947 94.03970 102.97673
#
# Poissons Ratio (x) = 0.21101 0.26496
# Poissons Ratio (y) = 0.18105 0.28540
# Poissons Ratio (z) = 0.20762 0.26063
#
# Static dielectric constant tensor:
#      x y z
#    x 3.958800 0.000000 -0.090640 
#    y 0.000000 4.627570 0.000000 
#    z -0.090640 0.000000 3.712840 
# 
# 
# High freq. dielectric constant tensor:
#      x y z
#    x 1.872820 0.000000 -0.015630 
#    y 0.000000 1.871980 0.000000 
#    z -0.015630 0.000000 1.879870 
# 
# From -- ./inp_files/43776.got.cif
#   From: 2010.06.25/outbox.cif.g09.slc.cpg/sg13_22_cif.got.tgz:43776.got - 2010.06.28 04:50:58.
