data_PCOD8122993
_publ_section_title
;
Structure prediction by ZEFSAII (Michael W. Deem and Ramdas Pophale) SiO2 
 PCOD8122993
Probable space group: P 2/C
;
_chemical_formula_sum "Si O2"
_cell_formula_units_Z 16
_cell_length_a 23.007209
_cell_length_b 5.342027
_cell_length_c 28.773387
_cell_angle_alpha 90.000000
_cell_angle_beta 10.823058
_cell_angle_gamma 90.000000
_cell_volume 664.052622
_symmetry_space_group_name_H-M "P 2/C"
_symmetry_group_IT_number 13
_symmetry_cell_setting 'monoclinic'
loop_
_space_group_symop_operation_xyz
x,y,z
-x,y,1/2-z
-x,-y,-z
x,-y,1/2+z
loop_
_atom_site_type_symbol
_atom_site_label
_atom_site_fract_x
_atom_site_fract_y
_atom_site_fract_z
Si Si1 0.799445 0.282256 0.949730
Si Si2 0.459483 0.756387 0.229723
Si Si3 0.125846 0.053306 0.349515
Si Si4 0.719627 0.702583 0.349966
O O1 0.000000 0.183822 0.750000
O O2 0.008331 0.375363 0.829057
O O3 0.622653 0.535010 0.071903
O O4 0.585882 0.040613 0.127326
O O5 0.500000 0.660855 0.250000
O O6 0.102422 0.740659 0.493830
O O7 0.100637 0.819548 0.334807
O O8 0.488600 0.125981 0.062928
O O9 0.000000 0.000000 0.500000
O O10 0.500000 0.500000 0.500000
#
# Coordination Sequence:
#
# PCOD8122993 Si02
#       4
#     4   4   4   4
#     4  12  27  46  73 105 145 189 244 297 364 430
#     4  12  25  47  72 104 144 190 238 298 360 432
#     4  11  26  46  74 105 144 190 243 296 366 432
#     4  11  26  46  71 103 144 189 236 302 359 430
#
# _framework density 24.094476
#
# number of rings (size 3 to 8) (size 9 to 14) (size 15 to 20)
#    0.000    0.500    2.500    4.500   10.500    1.000 
#    0.000    0.000    0.000    0.000    0.000    0.000 
#    0.000    0.000    0.000    0.000    0.000    0.000 
#
# Total GULP energy -198218.542813 kJ/mol
# GULP energy per Si atom -12388.658926 kJ/mol
# Density = 2.403964 g / cm^3
# Si number density = 24.094476 Si / 1000 Ang^3
#
#
#
# Elastic Constant Matrix: (Units=GPa)
#
#
# Indices 1 2 3 4 5 6 
#
# 1 99.6358 2.2675 38.8336 0.0001 22.5456 0.0005
# 2 2.2675 109.8823 33.6348 0.0001 -5.3213 0.0001
# 3 38.8336 33.6348 117.1374 0.0001 6.1317 0.0003
# 4 0.0001 0.0001 0.0001 39.1864 -0.0001 -14.9477
# 5 22.5456 -5.3213 6.1317 -0.0001 53.5690 -0.0004
# 6 0.0005 0.0001 0.0003 -14.9477 -0.0004 18.8212
#
#
#
# Elastic Compliance Matrix: (Units=1/GPa)
#
#
# Indices 1 2 3 4 5 6 
#
# 1 0.012742 0.000790 -0.004200 0.000000 -0.004804 -0.000001
# 2 0.000790 0.010121 -0.003223 0.000000 0.001042 0.000000
# 3 -0.004200 -0.003223 0.010844 0.000000 0.000206 0.000000
# 4 0.000000 0.000000 0.000000 0.036610 0.000000 0.029075
# 5 -0.004804 0.001042 0.000206 0.000000 0.020769 0.000001
# 6 -0.000001 0.000000 0.000000 0.029075 0.000001 0.076223
#
#
# Mechanical properties :
#
#
# Convention : Reuss Voigt Hill
#
# Bulk Modulus (GPa) = 48.91735 52.90305 50.91020
# Shear Modulus (GPa) = 26.68254 39.10995 32.89625
#
# Velocity S-wave (km/s) = 3.33139 4.03326 3.69901
# Velocity P-wave (km/s) = 5.92823 6.61012 6.27844
#
# Compressibility (1/GPa) = 0.02044265
#
# Stress axis : x y z
#
# Youngs Moduli (GPa) = 78.47790 98.80211 92.21808
#
# Poissons Ratio (x) = -0.07805 0.38730
# Poissons Ratio (y) = -0.06200 0.29719
# Poissons Ratio (z) = 0.32959 0.31840
#
# Static dielectric constant tensor:
#      x y z
#    x 4.271940 0.000000 -0.001720 
#    y 0.000000 4.200790 0.000000 
#    z -0.001720 0.000000 4.881870 
# 
# 
# High freq. dielectric constant tensor:
#      x y z
#    x 1.955050 0.000000 -0.000520 
#    y 0.000000 1.952700 0.000000 
#    z -0.000520 0.000000 1.984820 
# 
# From -- ./inp_files/62214.got.cif
#   From: 2010.06.25/outbox.cif.g09.slc.cpg/sg13_32_cif.got.tgz:62214.got - 2010.06.28 04:50:58.
