data_PCOD8122315
_publ_section_title
;
Structure prediction by ZEFSAII (Michael W. Deem and Ramdas Pophale) SiO2 
 PCOD8122315
Probable space group: P 2/C
;
_chemical_formula_sum "Si O2"
_cell_formula_units_Z 20
_cell_length_a 10.520553
_cell_length_b 4.977235
_cell_length_c 21.935939
_cell_angle_alpha 90.000000
_cell_angle_beta 43.287573
_cell_angle_gamma 90.000000
_cell_volume 787.575266
_symmetry_space_group_name_H-M "P 2/C"
_symmetry_group_IT_number 13
_symmetry_cell_setting 'monoclinic'
loop_
_space_group_symop_operation_xyz
x,y,z
-x,y,1/2-z
-x,-y,-z
x,-y,1/2+z
loop_
_atom_site_type_symbol
_atom_site_label
_atom_site_fract_x
_atom_site_fract_y
_atom_site_fract_z
Si Si1 0.793198 0.293432 0.809416
Si Si2 0.446885 0.951254 0.925023
Si Si3 0.855209 0.476271 0.159211
Si Si4 0.197240 0.976274 0.398748
Si Si5 0.272873 0.453935 0.041952
O O1 0.779836 0.471269 0.753095
O O2 0.732343 0.491607 0.884584
O O3 0.000000 0.180363 0.750000
O O4 0.662307 0.033442 0.849320
O O5 0.365238 0.972343 0.885865
O O6 0.423726 0.648983 0.957633
O O7 0.334505 0.147136 0.010389
O O8 0.771971 0.681606 0.139230
O O9 0.076846 0.506029 0.078556
O O10 0.791438 0.180702 0.161932
O O11 0.000000 0.000000 0.500000
#
# Coordination Sequence:
#
# PCOD8122315 Si02
#       5
#     4   4   4   4   4
#     4  10  26  46  68 101 145 185 235 289 355 409
#     4  12  24  42  71 102 134 184 234 285 341 417
#     4  11  23  43  68 102 137 183 221 295 352 410
#     4  12  22  41  72 100 138 175 238 282 348 420
#     4  11  22  43  71 100 136 179 235 284 341 420
#
# _framework density 25.394397000000001
#
# number of rings (size 3 to 8) (size 9 to 14) (size 15 to 20)
#    0.000    0.800    4.000    3.000    0.000    4.000 
#    0.000   11.000    0.000    0.000    0.000    0.000 
#    0.000    0.000    0.000    0.000    0.000    0.000 
#
# Total GULP energy -248181.885294 kJ/mol
# GULP energy per Si atom -12409.094265 kJ/mol
# Density = 2.533660 g / cm^3
# Si number density = 25.394397 Si / 1000 Ang^3
#
#
#
# Elastic Constant Matrix: (Units=GPa)
#
#
# Indices 1 2 3 4 5 6 
#
# 1 121.8089 9.1219 66.6582 0.0000 -0.5746 0.0000
# 2 9.1219 82.1173 5.9659 0.0000 2.5060 0.0000
# 3 66.6582 5.9659 64.5341 0.0000 7.9581 0.0000
# 4 0.0000 0.0000 0.0000 23.5440 0.0000 6.3754
# 5 -0.5746 2.5060 7.9581 0.0000 33.6518 0.0000
# 6 0.0000 0.0000 0.0000 6.3754 0.0000 42.2754
#
#
#
# Elastic Compliance Matrix: (Units=1/GPa)
#
#
# Indices 1 2 3 4 5 6 
#
# 1 0.019824 -0.000836 -0.021063 0.000000 0.005382 0.000000
# 2 -0.000836 0.012310 -0.000164 0.000000 -0.000892 0.000000
# 3 -0.021063 -0.000164 0.038430 0.000000 -0.009436 0.000000
# 4 0.000000 0.000000 0.000000 0.044282 0.000000 -0.006678
# 5 0.005382 -0.000892 -0.009436 0.000000 0.032106 0.000000
# 6 0.000000 0.000000 0.000000 -0.006678 0.000000 0.024661
#
#
# Mechanical properties :
#
#
# Convention : Reuss Voigt Hill
#
# Bulk Modulus (GPa) = 37.82480 47.99470 42.90975
# Shear Modulus (GPa) = 22.26659 32.34188 27.30423
#
# Velocity S-wave (km/s) = 2.96435 3.57260 3.28259
# Velocity P-wave (km/s) = 5.16176 5.99656 5.59475
#
# Compressibility (1/GPa) = 0.02643768
#
# Stress axis : x y z
#
# Youngs Moduli (GPa) = 50.44445 81.23648 26.02117
#
# Poissons Ratio (x) = 0.06792 0.54807
# Poissons Ratio (y) = 0.04218 0.00428
# Poissons Ratio (z) = 1.06249 0.01335
#
# Static dielectric constant tensor:
#      x y z
#    x 4.933500 0.000000 -0.029830 
#    y 0.000000 4.360560 0.000000 
#    z -0.029830 0.000000 4.564060 
# 
# 
# High freq. dielectric constant tensor:
#      x y z
#    x 2.038580 0.000000 0.003680 
#    y 0.000000 2.010490 0.000000 
#    z 0.003680 0.000000 2.011770 
# 
# From -- ./inp_files/85483.got.cif
#   From: 2010.06.25/outbox.cif.g09.slc.cpg/sg13_43_cif.got.tgz:85483.got - 2010.06.28 04:50:58.
