data_PCOD8122010
_publ_section_title
;
Structure prediction by ZEFSAII (Michael W. Deem and Ramdas Pophale) SiO2 
 PCOD8122010
Probable space group: P 2/C
;
_chemical_formula_sum "Si O2"
_cell_formula_units_Z 32
_cell_length_a 9.730780
_cell_length_b 9.447444
_cell_length_c 34.170378
_cell_angle_alpha 90.000000
_cell_angle_beta 26.983675
_cell_angle_gamma 90.000000
_cell_volume 1425.330526
_symmetry_space_group_name_H-M "P 2/C"
_symmetry_group_IT_number 13
_symmetry_cell_setting 'monoclinic'
loop_
_space_group_symop_operation_xyz
x,y,z
-x,y,1/2-z
-x,-y,-z
x,-y,1/2+z
loop_
_atom_site_type_symbol
_atom_site_label
_atom_site_fract_x
_atom_site_fract_y
_atom_site_fract_z
Si Si1 0.718079 0.945527 0.793730
Si Si2 0.204253 0.135020 0.951072
Si Si3 0.937974 0.206178 0.426941
Si Si4 0.351172 0.371446 0.174124
Si Si5 0.816954 0.955050 0.183731
Si Si6 0.330416 0.529107 0.831981
Si Si7 0.607473 0.838745 0.479824
Si Si8 0.835180 0.330934 0.991208
O O1 0.558748 0.792653 0.839513
O O2 0.808897 0.955827 0.725428
O O3 0.000000 0.945295 0.750000
O O4 0.530426 0.083792 0.853424
O O5 0.090486 0.260505 0.952878
O O6 0.212868 0.193324 0.992498
O O7 0.000000 0.000000 0.000000
O O8 0.655736 0.258702 0.471609
O O9 0.075530 0.056028 0.378962
O O10 0.215365 0.312695 0.353517
O O11 0.433593 0.467230 0.191161
O O12 0.000000 0.392585 0.250000
O O13 0.582159 0.415490 0.080720
O O14 0.500000 0.888077 0.250000
O O15 0.062367 0.827699 0.125060
O O16 0.500000 0.473515 0.750000
O O17 0.025054 0.438669 0.916316
O O18 0.652797 0.788888 0.512997
O O19 0.500000 0.000000 0.500000
#
# Coordination Sequence:
#
# PCOD8122010 Si02
#       8
#     4   4   4   4   4   4   4   4
#     4  11  23  36  65 101 135 174 226 287 349 415
#     4  12  21  40  67 100 134 179 222 283 359 425
#     4  11  23  40  68  95 134 181 238 281 343 419
#     4  11  25  44  74 102 140 182 245 290 343 416
#     4  11  21  37  62  96 140 175 222 286 352 412
#     4  12  27  49  71 100 137 188 242 292 348 418
#     4  10  24  40  68 102 139 174 226 286 355 419
#     4  12  26  45  73  99 140 184 233 285 357 411
#
# _framework density 22.450932999999999
#
# number of rings (size 3 to 8) (size 9 to 14) (size 15 to 20)
#    0.000    0.750    2.500    6.000    8.750    2.000 
#    0.000    0.625    0.000    0.000    0.000    0.000 
#    0.000    0.000    0.000    0.000    0.000    0.000 
#
# Total GULP energy -396682.989812 kJ/mol
# GULP energy per Si atom -12396.343432 kJ/mol
# Density = 2.239983 g / cm^3
# Si number density = 22.450933 Si / 1000 Ang^3
#
#
#
# Elastic Constant Matrix: (Units=GPa)
#
#
# Indices 1 2 3 4 5 6 
#
# 1 131.9017 14.7784 51.6523 0.0000 10.9788 0.0001
# 2 14.7784 31.9522 28.3888 -0.0010 3.8092 0.0002
# 3 51.6523 28.3888 132.3804 -0.0025 3.8268 0.0001
# 4 0.0000 -0.0010 -0.0025 31.6582 -0.0005 2.6134
# 5 10.9788 3.8092 3.8268 -0.0005 42.0708 -0.0001
# 6 0.0001 0.0002 0.0001 2.6134 -0.0001 21.4108
#
#
#
# Elastic Compliance Matrix: (Units=1/GPa)
#
#
# Indices 1 2 3 4 5 6 
#
# 1 0.009154 -0.001080 -0.003282 0.000000 -0.001992 0.000000
# 2 -0.001080 0.039112 -0.007893 0.000001 -0.002542 0.000000
# 3 -0.003282 -0.007893 0.010509 0.000001 0.000615 0.000000
# 4 0.000000 0.000001 0.000001 0.031909 0.000000 -0.003895
# 5 -0.001992 -0.002542 0.000615 0.000000 0.024464 0.000000
# 6 0.000000 0.000000 0.000000 -0.003895 0.000000 0.047181
#
#
# Mechanical properties :
#
#
# Convention : Reuss Voigt Hill
#
# Bulk Modulus (GPa) = 29.18428 53.98593 41.58511
# Shear Modulus (GPa) = 25.21948 32.45561 28.83754
#
# Velocity S-wave (km/s) = 3.35523 3.80626 3.58784
# Velocity P-wave (km/s) = 5.29504 6.58902 5.97715
#
# Compressibility (1/GPa) = 0.03426502
#
# Stress axis : x y z
#
# Youngs Moduli (GPa) = 109.24666 25.56781 95.15205
#
# Poissons Ratio (x) = 0.02761 0.31233
# Poissons Ratio (y) = 0.11797 0.75100
# Poissons Ratio (z) = 0.35859 0.20180
#
# Static dielectric constant tensor:
#      x y z
#    x 4.509710 -0.000160 -0.423870 
#    y -0.000160 0.226610 -0.000480 
#    z -0.423870 -0.000480 4.040200 
# 
# 
# High freq. dielectric constant tensor:
#      x y z
#    x 1.902440 0.000000 -0.006360 
#    y 0.000000 1.847750 0.000000 
#    z -0.006360 0.000000 1.898320 
# 
# From -- ./inp_files/96125.got.cif
#   From: 2010.06.25/outbox.cif.g09.slc.cpg/sg13_49_cif.got.tgz:96125.got - 2010.06.28 04:50:58.
