data_PCOD8122349
_publ_section_title
;
Structure prediction by ZEFSAII (Michael W. Deem and Ramdas Pophale) SiO2 
 PCOD8122349
Probable space group: P 2/C
;
_chemical_formula_sum "Si O2"
_cell_formula_units_Z 32
_cell_length_a 14.944664
_cell_length_b 21.867253
_cell_length_c 8.914695
_cell_angle_alpha 90.000000
_cell_angle_beta 146.617794
_cell_angle_gamma 90.000000
_cell_volume 1602.966267
_symmetry_space_group_name_H-M "P 2/C"
_symmetry_group_IT_number 13
_symmetry_cell_setting 'monoclinic'
loop_
_space_group_symop_operation_xyz
x,y,z
-x,y,1/2-z
-x,-y,-z
x,-y,1/2+z
loop_
_atom_site_type_symbol
_atom_site_label
_atom_site_fract_x
_atom_site_fract_y
_atom_site_fract_z
Si Si1 0.096774 0.547542 0.234205
Si Si2 0.347131 0.249636 0.943453
Si Si3 0.635821 0.958160 0.259183
Si Si4 0.518189 0.830235 0.437287
Si Si5 0.835671 0.634599 0.427117
Si Si6 0.612244 0.465850 0.773019
Si Si7 0.827188 0.836434 0.068992
Si Si8 0.165533 0.036462 0.746984
O O1 0.118127 0.609776 0.172376
O O2 0.271959 0.519362 0.507362
O O3 0.000000 0.562712 0.250000
O O4 0.000000 0.500000 0.000000
O O5 0.413208 0.203145 0.914353
O O6 0.253052 0.301689 0.721953
O O7 0.227259 0.212809 0.884227
O O8 0.500000 0.277633 0.250000
O O9 0.560684 0.895148 0.204899
O O10 0.779125 0.944799 0.341242
O O11 0.702681 0.990549 0.500641
O O12 0.500000 0.000000 0.000000
O O13 0.500000 0.795706 0.250000
O O14 0.702606 0.837514 0.754548
O O15 0.715647 0.588958 0.346734
O O16 0.000000 0.644597 0.750000
O O17 0.500000 0.439330 0.750000
O O18 0.500000 0.500000 0.500000
O O19 0.847511 0.903735 0.167449
O O20 0.000000 0.813828 0.250000
O O21 0.000000 0.000000 0.500000
#
# Coordination Sequence:
#
# PCOD8122349 Si02
#       8
#     4   4   4   4   4   4   4   4
#     4  12  21  42  67  98 140 180 214 267 339 394
#     4  10  26  50  71  92 131 185 229 269 324 396
#     4  12  23  39  66  96 131 168 215 272 341 402
#     4  11  24  45  70  97 128 175 223 277 334 398
#     4  12  26  45  68 102 139 178 226 272 326 399
#     4  12  23  38  67 104 138 176 217 273 330 387
#     4  11  24  46  69  94 134 174 221 277 335 395
#     4  12  25  41  60 100 135 168 215 277 337 404
#
# _framework density 19.962989
#
# number of rings (size 3 to 8) (size 9 to 14) (size 15 to 20)
#    0.000    0.500    6.250    2.250    3.500    2.000 
#    0.000    2.500    0.000    0.000    0.000    0.000 
#    0.000    0.000    0.000    0.000    0.000    0.000 
#
# Total GULP energy -396868.273826 kJ/mol
# GULP energy per Si atom -12402.133557 kJ/mol
# Density = 1.991755 g / cm^3
# Si number density = 19.962989 Si / 1000 Ang^3
#
#
#
# Elastic Constant Matrix: (Units=GPa)
#
#
# Indices 1 2 3 4 5 6 
#
# 1 145.0417 22.6779 44.9348 0.0000 6.4076 0.0000
# 2 22.6779 89.7746 59.7794 0.0000 5.1715 0.0000
# 3 44.9348 59.7794 152.2572 0.0000 5.9177 0.0000
# 4 0.0000 0.0000 0.0000 36.6346 0.0000 -1.4209
# 5 6.4076 5.1715 5.9177 0.0000 34.5909 0.0000
# 6 0.0000 0.0000 0.0000 -1.4209 0.0000 14.5893
#
#
#
# Elastic Compliance Matrix: (Units=1/GPa)
#
#
# Indices 1 2 3 4 5 6 
#
# 1 0.007644 -0.000538 -0.002006 0.000000 -0.000992 0.000000
# 2 -0.000538 0.015174 -0.005753 0.000000 -0.001185 0.000000
# 3 -0.002006 -0.005753 0.009433 0.000000 -0.000382 0.000000
# 4 0.000000 0.000000 0.000000 0.027400 0.000000 0.002669
# 5 -0.000992 -0.001185 -0.000382 0.000000 0.029336 0.000000
# 6 0.000000 0.000000 0.000000 0.002669 0.000000 0.068803
#
#
# Mechanical properties :
#
#
# Convention : Reuss Voigt Hill
#
# Bulk Modulus (GPa) = 63.86689 71.31753 67.59221
# Shear Modulus (GPa) = 27.83918 34.47506 31.15712
#
# Velocity S-wave (km/s) = 3.73840 4.16017 3.95491
# Velocity P-wave (km/s) = 7.12014 7.67323 7.40185
#
# Compressibility (1/GPa) = 0.01565757
#
# Stress axis : x y z
#
# Youngs Moduli (GPa) = 130.82088 65.90303 106.00614
#
# Poissons Ratio (x) = 0.03545 0.21267
# Poissons Ratio (y) = 0.07037 0.60983
# Poissons Ratio (z) = 0.26245 0.37912
#
# Static dielectric constant tensor:
#      x y z
#    x 3.804150 0.000000 -0.012290 
#    y 0.000000 3.512620 0.000000 
#    z -0.012290 0.000000 3.686110 
# 
# 
# High freq. dielectric constant tensor:
#      x y z
#    x 1.801730 0.000000 -0.001200 
#    y 0.000000 1.762720 0.000000 
#    z -0.001200 0.000000 1.796650 
# 
# From -- ./inp_files/20233.got.cif
#   From: 2010.06.25/outbox.cif.g09.slc.cpg/sg13_11_cif.got.tgz:20233.got - 2010.06.28 04:50:58.
