data_PCOD8122803
_publ_section_title
;
Structure prediction by ZEFSAII (Michael W. Deem and Ramdas Pophale) SiO2 
 PCOD8122803
Probable space group: P 2/C
;
_chemical_formula_sum "Si O2"
_cell_formula_units_Z 20
_cell_length_a 13.901435
_cell_length_b 6.609644
_cell_length_c 18.301340
_cell_angle_alpha 90.000000
_cell_angle_beta 32.074107
_cell_angle_gamma 90.000000
_cell_volume 892.951661
_symmetry_space_group_name_H-M "P 2/C"
_symmetry_group_IT_number 13
_symmetry_cell_setting 'monoclinic'
loop_
_space_group_symop_operation_xyz
x,y,z
-x,y,1/2-z
-x,-y,-z
x,-y,1/2+z
loop_
_atom_site_type_symbol
_atom_site_label
_atom_site_fract_x
_atom_site_fract_y
_atom_site_fract_z
Si Si1 0.136128 0.194932 0.920209
Si Si2 0.952633 0.497741 0.145053
Si Si3 0.387053 0.701076 0.574565
Si Si4 0.500000 0.034713 0.750000
Si Si5 0.633851 0.043987 0.013623
Si Si6 0.000000 0.252855 0.750000
O O1 0.133470 0.322797 0.847728
O O2 0.346604 0.147002 0.800888
O O3 0.085494 0.349367 0.017015
O O4 0.000000 0.000000 0.000000
O O5 0.810673 0.347187 0.271206
O O6 0.051891 0.609677 0.147381
O O7 0.500000 0.500000 0.500000
O O8 0.378882 0.806195 0.499851
O O9 0.465028 0.848688 0.585384
O O10 0.383290 0.916633 0.887522
O O11 0.820904 0.118356 0.856542
#
# Coordination Sequence:
#
# PCOD8122803 Si02
#       6
#     4   4   4   2   4   2
#     4  11  26  49  71 107 151 194 244 313 383 443
#     4  11  26  44  73 104 146 194 247 310 367 450
#     4  11  23  46  72  99 141 194 246 303 364 439
#     4  12  26  44  78 104 140 204 236 302 376 454
#     4  11  27  44  70 106 146 186 246 307 368 436
#     4  12  26  44  72 114 142 194 250 306 374 442
#
# _framework density 22.397627
#
# number of rings (size 3 to 8) (size 9 to 14) (size 15 to 20)
#    0.000    0.800    2.000    3.600   11.200    3.200 
#    0.000    5.000    0.000    0.000    0.000    0.000 
#    0.000    0.000    0.000    0.000    0.000    0.000 
#
# Total GULP energy -247831.690887 kJ/mol
# GULP energy per Si atom -12391.584544 kJ/mol
# Density = 2.234665 g / cm^3
# Si number density = 22.397627 Si / 1000 Ang^3
#
#
#
# Elastic Constant Matrix: (Units=GPa)
#
#
# Indices 1 2 3 4 5 6 
#
# 1 97.5444 40.2087 26.5807 0.0000 16.8117 0.0000
# 2 40.2087 116.0916 28.6472 0.0000 6.3641 0.0000
# 3 26.5807 28.6472 80.6294 0.0000 4.1140 0.0000
# 4 0.0000 0.0000 0.0000 25.2272 0.0000 -7.0192
# 5 16.8117 6.3641 4.1140 0.0000 53.9487 0.0000
# 6 0.0000 0.0000 0.0000 -7.0192 0.0000 6.7954
#
#
#
# Elastic Compliance Matrix: (Units=1/GPa)
#
#
# Indices 1 2 3 4 5 6 
#
# 1 0.013129 -0.003654 -0.002854 0.000000 -0.003443 0.000000
# 2 -0.003654 0.010499 -0.002530 0.000000 0.000093 0.000000
# 3 -0.002854 -0.002530 0.014237 0.000000 0.000102 0.000000
# 4 0.000000 0.000000 0.000000 0.055627 0.000000 0.057458
# 5 -0.003443 0.000093 0.000102 0.000000 0.019590 0.000000
# 6 0.000000 0.000000 0.000000 0.057458 0.000000 0.206508
#
#
# Mechanical properties :
#
#
# Convention : Reuss Voigt Hill
#
# Bulk Modulus (GPa) = 50.53667 53.90431 52.22049
# Shear Modulus (GPa) = 14.52377 30.44952 22.48665
#
# Velocity S-wave (km/s) = 2.54923 3.69114 3.17199
# Velocity P-wave (km/s) = 5.59260 6.50271 6.06475
#
# Compressibility (1/GPa) = 0.01978761
#
# Stress axis : x y z
#
# Youngs Moduli (GPa) = 76.16625 95.24874 70.23892
#
# Poissons Ratio (x) = 0.34807 0.20048
# Poissons Ratio (y) = 0.27833 0.17772
# Poissons Ratio (z) = 0.21740 0.24100
#
# Static dielectric constant tensor:
#      x y z
#    x 4.232370 0.000000 0.165470 
#    y 0.000000 4.261010 0.000000 
#    z 0.165470 0.000000 4.401930 
# 
# 
# High freq. dielectric constant tensor:
#      x y z
#    x 1.892330 0.000000 0.005540 
#    y 0.000000 1.883980 0.000000 
#    z 0.005540 0.000000 1.897170 
# 
# From -- ./inp_files/71659.got.cif
#   From: 2010.06.25/outbox.cif.g09.slc.cpg/sg13_36_cif.got.tgz:71659.got - 2010.06.28 04:50:58.
