data_PCOD8122034
_publ_section_title
;
Structure prediction by ZEFSAII (Michael W. Deem and Ramdas Pophale) SiO2 
 PCOD8122034
Probable space group: P 2/C
;
_chemical_formula_sum "Si O2"
_cell_formula_units_Z 18
_cell_length_a 17.477435
_cell_length_b 5.793659
_cell_length_c 8.890140
_cell_angle_alpha 90.000000
_cell_angle_beta 59.433994
_cell_angle_gamma 90.000000
_cell_volume 775.112101
_symmetry_space_group_name_H-M "P 2/C"
_symmetry_group_IT_number 13
_symmetry_cell_setting 'monoclinic'
loop_
_space_group_symop_operation_xyz
x,y,z
-x,y,1/2-z
-x,-y,-z
x,-y,1/2+z
loop_
_atom_site_type_symbol
_atom_site_label
_atom_site_fract_x
_atom_site_fract_y
_atom_site_fract_z
Si Si1 0.224641 0.692958 0.275404
Si Si2 0.139489 0.000009 0.110486
Si Si3 0.574150 0.303934 0.925871
Si Si4 0.500000 0.000004 0.250000
Si Si5 0.919948 0.680274 0.580056
O O1 0.202685 0.842036 0.149904
O O2 0.325811 0.602664 0.174145
O O3 0.172127 0.454536 0.328110
O O4 0.202844 0.842384 0.444570
O O5 0.075319 0.159600 0.276757
O O6 0.075224 0.840815 0.072501
O O7 0.564520 0.153318 0.786344
O O8 0.500000 0.500000 0.000000
O O9 0.564527 0.153328 0.084655
O O10 0.000000 0.500000 0.500000
#
# Coordination Sequence:
#
# PCOD8122034 Si02
#       5
#     4   4   4   2   4
#     4  11  24  43  69  98 133 176 224 274 332 396
#     4  10  25  45  69  99 136 174 219 277 333 393
#     4  11  24  42  66  97 132 177 225 275 332 395
#     4  10  24  42  62  92 136 172 220 282 334 388
#     4  11  26  46  70 100 135 175 221 271 331 397
#
# _framework density 23.222448
#
# number of rings (size 3 to 8) (size 9 to 14) (size 15 to 20)
#    0.000    1.333    0.000    3.333    0.000   23.111 
#    0.000    3.333    0.000    0.000    0.000    0.000 
#    0.000    0.000    0.000    0.000    0.000    0.000 
#
# Total GULP energy -223289.570422 kJ/mol
# GULP energy per Si atom -12404.976135 kJ/mol
# Density = 2.316959 g / cm^3
# Si number density = 23.222448 Si / 1000 Ang^3
#
#
#
# Elastic Constant Matrix: (Units=GPa)
#
#
# Indices 1 2 3 4 5 6 
#
# 1 148.6775 84.2030 102.6381 0.0000 -21.4970 0.0000
# 2 84.2030 156.4535 82.1786 0.0000 -2.2481 0.0000
# 3 102.6381 82.1786 147.8229 0.0000 19.9738 0.0000
# 4 0.0000 0.0000 0.0000 31.0982 0.0000 -7.3144
# 5 -21.4970 -2.2481 19.9738 0.0000 46.6849 0.0000
# 6 0.0000 0.0000 0.0000 -7.3144 0.0000 39.5615
#
#
#
# Elastic Compliance Matrix: (Units=1/GPa)
#
#
# Indices 1 2 3 4 5 6 
#
# 1 0.021526 -0.003310 -0.015309 0.000000 0.016303 0.000000
# 2 -0.003310 0.009880 -0.003240 0.000000 0.000338 0.000000
# 3 -0.015309 -0.003240 0.021407 0.000000 -0.016364 0.000000
# 4 0.000000 0.000000 0.000000 0.033618 0.000000 0.006216
# 5 0.016303 0.000338 -0.016364 0.000000 0.035945 0.000000
# 6 0.000000 0.000000 0.000000 0.006216 0.000000 0.026426
#
#
# Mechanical properties :
#
#
# Convention : Reuss Voigt Hill
#
# Bulk Modulus (GPa) = 109.95180 110.11033 110.03107
# Shear Modulus (GPa) = 25.56886 35.73120 30.65003
#
# Velocity S-wave (km/s) = 3.32179 3.92682 3.63691
# Velocity P-wave (km/s) = 7.88431 8.25096 8.06972
#
# Compressibility (1/GPa) = 0.00909489
#
# Stress axis : x y z
#
# Youngs Moduli (GPa) = 46.45528 101.21810 46.71456
#
# Poissons Ratio (x) = 0.33502 0.71515
# Poissons Ratio (y) = 0.15376 0.15135
# Poissons Ratio (z) = 0.71118 0.32793
#
# Static dielectric constant tensor:
#      x y z
#    x 4.040280 0.000000 0.305450 
#    y 0.000000 4.962970 0.000000 
#    z 0.305450 0.000000 4.394660 
# 
# 
# High freq. dielectric constant tensor:
#      x y z
#    x 1.919500 0.000000 0.013740 
#    y 0.000000 1.930550 0.000000 
#    z 0.013740 0.000000 1.935440 
# 
# From -- ./inp_files/20439.got.cif
#   From: 2010.06.25/outbox.cif.g09.slc.cpg/sg13_11_cif.got.tgz:20439.got - 2010.06.28 04:50:58.
