data_PCOD8122448
_publ_section_title
;
Structure prediction by ZEFSAII (Michael W. Deem and Ramdas Pophale) SiO2 
 PCOD8122448
Probable space group: P 2/C
;
_chemical_formula_sum "Si O2"
_cell_formula_units_Z 28
_cell_length_a 14.576667
_cell_length_b 8.753845
_cell_length_c 20.176400
_cell_angle_alpha 90.000000
_cell_angle_beta 30.726657
_cell_angle_gamma 90.000000
_cell_volume 1315.446356
_symmetry_space_group_name_H-M "P 2/C"
_symmetry_group_IT_number 13
_symmetry_cell_setting 'monoclinic'
loop_
_space_group_symop_operation_xyz
x,y,z
-x,y,1/2-z
-x,-y,-z
x,-y,1/2+z
loop_
_atom_site_type_symbol
_atom_site_label
_atom_site_fract_x
_atom_site_fract_y
_atom_site_fract_z
Si Si1 0.758915 0.287947 0.200718
Si Si2 0.647652 0.667917 0.999598
Si Si3 0.886791 0.310173 0.981199
Si Si4 0.140448 0.327968 0.007416
Si Si5 0.269626 0.350282 0.787442
Si Si6 0.521709 0.167486 0.458308
Si Si7 0.795986 0.333719 0.898235
O O1 0.724404 0.468005 0.227832
O O2 0.606640 0.186057 0.331588
O O3 0.767075 0.248820 0.116914
O O4 0.950364 0.245956 0.114304
O O5 0.779086 0.738478 0.973937
O O6 0.446804 0.715466 0.144589
O O7 0.664316 0.742204 0.916615
O O8 0.682661 0.488893 0.972877
O O9 0.806024 0.244580 0.962822
O O10 0.096392 0.270344 0.861576
O O11 0.883891 0.491465 0.974116
O O12 0.271987 0.301929 0.863301
O O13 0.317562 0.232414 0.582856
O O14 0.500000 0.000000 0.500000
O O15 0.000000 0.367869 0.750000
#
# Coordination Sequence:
#
# PCOD8122448 Si02
#       7
#     4   4   4   4   4   4   4
#     4   9  18  36  58  87 122 155 198 246 312 374
#     4  11  21  34  63  87 122 157 203 257 310 367
#     4   8  17  32  60  92 121 147 193 261 314 367
#     4   8  17  30  57  96 118 145 191 260 313 368
#     4   9  15  32  60  93 122 143 190 260 322 358
#     4  12  27  42  56  84 129 176 211 251 309 382
#     4  11  23  39  64  94 119 155 212 267 323 373
#
# _framework density 21.285550000000001
#
# number of rings (size 3 to 8) (size 9 to 14) (size 15 to 20)
#    0.000    2.286    1.429    3.429    6.000    0.571 
#    2.571    0.000    6.286    2.571    0.000    0.000 
#    0.000    0.000    0.000    0.000    0.000    0.000 
#
# Total GULP energy -346926.286764 kJ/mol
# GULP energy per Si atom -12390.224527 kJ/mol
# Density = 2.123710 g / cm^3
# Si number density = 21.285550 Si / 1000 Ang^3
#
#
#
# Elastic Constant Matrix: (Units=GPa)
#
#
# Indices 1 2 3 4 5 6 
#
# 1 160.2662 26.6083 25.4795 0.0000 4.6037 0.0000
# 2 26.6083 34.6658 8.5285 0.0000 -0.5810 0.0000
# 3 25.4795 8.5285 99.4933 0.0000 2.7882 0.0000
# 4 0.0000 0.0000 0.0000 14.8443 0.0000 5.8566
# 5 4.6037 -0.5810 2.7882 0.0000 29.8277 0.0000
# 6 0.0000 0.0000 0.0000 5.8566 0.0000 11.7627
#
#
#
# Elastic Compliance Matrix: (Units=1/GPa)
#
#
# Indices 1 2 3 4 5 6 
#
# 1 0.007381 -0.005339 -0.001401 0.000000 -0.001112 0.000000
# 2 -0.005339 0.033350 -0.001537 0.000000 0.001617 0.000000
# 3 -0.001401 -0.001537 0.010564 0.000000 -0.000801 0.000000
# 4 0.000000 0.000000 0.000000 0.083834 0.000000 -0.041741
# 5 -0.001112 0.001617 -0.000801 0.000000 0.033804 0.000000
# 6 0.000000 0.000000 0.000000 -0.041741 0.000000 0.105797
#
#
# Mechanical properties :
#
#
# Convention : Reuss Voigt Hill
#
# Bulk Modulus (GPa) = 28.78488 46.18422 37.48455
# Shear Modulus (GPa) = 16.50902 26.87422 21.69162
#
# Velocity S-wave (km/s) = 2.78798 3.55710 3.19576
# Velocity P-wave (km/s) = 4.89043 6.21411 5.59158
#
# Compressibility (1/GPa) = 0.03474046
#
# Stress axis : x y z
#
# Youngs Moduli (GPa) = 135.48703 29.98489 94.66126
#
# Poissons Ratio (x) = 0.16009 0.13265
# Poissons Ratio (y) = 0.72338 0.14547
# Poissons Ratio (z) = 0.18986 0.04608
#
# Static dielectric constant tensor:
#      x y z
#    x 4.730760 0.000000 0.073630 
#    y 0.000000 3.032030 0.000000 
#    z 0.073630 0.000000 3.909030 
# 
# 
# High freq. dielectric constant tensor:
#      x y z
#    x 1.858090 0.000000 0.004540 
#    y 0.000000 1.750930 0.000000 
#    z 0.004540 0.000000 1.841510 
# 
# From -- ./inp_files/79945.got.cif
#   From: 2010.06.25/outbox.cif.g09.slc.cpg/sg13_40_cif.got.tgz:79945.got - 2010.06.28 04:50:58.
