data_PCOD8122557
_publ_section_title
;
Structure prediction by ZEFSAII (Michael W. Deem and Ramdas Pophale) SiO2 
 PCOD8122557
Probable space group: P 2/C
;
_chemical_formula_sum "Si O2"
_cell_formula_units_Z 28
_cell_length_a 15.026719
_cell_length_b 11.389358
_cell_length_c 9.001125
_cell_angle_alpha 90.000000
_cell_angle_beta 57.052972
_cell_angle_gamma 90.000000
_cell_volume 1292.742692
_symmetry_space_group_name_H-M "P 2/C"
_symmetry_group_IT_number 13
_symmetry_cell_setting 'monoclinic'
loop_
_space_group_symop_operation_xyz
x,y,z
-x,y,1/2-z
-x,-y,-z
x,-y,1/2+z
loop_
_atom_site_type_symbol
_atom_site_label
_atom_site_fract_x
_atom_site_fract_y
_atom_site_fract_z
Si Si1 0.120629 0.114405 0.694286
Si Si2 0.603442 0.254891 0.751957
Si Si3 0.807226 0.900347 0.036575
Si Si4 0.442593 0.401658 0.456047
Si Si5 0.897004 0.349019 0.928993
Si Si6 0.737220 0.536061 0.007875
Si Si7 0.097062 0.294829 0.250847
O O1 0.133903 0.095468 0.858592
O O2 0.155727 0.247777 0.625428
O O3 0.000000 0.091943 0.750000
O O4 0.198791 0.029558 0.529463
O O5 0.500000 0.224511 0.750000
O O6 0.688237 0.150599 0.661332
O O7 0.654263 0.383440 0.672628
O O8 0.561498 0.275033 0.957625
O O9 0.876189 0.827321 0.854723
O O10 0.500000 0.378121 0.250000
O O11 0.500000 0.500000 0.500000
O O12 0.323227 0.444774 0.540363
O O13 0.000000 0.399138 0.750000
O O14 0.817506 0.457246 0.034638
O O15 0.933053 0.283529 0.048541
O O16 0.801917 0.621626 0.843043
O O17 0.000000 0.353356 0.250000
#
# Coordination Sequence:
#
# PCOD8122557 Si02
#       7
#     4   4   4   4   4   4   4
#     4  11  22  42  67  94 127 164 212 265 317 385
#     4  11  23  43  64  96 129 167 211 266 317 377
#     4  11  24  42  69  95 125 163 218 265 323 379
#     4  12  21  37  61  90 125 161 213 249 307 369
#     4  11  24  39  60  94 133 172 214 257 312 380
#     4  11  22  37  63  91 131 168 211 256 313 379
#     4  11  23  38  60  91 131 173 207 259 320 378
#
# _framework density 21.659376000000002
#
# number of rings (size 3 to 8) (size 9 to 14) (size 15 to 20)
#    0.000    0.857    2.857    5.571    0.000    4.571 
#    0.000    2.143    0.000    1.714    0.000    0.000 
#    0.000    0.000    0.000    0.000    0.000    0.000 
#
# Total GULP energy -347095.298692 kJ/mol
# GULP energy per Si atom -12396.260668 kJ/mol
# Density = 2.161008 g / cm^3
# Si number density = 21.659376 Si / 1000 Ang^3
#
#
#
# Elastic Constant Matrix: (Units=GPa)
#
#
# Indices 1 2 3 4 5 6 
#
# 1 121.5973 30.4224 44.9297 0.0000 -4.1287 0.0000
# 2 30.4224 80.8968 20.7582 0.0000 -11.3201 0.0000
# 3 44.9297 20.7582 107.3185 0.0000 7.5319 0.0000
# 4 0.0000 0.0000 0.0000 27.8525 0.0000 -5.9474
# 5 -4.1287 -11.3201 7.5319 0.0000 38.4125 0.0000
# 6 0.0000 0.0000 0.0000 -5.9474 0.0000 25.6894
#
#
#
# Elastic Compliance Matrix: (Units=1/GPa)
#
#
# Indices 1 2 3 4 5 6 
#
# 1 0.010388 -0.002759 -0.003890 0.000000 0.001066 0.000000
# 2 -0.002759 0.014512 -0.001958 0.000000 0.004364 0.000000
# 3 -0.003890 -0.001958 0.011554 0.000000 -0.003261 0.000000
# 4 0.000000 0.000000 0.000000 0.037771 0.000000 0.008744
# 5 0.001066 0.004364 -0.003261 0.000000 0.028073 0.000000
# 6 0.000000 0.000000 0.000000 0.008744 0.000000 0.040951
#
#
# Mechanical properties :
#
#
# Convention : Reuss Voigt Hill
#
# Bulk Modulus (GPa) = 51.97638 55.78146 53.87892
# Shear Modulus (GPa) = 29.96224 32.63771 31.29998
#
# Velocity S-wave (km/s) = 3.72336 3.88604 3.80557
# Velocity P-wave (km/s) = 6.52180 6.77827 6.65127
#
# Compressibility (1/GPa) = 0.01923951
#
# Stress axis : x y z
#
# Youngs Moduli (GPa) = 96.26759 68.90767 86.54805
#
# Poissons Ratio (x) = 0.19012 0.33668
# Poissons Ratio (y) = 0.26561 0.16948
# Poissons Ratio (z) = 0.37449 0.13494
#
# Static dielectric constant tensor:
#      x y z
#    x 3.842220 0.000000 0.074270 
#    y 0.000000 3.802100 0.000000 
#    z 0.074270 0.000000 4.150160 
# 
# 
# High freq. dielectric constant tensor:
#      x y z
#    x 1.851180 0.000000 0.004890 
#    y 0.000000 1.833780 0.000000 
#    z 0.004890 0.000000 1.860780 
# 
# From -- ./inp_files/18949.got.cif
#   From: 2010.06.25/outbox.cif.g09.slc.cpg/sg13_10_cif.got.tgz:18949.got - 2010.06.28 04:50:58.
