data_PCOD8122782
_publ_section_title
;
Structure prediction by ZEFSAII (Michael W. Deem and Ramdas Pophale) SiO2 
 PCOD8122782
Probable space group: P 2/C
;
_chemical_formula_sum "Si O2"
_cell_formula_units_Z 22
_cell_length_a 11.957312
_cell_length_b 6.129770
_cell_length_c 13.203295
_cell_angle_alpha 90.000000
_cell_angle_beta 86.703940
_cell_angle_gamma 90.000000
_cell_volume 966.142197
_symmetry_space_group_name_H-M "P 2/C"
_symmetry_group_IT_number 13
_symmetry_cell_setting 'monoclinic'
loop_
_space_group_symop_operation_xyz
x,y,z
-x,y,1/2-z
-x,-y,-z
x,-y,1/2+z
loop_
_atom_site_type_symbol
_atom_site_label
_atom_site_fract_x
_atom_site_fract_y
_atom_site_fract_z
Si Si1 0.500000 0.126151 0.250000
Si Si2 0.787102 0.677803 0.452935
Si Si3 0.125062 0.951522 0.224858
Si Si4 0.770857 0.636160 0.114870
Si Si5 0.614682 0.015164 0.554579
Si Si6 0.295423 0.351633 0.204232
O O1 0.414018 0.991704 0.324010
O O2 0.420353 0.261716 0.178355
O O3 0.874812 0.817340 0.381505
O O4 0.845163 0.518036 0.534310
O O5 0.696867 0.826248 0.514274
O O6 0.720135 0.530981 0.378671
O O7 0.156669 0.801500 0.320385
O O8 0.000000 0.037804 0.250000
O O9 0.203778 0.159456 0.207722
O O10 0.703069 0.468022 0.187390
O O11 0.683901 0.759441 0.043830
O O12 0.500000 0.000000 0.500000
#
# Coordination Sequence:
#
# PCOD8122782 Si02
#       6
#     2   4   4   4   4   4
#     4  12  22  42  68 100 144 182 224 284 332 412
#     4  11  24  45  68 101 142 176 232 284 346 416
#     4  11  25  48  73 100 138 181 236 293 339 410
#     4  11  23  45  68 102 143 176 232 285 346 406
#     4  12  26  41  68 105 143 186 228 279 340 418
#     4  11  25  42  69 102 139 183 229 278 346 411
#
# _framework density 22.770976000000001
#
# number of rings (size 3 to 8) (size 9 to 14) (size 15 to 20)
#    0.000    0.727    3.636    3.273    5.091    5.091 
#    0.000    6.364    0.000    0.000    0.000    0.000 
#    0.000    0.000    0.000    0.000    0.000    0.000 
#
# Total GULP energy -272604.335155 kJ/mol
# GULP energy per Si atom -12391.106143 kJ/mol
# Density = 2.271915 g / cm^3
# Si number density = 22.770976 Si / 1000 Ang^3
#
#
#
# Elastic Constant Matrix: (Units=GPa)
#
#
# Indices 1 2 3 4 5 6 
#
# 1 95.4275 32.1096 14.4405 0.0000 -14.8325 0.0000
# 2 32.1096 121.3398 46.3220 0.0000 -10.9137 0.0000
# 3 14.4405 46.3220 110.0806 0.0000 -14.7611 0.0000
# 4 0.0000 0.0000 0.0000 28.6994 0.0000 12.5826
# 5 -14.8325 -10.9137 -14.7611 0.0000 25.6229 0.0000
# 6 0.0000 0.0000 0.0000 12.5826 0.0000 6.8604
#
#
#
# Elastic Compliance Matrix: (Units=1/GPa)
#
#
# Indices 1 2 3 4 5 6 
#
# 1 0.012339 -0.002870 0.000415 0.000000 0.006160 0.000000
# 2 -0.002870 0.010577 -0.004002 0.000000 0.000538 0.000000
# 3 0.000415 -0.004002 0.011398 0.000000 0.005102 0.000000
# 4 0.000000 0.000000 0.000000 0.177881 0.000000 -0.326250
# 5 0.006160 0.000538 0.005102 0.000000 0.045762 0.000000
# 6 0.000000 0.000000 0.000000 -0.326250 0.000000 0.744135
#
#
# Mechanical properties :
#
#
# Convention : Reuss Voigt Hill
#
# Bulk Modulus (GPa) = 46.72803 56.95466 51.84135
# Shear Modulus (GPa) = 4.89170 27.83494 16.36332
#
# Velocity S-wave (km/s) = 1.46727 3.50006 2.68359
# Velocity P-wave (km/s) = 4.84107 6.43429 5.69368
#
# Compressibility (1/GPa) = 0.02140043
#
# Stress axis : x y z
#
# Youngs Moduli (GPa) = 81.04138 94.54508 87.73420
#
# Poissons Ratio (x) = 0.27131 -0.03639
# Poissons Ratio (y) = 0.23256 0.35113
# Poissons Ratio (z) = -0.03362 0.37838
#
# Static dielectric constant tensor:
#      x y z
#    x 3.706860 0.000000 -0.134140 
#    y 0.000000 4.390210 0.000000 
#    z -0.134140 0.000000 4.695470 
# 
# 
# High freq. dielectric constant tensor:
#      x y z
#    x 1.865080 0.000000 -0.006290 
#    y 0.000000 1.912740 0.000000 
#    z -0.006290 0.000000 1.927780 
# 
# From -- ./inp_files/48947.got.cif
#   From: 2010.06.25/outbox.cif.g09.slc.cpg/sg13_25_cif.got.tgz:48947.got - 2010.06.28 04:50:58.
