data_PCOD8122224
_publ_section_title
;
Structure prediction by ZEFSAII (Michael W. Deem and Ramdas Pophale) SiO2 
 PCOD8122224
Probable space group: P 2/C
;
_chemical_formula_sum "Si O2"
_cell_formula_units_Z 16
_cell_length_a 26.593744
_cell_length_b 6.123116
_cell_length_c 9.267942
_cell_angle_alpha 90.000000
_cell_angle_beta 152.051867
_cell_angle_gamma 90.000000
_cell_volume 707.301147
_symmetry_space_group_name_H-M "P 2/C"
_symmetry_group_IT_number 13
_symmetry_cell_setting 'monoclinic'
loop_
_space_group_symop_operation_xyz
x,y,z
-x,y,1/2-z
-x,-y,-z
x,-y,1/2+z
loop_
_atom_site_type_symbol
_atom_site_label
_atom_site_fract_x
_atom_site_fract_y
_atom_site_fract_z
Si Si1 0.418634 0.202251 0.293670
Si Si2 0.500000 0.494952 0.750000
Si Si3 0.183791 0.766522 0.159860
Si Si4 0.000000 0.929396 0.250000
Si Si5 0.891050 0.428993 0.295877
O O1 0.427423 0.340437 0.463920
O O2 0.432885 0.352561 0.188426
O O3 0.500000 0.000000 0.500000
O O4 0.296515 0.111208 0.976462
O O5 0.155971 0.618868 0.225922
O O6 0.197225 0.618596 0.050903
O O7 0.083295 0.924558 0.869096
O O8 0.083096 0.789607 0.552351
O O9 0.000000 0.500000 0.500000
#
# Coordination Sequence:
#
# PCOD8122224 Si02
#       5
#     4   2   4   2   4
#     4  11  25  47  71 103 136 186 236 291 352 414
#     4  10  24  48  72  96 140 178 240 294 344 414
#     4  12  26  42  72 100 139 180 225 287 344 417
#     4  12  24  40  70 100 138 178 226 276 344 422
#     4  12  23  46  64 101 140 178 227 276 347 416
#
# _framework density 22.621198
#
# number of rings (size 3 to 8) (size 9 to 14) (size 15 to 20)
#    0.000    0.500    5.000    3.000    0.000    8.000 
#    0.000    0.000    0.000    0.000    0.000    0.000 
#    0.000    0.000    0.000    0.000    0.000    0.000 
#
# Total GULP energy -198319.833108 kJ/mol
# GULP energy per Si atom -12394.989569 kJ/mol
# Density = 2.256971 g / cm^3
# Si number density = 22.621198 Si / 1000 Ang^3
#
#
#
# Elastic Constant Matrix: (Units=GPa)
#
#
# Indices 1 2 3 4 5 6 
#
# 1 96.1249 35.5173 49.8229 0.0000 -10.4965 0.0000
# 2 35.5173 91.3936 29.6664 0.0000 16.4507 0.0000
# 3 49.8229 29.6664 124.3158 0.0000 29.5694 0.0000
# 4 0.0000 0.0000 0.0000 40.3616 0.0000 -1.7934
# 5 -10.4965 16.4507 29.5694 0.0000 40.7870 0.0000
# 6 0.0000 0.0000 0.0000 -1.7934 0.0000 24.4279
#
#
#
# Elastic Compliance Matrix: (Units=1/GPa)
#
#
# Indices 1 2 3 4 5 6 
#
# 1 0.019819 -0.007240 -0.009815 0.000000 0.015136 0.000000
# 2 -0.007240 0.014885 0.001475 0.000000 -0.008936 0.000000
# 3 -0.009815 0.001475 0.014945 0.000000 -0.013956 0.000000
# 4 0.000000 0.000000 0.000000 0.024857 0.000000 0.001825
# 5 0.015136 -0.008936 -0.013956 0.000000 0.042135 0.000000
# 6 0.000000 0.000000 0.000000 0.001825 0.000000 0.041071
#
#
# Mechanical properties :
#
#
# Convention : Reuss Voigt Hill
#
# Bulk Modulus (GPa) = 54.08901 60.20526 57.14713
# Shear Modulus (GPa) = 25.63638 34.23715 29.93677
#
# Velocity S-wave (km/s) = 3.37009 3.89459 3.64180
# Velocity P-wave (km/s) = 6.25348 6.84807 6.55752
#
# Compressibility (1/GPa) = 0.01848804
#
# Stress axis : x y z
#
# Youngs Moduli (GPa) = 50.45758 67.18121 66.91100
#
# Poissons Ratio (x) = 0.48642 0.65675
# Poissons Ratio (y) = 0.36533 -0.09871
# Poissons Ratio (z) = 0.49526 -0.09911
#
# Static dielectric constant tensor:
#      x y z
#    x 4.290550 0.000000 0.054770 
#    y 0.000000 4.958310 0.000000 
#    z 0.054770 0.000000 3.648760 
# 
# 
# High freq. dielectric constant tensor:
#      x y z
#    x 1.900040 0.000000 -0.013360 
#    y 0.000000 1.890600 0.000000 
#    z -0.013360 0.000000 1.900660 
# 
# From -- ./inp_files/14202.got.cif
#   From: 2010.06.25/outbox.cif.g09.slc.cpg/sg13_8_cif.got.tgz:14202.got - 2010.06.28 04:50:58.
