data_PCOD8122739
_publ_section_title
;
Structure prediction by ZEFSAII (Michael W. Deem and Ramdas Pophale) SiO2 
 PCOD8122739
Probable space group: P 2/C
;
_chemical_formula_sum "Si O2"
_cell_formula_units_Z 24
_cell_length_a 14.303315
_cell_length_b 6.587422
_cell_length_c 13.242235
_cell_angle_alpha 90.000000
_cell_angle_beta 111.689932
_cell_angle_gamma 90.000000
_cell_volume 1159.368579
_symmetry_space_group_name_H-M "P 2/C"
_symmetry_group_IT_number 13
_symmetry_cell_setting 'monoclinic'
loop_
_space_group_symop_operation_xyz
x,y,z
-x,y,1/2-z
-x,-y,-z
x,-y,1/2+z
loop_
_atom_site_type_symbol
_atom_site_label
_atom_site_fract_x
_atom_site_fract_y
_atom_site_fract_z
Si Si1 0.114266 0.467862 0.078664
Si Si2 0.768093 0.213524 0.744021
Si Si3 0.563766 0.992641 0.179299
Si Si4 0.110276 0.172922 0.260329
Si Si5 0.768548 0.481377 0.066742
Si Si6 0.435634 0.302020 0.491664
O O1 0.161717 0.671707 0.146790
O O2 0.117381 0.278020 0.154348
O O3 0.183174 0.407011 0.010591
O O4 0.000000 0.500000 0.000000
O O5 0.665844 0.124785 0.752693
O O6 0.737077 0.359798 0.640102
O O7 0.828639 0.032942 0.717268
O O8 0.500000 0.065080 0.250000
O O9 0.590266 0.193411 0.125390
O O10 0.493518 0.846670 0.087636
O O11 0.148968 0.323934 0.361386
O O12 0.000000 0.110457 0.250000
O O13 0.668076 0.362286 0.995011
O O14 0.500000 0.500000 0.500000
#
# Coordination Sequence:
#
# PCOD8122739 Si02
#       6
#     4   4   4   4   4   4
#     4  11  25  42  65  96 125 170 218 260 321 380
#     4  11  25  42  66  96 129 172 211 268 322 377
#     4  11  24  43  67  99 130 166 220 261 321 388
#     4  11  24  42  67  93 130 167 211 268 318 379
#     4  11  23  45  64  91 135 166 215 262 319 382
#     4  11  23  43  67  94 128 174 210 264 322 380
#
# _framework density 20.700923
#
# number of rings (size 3 to 8) (size 9 to 14) (size 15 to 20)
#    0.000    1.000    5.000    1.000    2.333    4.000 
#    0.000    0.000    0.000    0.000    0.000    0.000 
#    0.000    0.000    0.000    0.000    0.000    0.000 
#
# Total GULP energy -297687.859009 kJ/mol
# GULP energy per Si atom -12403.660792 kJ/mol
# Density = 2.065381 g / cm^3
# Si number density = 20.700923 Si / 1000 Ang^3
#
#
#
# Elastic Constant Matrix: (Units=GPa)
#
#
# Indices 1 2 3 4 5 6 
#
# 1 154.2572 23.0982 36.3816 0.0000 3.7813 0.0000
# 2 23.0982 78.0199 19.7904 0.0000 6.3371 0.0000
# 3 36.3816 19.7904 78.4962 0.0000 5.1179 0.0000
# 4 0.0000 0.0000 0.0000 13.8349 0.0000 8.9722
# 5 3.7813 6.3371 5.1179 0.0000 33.2554 0.0000
# 6 0.0000 0.0000 0.0000 8.9722 0.0000 35.3387
#
#
#
# Elastic Compliance Matrix: (Units=1/GPa)
#
#
# Indices 1 2 3 4 5 6 
#
# 1 0.007422 -0.001408 -0.003078 0.000000 -0.000102 0.000000
# 2 -0.001408 0.014107 -0.002767 0.000000 -0.002102 0.000000
# 3 -0.003078 -0.002767 0.014957 0.000000 -0.001425 0.000000
# 4 0.000000 0.000000 0.000000 0.086528 0.000000 -0.021969
# 5 -0.000102 -0.002102 -0.001425 0.000000 0.030702 0.000000
# 6 0.000000 0.000000 0.000000 -0.021969 0.000000 0.033875
#
#
# Mechanical properties :
#
#
# Convention : Reuss Voigt Hill
#
# Bulk Modulus (GPa) = 45.49855 52.14596 48.82226
# Shear Modulus (GPa) = 23.87504 31.91934 27.89719
#
# Velocity S-wave (km/s) = 3.39976 3.93100 3.67499
# Velocity P-wave (km/s) = 6.11865 6.77115 6.45315
#
# Compressibility (1/GPa) = 0.02197872
#
# Stress axis : x y z
#
# Youngs Moduli (GPa) = 134.73347 70.88816 66.85989
#
# Poissons Ratio (x) = 0.09983 0.20582
# Poissons Ratio (y) = 0.18974 0.18499
# Poissons Ratio (z) = 0.41475 0.19613
#
# Static dielectric constant tensor:
#      x y z
#    x 3.906480 0.000000 0.210860 
#    y 0.000000 4.137990 0.000000 
#    z 0.210860 0.000000 3.657890 
# 
# 
# High freq. dielectric constant tensor:
#      x y z
#    x 1.828620 0.000000 0.009950 
#    y 0.000000 1.811890 0.000000 
#    z 0.009950 0.000000 1.810380 
# 
# From -- ./inp_files/52336.got.cif
#   From: 2010.06.25/outbox.cif.g09.slc.cpg/sg13_27_cif.got.tgz:52336.got - 2010.06.28 04:50:58.
