data_PCOD8122099
_publ_section_title
;
Structure prediction by ZEFSAII (Michael W. Deem and Ramdas Pophale) SiO2 
 PCOD8122099
Probable space group: P 2/C
;
_chemical_formula_sum "Si O2"
_cell_formula_units_Z 30
_cell_length_a 10.778265
_cell_length_b 8.970844
_cell_length_c 26.593644
_cell_angle_alpha 90.000000
_cell_angle_beta 148.695919
_cell_angle_gamma 90.000000
_cell_volume 1336.018321
_symmetry_space_group_name_H-M "P 2/C"
_symmetry_group_IT_number 13
_symmetry_cell_setting 'monoclinic'
loop_
_space_group_symop_operation_xyz
x,y,z
-x,y,1/2-z
-x,-y,-z
x,-y,1/2+z
loop_
_atom_site_type_symbol
_atom_site_label
_atom_site_fract_x
_atom_site_fract_y
_atom_site_fract_z
Si Si1 0.994395 0.136086 0.395546
Si Si2 0.500000 0.988819 0.750000
Si Si3 0.238794 0.621973 0.361658
Si Si4 0.282743 0.099318 0.941946
Si Si5 0.772521 0.190085 0.920015
Si Si6 0.796554 0.295417 0.492980
Si Si7 0.978788 0.469830 0.127943
Si Si8 0.482085 0.533163 0.349992
O O1 0.161861 0.121710 0.502924
O O2 0.716509 0.118713 0.310857
O O3 0.030250 0.295270 0.382958
O O4 0.062646 0.009604 0.378548
O O5 0.577149 0.088153 0.824585
O O6 0.227508 0.793192 0.376020
O O7 0.459203 0.589119 0.400477
O O8 0.000000 0.584638 0.250000
O O9 0.237685 0.508887 0.408612
O O10 0.333494 0.198604 0.009036
O O11 0.500000 0.000000 0.000000
O O12 0.660914 0.354242 0.884442
O O13 0.018389 0.193000 0.973420
O O14 0.592148 0.365793 0.386412
O O15 0.939565 0.439173 0.563274
O O16 0.230782 0.530222 0.235387
#
# Coordination Sequence:
#
# PCOD8122099 Si02
#       8
#     4   2   4   4   4   4   4   4
#     4  12  27  45  70 104 141 181 228 288 343 417
#     4  12  28  44  72  96 150 182 228 278 348 430
#     4   9  22  45  67  95 132 177 231 283 337 408
#     4  11  25  44  68  98 138 182 224 280 351 416
#     4  12  25  47  68 104 138 185 226 283 353 407
#     4  11  24  44  69 100 133 176 232 281 338 420
#     4  10  24  43  68 102 134 170 238 282 341 398
#     4  11  23  41  76  95 134 182 227 292 339 399
#
# _framework density 22.454782000000002
#
# number of rings (size 3 to 8) (size 9 to 14) (size 15 to 20)
#    0.000    1.067    2.667    2.400    7.467    1.067 
#    2.400    0.000    0.000    0.000    0.000    0.000 
#    0.000    0.000    0.000    0.000    0.000    0.000 
#
# Total GULP energy -372046.377656 kJ/mol
# GULP energy per Si atom -12401.545922 kJ/mol
# Density = 2.240367 g / cm^3
# Si number density = 22.454782 Si / 1000 Ang^3
#
#
#
# Elastic Constant Matrix: (Units=GPa)
#
#
# Indices 1 2 3 4 5 6 
#
# 1 86.5352 31.3152 23.0148 0.0000 5.2292 0.0000
# 2 31.3152 122.5533 17.5824 0.0000 -0.1181 0.0000
# 3 23.0148 17.5824 60.6220 0.0000 4.5657 0.0000
# 4 0.0000 0.0000 0.0000 36.9763 0.0000 5.2339
# 5 5.2292 -0.1181 4.5657 0.0000 28.9695 0.0000
# 6 0.0000 0.0000 0.0000 5.2339 0.0000 40.2321
#
#
#
# Elastic Compliance Matrix: (Units=1/GPa)
#
#
# Indices 1 2 3 4 5 6 
#
# 1 0.013865 -0.002931 -0.004275 0.000000 -0.001841 0.000000
# 2 -0.002931 0.009139 -0.001599 0.000000 0.000818 0.000000
# 3 -0.004275 -0.001599 0.018747 0.000000 -0.002189 0.000000
# 4 0.000000 0.000000 0.000000 0.027552 0.000000 -0.003584
# 5 -0.001841 0.000818 -0.002189 0.000000 0.035200 0.000000
# 6 0.000000 0.000000 0.000000 -0.003584 0.000000 0.025322
#
#
# Mechanical properties :
#
#
# Convention : Reuss Voigt Hill
#
# Bulk Modulus (GPa) = 41.42485 45.94836 43.68660
# Shear Modulus (GPa) = 32.15790 34.42212 33.29001
#
# Velocity S-wave (km/s) = 3.78844 3.91954 3.85455
# Velocity P-wave (km/s) = 6.13388 6.40240 6.26958
#
# Compressibility (1/GPa) = 0.02414010
#
# Stress axis : x y z
#
# Youngs Moduli (GPa) = 72.12429 109.42146 53.34072
#
# Poissons Ratio (x) = 0.32074 0.22803
# Poissons Ratio (y) = 0.21142 0.08531
# Poissons Ratio (z) = 0.30833 0.17501
#
# Static dielectric constant tensor:
#      x y z
#    x 4.464680 0.000000 -0.119640 
#    y 0.000000 4.108940 0.000000 
#    z -0.119640 0.000000 4.059030 
# 
# 
# High freq. dielectric constant tensor:
#      x y z
#    x 1.892400 0.000000 0.002570 
#    y 0.000000 1.894260 0.000000 
#    z 0.002570 0.000000 1.881390 
# 
# From -- ./inp_files/96621.got.cif
#   From: 2010.06.25/outbox.cif.g09.slc.cpg/sg13_49_cif.got.tgz:96621.got - 2010.06.28 04:50:58.
