data_PCOD8122560
_publ_section_title
;
Structure prediction by ZEFSAII (Michael W. Deem and Ramdas Pophale) SiO2 
 PCOD8122560
Probable space group: P 2/C
;
_chemical_formula_sum "Si O2"
_cell_formula_units_Z 28
_cell_length_a 12.021366
_cell_length_b 13.129479
_cell_length_c 9.201775
_cell_angle_alpha 90.000000
_cell_angle_beta 112.401775
_cell_angle_gamma 90.000000
_cell_volume 1342.752336
_symmetry_space_group_name_H-M "P 2/C"
_symmetry_group_IT_number 13
_symmetry_cell_setting 'monoclinic'
loop_
_space_group_symop_operation_xyz
x,y,z
-x,y,1/2-z
-x,-y,-z
x,-y,1/2+z
loop_
_atom_site_type_symbol
_atom_site_label
_atom_site_fract_x
_atom_site_fract_y
_atom_site_fract_z
Si Si1 0.251007 0.295967 0.905171
Si Si2 0.850010 0.596310 0.395357
Si Si3 0.501479 0.608131 0.581306
Si Si4 0.258978 0.298561 0.413102
Si Si5 0.876597 0.101027 0.110154
Si Si6 0.109347 0.635388 0.589178
Si Si7 0.122559 0.106717 0.733837
O O1 0.182138 0.388946 0.789349
O O2 0.227282 0.190355 0.808801
O O3 0.391498 0.320249 0.980151
O O4 0.193995 0.290014 0.037109
O O5 0.740061 0.646386 0.429968
O O6 0.864919 0.480052 0.445944
O O7 0.969946 0.661442 0.493049
O O8 0.500000 0.582289 0.750000
O O9 0.500000 0.500000 0.500000
O O10 0.616869 0.677218 0.604319
O O11 0.233501 0.178452 0.415261
O O12 0.145598 0.349060 0.273302
O O13 0.000000 0.138364 0.250000
O O14 0.835635 0.995841 0.164163
O O15 0.898121 0.087109 0.948043
O O16 0.000000 0.145769 0.750000
#
# Coordination Sequence:
#
# PCOD8122560 Si02
#       7
#     4   4   4   4   4   4   4
#     4  12  25  41  65  95 134 177 224 272 330 395
#     4  11  22  39  60  98 129 171 213 272 340 398
#     4  12  28  46  69  94 131 188 235 278 322 392
#     4  12  25  41  65  95 134 177 224 272 330 395
#     4  11  24  42  70 103 136 175 220 279 342 405
#     4  11  22  37  64  92 135 169 215 270 334 408
#     4  11  24  42  70 103 136 175 220 279 342 405
#
# _framework density 20.852692000000001
#
# number of rings (size 3 to 8) (size 9 to 14) (size 15 to 20)
#    0.000    0.571    2.857    6.857    6.000    2.286 
#    0.000    0.714    0.000    0.000    0.000    0.000 
#    0.000    0.000    0.000    0.000    0.000    0.000 
#
# Total GULP energy -347255.345319 kJ/mol
# GULP energy per Si atom -12401.976619 kJ/mol
# Density = 2.080523 g / cm^3
# Si number density = 20.852692 Si / 1000 Ang^3
#
#
#
# Elastic Constant Matrix: (Units=GPa)
#
#
# Indices 1 2 3 4 5 6 
#
# 1 102.7435 43.1514 44.7437 0.0000 -2.0252 0.0000
# 2 43.1514 90.5775 49.2326 0.0000 -5.4530 0.0000
# 3 44.7437 49.2326 122.2135 0.0000 -5.8073 0.0000
# 4 0.0000 0.0000 0.0000 35.4382 0.0000 -0.6810
# 5 -2.0252 -5.4530 -5.8073 0.0000 35.4757 0.0000
# 6 0.0000 0.0000 0.0000 -0.6810 0.0000 30.9807
#
#
#
# Elastic Compliance Matrix: (Units=1/GPa)
#
#
# Indices 1 2 3 4 5 6 
#
# 1 0.012921 -0.004609 -0.002895 0.000000 -0.000445 0.000000
# 2 -0.004609 0.015834 -0.004624 0.000000 0.001414 0.000000
# 3 -0.002895 -0.004624 0.011150 0.000000 0.000949 0.000000
# 4 0.000000 0.000000 0.000000 0.028230 0.000000 0.000621
# 5 -0.000445 0.001414 0.000949 0.000000 0.028536 0.000000
# 6 0.000000 0.000000 0.000000 0.000621 0.000000 0.032292
#
#
# Mechanical properties :
#
#
# Convention : Reuss Voigt Hill
#
# Bulk Modulus (GPa) = 63.90000 65.53222 64.71611
# Shear Modulus (GPa) = 31.55870 32.27270 31.91570
#
# Velocity S-wave (km/s) = 3.89448 3.93829 3.91644
# Velocity P-wave (km/s) = 7.13671 7.22320 7.18009
#
# Compressibility (1/GPa) = 0.01564945
#
# Stress axis : x y z
#
# Youngs Moduli (GPa) = 77.39633 63.15343 89.68417
#
# Poissons Ratio (x) = 0.29105 0.25963
# Poissons Ratio (y) = 0.35669 0.41473
# Poissons Ratio (z) = 0.22406 0.29204
#
# Static dielectric constant tensor:
#      x y z
#    x 3.629990 0.000000 -0.071050 
#    y 0.000000 3.665910 0.000000 
#    z -0.071050 0.000000 3.939170 
# 
# 
# High freq. dielectric constant tensor:
#      x y z
#    x 1.798140 0.000000 -0.016120 
#    y 0.000000 1.811090 0.000000 
#    z -0.016120 0.000000 1.837010 
# 
# From -- ./inp_files/16549.got.cif
#   From: 2010.06.25/outbox.cif.g09.slc.cpg/sg13_9_cif.got.tgz:16549.got - 2010.06.28 04:50:58.
