data_PCOD8122160
_publ_section_title
;
Structure prediction by ZEFSAII (Michael W. Deem and Ramdas Pophale) SiO2 
 PCOD8122160
Probable space group: P 2/C
;
_chemical_formula_sum "Si O2"
_cell_formula_units_Z 22
_cell_length_a 19.589048
_cell_length_b 6.029765
_cell_length_c 9.109851
_cell_angle_alpha 90.000000
_cell_angle_beta 64.184524
_cell_angle_gamma 90.000000
_cell_volume 968.644838
_symmetry_space_group_name_H-M "P 2/C"
_symmetry_group_IT_number 13
_symmetry_cell_setting 'monoclinic'
loop_
_space_group_symop_operation_xyz
x,y,z
-x,y,1/2-z
-x,-y,-z
x,-y,1/2+z
loop_
_atom_site_type_symbol
_atom_site_label
_atom_site_fract_x
_atom_site_fract_y
_atom_site_fract_z
Si Si1 0.915424 0.299846 0.329446
Si Si2 0.370040 0.720617 0.928945
Si Si3 0.144411 0.001341 0.366094
Si Si4 0.578649 0.059195 0.855314
Si Si5 0.500000 0.418220 0.750000
Si Si6 0.796364 0.697090 0.440886
O O1 0.909147 0.143306 0.477784
O O2 0.855264 0.497238 0.394567
O O3 0.000000 0.402448 0.250000
O O4 0.905716 0.161553 0.188892
O O5 0.442499 0.566282 0.902039
O O6 0.388840 0.853981 0.764291
O O7 0.360461 0.887111 0.075189
O O8 0.289267 0.597623 0.982800
O O9 0.192545 0.839082 0.217255
O O10 0.198365 0.148840 0.419753
O O11 0.562855 0.275744 0.774369
O O12 0.500000 0.000000 0.000000
#
# Coordination Sequence:
#
# PCOD8122160 Si02
#       6
#     4   4   4   4   2   4
#     4  11  24  45  72 102 135 178 228 279 337 405
#     4  12  26  42  69  96 134 173 223 280 333 400
#     4  10  24  45  68  99 138 179 226 272 341 399
#     4  12  23  46  64  95 128 174 223 276 333 398
#     4  12  24  40  70  94 126 170 228 272 340 390
#     4  11  25  44  67 101 138 181 223 279 342 405
#
# _framework density 22.712140999999999
#
# number of rings (size 3 to 8) (size 9 to 14) (size 15 to 20)
#    0.000    0.727    3.636    3.273    0.000   11.636 
#    0.000    0.000    0.000    0.000    0.000    0.000 
#    0.000    0.000    0.000    0.000    0.000    0.000 
#
# Total GULP energy -272726.089169 kJ/mol
# GULP energy per Si atom -12396.640417 kJ/mol
# Density = 2.266045 g / cm^3
# Si number density = 22.712141 Si / 1000 Ang^3
#
#
#
# Elastic Constant Matrix: (Units=GPa)
#
#
# Indices 1 2 3 4 5 6 
#
# 1 141.2546 37.2504 42.7134 0.0000 -33.6310 0.0000
# 2 37.2504 90.8764 30.5311 0.0000 -14.3155 0.0000
# 3 42.7134 30.5311 106.1479 0.0000 11.2584 0.0000
# 4 0.0000 0.0000 0.0000 18.0029 0.0000 3.2936
# 5 -33.6310 -14.3155 11.2584 0.0000 33.0711 0.0000
# 6 0.0000 0.0000 0.0000 3.2936 0.0000 35.2137
#
#
#
# Elastic Compliance Matrix: (Units=1/GPa)
#
#
# Indices 1 2 3 4 5 6 
#
# 1 0.012793 -0.000698 -0.006531 0.000000 0.014931 0.000000
# 2 -0.000698 0.013845 -0.004421 0.000000 0.006789 0.000000
# 3 -0.006531 -0.004421 0.014761 0.000000 -0.013580 0.000000
# 4 0.000000 0.000000 0.000000 0.056514 0.000000 -0.005286
# 5 0.014931 0.006789 -0.013580 0.000000 0.052983 0.000000
# 6 0.000000 0.000000 0.000000 -0.005286 0.000000 0.028892
#
#
# Mechanical properties :
#
#
# Convention : Reuss Voigt Hill
#
# Bulk Modulus (GPa) = 55.25220 62.14097 58.69659
# Shear Modulus (GPa) = 23.90960 32.44315 28.17638
#
# Velocity S-wave (km/s) = 3.24809 3.78358 3.52602
# Velocity P-wave (km/s) = 6.20055 6.81960 6.51743
#
# Compressibility (1/GPa) = 0.01809883
#
# Stress axis : x y z
#
# Youngs Moduli (GPa) = 78.16688 72.22932 67.74667
#
# Poissons Ratio (x) = 0.05040 0.44244
# Poissons Ratio (y) = 0.05454 0.29953
# Poissons Ratio (z) = 0.51049 0.31935
#
# Static dielectric constant tensor:
#      x y z
#    x 3.670330 0.000000 -0.064430 
#    y 0.000000 4.514040 0.000000 
#    z -0.064430 0.000000 4.195370 
# 
# 
# High freq. dielectric constant tensor:
#      x y z
#    x 1.896210 0.000000 0.009320 
#    y 0.000000 1.894070 0.000000 
#    z 0.009320 0.000000 1.910310 
# 
# From -- ./inp_files/22227.got.cif
#   From: 2010.06.25/outbox.cif.g09.slc.cpg/sg13_12_cif.got.tgz:22227.got - 2010.06.28 04:50:58.
