data_PCOD8122441
_publ_section_title
;
Structure prediction by ZEFSAII (Michael W. Deem and Ramdas Pophale) SiO2 
 PCOD8122441
Probable space group: P 2/C
;
_chemical_formula_sum "Si O2"
_cell_formula_units_Z 20
_cell_length_a 14.326202
_cell_length_b 7.450177
_cell_length_c 17.094888
_cell_angle_alpha 90.000000
_cell_angle_beta 33.496318
_cell_angle_gamma 90.000000
_cell_volume 1006.957751
_symmetry_space_group_name_H-M "P 2/C"
_symmetry_group_IT_number 13
_symmetry_cell_setting 'monoclinic'
loop_
_space_group_symop_operation_xyz
x,y,z
-x,y,1/2-z
-x,-y,-z
x,-y,1/2+z
loop_
_atom_site_type_symbol
_atom_site_label
_atom_site_fract_x
_atom_site_fract_y
_atom_site_fract_z
Si Si1 0.190200 0.017807 0.050989
Si Si2 0.500000 0.160262 0.750000
Si Si3 0.000000 0.343206 0.250000
Si Si4 0.604928 0.671603 0.333227
Si Si5 0.725217 0.656264 0.833214
Si Si6 0.833387 0.949947 0.259139
O O1 0.127828 0.219614 0.111019
O O2 0.230935 0.924429 0.106181
O O3 0.357447 0.024521 0.881698
O O4 0.036592 0.915730 0.113973
O O5 0.426652 0.292819 0.735564
O O6 0.124960 0.449839 0.221833
O O7 0.434133 0.696435 0.500597
O O8 0.675414 0.469368 0.295182
O O9 0.743909 0.811581 0.265303
O O10 0.793091 0.848097 0.756316
#
# Coordination Sequence:
#
# PCOD8122441 Si02
#       6
#     4   2   2   4   4   4
#     4   8  18  33  58  81 114 144 185 226 288 311
#     4  12  20  34  54  90 118 148 172 254 282 316
#     4   8  14  36  54  76 108 148 180 228 264 340
#     4  11  21  33  61  83 112 144 195 223 283 325
#     4   9  19  35  59  84 102 152 190 225 267 347
#     4   9  18  39  59  80 108 155 187 226 262 359
#
# _framework density 19.861806999999999
#
# number of rings (size 3 to 8) (size 9 to 14) (size 15 to 20)
#    0.000    3.200    4.000    0.600    0.000    2.400 
#    0.000    5.000    0.000    0.000    0.000    0.000 
#    0.000    0.000    0.000    0.000    0.000    0.000 
#
# Total GULP energy -247790.035572 kJ/mol
# GULP energy per Si atom -12389.501779 kJ/mol
# Density = 1.981660 g / cm^3
# Si number density = 19.861807 Si / 1000 Ang^3
#
#
#
# Elastic Constant Matrix: (Units=GPa)
#
#
# Indices 1 2 3 4 5 6 
#
# 1 143.4366 44.6549 41.0818 0.0000 -6.9526 0.0000
# 2 44.6549 56.9844 19.0118 0.0000 -1.2492 0.0000
# 3 41.0818 19.0118 113.9040 0.0000 -6.2782 0.0000
# 4 0.0000 0.0000 0.0000 2.9686 0.0000 -7.2606
# 5 -6.9526 -1.2492 -6.2782 0.0000 27.2475 0.0000
# 6 0.0000 0.0000 0.0000 -7.2606 0.0000 14.6426
#
#
#
# Elastic Compliance Matrix: (Units=1/GPa)
#
#
# Indices 1 2 3 4 5 6 
#
# 1 0.009872 -0.006928 -0.002312 0.000000 0.001669 0.000000
# 2 -0.006928 0.023446 -0.001472 0.000000 -0.001032 0.000000
# 3 -0.002312 -0.001472 0.009949 0.000000 0.001635 0.000000
# 4 0.000000 0.000000 0.000000 -1.583114 0.000000 -0.784996
# 5 0.001669 -0.001032 0.001635 0.000000 0.037456 0.000000
# 6 0.000000 0.000000 0.000000 -0.784996 0.000000 -0.320951
#
#
# Mechanical properties :
#
#
# Convention : Reuss Voigt Hill
#
# Bulk Modulus (GPa) = 45.78026 58.20244 51.99135
# Shear Modulus (GPa) = -2.78608 22.94351 10.07872
#
# Velocity S-wave (km/s) = -1.18565 3.40245 2.25509
# Velocity P-wave (km/s) = 4.60707 6.69349 5.74578
#
# Compressibility (1/GPa) = 0.02184348
#
# Stress axis : x y z
#
# Youngs Moduli (GPa) = 101.30124 42.65159 100.51289
#
# Poissons Ratio (x) = 0.29548 0.23240
# Poissons Ratio (y) = 0.70178 0.14792
# Poissons Ratio (z) = 0.23422 0.06277
#
# Static dielectric constant tensor:
#      x y z
#    x 3.929290 0.000000 -0.445190 
#    y 0.000000 3.197550 0.000000 
#    z -0.445190 0.000000 3.566420 
# 
# 
# High freq. dielectric constant tensor:
#      x y z
#    x 1.785480 0.000000 -0.035460 
#    y 0.000000 1.734310 0.000000 
#    z -0.035460 0.000000 1.758080 
# 
# From -- ./inp_files/59278.got.cif
#   From: 2010.06.25/outbox.cif.g09.slc.cpg/sg13_30_cif.got.tgz:59278.got - 2010.06.28 04:50:58.
