data_PCOD8122025
_publ_section_title
;
Structure prediction by ZEFSAII (Michael W. Deem and Ramdas Pophale) SiO2 
 PCOD8122025
Probable space group: P 2/C
;
_chemical_formula_sum "Si O2"
_cell_formula_units_Z 20
_cell_length_a 18.215424
_cell_length_b 5.070370
_cell_length_c 9.280996
_cell_angle_alpha 90.000000
_cell_angle_beta 89.751557
_cell_angle_gamma 90.000000
_cell_volume 857.174889
_symmetry_space_group_name_H-M "P 2/C"
_symmetry_group_IT_number 13
_symmetry_cell_setting 'monoclinic'
loop_
_space_group_symop_operation_xyz
x,y,z
-x,y,1/2-z
-x,-y,-z
x,-y,1/2+z
loop_
_atom_site_type_symbol
_atom_site_label
_atom_site_fract_x
_atom_site_fract_y
_atom_site_fract_z
Si Si1 0.197348 0.239228 0.025734
Si Si2 0.414891 0.757825 0.253956
Si Si3 0.125908 0.950403 0.274674
Si Si4 0.637904 0.256494 0.415647
Si Si5 0.926763 0.462143 0.088715
O O1 0.154006 0.021753 0.118616
O O2 0.275750 0.323986 0.085787
O O3 0.145156 0.498074 0.014413
O O4 0.200566 0.095258 0.870066
O O5 0.500000 0.830733 0.250000
O O6 0.403158 0.476827 0.177512
O O7 0.390057 0.750103 0.420148
O O8 0.372456 0.976607 0.161636
O O9 0.073753 0.177505 0.339661
O O10 0.077580 0.682810 0.282873
O O11 0.000000 0.500000 0.000000
#
# Coordination Sequence:
#
# PCOD8122025 Si02
#       5
#     4   4   4   4   4
#     4  10  26  41  70  97 137 172 235 274 352 400
#     4  12  26  47  72 108 144 191 237 292 360 430
#     4  10  24  41  65  92 132 168 227 276 337 406
#     4  12  26  43  76 101 149 185 239 295 356 424
#     4  10  24  43  65  93 134 173 224 277 345 401
#
# _framework density 23.332463000000001
#
# number of rings (size 3 to 8) (size 9 to 14) (size 15 to 20)
#    1.200    0.000    0.000    4.800    8.400    0.800 
#    0.000    0.000    0.000    0.000    0.000    0.000 
#    0.000    0.000    0.000    0.000    0.000    0.000 
#
# Total GULP energy -247840.007198 kJ/mol
# GULP energy per Si atom -12392.000360 kJ/mol
# Density = 2.327936 g / cm^3
# Si number density = 23.332463 Si / 1000 Ang^3
#
#
#
# Elastic Constant Matrix: (Units=GPa)
#
#
# Indices 1 2 3 4 5 6 
#
# 1 122.0562 -0.9097 11.2767 0.0000 0.5407 0.0000
# 2 -0.9097 97.2734 17.8029 0.0000 2.9068 0.0000
# 3 11.2767 17.8029 118.8182 0.0000 -12.5148 0.0000
# 4 0.0000 0.0000 0.0000 28.1213 0.0000 -9.0973
# 5 0.5407 2.9068 -12.5148 0.0000 28.8847 0.0000
# 6 0.0000 0.0000 0.0000 -9.0973 0.0000 26.3694
#
#
#
# Elastic Compliance Matrix: (Units=1/GPa)
#
#
# Indices 1 2 3 4 5 6 
#
# 1 0.008279 0.000256 -0.000883 0.000000 -0.000563 0.000000
# 2 0.000256 0.010672 -0.001820 0.000000 -0.001867 0.000000
# 3 -0.000883 -0.001820 0.009214 0.000000 0.004192 0.000000
# 4 0.000000 0.000000 0.000000 0.040028 0.000000 0.013809
# 5 -0.000563 -0.001867 0.004192 0.000000 0.036635 0.000000
# 6 0.000000 0.000000 0.000000 0.013809 0.000000 0.042687
#
#
# Mechanical properties :
#
#
# Convention : Reuss Voigt Hill
#
# Bulk Modulus (GPa) = 42.97379 43.83197 43.40288
# Shear Modulus (GPa) = 31.21765 37.34028 34.27896
#
# Velocity S-wave (km/s) = 3.66177 4.00479 3.83711
# Velocity P-wave (km/s) = 6.02794 6.34122 6.18656
#
# Compressibility (1/GPa) = 0.02327000
#
# Stress axis : x y z
#
# Youngs Moduli (GPa) = 120.78802 93.70690 108.52738
#
# Poissons Ratio (x) = -0.02398 0.09588
# Poissons Ratio (y) = -0.03091 0.19751
# Poissons Ratio (z) = 0.10671 0.17054
#
# Static dielectric constant tensor:
#      x y z
#    x 4.092640 0.000000 0.120750 
#    y 0.000000 4.185760 0.000000 
#    z 0.120750 0.000000 4.362500 
# 
# 
# High freq. dielectric constant tensor:
#      x y z
#    x 1.917520 0.000000 0.002530 
#    y 0.000000 1.931330 0.000000 
#    z 0.002530 0.000000 1.938840 
# 
# From -- ./inp_files/22272.got.cif
#   From: 2010.06.25/outbox.cif.g09.slc.cpg/sg13_12_cif.got.tgz:22272.got - 2010.06.28 04:50:58.
