data_PCOD8122291
_publ_section_title
;
Structure prediction by ZEFSAII (Michael W. Deem and Ramdas Pophale) SiO2 
 PCOD8122291
Probable space group: P 2/C
;
_chemical_formula_sum "Si O2"
_cell_formula_units_Z 22
_cell_length_a 8.577028
_cell_length_b 21.624720
_cell_length_c 5.325057
_cell_angle_alpha 90.000000
_cell_angle_beta 70.671198
_cell_angle_gamma 90.000000
_cell_volume 931.999068
_symmetry_space_group_name_H-M "P 2/C"
_symmetry_group_IT_number 13
_symmetry_cell_setting 'monoclinic'
loop_
_space_group_symop_operation_xyz
x,y,z
-x,y,1/2-z
-x,-y,-z
x,-y,1/2+z
loop_
_atom_site_type_symbol
_atom_site_label
_atom_site_fract_x
_atom_site_fract_y
_atom_site_fract_z
Si Si1 0.313322 0.476399 0.540124
Si Si2 0.305578 0.964322 0.372201
Si Si3 0.827414 0.348166 0.960052
Si Si4 0.849503 0.842043 0.169630
Si Si5 0.603264 0.246515 0.945119
Si Si6 0.000000 0.736537 0.750000
O O1 0.500000 0.500000 0.500000
O O2 0.228399 0.482268 0.861702
O O3 0.292577 0.407294 0.439651
O O4 0.500000 0.953773 0.250000
O O5 0.217464 0.898350 0.461668
O O6 0.248914 0.005076 0.639820
O O7 0.727706 0.303436 0.827144
O O8 0.000000 0.370485 0.750000
O O9 0.865472 0.308134 0.189298
O O10 0.705471 0.817262 0.432814
O O11 0.000000 0.868299 0.250000
O O12 0.899877 0.781661 0.985934
O O13 0.500000 0.237965 0.750000
O O14 0.500000 0.259923 0.250000
#
# Coordination Sequence:
#
# PCOD8122291 Si02
#       6
#     4   4   4   4   4   2
#     4  10  26  48  73 107 143 192 248 307 368 446
#     4  10  25  47  73 108 150 203 258 317 378 450
#     4  12  27  47  78 107 154 195 251 316 379 462
#     4  12  26  47  74 111 157 201 259 317 383 466
#     4  12  27  44  74 110 146 200 251 315 387 446
#     4  12  24  50  72 114 156 202 248 320 392 450
#
# _framework density 23.605176
#
# number of rings (size 3 to 8) (size 9 to 14) (size 15 to 20)
#    0.000    0.727    3.636    1.636   10.182    3.636 
#    0.000    0.000    0.000    0.000    0.000    0.000 
#    0.000    0.000    0.000    0.000    0.000    0.000 
#
# Total GULP energy -272604.952512 kJ/mol
# GULP energy per Si atom -12391.134205 kJ/mol
# Density = 2.355145 g / cm^3
# Si number density = 23.605176 Si / 1000 Ang^3
#
#
#
# Elastic Constant Matrix: (Units=GPa)
#
#
# Indices 1 2 3 4 5 6 
#
# 1 99.5955 65.1086 36.0564 0.0000 5.1820 0.0000
# 2 65.1086 164.8684 46.3998 0.0000 16.3855 0.0000
# 3 36.0564 46.3998 135.2933 0.0000 28.5190 0.0000
# 4 0.0000 0.0000 0.0000 5.3178 0.0000 17.2192
# 5 5.1820 16.3855 28.5190 0.0000 27.9784 0.0000
# 6 0.0000 0.0000 0.0000 17.2192 0.0000 53.9505
#
#
#
# Elastic Compliance Matrix: (Units=1/GPa)
#
#
# Indices 1 2 3 4 5 6 
#
# 1 0.014231 -0.005178 -0.002675 0.000000 0.003124 0.000000
# 2 -0.005178 0.008688 -0.000929 0.000000 -0.003182 0.000000
# 3 -0.002675 -0.000929 0.010449 0.000000 -0.009611 0.000000
# 4 0.000000 0.000000 0.000000 -5.617743 0.000000 1.792997
# 5 0.003124 -0.003182 -0.009611 0.000000 0.046824 0.000000
# 6 0.000000 0.000000 0.000000 1.792997 0.000000 -0.553729
#
#
# Mechanical properties :
#
#
# Convention : Reuss Voigt Hill
#
# Bulk Modulus (GPa) = 63.27428 77.20964 70.24196
# Shear Modulus (GPa) = -0.82393 34.26218 16.71912
#
# Velocity S-wave (km/s) = -0.59144 3.81395 2.66424
# Velocity P-wave (km/s) = 5.13781 7.22321 6.26784
#
# Compressibility (1/GPa) = 0.01580421
#
# Stress axis : x y z
#
# Youngs Moduli (GPa) = 70.26681 115.10330 95.70340
#
# Poissons Ratio (x) = 0.59596 0.25605
# Poissons Ratio (y) = 0.36382 0.08890
# Poissons Ratio (z) = 0.18800 0.10692
#
# Static dielectric constant tensor:
#      x y z
#    x 4.386790 0.000000 -0.071280 
#    y 0.000000 4.186720 0.000000 
#    z -0.071280 0.000000 5.445630 
# 
# 
# High freq. dielectric constant tensor:
#      x y z
#    x 1.940780 0.000000 0.009350 
#    y 0.000000 1.937910 0.000000 
#    z 0.009350 0.000000 1.933300 
# 
# From -- ./inp_files/2106.got.cif
#   From: 2010.06.25/outbox.cif.g09.slc.cpg/sg13_2_cif.got.tgz:2106.got - 2010.06.28 04:50:58.
