data_PCOD8122290
_publ_section_title
;
Structure prediction by ZEFSAII (Michael W. Deem and Ramdas Pophale) SiO2 
 PCOD8122290
Probable space group: P 2/C
;
_chemical_formula_sum "Si O2"
_cell_formula_units_Z 28
_cell_length_a 14.996111
_cell_length_b 5.215208
_cell_length_c 17.761968
_cell_angle_alpha 90.000000
_cell_angle_beta 58.018664
_cell_angle_gamma 90.000000
_cell_volume 1178.284639
_symmetry_space_group_name_H-M "P 2/C"
_symmetry_group_IT_number 13
_symmetry_cell_setting 'monoclinic'
loop_
_space_group_symop_operation_xyz
x,y,z
-x,y,1/2-z
-x,-y,-z
x,-y,1/2+z
loop_
_atom_site_type_symbol
_atom_site_label
_atom_site_fract_x
_atom_site_fract_y
_atom_site_fract_z
Si Si1 0.335229 0.785245 0.951060
Si Si2 0.591773 0.840236 0.421410
Si Si3 0.118732 0.561922 0.695330
Si Si4 0.453267 0.300855 0.853243
Si Si5 0.800772 0.943429 0.267198
Si Si6 0.874774 0.443352 0.968995
Si Si7 0.923559 0.806710 0.075761
O O1 0.387395 0.561631 0.877800
O O2 0.380921 0.060767 0.909092
O O3 0.351435 0.707073 0.032336
O O4 0.210258 0.788573 0.987030
O O5 0.542179 0.657073 0.378893
O O6 0.678343 0.012986 0.337371
O O7 0.500000 0.000000 0.500000
O O8 0.185775 0.344466 0.707276
O O9 0.155169 0.598463 0.592741
O O10 0.000000 0.466901 0.750000
O O11 0.127536 0.841927 0.727214
O O12 0.500000 0.245441 0.750000
O O13 0.833380 0.945319 0.164825
O O14 0.995978 0.351606 0.907033
O O15 0.861626 0.623845 0.046893
O O16 0.000000 0.000000 0.000000
#
# Coordination Sequence:
#
# PCOD8122290 Si02
#       7
#     4   4   4   4   4   4   4
#     4  11  25  44  75 101 140 193 237 298 371 431
#     4  10  25  47  73 106 145 186 250 300 363 427
#     4  12  25  45  72 107 142 187 248 295 358 441
#     4  11  26  47  70 107 141 187 243 308 362 434
#     4  12  27  45  72 107 143 196 241 303 365 432
#     4  11  26  44  73 105 150 192 243 298 373 446
#     4  11  27  47  70 110 153 196 238 305 370 446
#
# _framework density 23.763356999999999
#
# number of rings (size 3 to 8) (size 9 to 14) (size 15 to 20)
#    0.000    0.857    2.857    2.143   12.000    2.286 
#    0.000    0.000    0.000    0.000    0.000    0.000 
#    0.000    0.000    0.000    0.000    0.000    0.000 
#
# Total GULP energy -347069.708860 kJ/mol
# GULP energy per Si atom -12395.346745 kJ/mol
# Density = 2.370927 g / cm^3
# Si number density = 23.763357 Si / 1000 Ang^3
#
#
#
# Elastic Constant Matrix: (Units=GPa)
#
#
# Indices 1 2 3 4 5 6 
#
# 1 74.8932 9.8662 33.4645 0.0000 0.4154 0.0000
# 2 9.8662 89.9819 23.7791 0.0000 1.9064 0.0000
# 3 33.4645 23.7791 164.8960 0.0000 -3.5412 0.0000
# 4 0.0000 0.0000 0.0000 36.3797 0.0000 -0.2110
# 5 0.4154 1.9064 -3.5412 0.0000 40.1929 0.0000
# 6 0.0000 0.0000 0.0000 -0.2110 0.0000 31.6864
#
#
#
# Elastic Compliance Matrix: (Units=1/GPa)
#
#
# Indices 1 2 3 4 5 6 
#
# 1 0.014753 -0.000849 -0.002879 0.000000 -0.000366 0.000000
# 2 -0.000849 0.011622 -0.001518 0.000000 -0.000676 0.000000
# 3 -0.002879 -0.001518 0.006883 0.000000 0.000708 0.000000
# 4 0.000000 0.000000 0.000000 0.027489 0.000000 0.000183
# 5 -0.000366 -0.000676 0.000708 0.000000 0.024978 0.000000
# 6 0.000000 0.000000 0.000000 0.000183 0.000000 0.031561
#
#
# Mechanical properties :
#
#
# Convention : Reuss Voigt Hill
#
# Bulk Modulus (GPa) = 43.92777 51.55451 47.74114
# Shear Modulus (GPa) = 36.93670 39.16254 38.04962
#
# Velocity S-wave (km/s) = 3.94681 4.06399 4.00583
# Velocity P-wave (km/s) = 6.26860 6.61539 6.44433
#
# Compressibility (1/GPa) = 0.02276464
#
# Stress axis : x y z
#
# Youngs Moduli (GPa) = 67.78364 86.04398 145.28696
#
# Poissons Ratio (x) = 0.07304 0.41834
# Poissons Ratio (y) = 0.05754 0.22058
# Poissons Ratio (z) = 0.19518 0.13063
#
# Static dielectric constant tensor:
#      x y z
#    x 4.835170 0.000000 0.011380 
#    y 0.000000 4.127990 0.000000 
#    z 0.011380 0.000000 4.588430 
# 
# 
# High freq. dielectric constant tensor:
#      x y z
#    x 1.949210 0.000000 -0.001820 
#    y 0.000000 1.919590 0.000000 
#    z -0.001820 0.000000 1.960880 
# 
# From -- ./inp_files/67499.got.cif
#   From: 2010.06.25/outbox.cif.g09.slc.cpg/sg13_34_cif.got.tgz:67499.got - 2010.06.28 04:50:58.
