data_PCOD8122107
_publ_section_title
;
Structure prediction by ZEFSAII (Michael W. Deem and Ramdas Pophale) SiO2 
 PCOD8122107
Probable space group: P 2/C
;
_chemical_formula_sum "Si O2"
_cell_formula_units_Z 20
_cell_length_a 9.515433
_cell_length_b 5.162106
_cell_length_c 19.064774
_cell_angle_alpha 90.000000
_cell_angle_beta 73.938181
_cell_angle_gamma 90.000000
_cell_volume 899.899759
_symmetry_space_group_name_H-M "P 2/C"
_symmetry_group_IT_number 13
_symmetry_cell_setting 'monoclinic'
loop_
_space_group_symop_operation_xyz
x,y,z
-x,y,1/2-z
-x,-y,-z
x,-y,1/2+z
loop_
_atom_site_type_symbol
_atom_site_label
_atom_site_fract_x
_atom_site_fract_y
_atom_site_fract_z
Si Si1 0.578200 0.178491 0.118063
Si Si2 0.165119 0.908318 0.477932
Si Si3 0.166271 0.688381 0.208166
Si Si4 0.680414 0.688086 0.165933
Si Si5 0.259239 0.189382 0.115361
O O1 0.597893 0.417454 0.168139
O O2 0.434466 0.220866 0.091277
O O3 0.563682 0.918915 0.167595
O O4 0.720057 0.148257 0.047342
O O5 0.187417 0.711168 0.409321
O O6 0.201715 0.762322 0.544965
O O7 0.000000 0.000000 0.500000
O O8 0.261707 0.714636 0.264319
O O9 0.183551 0.401380 0.175008
O O10 0.000000 0.739691 0.250000
O O11 0.215829 0.902292 0.145551
#
# Coordination Sequence:
#
# PCOD8122107 Si02
#       5
#     4   4   4   4   4
#     4  10  24  43  70  99 136 168 234 268 341 388
#     4  10  25  44  72  97 138 177 228 271 339 393
#     4  12  27  44  68 100 140 172 229 272 343 393
#     4  10  24  43  69  95 138 174 223 275 330 400
#     4  12  26  43  73  99 134 180 220 284 329 401
#
# _framework density 22.224696999999999
#
# number of rings (size 3 to 8) (size 9 to 14) (size 15 to 20)
#    1.200    0.000    0.000    4.800    5.600    6.400 
#    0.000    0.000    0.000    0.000    0.000    0.000 
#    0.000    0.000    0.000    0.000    0.000    0.000 
#
# Total GULP energy -247987.819837 kJ/mol
# GULP energy per Si atom -12399.390992 kJ/mol
# Density = 2.217411 g / cm^3
# Si number density = 22.224697 Si / 1000 Ang^3
#
#
#
# Elastic Constant Matrix: (Units=GPa)
#
#
# Indices 1 2 3 4 5 6 
#
# 1 92.5880 4.8606 9.9893 0.0000 -21.2756 0.0000
# 2 4.8606 110.3972 13.2626 0.0000 -0.3015 0.0000
# 3 9.9893 13.2626 97.4112 0.0000 12.1215 0.0000
# 4 0.0000 0.0000 0.0000 4.7361 0.0000 0.1435
# 5 -21.2756 -0.3015 12.1215 0.0000 37.2587 0.0000
# 6 0.0000 0.0000 0.0000 0.1435 0.0000 23.6953
#
#
#
# Elastic Compliance Matrix: (Units=1/GPa)
#
#
# Indices 1 2 3 4 5 6 
#
# 1 0.012931 -0.000271 -0.002301 0.000000 0.008130 0.000000
# 2 -0.000271 0.009224 -0.001269 0.000000 0.000333 0.000000
# 3 -0.002301 -0.001269 0.011297 0.000000 -0.004999 0.000000
# 4 0.000000 0.000000 0.000000 0.211182 0.000000 -0.001279
# 5 0.008130 0.000333 -0.004999 0.000000 0.033111 0.000000
# 6 0.000000 0.000000 0.000000 -0.001279 0.000000 0.042210
#
#
# Mechanical properties :
#
#
# Convention : Reuss Voigt Hill
#
# Bulk Modulus (GPa) = 38.80598 39.62459 39.21529
# Shear Modulus (GPa) = 14.87093 31.29030 23.08062
#
# Velocity S-wave (km/s) = 2.58954 3.75628 3.22609
# Velocity P-wave (km/s) = 5.14194 6.05645 5.61784
#
# Compressibility (1/GPa) = 0.02576922
#
# Stress axis : x y z
#
# Youngs Moduli (GPa) = 77.33189 108.41829 88.52175
#
# Poissons Ratio (x) = 0.02935 0.20368
# Poissons Ratio (y) = 0.02094 0.11238
# Poissons Ratio (z) = 0.17794 0.13763
#
# Static dielectric constant tensor:
#      x y z
#    x 4.244250 0.000000 -0.073570 
#    y 0.000000 3.987480 0.000000 
#    z -0.073570 0.000000 3.930010 
# 
# 
# High freq. dielectric constant tensor:
#      x y z
#    x 1.881340 0.000000 0.000860 
#    y 0.000000 1.874920 0.000000 
#    z 0.000860 0.000000 1.879690 
# 
# From -- ./inp_files/74525.got.cif
#   From: 2010.06.25/outbox.cif.g09.slc.cpg/sg13_38_cif.got.tgz:74525.got - 2010.06.28 04:50:58.
