data_PCOD8122392
_publ_section_title
;
Structure prediction by ZEFSAII (Michael W. Deem and Ramdas Pophale) SiO2 
 PCOD8122392
Probable space group: P 2/C
;
_chemical_formula_sum "Si O2"
_cell_formula_units_Z 28
_cell_length_a 12.697775
_cell_length_b 8.996480
_cell_length_c 13.897973
_cell_angle_alpha 90.000000
_cell_angle_beta 56.233629
_cell_angle_gamma 90.000000
_cell_volume 1319.821356
_symmetry_space_group_name_H-M "P 2/C"
_symmetry_group_IT_number 13
_symmetry_cell_setting 'monoclinic'
loop_
_space_group_symop_operation_xyz
x,y,z
-x,y,1/2-z
-x,-y,-z
x,-y,1/2+z
loop_
_atom_site_type_symbol
_atom_site_label
_atom_site_fract_x
_atom_site_fract_y
_atom_site_fract_z
Si Si1 0.355408 0.571757 0.835248
Si Si2 0.132250 0.916347 0.442150
Si Si3 0.280464 0.305602 0.752313
Si Si4 0.261366 0.824540 0.563960
Si Si5 0.485666 0.929120 0.147584
Si Si6 0.287221 0.150433 0.259696
Si Si7 0.648680 0.492396 0.953878
O O1 0.500000 0.610848 0.750000
O O2 0.328235 0.401772 0.819160
O O3 0.277309 0.683274 0.805952
O O4 0.325052 0.599761 0.962375
O O5 0.153455 0.781423 0.353885
O O6 0.151656 0.854839 0.540872
O O7 0.237437 0.039506 0.366630
O O8 0.000000 0.000000 0.500000
O O9 0.383883 0.189726 0.659303
O O10 0.261271 0.418961 0.673176
O O11 0.383534 0.924666 0.476462
O O12 0.210988 0.864493 0.697057
O O13 0.303462 0.655528 0.546949
O O14 0.500000 0.880167 0.250000
O O15 0.432290 0.098002 0.165558
O O16 0.500000 0.500000 0.000000
#
# Coordination Sequence:
#
# PCOD8122392 Si02
#       7
#     4   4   4   4   4   4   4
#     4  12  21  35  60 103 147 173 217 273 348 445
#     4  11  27  49  69  87 128 191 248 299 333 397
#     4  11  21  39  65  98 137 181 230 264 358 423
#     4  12  21  40  66  95 140 177 227 282 365 421
#     4  11  19  36  59  97 141 181 206 270 351 440
#     4  11  25  37  63 102 133 174 230 286 356 427
#     4  12  21  34  65 105 145 188 214 275 360 449
#
# _framework density 21.214993
#
# number of rings (size 3 to 8) (size 9 to 14) (size 15 to 20)
#    0.000    0.571    8.571    1.286    0.000    2.857 
#    0.000    0.714    0.000    0.000    0.000    0.000 
#    0.000    0.000    0.000    0.000    0.000    0.000 
#
# Total GULP energy -346987.799324 kJ/mol
# GULP energy per Si atom -12392.421404 kJ/mol
# Density = 2.116671 g / cm^3
# Si number density = 21.214993 Si / 1000 Ang^3
#
#
#
# Elastic Constant Matrix: (Units=GPa)
#
#
# Indices 1 2 3 4 5 6 
#
# 1 93.2466 41.2242 51.6812 0.0000 18.6631 0.0000
# 2 41.2242 103.7284 33.9737 0.0000 7.2780 0.0000
# 3 51.6812 33.9737 99.3527 0.0000 31.9474 0.0000
# 4 0.0000 0.0000 0.0000 35.0617 0.0000 8.0598
# 5 18.6631 7.2780 31.9474 0.0000 33.8383 0.0000
# 6 0.0000 0.0000 0.0000 8.0598 0.0000 30.6874
#
#
#
# Elastic Compliance Matrix: (Units=1/GPa)
#
#
# Indices 1 2 3 4 5 6 
#
# 1 0.016677 -0.004348 -0.006507 0.000000 -0.002120 0.000000
# 2 -0.004348 0.012057 -0.002582 0.000000 0.002243 0.000000
# 3 -0.006507 -0.002582 0.018667 0.000000 -0.013480 0.000000
# 4 0.000000 0.000000 0.000000 0.030354 0.000000 -0.007972
# 5 -0.002120 0.002243 -0.013480 0.000000 0.042966 0.000000
# 6 0.000000 0.000000 0.000000 -0.007972 0.000000 0.034681
#
#
# Mechanical properties :
#
#
# Convention : Reuss Voigt Hill
#
# Bulk Modulus (GPa) = 48.71525 61.12064 54.91795
# Shear Modulus (GPa) = 26.43852 31.21405 28.82629
#
# Velocity S-wave (km/s) = 3.53401 3.83994 3.69015
# Velocity P-wave (km/s) = 6.29800 6.96655 6.64070
#
# Compressibility (1/GPa) = 0.02052745
#
# Stress axis : x y z
#
# Youngs Moduli (GPa) = 59.96278 82.93939 53.56936
#
# Poissons Ratio (x) = 0.36062 0.34855
# Poissons Ratio (y) = 0.26072 0.13834
# Poissons Ratio (z) = 0.39015 0.21418
#
# Static dielectric constant tensor:
#      x y z
#    x 3.768710 0.000000 0.651030 
#    y 0.000000 4.101340 0.000000 
#    z 0.651030 0.000000 4.596950 
# 
# 
# High freq. dielectric constant tensor:
#      x y z
#    x 1.785270 0.000000 0.042410 
#    y 0.000000 1.846160 0.000000 
#    z 0.042410 0.000000 1.829770 
# 
# From -- ./inp_files/50233.got.cif
#   From: 2010.06.25/outbox.cif.g09.slc.cpg/sg13_26_cif.got.tgz:50233.got - 2010.06.28 04:50:58.
