data_PCOD8122838
_publ_section_title
;
Structure prediction by ZEFSAII (Michael W. Deem and Ramdas Pophale) SiO2 
 PCOD8122838
Probable space group: P 2/C
;
_chemical_formula_sum "Si O2"
_cell_formula_units_Z 26
_cell_length_a 16.777662
_cell_length_b 13.755330
_cell_length_c 10.244319
_cell_angle_alpha 90.000000
_cell_angle_beta 150.342841
_cell_angle_gamma 90.000000
_cell_volume 1169.831129
_symmetry_space_group_name_H-M "P 2/C"
_symmetry_group_IT_number 13
_symmetry_cell_setting 'monoclinic'
loop_
_space_group_symop_operation_xyz
x,y,z
-x,y,1/2-z
-x,-y,-z
x,-y,1/2+z
loop_
_atom_site_type_symbol
_atom_site_label
_atom_site_fract_x
_atom_site_fract_y
_atom_site_fract_z
Si Si1 0.655480 0.063557 0.691241
Si Si2 0.229877 0.664621 0.672182
Si Si3 0.840058 0.975652 0.192447
Si Si4 0.000000 0.498063 0.750000
Si Si5 0.000000 0.818221 0.250000
Si Si6 0.500000 0.423781 0.250000
Si Si7 0.567914 0.287366 0.554587
Si Si8 0.724223 0.588486 0.490173
O O1 0.711815 0.031602 0.626647
O O2 0.608404 0.174764 0.604131
O O3 0.500000 0.000000 0.500000
O O4 0.781440 0.050428 0.993025
O O5 0.306300 0.644764 0.920029
O O6 0.145216 0.564097 0.514373
O O7 0.101305 0.751619 0.493363
O O8 0.375500 0.696521 0.786904
O O9 0.875820 0.877830 0.162779
O O10 0.000000 0.000000 0.500000
O O11 0.086307 0.564229 0.762525
O O12 0.617349 0.352568 0.499911
O O13 0.614461 0.491741 0.323707
O O14 0.671799 0.329742 0.816910
#
# Coordination Sequence:
#
# PCOD8122838 Si02
#       8
#     4   4   4   2   2   2   4   4
#     4  12  29  48  81 113 151 199 259 318 379 459
#     4  11  24  43  70 105 142 192 246 297 372 441
#     4  12  26  52  76 107 156 197 246 318 390 448
#     4  11  24  42  65 104 142 192 239 300 371 436
#     4  11  26  44  75 102 150 198 237 308 385 454
#     4  12  24  46  72 100 150 196 238 302 376 434
#     4  12  27  43  76 108 143 193 255 302 368 443
#     4  12  24  45  72 102 148 191 246 307 363 443
#
# _framework density 22.225429999999999
#
# number of rings (size 3 to 8) (size 9 to 14) (size 15 to 20)
#    0.000    0.308    4.615    3.231    6.462    2.462 
#    0.000    0.000    0.000    0.000    0.000    0.000 
#    0.000    0.000    0.000    0.000    0.000    0.000 
#
# Total GULP energy -322209.941046 kJ/mol
# GULP energy per Si atom -12392.690040 kJ/mol
# Density = 2.217484 g / cm^3
# Si number density = 22.225430 Si / 1000 Ang^3
#
#
#
# Elastic Constant Matrix: (Units=GPa)
#
#
# Indices 1 2 3 4 5 6 
#
# 1 117.7816 31.9679 9.8947 0.0000 1.4442 0.0000
# 2 31.9679 120.2255 21.7552 0.0000 0.1675 0.0000
# 3 9.8947 21.7552 86.5354 0.0000 -10.2623 0.0000
# 4 0.0000 0.0000 0.0000 39.3952 0.0000 2.3611
# 5 1.4442 0.1675 -10.2623 0.0000 48.1469 0.0000
# 6 0.0000 0.0000 0.0000 2.3611 0.0000 36.4752
#
#
#
# Elastic Compliance Matrix: (Units=1/GPa)
#
#
# Indices 1 2 3 4 5 6 
#
# 1 0.009174 -0.002348 -0.000503 0.000000 -0.000374 0.000000
# 2 -0.002348 0.009327 -0.002126 0.000000 -0.000415 0.000000
# 3 -0.000503 -0.002126 0.012466 0.000000 0.002679 0.000000
# 4 0.000000 0.000000 0.000000 0.025483 0.000000 -0.001650
# 5 -0.000374 -0.000415 0.002679 0.000000 0.021354 0.000000
# 6 0.000000 0.000000 0.000000 -0.001650 0.000000 0.027523
#
#
# Mechanical properties :
#
#
# Convention : Reuss Voigt Hill
#
# Bulk Modulus (GPa) = 47.58756 50.19757 48.89257
# Shear Modulus (GPa) = 40.88835 42.19844 41.54340
#
# Velocity S-wave (km/s) = 4.29384 4.36208 4.32810
# Velocity P-wave (km/s) = 6.78532 6.92857 6.85732
#
# Compressibility (1/GPa) = 0.02101390
#
# Stress axis : x y z
#
# Youngs Moduli (GPa) = 108.99883 107.21291 80.22047
#
# Poissons Ratio (x) = 0.25173 0.04036
# Poissons Ratio (y) = 0.25592 0.17052
# Poissons Ratio (z) = 0.05484 0.22790
#
# Static dielectric constant tensor:
#      x y z
#    x 10.011030 0.000000 -0.260600 
#    y 0.000000 4.060820 0.000000 
#    z -0.260600 0.000000 4.171390 
# 
# 
# High freq. dielectric constant tensor:
#      x y z
#    x 1.885300 0.000000 -0.001470 
#    y 0.000000 1.876860 0.000000 
#    z -0.001470 0.000000 1.884450 
# 
# From -- ./inp_files/19945.got.cif
#   From: 2010.06.25/outbox.cif.g09.slc.cpg/sg13_10_cif.got.tgz:19945.got - 2010.06.28 04:50:58.
