data_PCOD8122517
_publ_section_title
;
Structure prediction by ZEFSAII (Michael W. Deem and Ramdas Pophale) SiO2 
 PCOD8122517
Probable space group: P 2/C
;
_chemical_formula_sum "Si O2"
_cell_formula_units_Z 22
_cell_length_a 21.067975
_cell_length_b 9.406252
_cell_length_c 14.100370
_cell_angle_alpha 90.000000
_cell_angle_beta 158.485212
_cell_angle_gamma 90.000000
_cell_volume 1024.778010
_symmetry_space_group_name_H-M "P 2/C"
_symmetry_group_IT_number 13
_symmetry_cell_setting 'monoclinic'
loop_
_space_group_symop_operation_xyz
x,y,z
-x,y,1/2-z
-x,-y,-z
x,-y,1/2+z
loop_
_atom_site_type_symbol
_atom_site_label
_atom_site_fract_x
_atom_site_fract_y
_atom_site_fract_z
Si Si1 0.928327 0.552475 0.499433
Si Si2 0.544518 0.464580 0.455585
Si Si3 0.123244 0.816824 0.741531
Si Si4 0.500000 0.761290 0.750000
Si Si5 0.000000 0.676854 0.250000
Si Si6 0.500000 0.292720 0.750000
Si Si7 0.138251 0.132957 0.787945
O O1 0.735271 0.600578 0.210028
O O2 0.000000 0.500000 0.500000
O O3 0.047703 0.685754 0.700306
O O4 0.907691 0.427243 0.547254
O O5 0.500000 0.500000 0.500000
O O6 0.443297 0.337899 0.261352
O O7 0.507149 0.612605 0.353270
O O8 0.015373 0.810538 0.493330
O O9 0.097559 0.968423 0.756622
O O10 0.328010 0.802244 0.009825
O O11 0.326618 0.856850 0.497994
O O12 0.865628 0.777391 0.119654
#
# Coordination Sequence:
#
# PCOD8122517 Si02
#       7
#     4   4   4   2   2   2   4
#     4  12  22  43  67  97 134 176 225 278 334 395
#     4  11  23  37  63 101 130 165 226 280 329 389
#     4  11  24  44  68  96 135 184 218 274 336 404
#     4  11  21  42  66  96 132 182 216 276 336 404
#     4  12  24  40  72 102 132 174 228 280 330 404
#     4  11  23  42  64  96 138 172 226 278 332 394
#     4  11  24  44  69  97 139 176 225 273 343 401
#
# _framework density 21.468063999999998
#
# number of rings (size 3 to 8) (size 9 to 14) (size 15 to 20)
#    0.000    0.727    5.455    1.636    5.091    0.727 
#    0.000    0.000    0.000    6.545    0.000    0.000 
#    0.000    0.000    0.000    0.000    0.000    0.000 
#
# Total GULP energy -272608.130194 kJ/mol
# GULP energy per Si atom -12391.278645 kJ/mol
# Density = 2.141920 g / cm^3
# Si number density = 21.468064 Si / 1000 Ang^3
#
#
#
# Elastic Constant Matrix: (Units=GPa)
#
#
# Indices 1 2 3 4 5 6 
#
# 1 110.9564 47.4150 40.3004 0.0000 -8.0659 0.0000
# 2 47.4150 146.5310 36.2838 0.0000 -1.8753 0.0000
# 3 40.3004 36.2838 129.1222 0.0000 25.4834 0.0000
# 4 0.0000 0.0000 0.0000 26.4042 0.0000 -3.5122
# 5 -8.0659 -1.8753 25.4834 0.0000 37.9858 0.0000
# 6 0.0000 0.0000 0.0000 -3.5122 0.0000 26.7060
#
#
#
# Elastic Compliance Matrix: (Units=1/GPa)
#
#
# Indices 1 2 3 4 5 6 
#
# 1 0.012036 -0.002850 -0.003956 0.000000 0.005069 0.000000
# 2 -0.002850 0.008146 -0.001567 0.000000 0.000848 0.000000
# 3 -0.003956 -0.001567 0.011066 0.000000 -0.008341 0.000000
# 4 0.000000 0.000000 0.000000 0.038547 0.000000 0.005069
# 5 0.005069 0.000848 -0.008341 0.000000 0.033039 0.000000
# 6 0.000000 0.000000 0.000000 0.005069 0.000000 0.038112
#
#
# Mechanical properties :
#
#
# Convention : Reuss Voigt Hill
#
# Bulk Modulus (GPa) = 68.95902 70.51199 69.73551
# Shear Modulus (GPa) = 30.76453 35.72656 33.24555
#
# Velocity S-wave (km/s) = 3.78965 4.08385 3.93950
# Velocity P-wave (km/s) = 7.16520 7.42654 7.29704
#
# Compressibility (1/GPa) = 0.01450137
#
# Stress axis : x y z
#
# Youngs Moduli (GPa) = 83.08515 122.76630 90.36910
#
# Poissons Ratio (x) = 0.34990 0.35750
# Poissons Ratio (y) = 0.23680 0.14158
# Poissons Ratio (z) = 0.32869 0.19234
#
# Static dielectric constant tensor:
#      x y z
#    x 3.847520 0.000000 -0.138220 
#    y 0.000000 4.129210 0.000000 
#    z -0.138220 0.000000 4.031050 
# 
# 
# High freq. dielectric constant tensor:
#      x y z
#    x 1.822440 0.000000 0.007850 
#    y 0.000000 1.852220 0.000000 
#    z 0.007850 0.000000 1.851560 
# 
# From -- ./inp_files/58770.got.cif
#   From: 2010.06.25/outbox.cif.g09.slc.cpg/sg13_30_cif.got.tgz:58770.got - 2010.06.28 04:50:58.
