data_PCOD8122055
_publ_section_title
;
Structure prediction by ZEFSAII (Michael W. Deem and Ramdas Pophale) SiO2 
 PCOD8122055
Probable space group: P 2/C
;
_chemical_formula_sum "Si O2"
_cell_formula_units_Z 20
_cell_length_a 19.172780
_cell_length_b 5.060959
_cell_length_c 9.269885
_cell_angle_alpha 90.000000
_cell_angle_beta 108.470220
_cell_angle_gamma 90.000000
_cell_volume 853.147850
_symmetry_space_group_name_H-M "P 2/C"
_symmetry_group_IT_number 13
_symmetry_cell_setting 'monoclinic'
loop_
_space_group_symop_operation_xyz
x,y,z
-x,y,1/2-z
-x,-y,-z
x,-y,1/2+z
loop_
_atom_site_type_symbol
_atom_site_label
_atom_site_fract_x
_atom_site_fract_y
_atom_site_fract_z
Si Si1 0.373235 0.551964 0.640510
Si Si2 0.862115 0.240986 0.833999
Si Si3 0.915002 0.742186 0.698524
Si Si4 0.426388 0.960557 0.038961
Si Si5 0.698048 0.259574 0.658607
O O1 0.421727 0.819770 0.665120
O O2 0.344857 0.479774 0.777666
O O3 0.298379 0.598728 0.495539
O O4 0.425526 0.325278 0.609359
O O5 0.873350 0.523278 0.765866
O O6 0.775877 0.170381 0.772424
O O7 0.906562 0.022167 0.773209
O O8 0.885657 0.244365 0.016013
O O9 0.000000 0.664269 0.750000
O O10 0.354769 0.001599 0.887339
O O11 0.500000 0.000000 0.000000
#
# Coordination Sequence:
#
# PCOD8122055 Si02
#       5
#     4   4   4   4   4
#     4  10  24  42  65  93 132 170 225 274 336 398
#     4  12  26  43  76 103 146 183 237 289 352 415
#     4  12  26  48  72 106 143 188 233 287 354 426
#     4  10  24  43  65  93 134 174 225 272 341 398
#     4  10  26  41  70  96 139 168 233 272 346 394
#
# _framework density 23.442596999999999
#
# number of rings (size 3 to 8) (size 9 to 14) (size 15 to 20)
#    1.200    0.000    0.000    4.800    8.400    0.800 
#    0.000    0.000    0.000    0.000    0.000    0.000 
#    0.000    0.000    0.000    0.000    0.000    0.000 
#
# Total GULP energy -247845.693881 kJ/mol
# GULP energy per Si atom -12392.284694 kJ/mol
# Density = 2.338924 g / cm^3
# Si number density = 23.442597 Si / 1000 Ang^3
#
#
#
# Elastic Constant Matrix: (Units=GPa)
#
#
# Indices 1 2 3 4 5 6 
#
# 1 105.8332 -2.1720 10.5504 0.0000 16.7409 0.0000
# 2 -2.1720 95.9504 21.0148 0.0000 1.5895 0.0000
# 3 10.5504 21.0148 125.1987 0.0000 -1.0761 0.0000
# 4 0.0000 0.0000 0.0000 24.7830 0.0000 -18.5311
# 5 16.7409 1.5895 -1.0761 0.0000 31.4227 0.0000
# 6 0.0000 0.0000 0.0000 -18.5311 0.0000 36.1015
#
#
#
# Elastic Compliance Matrix: (Units=1/GPa)
#
#
# Indices 1 2 3 4 5 6 
#
# 1 0.010453 0.000554 -0.001022 0.000000 -0.005632 0.000000
# 2 0.000554 0.010861 -0.001877 0.000000 -0.000909 0.000000
# 3 -0.001022 -0.001877 0.008397 0.000000 0.000927 0.000000
# 4 0.000000 0.000000 0.000000 0.065484 0.000000 0.033613
# 5 -0.005632 -0.000909 0.000927 0.000000 0.034902 0.000000
# 6 0.000000 0.000000 0.000000 0.033613 0.000000 0.044954
#
#
# Mechanical properties :
#
#
# Convention : Reuss Voigt Hill
#
# Bulk Modulus (GPa) = 39.97032 42.86317 41.41674
# Shear Modulus (GPa) = 26.58415 38.30070 32.44243
#
# Velocity S-wave (km/s) = 3.37116 4.04642 3.72413
# Velocity P-wave (km/s) = 5.67805 6.33683 6.01646
#
# Compressibility (1/GPa) = 0.02501857
#
# Stress axis : x y z
#
# Youngs Moduli (GPa) = 95.66648 92.07382 119.09648
#
# Poissons Ratio (x) = -0.05099 0.12174
# Poissons Ratio (y) = -0.05298 0.22360
# Poissons Ratio (z) = 0.09779 0.17287
#
# Static dielectric constant tensor:
#      x y z
#    x 4.033280 0.000000 0.082530 
#    y 0.000000 4.211290 0.000000 
#    z 0.082530 0.000000 4.370180 
# 
# 
# High freq. dielectric constant tensor:
#      x y z
#    x 1.920440 0.000000 -0.000970 
#    y 0.000000 1.937570 0.000000 
#    z -0.000970 0.000000 1.942740 
# 
# From -- ./inp_files/22271.got.cif
#   From: 2010.06.25/outbox.cif.g09.slc.cpg/sg13_12_cif.got.tgz:22271.got - 2010.06.28 04:50:58.
