data_PCOD8122622
_publ_section_title
;
Structure prediction by ZEFSAII (Michael W. Deem and Ramdas Pophale) SiO2 
 PCOD8122622
Probable space group: P 2/C
;
_chemical_formula_sum "Si O2"
_cell_formula_units_Z 24
_cell_length_a 11.365261
_cell_length_b 8.439704
_cell_length_c 23.161082
_cell_angle_alpha 90.000000
_cell_angle_beta 150.388611
_cell_angle_gamma 90.000000
_cell_volume 1097.724203
_symmetry_space_group_name_H-M "P 2/C"
_symmetry_group_IT_number 13
_symmetry_cell_setting 'monoclinic'
loop_
_space_group_symop_operation_xyz
x,y,z
-x,y,1/2-z
-x,-y,-z
x,-y,1/2+z
loop_
_atom_site_type_symbol
_atom_site_label
_atom_site_fract_x
_atom_site_fract_y
_atom_site_fract_z
Si Si1 0.043104 0.306638 0.667090
Si Si2 0.785367 0.820016 0.367261
Si Si3 0.481519 0.215935 0.036539
Si Si4 0.046935 0.131927 0.438949
Si Si5 0.896199 0.653575 0.767043
Si Si6 0.459895 0.874865 0.406145
O O1 0.129991 0.324510 0.637857
O O2 0.014410 0.476548 0.684221
O O3 0.235472 0.196376 0.778928
O O4 0.795452 0.213751 0.565916
O O5 0.500000 0.826121 0.250000
O O6 0.924889 0.785456 0.486330
O O7 0.876282 0.980840 0.374247
O O8 0.611567 0.344923 0.133018
O O9 0.612499 0.047490 0.101983
O O10 0.520619 0.247118 0.984632
O O11 0.319079 0.091500 0.541078
O O12 0.946152 0.242751 0.345242
O O13 0.000000 0.719145 0.750000
#
# Coordination Sequence:
#
# PCOD8122622 Si02
#       6
#     4   4   4   4   4   4
#     4  12  26  44  68 105 140 186 233 278 351 419
#     4  11  24  45  73  99 136 183 239 293 332 405
#     4  11  25  41  70 104 140 181 231 289 349 408
#     4  11  24  44  72 101 133 183 236 287 345 405
#     4  12  27  44  69 104 151 181 221 282 360 420
#     4  11  22  42  71 100 138 177 236 294 339 404
#
# _framework density 21.863415
#
# number of rings (size 3 to 8) (size 9 to 14) (size 15 to 20)
#    0.000    0.667    5.000    2.500    2.333    2.000 
#    0.000    0.833    0.000    0.000    0.000    0.000 
#    0.000    0.000    0.000    0.000    0.000    0.000 
#
# Total GULP energy -297424.027505 kJ/mol
# GULP energy per Si atom -12392.667813 kJ/mol
# Density = 2.181365 g / cm^3
# Si number density = 21.863415 Si / 1000 Ang^3
#
#
#
# Elastic Constant Matrix: (Units=GPa)
#
#
# Indices 1 2 3 4 5 6 
#
# 1 140.2968 33.3636 56.0362 0.0000 -20.6402 0.0000
# 2 33.3636 60.2693 34.7827 0.0000 -7.5996 0.0000
# 3 56.0362 34.7827 121.7313 0.0000 -19.6933 0.0000
# 4 0.0000 0.0000 0.0000 15.6853 0.0000 -7.4954
# 5 -20.6402 -7.5996 -19.6933 0.0000 42.8690 0.0000
# 6 0.0000 0.0000 0.0000 -7.4954 0.0000 30.7318
#
#
#
# Elastic Compliance Matrix: (Units=1/GPa)
#
#
# Indices 1 2 3 4 5 6 
#
# 1 0.009477 -0.003165 -0.003036 0.000000 0.002607 0.000000
# 2 -0.003165 0.020964 -0.004514 0.000000 0.000119 0.000000
# 3 -0.003036 -0.004514 0.011382 0.000000 0.002967 0.000000
# 4 0.000000 0.000000 0.000000 0.072164 0.000000 0.017601
# 5 0.002607 0.000119 0.002967 0.000000 0.025966 0.000000
# 6 0.000000 0.000000 0.000000 0.017601 0.000000 0.036832
#
#
# Mechanical properties :
#
#
# Convention : Reuss Voigt Hill
#
# Bulk Modulus (GPa) = 49.03736 63.40694 56.22215
# Shear Modulus (GPa) = 24.38854 31.06487 27.72671
#
# Velocity S-wave (km/s) = 3.34353 3.77352 3.56501
# Velocity P-wave (km/s) = 6.11418 6.93183 6.53581
#
# Compressibility (1/GPa) = 0.02039262
#
# Stress axis : x y z
#
# Youngs Moduli (GPa) = 105.52249 47.69979 87.85607
#
# Poissons Ratio (x) = 0.15097 0.26675
# Poissons Ratio (y) = 0.33398 0.39659
# Poissons Ratio (z) = 0.32039 0.21532
#
# Static dielectric constant tensor:
#      x y z
#    x 4.333620 0.000000 -0.265870 
#    y 0.000000 3.606350 0.000000 
#    z -0.265870 0.000000 4.181810 
# 
# 
# High freq. dielectric constant tensor:
#      x y z
#    x 1.874310 0.000000 -0.009810 
#    y 0.000000 1.828800 0.000000 
#    z -0.009810 0.000000 1.882670 
# 
# From -- ./inp_files/86275.got.cif
#   From: 2010.06.25/outbox.cif.g09.slc.cpg/sg13_44_cif.got.tgz:86275.got - 2010.06.28 04:50:58.
