data_PCOD8122363
_publ_section_title
;
Structure prediction by ZEFSAII (Michael W. Deem and Ramdas Pophale) SiO2 
 PCOD8122363
Probable space group: P 2/C
;
_chemical_formula_sum "Si O2"
_cell_formula_units_Z 16
_cell_length_a 26.517416
_cell_length_b 5.574474
_cell_length_c 8.921986
_cell_angle_alpha 90.000000
_cell_angle_beta 153.689265
_cell_angle_gamma 90.000000
_cell_volume 584.567608
_symmetry_space_group_name_H-M "P 2/C"
_symmetry_group_IT_number 13
_symmetry_cell_setting 'monoclinic'
loop_
_space_group_symop_operation_xyz
x,y,z
-x,y,1/2-z
-x,-y,-z
x,-y,1/2+z
loop_
_atom_site_type_symbol
_atom_site_label
_atom_site_fract_x
_atom_site_fract_y
_atom_site_fract_z
Si Si1 0.806709 0.176507 0.800734
Si Si2 0.500000 0.507911 0.250000
Si Si3 0.000000 0.890026 0.250000
Si Si4 0.874653 0.527662 0.734041
Si Si5 0.599581 0.184818 0.764391
O O1 0.821071 0.293805 0.672539
O O2 0.713184 0.970263 0.555315
O O3 0.785358 0.386858 0.866706
O O4 0.929162 0.061016 0.175077
O O5 0.585937 0.355901 0.583440
O O6 0.411842 0.664202 0.113081
O O7 0.106319 0.738649 0.595759
O O8 0.000000 0.500000 0.000000
O O9 0.500000 0.000000 0.500000
#
# Coordination Sequence:
#
# PCOD8122363 Si02
#       5
#     4   2   2   4   4
#     4  12  28  48  83 117 167 221 276 342 427 497
#     4  10  26  58  82 116 172 202 296 346 420 496
#     4  12  24  46  76 114 162 218 270 342 418 502
#     4  12  24  51  75 120 166 211 277 343 415 509
#     4  11  27  54  85 123 159 224 273 356 420 500
#
# _framework density 27.370657999999999
#
# number of rings (size 3 to 8) (size 9 to 14) (size 15 to 20)
#    0.000    0.500    5.000    1.500    0.000   10.000 
#    4.500    5.000    0.000    0.000    0.000    0.000 
#    0.000    0.000    0.000    0.000    0.000    0.000 
#
# Total GULP energy -198267.772814 kJ/mol
# GULP energy per Si atom -12391.735801 kJ/mol
# Density = 2.730836 g / cm^3
# Si number density = 27.370658 Si / 1000 Ang^3
#
#
#
# Elastic Constant Matrix: (Units=GPa)
#
#
# Indices 1 2 3 4 5 6 
#
# 1 182.2709 111.6163 82.0915 0.0000 -2.1250 0.0000
# 2 111.6163 175.2803 71.6440 0.0000 11.8062 0.0000
# 3 82.0915 71.6440 118.7905 0.0000 12.1193 0.0000
# 4 0.0000 0.0000 0.0000 60.7280 0.0000 17.8779
# 5 -2.1250 11.8062 12.1193 0.0000 42.8464 0.0000
# 6 0.0000 0.0000 0.0000 17.8779 0.0000 51.5094
#
#
#
# Elastic Compliance Matrix: (Units=1/GPa)
#
#
# Indices 1 2 3 4 5 6 
#
# 1 0.010811 -0.005196 -0.004673 0.000000 0.003290 0.000000
# 2 -0.005196 0.010097 -0.002254 0.000000 -0.002402 0.000000
# 3 -0.004673 -0.002254 0.013352 0.000000 -0.003388 0.000000
# 4 0.000000 0.000000 0.000000 0.018341 0.000000 -0.006366
# 5 0.003290 -0.002402 -0.003388 0.000000 0.025122 0.000000
# 6 0.000000 0.000000 0.000000 -0.006366 0.000000 0.021623
#
#
# Mechanical properties :
#
#
# Convention : Reuss Voigt Hill
#
# Bulk Modulus (GPa) = 99.85053 111.89391 105.87222
# Shear Modulus (GPa) = 39.39149 45.08276 42.23712
#
# Velocity S-wave (km/s) = 3.79778 4.06288 3.93256
# Velocity P-wave (km/s) = 7.46933 7.93593 7.70616
#
# Compressibility (1/GPa) = 0.01001497
#
# Stress axis : x y z
#
# Youngs Moduli (GPa) = 92.49707 99.04073 74.89275
#
# Poissons Ratio (x) = 0.51461 0.34998
# Poissons Ratio (y) = 0.48061 0.16879
# Poissons Ratio (z) = 0.43224 0.22321
#
# Static dielectric constant tensor:
#      x y z
#    x 5.116980 0.000000 -0.449980 
#    y 0.000000 5.440840 0.000000 
#    z -0.449980 0.000000 4.843060 
# 
# 
# High freq. dielectric constant tensor:
#      x y z
#    x 2.117100 0.000000 0.007500 
#    y 0.000000 2.131030 0.000000 
#    z 0.007500 0.000000 2.088580 
# 
# From -- ./inp_files/14203.got.cif
#   From: 2010.06.25/outbox.cif.g09.slc.cpg/sg13_8_cif.got.tgz:14203.got - 2010.06.28 04:50:58.
