data_PCOD8122058
_publ_section_title
;
Structure prediction by ZEFSAII (Michael W. Deem and Ramdas Pophale) SiO2 
 PCOD8122058
Probable space group: P 2/C
;
_chemical_formula_sum "Si O2"
_cell_formula_units_Z 20
_cell_length_a 16.212409
_cell_length_b 11.111899
_cell_length_c 12.899487
_cell_angle_alpha 90.000000
_cell_angle_beta 155.639334
_cell_angle_gamma 90.000000
_cell_volume 958.540058
_symmetry_space_group_name_H-M "P 2/C"
_symmetry_group_IT_number 13
_symmetry_cell_setting 'monoclinic'
loop_
_space_group_symop_operation_xyz
x,y,z
-x,y,1/2-z
-x,-y,-z
x,-y,1/2+z
loop_
_atom_site_type_symbol
_atom_site_label
_atom_site_fract_x
_atom_site_fract_y
_atom_site_fract_z
Si Si1 0.456019 0.332997 0.461919
Si Si2 0.784272 0.028743 0.555667
Si Si3 0.556720 0.072605 0.965466
Si Si4 0.775930 0.455133 0.719399
Si Si5 0.770780 0.300496 0.509309
O O1 0.409385 0.209078 0.463927
O O2 0.692587 0.359424 0.710611
O O3 0.369517 0.430486 0.442490
O O4 0.345645 0.344844 0.224758
O O5 0.633992 0.938753 0.326507
O O6 0.762974 0.980667 0.650267
O O7 0.000000 0.014706 0.750000
O O8 0.701513 0.165451 0.459844
O O9 0.500000 0.000000 0.000000
O O10 0.743092 0.395032 0.570031
O O11 0.000000 0.500000 0.000000
O O12 0.000000 0.290684 0.750000
#
# Coordination Sequence:
#
# PCOD8122058 Si02
#       5
#     4   4   4   4   4
#     4  11  24  43  67  97 131 175 221 277 335 402
#     4  10  24  42  66 100 135 177 224 285 340 410
#     4  11  22  42  69  99 132 175 230 278 346 405
#     4  11  24  42  66  99 131 173 223 276 332 402
#     4  11  21  43  70  95 130 177 223 269 340 403
#
# _framework density 20.865065000000001
#
# number of rings (size 3 to 8) (size 9 to 14) (size 15 to 20)
#    0.000    1.200    4.000    1.800    2.800    2.400 
#   14.400    1.000    0.000    0.000    0.000    0.000 
#    0.000    0.000    0.000    0.000    0.000    0.000 
#
# Total GULP energy -247802.317249 kJ/mol
# GULP energy per Si atom -12390.115862 kJ/mol
# Density = 2.081758 g / cm^3
# Si number density = 20.865065 Si / 1000 Ang^3
#
#
#
# Elastic Constant Matrix: (Units=GPa)
#
#
# Indices 1 2 3 4 5 6 
#
# 1 156.2796 71.4046 46.4000 0.0000 9.2458 0.0000
# 2 71.4046 137.2135 24.2198 0.0000 -12.3998 0.0000
# 3 46.4000 24.2198 85.5779 0.0000 11.2007 0.0000
# 4 0.0000 0.0000 0.0000 26.0298 0.0000 -4.9439
# 5 9.2458 -12.3998 11.2007 0.0000 38.6991 0.0000
# 6 0.0000 0.0000 0.0000 -4.9439 0.0000 57.4180
#
#
#
# Elastic Compliance Matrix: (Units=1/GPa)
#
#
# Indices 1 2 3 4 5 6 
#
# 1 0.009788 -0.004710 -0.003607 0.000000 -0.002804 0.000000
# 2 -0.004710 0.010341 -0.000991 0.000000 0.004726 0.000000
# 3 -0.003607 -0.000991 0.014396 0.000000 -0.003622 0.000000
# 4 0.000000 0.000000 0.000000 0.039056 0.000000 0.003363
# 5 -0.002804 0.004726 -0.003622 0.000000 0.029073 0.000000
# 6 0.000000 0.000000 0.000000 0.003363 0.000000 0.017706
#
#
# Mechanical properties :
#
#
# Convention : Reuss Voigt Hill
#
# Bulk Modulus (GPa) = 62.86303 73.67999 68.27151
# Shear Modulus (GPa) = 34.65533 40.23251 37.44392
#
# Velocity S-wave (km/s) = 4.07987 4.39592 4.24084
# Velocity P-wave (km/s) = 7.23792 7.82015 7.53466
#
# Compressibility (1/GPa) = 0.01590760
#
# Stress axis : x y z
#
# Youngs Moduli (GPa) = 102.17024 96.70214 69.46592
#
# Poissons Ratio (x) = 0.45547 0.25055
# Poissons Ratio (y) = 0.48123 0.06887
# Poissons Ratio (z) = 0.36851 0.09587
#
# Static dielectric constant tensor:
#      x y z
#    x 4.625710 0.000000 -0.081310 
#    y 0.000000 3.946820 0.000000 
#    z -0.081310 0.000000 3.954170 
# 
# 
# High freq. dielectric constant tensor:
#      x y z
#    x 1.844890 0.000000 0.017170 
#    y 0.000000 1.825170 0.000000 
#    z 0.017170 0.000000 1.799730 
# 
# From -- ./inp_files/37226.got.cif
#   From: 2010.06.25/outbox.cif.g09.slc.cpg/sg13_19_cif.got.tgz:37226.got - 2010.06.28 04:50:58.
