data_PCOD8122957
_publ_section_title
;
Structure prediction by ZEFSAII (Michael W. Deem and Ramdas Pophale) SiO2 
 PCOD8122957
Probable space group: P 2/C
;
_chemical_formula_sum "Si O2"
_cell_formula_units_Z 28
_cell_length_a 18.840631
_cell_length_b 6.530028
_cell_length_c 12.725599
_cell_angle_alpha 90.000000
_cell_angle_beta 123.622508
_cell_angle_gamma 90.000000
_cell_volume 1303.704783
_symmetry_space_group_name_H-M "P 2/C"
_symmetry_group_IT_number 13
_symmetry_cell_setting 'monoclinic'
loop_
_space_group_symop_operation_xyz
x,y,z
-x,y,1/2-z
-x,-y,-z
x,-y,1/2+z
loop_
_atom_site_type_symbol
_atom_site_label
_atom_site_fract_x
_atom_site_fract_y
_atom_site_fract_z
Si Si1 0.929250 0.353630 0.991428
Si Si2 0.000000 0.163295 0.250000
Si Si3 0.777701 0.379928 0.306956
Si Si4 0.130522 0.013939 0.704908
Si Si5 0.633104 0.265016 0.343671
Si Si6 0.702301 0.260773 0.629294
Si Si7 0.500000 0.608077 0.250000
Si Si8 0.444669 0.078340 0.859265
O O1 0.836576 0.456245 0.914298
O O2 0.923235 0.134714 0.927629
O O3 0.953296 0.313183 0.130746
O O4 0.000000 0.500000 0.000000
O O5 0.931025 0.016619 0.247000
O O6 0.838003 0.207635 0.307400
O O7 0.717784 0.277687 0.344180
O O8 0.721721 0.499292 0.171785
O O9 0.208990 0.145792 0.808876
O O10 0.653842 0.217471 0.481191
O O11 0.585571 0.480069 0.308184
O O12 0.571944 0.094289 0.242559
O O13 0.645946 0.165764 0.676548
O O14 0.496421 0.746183 0.142830
O O15 0.500000 0.000000 0.000000
#
# Coordination Sequence:
#
# PCOD8122957 Si02
#       8
#     4   2   4   4   4   4   2   4
#     4  11  26  46  69 106 143 182 241 291 351 425
#     4  12  26  44  76 100 140 194 226 294 356 414
#     4  11  25  47  69 101 144 185 237 298 350 422
#     4  11  26  47  70 104 143 185 239 291 353 422
#     4  12  27  44  74 103 139 194 233 291 360 421
#     4  11  26  45  71 103 139 187 237 292 352 424
#     4  12  26  46  70 104 138 184 240 282 358 424
#     4  12  26  47  70 104 145 183 239 297 352 427
#
# _framework density 21.477256000000001
#
# number of rings (size 3 to 8) (size 9 to 14) (size 15 to 20)
#    0.000    0.571    4.286    2.571    6.000    2.857 
#    0.000    0.000    0.000    0.000    0.000    0.000 
#    0.000    0.000    0.000    0.000    0.000    0.000 
#
# Total GULP energy -347299.575316 kJ/mol
# GULP energy per Si atom -12403.556261 kJ/mol
# Density = 2.142837 g / cm^3
# Si number density = 21.477256 Si / 1000 Ang^3
#
#
#
# Elastic Constant Matrix: (Units=GPa)
#
#
# Indices 1 2 3 4 5 6 
#
# 1 122.3729 47.5835 20.4123 0.0000 -12.7934 0.0000
# 2 47.5835 129.5068 60.8388 0.0000 -7.3091 0.0000
# 3 20.4123 60.8388 151.7159 0.0000 -7.9190 0.0000
# 4 0.0000 0.0000 0.0000 33.6588 0.0000 0.2940
# 5 -12.7934 -7.3091 -7.9190 0.0000 32.4181 0.0000
# 6 0.0000 0.0000 0.0000 0.2940 0.0000 49.7379
#
#
#
# Elastic Compliance Matrix: (Units=1/GPa)
#
#
# Indices 1 2 3 4 5 6 
#
# 1 0.009842 -0.003565 0.000270 0.000000 0.003146 0.000000
# 2 -0.003565 0.010854 -0.003868 0.000000 0.000095 0.000000
# 3 0.000270 -0.003868 0.008170 0.000000 0.001230 0.000000
# 4 0.000000 0.000000 0.000000 0.029711 0.000000 -0.000176
# 5 0.003146 0.000095 0.001230 0.000000 0.032411 0.000000
# 6 0.000000 0.000000 0.000000 -0.000176 0.000000 0.020106
#
#
# Mechanical properties :
#
#
# Convention : Reuss Voigt Hill
#
# Bulk Modulus (GPa) = 68.77880 73.47389 71.12634
# Shear Modulus (GPa) = 38.38247 41.48035 39.93141
#
# Velocity S-wave (km/s) = 4.23202 4.39949 4.31657
# Velocity P-wave (km/s) = 7.48155 7.75189 7.61792
#
# Compressibility (1/GPa) = 0.01453936
#
# Stress axis : x y z
#
# Youngs Moduli (GPa) = 101.60552 92.13229 122.39598
#
# Poissons Ratio (x) = 0.32848 -0.03302
# Poissons Ratio (y) = 0.36226 0.47341
# Poissons Ratio (z) = -0.02741 0.35635
#
# Static dielectric constant tensor:
#      x y z
#    x 4.049620 0.000000 0.057140 
#    y 0.000000 4.127550 0.000000 
#    z 0.057140 0.000000 3.912490 
# 
# 
# High freq. dielectric constant tensor:
#      x y z
#    x 1.864620 0.000000 0.005070 
#    y 0.000000 1.854210 0.000000 
#    z 0.005070 0.000000 1.842550 
# 
# From -- ./inp_files/40073.got.cif
#   From: 2010.06.25/outbox.cif.g09.slc.cpg/sg13_21_cif.got.tgz:40073.got - 2010.06.28 04:50:58.
