data_PCOD8122288
_publ_section_title
;
Structure prediction by ZEFSAII (Michael W. Deem and Ramdas Pophale) SiO2 
 PCOD8122288
Probable space group: P 2/C
;
_chemical_formula_sum "Si O2"
_cell_formula_units_Z 16
_cell_length_a 7.726546
_cell_length_b 9.627172
_cell_length_c 11.155235
_cell_angle_alpha 90.000000
_cell_angle_beta 123.107651
_cell_angle_gamma 90.000000
_cell_volume 695.061538
_symmetry_space_group_name_H-M "P 2/C"
_symmetry_group_IT_number 13
_symmetry_cell_setting 'monoclinic'
loop_
_space_group_symop_operation_xyz
x,y,z
-x,y,1/2-z
-x,-y,-z
x,-y,1/2+z
loop_
_atom_site_type_symbol
_atom_site_label
_atom_site_fract_x
_atom_site_fract_y
_atom_site_fract_z
Si Si1 0.219398 0.935205 0.563899
Si Si2 0.500000 0.164624 0.750000
Si Si3 0.000000 0.504993 0.250000
Si Si4 0.665568 0.277193 0.581749
Si Si5 0.671857 0.318418 0.229980
O O1 0.232599 0.857050 0.441938
O O2 0.276509 0.832674 0.695577
O O3 0.368880 0.066939 0.612902
O O4 0.000000 0.000000 0.500000
O O5 0.642439 0.257762 0.716215
O O6 0.174032 0.597289 0.381838
O O7 0.118426 0.407339 0.198647
O O8 0.437766 0.306269 0.441301
O O9 0.500000 0.392305 0.250000
#
# Coordination Sequence:
#
# PCOD8122288 Si02
#       5
#     4   2   2   4   4
#     4  11  24  44  73 101 138 183 234 288 357 420
#     4  12  24  44  72  98 146 180 226 302 342 430
#     4  12  26  44  74 100 140 190 240 280 350 426
#     4  11  25  47  65 108 138 185 236 285 358 408
#     4  10  25  47  70 103 140 183 232 296 345 414
#
# _framework density 23.019544
#
# number of rings (size 3 to 8) (size 9 to 14) (size 15 to 20)
#    0.000    1.000    3.750    3.000    5.250    4.000 
#    0.000    0.000    0.000    0.000    0.000    0.000 
#    0.000    0.000    0.000    0.000    0.000    0.000 
#
# Total GULP energy -198368.052959 kJ/mol
# GULP energy per Si atom -12398.003310 kJ/mol
# Density = 2.296715 g / cm^3
# Si number density = 23.019544 Si / 1000 Ang^3
#
#
#
# Elastic Constant Matrix: (Units=GPa)
#
#
# Indices 1 2 3 4 5 6 
#
# 1 175.6235 73.8498 45.8644 0.0000 3.8576 0.0000
# 2 73.8498 91.3479 37.7809 0.0000 2.6218 0.0000
# 3 45.8644 37.7809 80.8173 0.0000 -4.2338 0.0000
# 4 0.0000 0.0000 0.0000 22.2014 0.0000 10.0965
# 5 3.8576 2.6218 -4.2338 0.0000 40.9758 0.0000
# 6 0.0000 0.0000 0.0000 10.0965 0.0000 55.7901
#
#
#
# Elastic Compliance Matrix: (Units=1/GPa)
#
#
# Indices 1 2 3 4 5 6 
#
# 1 0.008921 -0.006304 -0.002150 0.000000 -0.000659 0.000000
# 2 -0.006304 0.018122 -0.004951 0.000000 -0.001078 0.000000
# 3 -0.002150 -0.004951 0.016022 0.000000 0.002175 0.000000
# 4 0.000000 0.000000 0.000000 0.049082 0.000000 -0.008882
# 5 -0.000659 -0.001078 0.002175 0.000000 0.024760 0.000000
# 6 0.000000 0.000000 0.000000 -0.008882 0.000000 0.019532
#
#
# Mechanical properties :
#
#
# Convention : Reuss Voigt Hill
#
# Bulk Modulus (GPa) = 61.51783 73.64210 67.57997
# Shear Modulus (GPa) = 29.64433 36.47970 33.06202
#
# Velocity S-wave (km/s) = 3.59247 3.98518 3.79391
# Velocity P-wave (km/s) = 6.63250 7.29631 6.97231
#
# Compressibility (1/GPa) = 0.01625545
#
# Stress axis : x y z
#
# Youngs Moduli (GPa) = 112.09897 55.18187 62.41353
#
# Poissons Ratio (x) = 0.34785 0.13420
# Poissons Ratio (y) = 0.70664 0.30900
# Poissons Ratio (z) = 0.24103 0.27319
#
# Static dielectric constant tensor:
#      x y z
#    x 4.236950 0.000000 0.267660 
#    y 0.000000 4.203510 0.000000 
#    z 0.267660 0.000000 4.100300 
# 
# 
# High freq. dielectric constant tensor:
#      x y z
#    x 1.919390 0.000000 0.012840 
#    y 0.000000 1.911040 0.000000 
#    z 0.012840 0.000000 1.896430 
# 
# From -- ./inp_files/27575.got.cif
#   From: 2010.06.25/outbox.cif.g09.slc.cpg/sg13_14_cif.got.tgz:27575.got - 2010.06.28 04:50:58.
