data_PCOD8122788
_publ_section_title
;
Structure prediction by ZEFSAII (Michael W. Deem and Ramdas Pophale) SiO2 
 PCOD8122788
Probable space group: P 2/C
;
_chemical_formula_sum "Si O2"
_cell_formula_units_Z 22
_cell_length_a 5.400684
_cell_length_b 12.629558
_cell_length_c 12.802926
_cell_angle_alpha 90.000000
_cell_angle_beta 85.972663
_cell_angle_gamma 90.000000
_cell_volume 871.108807
_symmetry_space_group_name_H-M "P 2/C"
_symmetry_group_IT_number 13
_symmetry_cell_setting 'monoclinic'
loop_
_space_group_symop_operation_xyz
x,y,z
-x,y,1/2-z
-x,-y,-z
x,-y,1/2+z
loop_
_atom_site_type_symbol
_atom_site_label
_atom_site_fract_x
_atom_site_fract_y
_atom_site_fract_z
Si Si1 0.206040 0.861510 0.087459
Si Si2 0.500000 0.219344 0.750000
Si Si3 0.717162 0.175570 0.138834
Si Si4 0.226599 0.307828 0.119139
Si Si5 0.874062 0.662926 0.108524
Si Si6 0.000000 0.980834 0.750000
Si Si7 0.000000 0.520448 0.750000
O O1 0.447459 0.856956 0.153531
O O2 0.104870 0.741092 0.085909
O O3 0.026682 0.947901 0.145171
O O4 0.279412 0.893288 0.968314
O O5 0.273661 0.292788 0.788035
O O6 0.450855 0.234126 0.154107
O O7 0.954829 0.253733 0.134460
O O8 0.758783 0.092926 0.233380
O O9 0.224859 0.406601 0.199403
O O10 0.276461 0.342899 0.997068
O O11 0.935860 0.545561 0.147079
#
# Coordination Sequence:
#
# PCOD8122788 Si02
#       7
#     4   2   4   4   4   2   2
#     4  11  23  45  70 110 150 190 250 311 369 446
#     4  12  18  40  76  98 152 192 242 304 378 422
#     4  11  27  49  71 107 155 198 243 309 372 443
#     4  11  27  49  71 107 155 198 243 309 372 443
#     4  11  23  45  70 110 150 190 250 311 369 446
#     4  12  24  46  76 110 144 200 256 302 374 446
#     4  12  24  46  76 110 144 200 256 302 374 446
#
# _framework density 25.25517
#
# number of rings (size 3 to 8) (size 9 to 14) (size 15 to 20)
#    0.000    0.727    5.455    1.636    0.000    5.818 
#    0.000    7.273    0.000    0.000    0.000    0.000 
#    0.000    0.000    0.000    0.000    0.000    0.000 
#
# Total GULP energy -272564.444149 kJ/mol
# GULP energy per Si atom -12389.292916 kJ/mol
# Density = 2.519769 g / cm^3
# Si number density = 25.255170 Si / 1000 Ang^3
#
#
#
# Elastic Constant Matrix: (Units=GPa)
#
#
# Indices 1 2 3 4 5 6 
#
# 1 115.3386 54.9878 8.2894 0.0000 10.8638 0.0000
# 2 54.9878 128.5584 68.5919 0.0000 12.4234 0.0000
# 3 8.2894 68.5919 135.9339 0.0000 29.3746 0.0000
# 4 0.0000 0.0000 0.0000 9.1290 0.0000 9.3303
# 5 10.8638 12.4234 29.3746 0.0000 36.0585 0.0000
# 6 0.0000 0.0000 0.0000 9.3303 0.0000 25.1483
#
#
#
# Elastic Compliance Matrix: (Units=1/GPa)
#
#
# Indices 1 2 3 4 5 6 
#
# 1 0.011943 -0.006565 0.003487 0.000000 -0.004177 0.000000
# 2 -0.006565 0.014275 -0.007485 0.000000 0.003157 0.000000
# 3 0.003487 -0.007485 0.012853 0.000000 -0.008942 0.000000
# 4 0.000000 0.000000 0.000000 0.176450 0.000000 -0.065465
# 5 -0.004177 0.003157 -0.008942 0.000000 0.035188 0.000000
# 6 0.000000 0.000000 0.000000 -0.065465 0.000000 0.064053
#
#
# Mechanical properties :
#
#
# Convention : Reuss Voigt Hill
#
# Bulk Modulus (GPa) = 55.72614 71.50767 63.61691
# Shear Modulus (GPa) = 14.62542 30.59794 22.61168
#
# Velocity S-wave (km/s) = 2.40907 3.48451 2.99545
# Velocity P-wave (km/s) = 5.46364 6.67567 6.09983
#
# Compressibility (1/GPa) = 0.01794490
#
# Stress axis : x y z
#
# Youngs Moduli (GPa) = 83.73190 70.05137 77.80108
#
# Poissons Ratio (x) = 0.45990 -0.27130
# Poissons Ratio (y) = 0.54971 0.58236
# Poissons Ratio (z) = -0.29198 0.52435
#
# Static dielectric constant tensor:
#      x y z
#    x 4.233010 0.000000 0.110060 
#    y 0.000000 4.663960 0.000000 
#    z 0.110060 0.000000 5.366360 
# 
# 
# High freq. dielectric constant tensor:
#      x y z
#    x 1.986910 0.000000 0.009140 
#    y 0.000000 1.999110 0.000000 
#    z 0.009140 0.000000 2.045190 
# 
# From -- ./inp_files/43722.got.cif
#   From: 2010.06.25/outbox.cif.g09.slc.cpg/sg13_22_cif.got.tgz:43722.got - 2010.06.28 04:50:58.
