data_PCOD8122725
_publ_section_title
;
Structure prediction by ZEFSAII (Michael W. Deem and Ramdas Pophale) SiO2 
 PCOD8122725
Probable space group: P 2/C
;
_chemical_formula_sum "Si O2"
_cell_formula_units_Z 30
_cell_length_a 13.095476
_cell_length_b 8.990476
_cell_length_c 13.121933
_cell_angle_alpha 90.000000
_cell_angle_beta 70.338218
_cell_angle_gamma 90.000000
_cell_volume 1454.829645
_symmetry_space_group_name_H-M "P 2/C"
_symmetry_group_IT_number 13
_symmetry_cell_setting 'monoclinic'
loop_
_space_group_symop_operation_xyz
x,y,z
-x,y,1/2-z
-x,-y,-z
x,-y,1/2+z
loop_
_atom_site_type_symbol
_atom_site_label
_atom_site_fract_x
_atom_site_fract_y
_atom_site_fract_z
Si Si1 0.886558 0.825627 0.242135
Si Si2 0.405030 0.914915 0.975432
Si Si3 0.843527 0.596257 0.568594
Si Si4 0.288156 0.648930 0.085364
Si Si5 0.206895 0.903719 0.609495
Si Si6 0.500000 0.222938 0.250000
Si Si7 0.308662 0.359861 0.196269
Si Si8 0.071513 0.731638 0.491852
O O1 0.798326 0.703857 0.302867
O O2 0.000000 0.770591 0.250000
O O3 0.856119 0.988738 0.291983
O O4 0.895743 0.828115 0.117244
O O5 0.435952 0.884929 0.848205
O O6 0.389443 0.761804 0.044417
O O7 0.500000 0.000000 0.000000
O O8 0.291859 0.005600 0.011233
O O9 0.761557 0.652528 0.510737
O O10 0.786530 0.589991 0.696648
O O11 0.879373 0.432253 0.525531
O O12 0.941983 0.713922 0.542765
O O13 0.329527 0.487492 0.105351
O O14 0.277158 0.790588 0.651085
O O15 0.116371 0.820289 0.573686
O O16 0.419832 0.333185 0.218151
#
# Coordination Sequence:
#
# PCOD8122725 Si02
#       8
#     4   4   4   4   4   2   4   4
#     4  11  24  41  64  99 139 183 219 270 337 406
#     4  11  25  48  69  98 135 179 222 290 347 405
#     4  11  23  42  70 102 138 179 223 283 331 407
#     4  11  23  45  70  99 136 173 226 280 339 401
#     4  11  27  42  68 101 139 177 228 281 341 411
#     4  12  26  46  72  98 130 180 230 282 352 394
#     4  12  25  46  72 101 133 176 234 284 337 406
#     4  11  24  42  68 103 140 182 228 273 341 405
#
# _framework density 20.620971000000001
#
# number of rings (size 3 to 8) (size 9 to 14) (size 15 to 20)
#    0.000    0.800    6.667    0.000    3.733    1.067 
#    2.400    0.000    0.000    0.000    0.000    0.000 
#    0.000    0.000    0.000    0.000    0.000    0.000 
#
# Total GULP energy -372170.117807 kJ/mol
# GULP energy per Si atom -12405.670594 kJ/mol
# Density = 2.057404 g / cm^3
# Si number density = 20.620971 Si / 1000 Ang^3
#
#
#
# Elastic Constant Matrix: (Units=GPa)
#
#
# Indices 1 2 3 4 5 6 
#
# 1 109.4899 45.5935 39.7954 0.0000 7.6559 0.0000
# 2 45.5935 105.0812 41.3018 0.0000 0.0255 0.0000
# 3 39.7954 41.3018 95.2391 0.0000 -2.8212 0.0000
# 4 0.0000 0.0000 0.0000 -44.5023 0.0000 63.6224
# 5 7.6559 0.0255 -2.8212 0.0000 30.6338 0.0000
# 6 0.0000 0.0000 0.0000 63.6224 0.0000 -3.5432
#
#
#
# Elastic Compliance Matrix: (Units=1/GPa)
#
#
# Indices 1 2 3 4 5 6 
#
# 1 0.012297 -0.003948 -0.003526 0.000000 -0.003395 0.000000
# 2 -0.003948 0.012746 -0.003859 0.000000 0.000621 0.000000
# 3 -0.003526 -0.003859 0.013711 0.000000 0.002147 0.000000
# 4 0.000000 0.000000 0.000000 0.000911 0.000000 0.016355
# 5 -0.003395 0.000621 0.002147 0.000000 0.033689 0.000000
# 6 0.000000 0.000000 0.000000 0.016355 0.000000 0.011440
#
#
# Mechanical properties :
#
#
# Convention : Reuss Voigt Hill
#
# Bulk Modulus (GPa) = 62.16906 62.57684 62.37295
# Shear Modulus (GPa) = 44.31694 8.72563 26.52128
#
# Velocity S-wave (km/s) = 4.64089 2.05928 3.59016
# Velocity P-wave (km/s) = 7.67666 6.00552 6.89193
#
# Compressibility (1/GPa) = 0.01608517
#
# Stress axis : x y z
#
# Youngs Moduli (GPa) = 81.32381 78.45328 72.93601
#
# Poissons Ratio (x) = 0.30977 0.25719
# Poissons Ratio (y) = 0.32111 0.28149
# Poissons Ratio (z) = 0.28677 0.30278
#
# Static dielectric constant tensor:
#      x y z
#    x 3.750070 0.000000 -0.110760 
#    y 0.000000 3.781160 0.000000 
#    z -0.110760 0.000000 3.826770 
# 
# 
# High freq. dielectric constant tensor:
#      x y z
#    x 1.810040 0.000000 -0.005330 
#    y 0.000000 1.815370 0.000000 
#    z -0.005330 0.000000 1.813720 
# 
# From -- ./inp_files/36417.got.cif
#   From: 2010.06.25/outbox.cif.g09.slc.cpg/sg13_19_cif.got.tgz:36417.got - 2010.06.28 04:50:58.
