data_PCOD8122143
_publ_section_title
;
Structure prediction by ZEFSAII (Michael W. Deem and Ramdas Pophale) SiO2 
 PCOD8122143
Probable space group: P 2/C
;
_chemical_formula_sum "Si O2"
_cell_formula_units_Z 20
_cell_length_a 12.688300
_cell_length_b 8.264421
_cell_length_c 11.718587
_cell_angle_alpha 90.000000
_cell_angle_beta 46.818323
_cell_angle_gamma 90.000000
_cell_volume 896.046068
_symmetry_space_group_name_H-M "P 2/C"
_symmetry_group_IT_number 13
_symmetry_cell_setting 'monoclinic'
loop_
_space_group_symop_operation_xyz
x,y,z
-x,y,1/2-z
-x,-y,-z
x,-y,1/2+z
loop_
_atom_site_type_symbol
_atom_site_label
_atom_site_fract_x
_atom_site_fract_y
_atom_site_fract_z
Si Si1 0.500000 0.355003 0.250000
Si Si2 0.000000 0.322369 0.750000
Si Si3 0.780659 0.444108 0.516938
Si Si4 0.392533 0.877976 0.018847
Si Si5 0.150445 0.225342 0.849292
Si Si6 0.156033 0.098495 0.076127
O O1 0.367436 0.476028 0.335618
O O2 0.514314 0.241720 0.128457
O O3 0.970311 0.211081 0.660924
O O4 0.138861 0.430778 0.624315
O O5 0.865112 0.397833 0.572248
O O6 0.768088 0.274359 0.455822
O O7 0.311659 0.779480 0.177781
O O8 0.500000 0.000000 0.000000
O O9 0.265627 0.962542 0.038699
O O10 0.133048 0.080596 0.955245
O O11 0.000000 0.086025 0.250000
#
# Coordination Sequence:
#
# PCOD8122143 Si02
#       6
#     2   2   4   4   4   4
#     4  12  26  44  74 104 140 196 234 298 358 436
#     4  12  20  48  70 110 136 186 246 300 366 424
#     4  10  24  44  73 105 143 178 244 298 363 417
#     4  12  27  45  69 104 149 193 238 290 370 438
#     4  10  25  43  73 101 140 188 235 305 350 435
#     4  10  25  48  72 106 146 192 235 306 361 429
#
# _framework density 22.32028
#
# number of rings (size 3 to 8) (size 9 to 14) (size 15 to 20)
#    1.200    0.000    3.000    1.800    4.200    4.800 
#    0.000    0.000    0.000    0.000    0.000    0.000 
#    0.000    0.000    0.000    0.000    0.000    0.000 
#
# Total GULP energy -247809.765978 kJ/mol
# GULP energy per Si atom -12390.488299 kJ/mol
# Density = 2.226948 g / cm^3
# Si number density = 22.320280 Si / 1000 Ang^3
#
#
#
# Elastic Constant Matrix: (Units=GPa)
#
#
# Indices 1 2 3 4 5 6 
#
# 1 110.2790 22.3094 27.1474 0.0000 11.6286 0.0000
# 2 22.3094 82.9480 26.3581 0.0000 -0.1690 0.0000
# 3 27.1474 26.3581 134.8005 0.0000 2.8187 0.0000
# 4 0.0000 0.0000 0.0000 41.6490 0.0000 4.5456
# 5 11.6286 -0.1690 2.8187 0.0000 40.5496 0.0000
# 6 0.0000 0.0000 0.0000 4.5456 0.0000 26.0463
#
#
#
# Elastic Compliance Matrix: (Units=1/GPa)
#
#
# Indices 1 2 3 4 5 6 
#
# 1 0.010205 -0.002256 -0.001555 0.000000 -0.002828 0.000000
# 2 -0.002256 0.013355 -0.002175 0.000000 0.000854 0.000000
# 3 -0.001555 -0.002175 0.008160 0.000000 -0.000130 0.000000
# 4 0.000000 0.000000 0.000000 0.024476 0.000000 -0.004272
# 5 -0.002828 0.000854 -0.000130 0.000000 0.025485 0.000000
# 6 0.000000 0.000000 0.000000 -0.004272 0.000000 0.039139
#
#
# Mechanical properties :
#
#
# Convention : Reuss Voigt Hill
#
# Bulk Modulus (GPa) = 50.63845 53.29526 51.96685
# Shear Modulus (GPa) = 35.87438 38.46315 37.16876
#
# Velocity S-wave (km/s) = 4.01341 4.15569 4.08517
# Velocity P-wave (km/s) = 6.64929 6.85242 6.75162
#
# Compressibility (1/GPa) = 0.01974784
#
# Stress axis : x y z
#
# Youngs Moduli (GPa) = 97.98775 74.87565 122.55647
#
# Poissons Ratio (x) = 0.16895 0.19056
# Poissons Ratio (y) = 0.22111 0.26655
# Poissons Ratio (z) = 0.15236 0.16285
#
# Static dielectric constant tensor:
#      x y z
#    x 3.629140 0.000000 0.159830 
#    y 0.000000 4.051020 0.000000 
#    z 0.159830 0.000000 4.233540 
# 
# 
# High freq. dielectric constant tensor:
#      x y z
#    x 1.861300 0.000000 0.005350 
#    y 0.000000 1.882200 0.000000 
#    z 0.005350 0.000000 1.899930 
# 
# From -- ./inp_files/32462.got.cif
#   From: 2010.06.25/outbox.cif.g09.slc.cpg/sg13_17_cif.got.tgz:32462.got - 2010.06.28 04:50:58.
