data_PCOD8122951
_publ_section_title
;
Structure prediction by ZEFSAII (Michael W. Deem and Ramdas Pophale) SiO2 
 PCOD8122951
Probable space group: P 2/C
;
_chemical_formula_sum "Si O2"
_cell_formula_units_Z 16
_cell_length_a 6.481068
_cell_length_b 9.372321
_cell_length_c 16.084232
_cell_angle_alpha 90.000000
_cell_angle_beta 48.543609
_cell_angle_gamma 90.000000
_cell_volume 732.221415
_symmetry_space_group_name_H-M "P 2/C"
_symmetry_group_IT_number 13
_symmetry_cell_setting 'monoclinic'
loop_
_space_group_symop_operation_xyz
x,y,z
-x,y,1/2-z
-x,-y,-z
x,-y,1/2+z
loop_
_atom_site_type_symbol
_atom_site_label
_atom_site_fract_x
_atom_site_fract_y
_atom_site_fract_z
Si Si1 0.011428 0.076853 0.087376
Si Si2 0.000000 0.119440 0.750000
Si Si3 0.537157 0.270770 0.950080
Si Si4 0.500000 0.285284 0.250000
Si Si5 0.292011 0.557173 0.952663
O O1 0.771006 0.191225 0.163958
O O2 0.979570 0.966105 0.170064
O O3 0.302431 0.152701 0.025992
O O4 0.000000 0.000000 0.000000
O O5 0.729203 0.216957 0.824413
O O6 0.413438 0.421845 0.964478
O O7 0.724931 0.303055 0.982174
O O8 0.490984 0.393384 0.175239
O O9 0.000000 0.500000 0.000000
#
# Coordination Sequence:
#
# PCOD8122951 Si02
#       5
#     4   2   4   2   4
#     4  12  25  46  70 104 145 189 243 298 357 444
#     4  12  26  42  72 100 142 188 232 294 364 430
#     4  11  26  45  69 103 141 178 244 290 361 430
#     4  12  24  42  76  96 136 188 232 288 374 404
#     4  11  25  46  70 102 140 181 234 306 348 434
#
# _framework density 21.851315
#
# number of rings (size 3 to 8) (size 9 to 14) (size 15 to 20)
#    0.000    0.500    2.500    5.250    3.500    0.000 
#    0.000    0.000    0.000    0.000    0.000    0.000 
#    0.000    0.000    0.000    0.000    0.000    0.000 
#
# Total GULP energy -198245.853911 kJ/mol
# GULP energy per Si atom -12390.365869 kJ/mol
# Density = 2.180158 g / cm^3
# Si number density = 21.851315 Si / 1000 Ang^3
#
#
#
# Elastic Constant Matrix: (Units=GPa)
#
#
# Indices 1 2 3 4 5 6 
#
# 1 117.6007 48.1729 56.8300 0.0000 6.0361 0.0000
# 2 48.1729 84.8733 51.9476 0.0000 11.3754 0.0000
# 3 56.8300 51.9476 156.2350 0.0000 4.3786 0.0000
# 4 0.0000 0.0000 0.0000 57.7136 0.0000 -15.1028
# 5 6.0361 11.3754 4.3786 0.0000 48.7240 0.0000
# 6 0.0000 0.0000 0.0000 -15.1028 0.0000 10.2433
#
#
#
# Elastic Compliance Matrix: (Units=1/GPa)
#
#
# Indices 1 2 3 4 5 6 
#
# 1 0.011870 -0.005135 -0.002609 0.000000 -0.000037 0.000000
# 2 -0.005135 0.017471 -0.003854 0.000000 -0.003096 0.000000
# 3 -0.002609 -0.003854 0.008619 0.000000 0.000449 0.000000
# 4 0.000000 0.000000 0.000000 0.028212 0.000000 0.041596
# 5 -0.000037 -0.003096 0.000449 0.000000 0.021211 0.000000
# 6 0.000000 0.000000 0.000000 0.041596 0.000000 0.158954
#
#
# Mechanical properties :
#
#
# Convention : Reuss Voigt Hill
#
# Bulk Modulus (GPa) = 67.74113 74.73443 71.23778
# Shear Modulus (GPa) = 18.21797 36.78675 27.50236
#
# Velocity S-wave (km/s) = 2.89056 4.10750 3.55154
# Velocity P-wave (km/s) = 6.49682 7.53466 7.03490
#
# Compressibility (1/GPa) = 0.01476208
#
# Stress axis : x y z
#
# Youngs Moduli (GPa) = 84.24895 57.23761 116.02738
#
# Poissons Ratio (x) = 0.29392 0.30272
# Poissons Ratio (y) = 0.43263 0.44721
# Poissons Ratio (z) = 0.21981 0.22062
#
# Static dielectric constant tensor:
#      x y z
#    x 3.353830 0.000000 -0.154280 
#    y 0.000000 4.345680 0.000000 
#    z -0.154280 0.000000 4.092360 
# 
# 
# High freq. dielectric constant tensor:
#      x y z
#    x 1.863810 0.000000 0.004550 
#    y 0.000000 1.886400 0.000000 
#    z 0.004550 0.000000 1.872900 
# 
# From -- ./inp_files/25287.got.cif
#   From: 2010.06.25/outbox.cif.g09.slc.cpg/sg13_13_cif.got.tgz:25287.got - 2010.06.28 04:50:58.
