data_PCOD8122657
_publ_section_title
;
Structure prediction by ZEFSAII (Michael W. Deem and Ramdas Pophale) SiO2 
 PCOD8122657
Probable space group: P 2/C
;
_chemical_formula_sum "Si O2"
_cell_formula_units_Z 24
_cell_length_a 8.537571
_cell_length_b 10.269444
_cell_length_c 12.336248
_cell_angle_alpha 90.000000
_cell_angle_beta 110.161402
_cell_angle_gamma 90.000000
_cell_volume 1015.319977
_symmetry_space_group_name_H-M "P 2/C"
_symmetry_group_IT_number 13
_symmetry_cell_setting 'monoclinic'
loop_
_space_group_symop_operation_xyz
x,y,z
-x,y,1/2-z
-x,-y,-z
x,-y,1/2+z
loop_
_atom_site_type_symbol
_atom_site_label
_atom_site_fract_x
_atom_site_fract_y
_atom_site_fract_z
Si Si1 0.264325 0.262553 0.490238
Si Si2 0.121913 0.707308 0.572972
Si Si3 0.639132 0.200503 0.212500
Si Si4 0.314335 0.541643 0.189122
Si Si5 0.179002 0.734080 0.337231
Si Si6 0.470331 0.914192 0.360645
O O1 0.300749 0.292731 0.372009
O O2 0.333399 0.373954 0.584173
O O3 0.362090 0.125572 0.534125
O O4 0.069103 0.252333 0.463563
O O5 0.211515 0.821972 0.664439
O O6 0.175984 0.571308 0.641700
O O7 0.168961 0.689209 0.459006
O O8 0.500000 0.277518 0.250000
O O9 0.553632 0.068647 0.148727
O O10 0.500000 0.486107 0.250000
O O11 0.251441 0.621345 0.278431
O O12 0.302036 0.856379 0.370044
O O13 0.000000 0.780514 0.250000
O O14 0.500000 0.852525 0.250000
#
# Coordination Sequence:
#
# PCOD8122657 Si02
#       6
#     4   4   4   4   4   4
#     4  12  23  48  74 107 148 201 248 309 380 439
#     4  12  28  45  73 115 151 196 250 316 372 450
#     4  11  27  46  73 109 149 192 256 313 368 445
#     4  12  26  47  75 106 150 204 249 310 372 447
#     4  12  24  45  72 107 147 197 257 301 377 446
#     4  11  22  48  74 104 145 201 252 305 378 439
#
# _framework density 23.637868999999998
#
# number of rings (size 3 to 8) (size 9 to 14) (size 15 to 20)
#    0.000    0.333    5.000    3.000    2.333    3.333 
#    0.000    5.000    0.000    0.000    0.000    0.000 
#    0.000    0.000    0.000    0.000    0.000    0.000 
#
# Total GULP energy -297404.698669 kJ/mol
# GULP energy per Si atom -12391.862445 kJ/mol
# Density = 2.358407 g / cm^3
# Si number density = 23.637869 Si / 1000 Ang^3
#
#
#
# Elastic Constant Matrix: (Units=GPa)
#
#
# Indices 1 2 3 4 5 6 
#
# 1 175.4282 50.4376 82.3107 0.0000 -2.8157 0.0000
# 2 50.4376 94.6245 44.7487 0.0000 7.2420 0.0000
# 3 82.3107 44.7487 166.5773 0.0000 -12.8338 0.0000
# 4 0.0000 0.0000 0.0000 21.0675 0.0000 5.8034
# 5 -2.8157 7.2420 -12.8338 0.0000 60.2575 0.0000
# 6 0.0000 0.0000 0.0000 5.8034 0.0000 10.1118
#
#
#
# Elastic Compliance Matrix: (Units=1/GPa)
#
#
# Indices 1 2 3 4 5 6 
#
# 1 0.007997 -0.002745 -0.003213 0.000000 0.000019 0.000000
# 2 -0.002745 0.013337 -0.002399 0.000000 -0.002242 0.000000
# 3 -0.003213 -0.002399 0.008384 0.000000 0.001924 0.000000
# 4 0.000000 0.000000 0.000000 0.056380 0.000000 -0.032358
# 5 0.000019 -0.002242 0.001924 0.000000 0.017276 0.000000
# 6 0.000000 0.000000 0.000000 -0.032358 0.000000 0.117465
#
#
# Mechanical properties :
#
#
# Convention : Reuss Voigt Hill
#
# Bulk Modulus (GPa) = 76.89844 87.95821 82.42833
# Shear Modulus (GPa) = 20.67075 35.56289 28.11682
#
# Velocity S-wave (km/s) = 2.96036 3.88298 3.45263
# Velocity P-wave (km/s) = 6.65489 7.57594 7.13030
#
# Compressibility (1/GPa) = 0.01300416
#
# Stress axis : x y z
#
# Youngs Moduli (GPa) = 125.04233 74.97678 119.28136
#
# Poissons Ratio (x) = 0.20580 0.38323
# Poissons Ratio (y) = 0.34323 0.28620
# Poissons Ratio (z) = 0.40174 0.17989
#
# Static dielectric constant tensor:
#      x y z
#    x 4.555940 0.000000 -0.130580 
#    y 0.000000 3.913610 0.000000 
#    z -0.130580 0.000000 4.962590 
# 
# 
# High freq. dielectric constant tensor:
#      x y z
#    x 1.950250 0.000000 -0.004500 
#    y 0.000000 1.916730 0.000000 
#    z -0.004500 0.000000 1.968960 
# 
# From -- ./inp_files/29537.got.cif
#   From: 2010.06.25/outbox.cif.g09.slc.cpg/sg13_15_cif.got.tgz:29537.got - 2010.06.28 04:50:58.
