data_PCOD8122002
_publ_section_title
;
Structure prediction by ZEFSAII (Michael W. Deem and Ramdas Pophale) SiO2 
 PCOD8122002
Probable space group: P 2/C
;
_chemical_formula_sum "Si O2"
_cell_formula_units_Z 18
_cell_length_a 11.191766
_cell_length_b 11.237901
_cell_length_c 8.520811
_cell_angle_alpha 90.000000
_cell_angle_beta 118.755728
_cell_angle_gamma 90.000000
_cell_volume 939.518191
_symmetry_space_group_name_H-M "P 2/C"
_symmetry_group_IT_number 13
_symmetry_cell_setting 'monoclinic'
loop_
_space_group_symop_operation_xyz
x,y,z
-x,y,1/2-z
-x,-y,-z
x,-y,1/2+z
loop_
_atom_site_type_symbol
_atom_site_label
_atom_site_fract_x
_atom_site_fract_y
_atom_site_fract_z
Si Si1 0.560079 0.880546 0.461339
Si Si2 0.860829 0.076848 0.075680
Si Si3 0.863246 0.168503 0.724171
Si Si4 0.608530 0.332616 0.560213
Si Si5 0.500000 0.506889 0.250000
O O1 0.500000 0.872551 0.250000
O O2 0.723760 0.866891 0.563580
O O3 0.509188 0.767148 0.528137
O O4 0.500000 0.000000 0.500000
O O5 0.000000 0.120134 0.250000
O O6 0.837765 0.935581 0.080450
O O7 0.874184 0.107301 0.901347
O O8 0.752809 0.269980 0.650702
O O9 0.000000 0.232911 0.750000
O O10 0.600390 0.423729 0.412230
O O11 0.597674 0.408883 0.711242
#
# Coordination Sequence:
#
# PCOD8122002 Si02
#       5
#     4   4   4   4   2
#     4  12  22  37  62  95 128 155 199 250 306 370
#     4  11  21  36  57  91 133 164 189 236 313 381
#     4  11  22  37  59  88 127 160 198 246 308 374
#     4  11  22  42  61  88 120 158 214 254 305 354
#     4  10  24  40  64  82 114 164 212 268 292 348
#
# _framework density 19.158757999999999
#
# number of rings (size 3 to 8) (size 9 to 14) (size 15 to 20)
#    0.000    0.889    5.556    2.667    1.556    3.556 
#    0.000    1.111    0.000    5.333    0.000    0.000 
#    0.000    0.000    0.000    0.000    0.000    0.000 
#
# Total GULP energy -223138.670799 kJ/mol
# GULP energy per Si atom -12396.592822 kJ/mol
# Density = 1.911515 g / cm^3
# Si number density = 19.158758 Si / 1000 Ang^3
#
#
#
# Elastic Constant Matrix: (Units=GPa)
#
#
# Indices 1 2 3 4 5 6 
#
# 1 181.2273 80.6406 74.3175 0.0000 18.6723 0.0000
# 2 80.6406 128.6249 54.4374 0.0000 3.1770 0.0000
# 3 74.3175 54.4374 78.7843 0.0000 7.9582 0.0000
# 4 0.0000 0.0000 0.0000 61.6420 0.0000 -24.1070
# 5 18.6723 3.1770 7.9582 0.0000 36.5283 0.0000
# 6 0.0000 0.0000 0.0000 -24.1070 0.0000 35.9536
#
#
#
# Elastic Compliance Matrix: (Units=1/GPa)
#
#
# Indices 1 2 3 4 5 6 
#
# 1 0.010234 -0.003381 -0.006972 0.000000 -0.003418 0.000000
# 2 -0.003381 0.012123 -0.005374 0.000000 0.001844 0.000000
# 3 -0.006972 -0.005374 0.023084 0.000000 -0.000998 0.000000
# 4 0.000000 0.000000 0.000000 0.021989 0.000000 0.014743
# 5 -0.003418 0.001844 -0.000998 0.000000 0.029180 0.000000
# 6 0.000000 0.000000 0.000000 0.014743 0.000000 0.037699
#
#
# Mechanical properties :
#
#
# Convention : Reuss Voigt Hill
#
# Bulk Modulus (GPa) = 71.49600 89.71414 80.60507
# Shear Modulus (GPa) = 29.33874 38.77420 34.05647
#
# Velocity S-wave (km/s) = 3.91749 4.50359 4.22072
# Velocity P-wave (km/s) = 7.60664 8.60066 8.11888
#
# Compressibility (1/GPa) = 0.01398680
#
# Stress axis : x y z
#
# Youngs Moduli (GPa) = 97.71825 82.48931 43.32073
#
# Poissons Ratio (x) = 0.27886 0.30204
# Poissons Ratio (y) = 0.33035 0.23280
# Poissons Ratio (z) = 0.68130 0.44328
#
# Static dielectric constant tensor:
#      x y z
#    x 4.010450 0.000000 -0.050630 
#    y 0.000000 3.608480 0.000000 
#    z -0.050630 0.000000 3.612930 
# 
# 
# High freq. dielectric constant tensor:
#      x y z
#    x 1.765010 0.000000 -0.009960 
#    y 0.000000 1.732990 0.000000 
#    z -0.009960 0.000000 1.742910 
# 
# From -- ./inp_files/11773.got.cif
#   From: 2010.06.25/outbox.cif.g09.slc.cpg/sg13_6_cif.got.tgz:11773.got - 2010.06.28 04:50:58.
