data_PCOD8122525
_publ_section_title
;
Structure prediction by ZEFSAII (Michael W. Deem and Ramdas Pophale) SiO2 
 PCOD8122525
Probable space group: P 2/C
;
_chemical_formula_sum "Si O2"
_cell_formula_units_Z 28
_cell_length_a 15.240034
_cell_length_b 15.708720
_cell_length_c 8.499552
_cell_angle_alpha 90.000000
_cell_angle_beta 143.068808
_cell_angle_gamma 90.000000
_cell_volume 1222.623675
_symmetry_space_group_name_H-M "P 2/C"
_symmetry_group_IT_number 13
_symmetry_cell_setting 'monoclinic'
loop_
_space_group_symop_operation_xyz
x,y,z
-x,y,1/2-z
-x,-y,-z
x,-y,1/2+z
loop_
_atom_site_type_symbol
_atom_site_label
_atom_site_fract_x
_atom_site_fract_y
_atom_site_fract_z
Si Si1 0.219122 0.809741 0.135886
Si Si2 0.673318 0.037569 0.526793
Si Si3 0.945112 0.765921 0.911659
Si Si4 0.411062 0.568588 0.965311
Si Si5 0.081537 0.424670 0.028714
Si Si6 0.488582 0.252665 0.546596
Si Si7 0.251208 0.879764 0.675405
O O1 0.282590 0.903382 0.261914
O O2 0.354357 0.745573 0.311846
O O3 0.131891 0.808700 0.848325
O O4 0.118942 0.778624 0.139203
O O5 0.500000 0.041041 0.250000
O O6 0.770046 0.066132 0.514507
O O7 0.720999 0.942031 0.637345
O O8 0.911770 0.664827 0.868391
O O9 0.884502 0.816562 0.977892
O O10 0.500000 0.583734 0.250000
O O11 0.409585 0.660387 0.878891
O O12 0.500000 0.500000 0.000000
O O13 0.244701 0.538700 0.744320
O O14 0.000000 0.405910 0.750000
O O15 0.000000 0.500000 0.000000
O O16 0.500000 0.241761 0.750000
O O17 0.394361 0.175527 0.344868
#
# Coordination Sequence:
#
# PCOD8122525 Si02
#       7
#     4   4   4   4   4   4   4
#     4  11  25  44  72 106 140 197 244 303 368 449
#     4  12  26  42  75 111 145 189 256 312 371 441
#     4  11  26  47  72 102 153 194 246 300 382 448
#     4  11  24  46  73 109 144 193 248 310 370 444
#     4  12  28  48  77 112 153 204 249 313 385 455
#     4  11  21  42  74  97 142 188 243 299 375 434
#     4  12  24  45  71 103 146 189 244 307 376 441
#
# _framework density 22.901568999999999
#
# number of rings (size 3 to 8) (size 9 to 14) (size 15 to 20)
#    0.000    0.571    4.286    3.429    6.000    0.571 
#    2.571    0.000    0.000    0.000    0.000    0.000 
#    0.000    0.000    0.000    0.000    0.000    0.000 
#
# Total GULP energy -347195.180141 kJ/mol
# GULP energy per Si atom -12399.827862 kJ/mol
# Density = 2.284944 g / cm^3
# Si number density = 22.901569 Si / 1000 Ang^3
#
#
#
# Elastic Constant Matrix: (Units=GPa)
#
#
# Indices 1 2 3 4 5 6 
#
# 1 144.7431 60.3971 41.2895 0.0000 38.6435 0.0000
# 2 60.3971 162.4033 38.0148 0.0000 8.9777 0.0000
# 3 41.2895 38.0148 95.1190 0.0000 18.7921 0.0000
# 4 0.0000 0.0000 0.0000 34.8186 0.0000 -8.8095
# 5 38.6435 8.9777 18.7921 0.0000 49.7128 0.0000
# 6 0.0000 0.0000 0.0000 -8.8095 0.0000 58.4228
#
#
#
# Elastic Compliance Matrix: (Units=1/GPa)
#
#
# Indices 1 2 3 4 5 6 
#
# 1 0.010627 -0.003100 -0.002002 0.000000 -0.006944 0.000000
# 2 -0.003100 0.007699 -0.002089 0.000000 0.001809 0.000000
# 3 -0.002002 -0.002089 0.012790 0.000000 -0.002901 0.000000
# 4 0.000000 0.000000 0.000000 0.029859 0.000000 0.004502
# 5 -0.006944 0.001809 -0.002901 0.000000 0.026284 0.000000
# 6 0.000000 0.000000 0.000000 0.004502 0.000000 0.017796
#
#
# Mechanical properties :
#
#
# Convention : Reuss Voigt Hill
#
# Bulk Modulus (GPa) = 59.75469 75.74091 67.74780
# Shear Modulus (GPa) = 39.99490 46.09510 43.04500
#
# Velocity S-wave (km/s) = 4.18351 4.49123 4.34010
# Velocity P-wave (km/s) = 7.03450 7.74849 7.40011
#
# Compressibility (1/GPa) = 0.01673509
#
# Stress axis : x y z
#
# Youngs Moduli (GPa) = 94.09631 129.88297 78.18400
#
# Poissons Ratio (x) = 0.40260 0.15656
# Poissons Ratio (y) = 0.29167 0.16332
# Poissons Ratio (z) = 0.18842 0.27131
#
# Static dielectric constant tensor:
#      x y z
#    x 4.146120 0.000000 0.123340 
#    y 0.000000 3.477400 0.000000 
#    z 0.123340 0.000000 3.963980 
# 
# 
# High freq. dielectric constant tensor:
#      x y z
#    x 1.910610 0.000000 0.011250 
#    y 0.000000 1.914220 0.000000 
#    z 0.011250 0.000000 1.900100 
# 
# From -- ./inp_files/19895.got.cif
#   From: 2010.06.25/outbox.cif.g09.slc.cpg/sg13_10_cif.got.tgz:19895.got - 2010.06.28 04:50:58.
