data_PCOD8122497
_publ_section_title
;
Structure prediction by ZEFSAII (Michael W. Deem and Ramdas Pophale) SiO2 
 PCOD8122497
Probable space group: P 2/C
;
_chemical_formula_sum "Si O2"
_cell_formula_units_Z 32
_cell_length_a 11.523247
_cell_length_b 11.380624
_cell_length_c 19.830530
_cell_angle_alpha 90.000000
_cell_angle_beta 38.068983
_cell_angle_gamma 90.000000
_cell_volume 1603.561702
_symmetry_space_group_name_H-M "P 2/C"
_symmetry_group_IT_number 13
_symmetry_cell_setting 'monoclinic'
loop_
_space_group_symop_operation_xyz
x,y,z
-x,y,1/2-z
-x,-y,-z
x,-y,1/2+z
loop_
_atom_site_type_symbol
_atom_site_label
_atom_site_fract_x
_atom_site_fract_y
_atom_site_fract_z
Si Si1 0.633272 0.763555 0.126090
Si Si2 0.025549 0.122602 0.810828
Si Si3 0.151770 0.999117 0.988610
Si Si4 0.000095 0.623325 0.536305
Si Si5 0.275995 0.326283 0.540579
Si Si6 0.330173 0.692771 0.163580
Si Si7 0.335254 0.761893 0.876574
Si Si8 0.975849 0.511277 0.685119
O O1 0.500000 0.793007 0.250000
O O2 0.731214 0.882128 0.054506
O O3 0.518934 0.694562 0.120669
O O4 0.796108 0.675268 0.073284
O O5 0.885936 0.230763 0.879999
O O6 0.000000 0.061106 0.750000
O O7 0.231365 0.181315 0.724776
O O8 0.977385 0.023335 0.886805
O O9 0.306002 0.898975 0.904691
O O10 0.000000 0.000000 0.000000
O O11 0.854873 0.710024 0.567113
O O12 0.951552 0.611253 0.638668
O O13 0.000000 0.500000 0.500000
O O14 0.394929 0.318744 0.555427
O O15 0.398191 0.301583 0.417734
O O16 0.175169 0.450851 0.577523
O O17 0.196534 0.581450 0.241097
O O18 0.500000 0.739048 0.750000
O O19 0.000000 0.564292 0.750000
#
# Coordination Sequence:
#
# PCOD8122497 Si02
#       8
#     4   4   4   4   4   4   4   4
#     4  12  25  39  61  93 121 158 202 254 300 361
#     4   8  16  33  62  88 113 158 198 238 293 352
#     4  11  21  40  62  85 124 160 200 248 304 363
#     4  12  24  41  62  89 125 158 207 255 302 361
#     4   8  16  36  62  86 119 159 200 245 290 366
#     4   9  18  37  65  92 115 153 211 248 295 356
#     4  11  23  40  62  90 122 163 204 249 309 357
#     4   9  18  38  63  87 122 167 202 248 308 364
#
# _framework density 19.955577999999999
#
# number of rings (size 3 to 8) (size 9 to 14) (size 15 to 20)
#    0.000    2.000    2.500    3.375    1.750    1.500 
#    2.250    8.750    0.000    0.000    0.000    0.000 
#    0.000    0.000    0.000    0.000    0.000    0.000 
#
# Total GULP energy -396645.559384 kJ/mol
# GULP energy per Si atom -12395.173731 kJ/mol
# Density = 1.991016 g / cm^3
# Si number density = 19.955578 Si / 1000 Ang^3
#
#
#
# Elastic Constant Matrix: (Units=GPa)
#
#
# Indices 1 2 3 4 5 6 
#
# 1 92.8364 15.6465 35.6286 0.0000 8.3328 0.0000
# 2 15.6465 67.7291 20.3082 0.0000 1.6930 0.0000
# 3 35.6286 20.3082 108.6053 0.0000 18.6253 0.0000
# 4 0.0000 0.0000 0.0000 19.3194 0.0000 5.7750
# 5 8.3328 1.6930 18.6253 0.0000 41.6759 0.0000
# 6 0.0000 0.0000 0.0000 5.7750 0.0000 21.2259
#
#
#
# Elastic Compliance Matrix: (Units=1/GPa)
#
#
# Indices 1 2 3 4 5 6 
#
# 1 0.012543 -0.001785 -0.003642 0.000000 -0.000808 0.000000
# 2 -0.001785 0.015916 -0.002535 0.000000 0.000843 0.000000
# 3 -0.003642 -0.002535 0.011625 0.000000 -0.004364 0.000000
# 4 0.000000 0.000000 0.000000 0.056344 0.000000 -0.015330
# 5 -0.000808 0.000843 -0.004364 0.000000 0.026072 0.000000
# 6 0.000000 0.000000 0.000000 -0.015330 0.000000 0.051283
#
#
# Mechanical properties :
#
#
# Convention : Reuss Voigt Hill
#
# Bulk Modulus (GPa) = 41.39344 45.81525 43.60435
# Shear Modulus (GPa) = 25.28292 29.61673 27.44983
#
# Velocity S-wave (km/s) = 3.56330 3.85662 3.71286
# Velocity P-wave (km/s) = 6.14144 6.54522 6.34654
#
# Compressibility (1/GPa) = 0.02415842
#
# Stress axis : x y z
#
# Youngs Moduli (GPa) = 79.72638 62.82906 86.02109
#
# Poissons Ratio (x) = 0.11217 0.31333
# Poissons Ratio (y) = 0.14233 0.21808
# Poissons Ratio (z) = 0.29040 0.15928
#
# Static dielectric constant tensor:
#      x y z
#    x 3.521220 0.000000 -0.134870 
#    y 0.000000 3.569980 0.000000 
#    z -0.134870 0.000000 2.959790 
# 
# 
# High freq. dielectric constant tensor:
#      x y z
#    x 1.785810 0.000000 0.019250 
#    y 0.000000 1.757510 0.000000 
#    z 0.019250 0.000000 1.773100 
# 
# From -- ./inp_files/78479.got.cif
#   From: 2010.06.25/outbox.cif.g09.slc.cpg/sg13_40_cif.got.tgz:78479.got - 2010.06.28 04:50:58.
