data_PCOD8122430
_publ_section_title
;
Structure prediction by ZEFSAII (Michael W. Deem and Ramdas Pophale) SiO2 
 PCOD8122430
Probable space group: P 2/C
;
_chemical_formula_sum "Si O2"
_cell_formula_units_Z 28
_cell_length_a 12.166665
_cell_length_b 13.369556
_cell_length_c 9.069077
_cell_angle_alpha 90.000000
_cell_angle_beta 67.573956
_cell_angle_gamma 90.000000
_cell_volume 1363.636900
_symmetry_space_group_name_H-M "P 2/C"
_symmetry_group_IT_number 13
_symmetry_cell_setting 'monoclinic'
loop_
_space_group_symop_operation_xyz
x,y,z
-x,y,1/2-z
-x,-y,-z
x,-y,1/2+z
loop_
_atom_site_type_symbol
_atom_site_label
_atom_site_fract_x
_atom_site_fract_y
_atom_site_fract_z
Si Si1 0.123789 0.101991 0.261748
Si Si2 0.876478 0.105228 0.886701
Si Si3 0.494625 0.391335 0.428139
Si Si4 0.132927 0.375739 0.970489
Si Si5 0.262172 0.295359 0.168341
Si Si6 0.124739 0.394600 0.471455
Si Si7 0.248031 0.297471 0.644420
O O1 0.107186 0.090924 0.446213
O O2 0.229967 0.178724 0.166732
O O3 0.000000 0.137693 0.250000
O O4 0.163692 0.997878 0.168741
O O5 0.774030 0.185431 0.902881
O O6 0.000000 0.141494 0.750000
O O7 0.500000 0.405831 0.250000
O O8 0.500000 0.500000 0.500000
O O9 0.601013 0.320678 0.433621
O O10 0.379516 0.331952 0.538618
O O11 0.137406 0.491028 0.919369
O O12 0.224394 0.306766 0.831260
O O13 0.173551 0.363831 0.116872
O O14 0.996662 0.341895 0.019869
O O15 0.233459 0.330751 0.348273
O O16 0.147710 0.375193 0.632609
#
# Coordination Sequence:
#
# PCOD8122430 Si02
#       7
#     4   4   4   4   4   4   4
#     4  11  23  41  67  99 131 169 215 272 337 395
#     4  11  23  41  67  99 131 169 215 272 337 395
#     4  12  26  46  67  92 130 181 230 267 315 385
#     4  11  24  35  64  92 133 161 217 264 330 402
#     4  12  25  40  65  92 132 174 217 270 323 384
#     4  11  20  41  58  96 125 171 205 268 332 394
#     4  12  25  40  65  92 132 174 217 270 323 384
#
# _framework density 20.533325000000001
#
# number of rings (size 3 to 8) (size 9 to 14) (size 15 to 20)
#    0.000    0.571    2.857    6.857    6.000    2.286 
#    0.000    0.714    0.000    0.000    0.000    0.000 
#    0.000    0.000    0.000    0.000    0.000    0.000 
#
# Total GULP energy -347189.637747 kJ/mol
# GULP energy per Si atom -12399.629920 kJ/mol
# Density = 2.048659 g / cm^3
# Si number density = 20.533325 Si / 1000 Ang^3
#
#
#
# Elastic Constant Matrix: (Units=GPa)
#
#
# Indices 1 2 3 4 5 6 
#
# 1 123.8371 67.0358 38.1104 0.0000 -16.0540 0.0000
# 2 67.0358 130.7857 48.7900 0.0000 -8.9363 0.0000
# 3 38.1104 48.7900 95.5977 0.0000 0.1290 0.0000
# 4 0.0000 0.0000 0.0000 33.8125 0.0000 -2.3262
# 5 -16.0540 -8.9363 0.1290 0.0000 30.9477 0.0000
# 6 0.0000 0.0000 0.0000 -2.3262 0.0000 36.6285
#
#
#
# Elastic Compliance Matrix: (Units=1/GPa)
#
#
# Indices 1 2 3 4 5 6 
#
# 1 0.012130 -0.005039 -0.002270 0.000000 0.004847 0.000000
# 2 -0.005039 0.011777 -0.004003 0.000000 0.000803 0.000000
# 3 -0.002270 -0.004003 0.013412 0.000000 -0.002389 0.000000
# 4 0.000000 0.000000 0.000000 0.029705 0.000000 0.001886
# 5 0.004847 0.000803 -0.002389 0.000000 0.035069 0.000000
# 6 0.000000 0.000000 0.000000 0.001886 0.000000 0.027421
#
#
# Mechanical properties :
#
#
# Convention : Reuss Voigt Hill
#
# Bulk Modulus (GPa) = 68.05491 73.12142 70.58816
# Shear Modulus (GPa) = 31.83982 33.36338 32.60160
#
# Velocity S-wave (km/s) = 3.94209 4.03530 3.98897
# Velocity P-wave (km/s) = 7.34409 7.57628 7.46109
#
# Compressibility (1/GPa) = 0.01469402
#
# Stress axis : x y z
#
# Youngs Moduli (GPa) = 82.44035 84.90985 74.56155
#
# Poissons Ratio (x) = 0.42788 0.16928
# Poissons Ratio (y) = 0.41544 0.29846
# Poissons Ratio (z) = 0.18717 0.33988
#
# Static dielectric constant tensor:
#      x y z
#    x 3.690740 0.000000 0.110220 
#    y 0.000000 3.669970 0.000000 
#    z 0.110220 0.000000 3.814260 
# 
# 
# High freq. dielectric constant tensor:
#      x y z
#    x 1.792100 0.000000 0.016480 
#    y 0.000000 1.799750 0.000000 
#    z 0.016480 0.000000 1.818940 
# 
# From -- ./inp_files/16468.got.cif
#   From: 2010.06.25/outbox.cif.g09.slc.cpg/sg13_9_cif.got.tgz:16468.got - 2010.06.28 04:50:58.
