data_PCOD8122373
_publ_section_title
;
Structure prediction by ZEFSAII (Michael W. Deem and Ramdas Pophale) SiO2 
 PCOD8122373
Probable space group: P 2/C
;
_chemical_formula_sum "Si O2"
_cell_formula_units_Z 32
_cell_length_a 21.613289
_cell_length_b 11.638546
_cell_length_c 20.229876
_cell_angle_alpha 90.000000
_cell_angle_beta 159.389849
_cell_angle_gamma 90.000000
_cell_volume 1791.285064
_symmetry_space_group_name_H-M "P 2/C"
_symmetry_group_IT_number 13
_symmetry_cell_setting 'monoclinic'
loop_
_space_group_symop_operation_xyz
x,y,z
-x,y,1/2-z
-x,-y,-z
x,-y,1/2+z
loop_
_atom_site_type_symbol
_atom_site_label
_atom_site_fract_x
_atom_site_fract_y
_atom_site_fract_z
Si Si1 0.298557 0.786576 0.472112
Si Si2 0.695910 0.338822 0.752053
Si Si3 0.695895 0.661177 0.639762
Si Si4 0.000009 0.166603 0.052646
Si Si5 0.999986 0.087724 0.903217
Si Si6 0.701476 0.213429 0.375040
Si Si7 0.794768 0.584918 0.209126
Si Si8 0.794776 0.584914 0.880426
O O1 0.246772 0.790352 0.496766
O O2 0.500019 0.823482 0.662063
O O3 0.267458 0.656371 0.416531
O O4 0.175918 0.874740 0.310258
O O5 0.500004 0.299742 0.576161
O O6 0.695984 0.367670 0.674549
O O7 0.749656 0.451747 0.847554
O O8 0.826844 0.235965 0.900823
O O9 0.826835 0.764025 0.752857
O O10 0.749638 0.548248 0.651750
O O11 0.695972 0.632331 0.717418
O O12 0.000015 0.146548 0.974502
O O13 1.000000 0.049064 0.093013
O O14 0.175867 0.125262 0.041510
O O15 0.732578 0.343631 0.381662
O O16 0.999997 0.601465 0.427725
#
# Coordination Sequence:
#
# PCOD8122373 Si02
#       8
#     4   4   4   4   4   4   4   4
#     4  11  22  37  58  82 109 142 184 231 274 324
#     4  11  19  32  54  80 116 146 170 217 274 327
#     4  11  19  32  54  80 116 146 170 217 274 327
#     4  11  22  36  52  82 109 150 183 229 268 332
#     4  11  23  37  55  75 115 144 190 230 273 315
#     4  11  22  37  58  82 109 142 184 231 274 324
#     4  11  18  32  55  82 115 142 175 215 272 335
#     4  11  18  32  55  82 115 142 175 215 272 335
#
# _framework density 17.864269
#
# number of rings (size 3 to 8) (size 9 to 14) (size 15 to 20)
#    0.000    1.000    6.250    4.125    0.000    1.000 
#    0.000    2.500    0.000    3.000    0.000    3.500 
#    0.000    0.000    0.000    0.000    0.000    0.000 
#
# Total GULP energy -396910.601573 kJ/mol
# GULP energy per Si atom -12403.456299 kJ/mol
# Density = 1.782361 g / cm^3
# Si number density = 17.864269 Si / 1000 Ang^3
#
#
#
# Elastic Constant Matrix: (Units=GPa)
#
#
# Indices 1 2 3 4 5 6 
#
# 1 80.3761 56.3461 47.3214 0.0000 1.6822 0.0000
# 2 56.3461 154.1686 67.5504 0.0000 3.2910 0.0000
# 3 47.3214 67.5504 132.5043 0.0000 13.6249 0.0000
# 4 0.0000 0.0000 0.0000 15.0892 0.0000 -2.3405
# 5 1.6822 3.2910 13.6249 0.0000 22.8838 0.0000
# 6 0.0000 0.0000 0.0000 -2.3405 0.0000 23.0605
#
#
#
# Elastic Compliance Matrix: (Units=1/GPa)
#
#
# Indices 1 2 3 4 5 6 
#
# 1 0.018322 -0.004873 -0.004253 0.000000 0.001886 0.000000
# 2 -0.004873 0.009692 -0.003296 0.000000 0.000927 0.000000
# 3 -0.004253 -0.003296 0.011361 0.000000 -0.005977 0.000000
# 4 0.000000 0.000000 0.000000 0.067333 0.000000 0.006834
# 5 0.001886 0.000927 -0.005977 0.000000 0.046986 0.000000
# 6 0.000000 0.000000 0.000000 0.006834 0.000000 0.044058
#
#
# Mechanical properties :
#
#
# Convention : Reuss Voigt Hill
#
# Bulk Modulus (GPa) = 68.82017 78.83165 73.82591
# Shear Modulus (GPa) = 21.98392 25.26209 23.62301
#
# Velocity S-wave (km/s) = 3.51181 3.76455 3.64037
# Velocity P-wave (km/s) = 7.41966 7.94479 7.68671
#
# Compressibility (1/GPa) = 0.01453062
#
# Stress axis : x y z
#
# Youngs Moduli (GPa) = 54.57826 103.18022 88.02342
#
# Poissons Ratio (x) = 0.50282 0.37437
# Poissons Ratio (y) = 0.26597 0.29010
# Poissons Ratio (z) = 0.23212 0.34006
#
# Static dielectric constant tensor:
#      x y z
#    x 3.072430 0.000000 0.110670 
#    y 0.000000 3.375330 0.000000 
#    z 0.110670 0.000000 3.449500 
# 
# 
# High freq. dielectric constant tensor:
#      x y z
#    x 1.657500 0.000000 0.015560 
#    y 0.000000 1.686850 0.000000 
#    z 0.015560 0.000000 1.710530 
# 
# From -- ./inp_files/81826.got.cif
#   From: 2010.06.25/outbox.cif.g09.slc.cpg/sg13_41_cif.got.tgz:81826.got - 2010.06.28 04:50:58.
