data_PCOD8122283
_publ_section_title
;
Structure prediction by ZEFSAII (Michael W. Deem and Ramdas Pophale) SiO2 
 PCOD8122283
Probable space group: P 2/C
;
_chemical_formula_sum "Si O2"
_cell_formula_units_Z 16
_cell_length_a 18.049430
_cell_length_b 5.069804
_cell_length_c 8.963984
_cell_angle_alpha 90.000000
_cell_angle_beta 133.138575
_cell_angle_gamma 90.000000
_cell_volume 598.551225
_symmetry_space_group_name_H-M "P 2/C"
_symmetry_group_IT_number 13
_symmetry_cell_setting 'monoclinic'
loop_
_space_group_symop_operation_xyz
x,y,z
-x,y,1/2-z
-x,-y,-z
x,-y,1/2+z
loop_
_atom_site_type_symbol
_atom_site_label
_atom_site_fract_x
_atom_site_fract_y
_atom_site_fract_z
Si Si1 0.619396 0.704319 0.403124
Si Si2 0.736137 0.992205 0.315590
Si Si3 0.211676 0.640786 0.366337
Si Si4 0.040756 0.253361 0.142898
O O1 0.500000 0.682394 0.250000
O O2 0.668117 0.829732 0.616314
O O3 0.666689 0.407862 0.460717
O O4 0.651947 0.845260 0.296381
O O5 0.814199 0.167016 0.527746
O O6 0.810303 0.797123 0.319687
O O7 0.160993 0.343069 0.309451
O O8 0.000000 0.234323 0.250000
O O9 0.000000 0.500000 0.000000
O O10 0.000000 0.000000 0.000000
#
# Coordination Sequence:
#
# PCOD8122283 Si02
#       4
#     4   4   4   4
#     4  11  24  43  74 113 158 209 271 338 415 496
#     4  10  25  46  73 110 161 211 269 329 420 488
#     4  11  27  47  78 111 162 210 273 342 410 496
#     4  12  32  56  87 123 164 214 279 343 421 497
#
# _framework density 26.731211999999999
#
# number of rings (size 3 to 8) (size 9 to 14) (size 15 to 20)
#    0.000    1.000    0.000    3.000   14.000    8.000 
#    0.000    0.000    0.000    0.000    0.000    0.000 
#    0.000    0.000    0.000    0.000    0.000    0.000 
#
# Total GULP energy -198247.080454 kJ/mol
# GULP energy per Si atom -12390.442528 kJ/mol
# Density = 2.667037 g / cm^3
# Si number density = 26.731212 Si / 1000 Ang^3
#
#
#
# Elastic Constant Matrix: (Units=GPa)
#
#
# Indices 1 2 3 4 5 6 
#
# 1 170.3803 87.6433 108.8098 0.0000 -15.7886 0.0000
# 2 87.6433 186.1087 57.8938 0.0000 -15.5788 0.0000
# 3 108.8098 57.8938 125.6272 0.0000 -23.1431 0.0000
# 4 0.0000 0.0000 0.0000 30.0331 0.0000 15.8250
# 5 -15.7886 -15.5788 -23.1431 0.0000 54.8712 0.0000
# 6 0.0000 0.0000 0.0000 15.8250 0.0000 18.7970
#
#
#
# Elastic Compliance Matrix: (Units=1/GPa)
#
#
# Indices 1 2 3 4 5 6 
#
# 1 0.014984 -0.003574 -0.011628 0.000000 -0.001607 0.000000
# 2 -0.003574 0.007144 -0.000013 0.000000 0.000994 0.000000
# 3 -0.011628 -0.000013 0.018888 0.000000 0.004617 0.000000
# 4 0.000000 0.000000 0.000000 0.059844 0.000000 -0.050382
# 5 -0.001607 0.000994 0.004617 0.000000 0.019992 0.000000
# 6 0.000000 0.000000 0.000000 -0.050382 0.000000 0.095616
#
#
# Mechanical properties :
#
#
# Convention : Reuss Voigt Hill
#
# Bulk Modulus (GPa) = 94.46461 110.08998 102.27729
# Shear Modulus (GPa) = 19.96601 35.92489 27.94545
#
# Velocity S-wave (km/s) = 2.73594 3.66994 3.23681
# Velocity P-wave (km/s) = 6.73765 7.69620 7.23282
#
# Compressibility (1/GPa) = 0.01058598
#
# Stress axis : x y z
#
# Youngs Moduli (GPa) = 66.73571 139.98376 52.94446
#
# Poissons Ratio (x) = 0.50031 0.61562
# Poissons Ratio (y) = 0.23852 0.00071
# Poissons Ratio (z) = 0.77597 0.00186
#
# Static dielectric constant tensor:
#      x y z
#    x 5.044030 0.000000 -0.108790 
#    y 0.000000 4.866290 0.000000 
#    z -0.108790 0.000000 5.223260 
# 
# 
# High freq. dielectric constant tensor:
#      x y z
#    x 2.082380 0.000000 -0.016640 
#    y 0.000000 2.092580 0.000000 
#    z -0.016640 0.000000 2.093050 
# 
# From -- ./inp_files/20598.got.cif
#   From: 2010.06.25/outbox.cif.g09.slc.cpg/sg13_11_cif.got.tgz:20598.got - 2010.06.28 04:50:58.
