data_PCOD8122867
_publ_section_title
;
Structure prediction by ZEFSAII (Michael W. Deem and Ramdas Pophale) SiO2 
 PCOD8122867
Probable space group: P 2/C
;
_chemical_formula_sum "Si O2"
_cell_formula_units_Z 20
_cell_length_a 17.295525
_cell_length_b 5.205876
_cell_length_c 25.406726
_cell_angle_alpha 90.000000
_cell_angle_beta 20.005698
_cell_angle_gamma 90.000000
_cell_volume 782.612180
_symmetry_space_group_name_H-M "P 2/C"
_symmetry_group_IT_number 13
_symmetry_cell_setting 'monoclinic'
loop_
_space_group_symop_operation_xyz
x,y,z
-x,y,1/2-z
-x,-y,-z
x,-y,1/2+z
loop_
_atom_site_type_symbol
_atom_site_label
_atom_site_fract_x
_atom_site_fract_y
_atom_site_fract_z
Si Si1 0.679138 0.758197 0.505575
Si Si2 0.631522 0.491951 0.215286
Si Si3 0.852219 0.914063 0.252711
Si Si4 0.389034 0.743380 0.518758
Si Si5 0.061895 0.189929 0.915935
O O1 0.526823 0.721717 0.655559
O O2 0.662638 0.525436 0.475083
O O3 0.942841 0.767090 0.351117
O O4 0.599334 0.023111 0.530684
O O5 0.500000 0.623626 0.250000
O O6 0.699539 0.680504 0.219808
O O7 0.859126 0.392509 0.041770
O O8 0.631036 0.727882 0.394327
O O9 0.913280 0.973083 0.153140
O O10 0.801885 0.180938 0.315606
O O11 0.000000 0.000000 0.000000
#
# Coordination Sequence:
#
# PCOD8122867 Si02
#       5
#     4   4   4   4   4
#     4  12  26  50  78 112 157 204 267 320 397 472
#     4  11  24  44  72 111 148 202 254 324 385 467
#     4  11  25  49  77 113 157 209 257 330 386 470
#     4  11  28  49  77 116 155 204 265 324 393 466
#     4  11  24  46  72 110 153 200 258 318 397 461
#
# _framework density 25.555441999999999
#
# number of rings (size 3 to 8) (size 9 to 14) (size 15 to 20)
#    0.000    0.800    4.000    1.800    0.000   10.400 
#    7.200    0.000    0.000    0.000    0.000    0.000 
#    0.000    0.000    0.000    0.000    0.000    0.000 
#
# Total GULP energy -247948.963324 kJ/mol
# GULP energy per Si atom -12397.448166 kJ/mol
# Density = 2.549728 g / cm^3
# Si number density = 25.555442 Si / 1000 Ang^3
#
#
#
# Elastic Constant Matrix: (Units=GPa)
#
#
# Indices 1 2 3 4 5 6 
#
# 1 151.3052 30.7802 59.6165 0.0000 -4.3408 0.0000
# 2 30.7802 65.1992 25.0140 0.0000 -14.9491 0.0000
# 3 59.6165 25.0140 140.9158 0.0000 -14.3992 0.0000
# 4 0.0000 0.0000 0.0000 37.4632 0.0000 4.6688
# 5 -4.3408 -14.9491 -14.3992 0.0000 64.9886 0.0000
# 6 0.0000 0.0000 0.0000 4.6688 0.0000 31.7146
#
#
#
# Elastic Compliance Matrix: (Units=1/GPa)
#
#
# Indices 1 2 3 4 5 6 
#
# 1 0.008417 -0.002963 -0.003118 0.000000 -0.000810 0.000000
# 2 -0.002963 0.018184 -0.001603 0.000000 0.003630 0.000000
# 3 -0.003118 -0.001603 0.008841 0.000000 0.001382 0.000000
# 4 0.000000 0.000000 0.000000 0.027192 0.000000 -0.004003
# 5 -0.000810 0.003630 0.001382 0.000000 0.016474 0.000000
# 6 0.000000 0.000000 0.000000 -0.004003 0.000000 0.032121
#
#
# Mechanical properties :
#
#
# Convention : Reuss Voigt Hill
#
# Bulk Modulus (GPa) = 49.81671 65.36019 57.58845
# Shear Modulus (GPa) = 37.51249 42.96723 40.23986
#
# Velocity S-wave (km/s) = 3.83546 4.10486 3.97244
# Velocity P-wave (km/s) = 6.25701 6.93526 6.60485
#
# Compressibility (1/GPa) = 0.02007359
#
# Stress axis : x y z
#
# Youngs Moduli (GPa) = 118.80426 54.99372 113.10596
#
# Poissons Ratio (x) = 0.16296 0.35264
# Poissons Ratio (y) = 0.35206 0.18134
# Poissons Ratio (z) = 0.37041 0.08817
#
# Static dielectric constant tensor:
#      x y z
#    x 4.877650 0.000000 -0.056590 
#    y 0.000000 3.540530 0.000000 
#    z -0.056590 0.000000 4.022910 
# 
# 
# High freq. dielectric constant tensor:
#      x y z
#    x 2.046770 0.000000 0.000380 
#    y 0.000000 1.989650 0.000000 
#    z 0.000380 0.000000 2.044100 
# 
# From -- ./inp_files/93122.got.cif
#   From: 2010.06.25/outbox.cif.g09.slc.cpg/sg13_47_cif.got.tgz:93122.got - 2010.06.28 04:50:58.
