data_PCOD8122944
_publ_section_title
;
Structure prediction by ZEFSAII (Michael W. Deem and Ramdas Pophale) SiO2 
 PCOD8122944
Probable space group: P 2/C
;
_chemical_formula_sum "Si O2"
_cell_formula_units_Z 20
_cell_length_a 11.686941
_cell_length_b 4.823221
_cell_length_c 13.304141
_cell_angle_alpha 90.000000
_cell_angle_beta 99.278848
_cell_angle_gamma 90.000000
_cell_volume 740.124427
_symmetry_space_group_name_H-M "P 2/C"
_symmetry_group_IT_number 13
_symmetry_cell_setting 'monoclinic'
loop_
_space_group_symop_operation_xyz
x,y,z
-x,y,1/2-z
-x,-y,-z
x,-y,1/2+z
loop_
_atom_site_type_symbol
_atom_site_label
_atom_site_fract_x
_atom_site_fract_y
_atom_site_fract_z
Si Si1 0.164409 0.000315 0.521489
Si Si2 0.834830 0.363587 0.794929
Si Si3 0.925854 0.474327 0.600474
Si Si4 0.385095 0.634433 0.797679
Si Si5 0.615083 0.123555 0.564311
O O1 0.167422 0.081771 0.639761
O O2 0.145248 0.263189 0.446403
O O3 0.287370 0.865655 0.508506
O O4 0.065826 0.761230 0.487220
O O5 0.853031 0.314157 0.678058
O O6 0.716007 0.531805 0.792597
O O7 0.944015 0.549768 0.846962
O O8 0.500000 0.666720 0.750000
O O9 0.347548 0.933011 0.835533
O O10 0.406806 0.429461 0.894911
O O11 0.500000 0.000000 0.500000
#
# Coordination Sequence:
#
# PCOD8122944 Si02
#       5
#     4   4   4   4   4
#     4  12  24  46  71 106 145 185 236 288 357 417
#     4  11  25  45  74 103 144 191 230 295 350 414
#     4  11  26  45  69 108 146 183 240 284 349 430
#     4  12  26  47  70 104 140 185 239 290 354 421
#     4  12  25  46  69 103 143 182 236 297 348 422
#
# _framework density 27.022485
#
# number of rings (size 3 to 8) (size 9 to 14) (size 15 to 20)
#    0.000    0.400    4.000    3.600    0.000    9.600 
#    0.000    0.000    0.000    0.000    0.000    0.000 
#    0.000    0.000    0.000    0.000    0.000    0.000 
#
# Total GULP energy -248093.768900 kJ/mol
# GULP energy per Si atom -12404.688445 kJ/mol
# Density = 2.696098 g / cm^3
# Si number density = 27.022485 Si / 1000 Ang^3
#
#
#
# Elastic Constant Matrix: (Units=GPa)
#
#
# Indices 1 2 3 4 5 6 
#
# 1 90.7954 -28.2616 13.6726 0.0000 3.7029 0.0000
# 2 -28.2616 62.9104 -11.3941 0.0000 6.3161 0.0000
# 3 13.6726 -11.3941 79.1695 0.0000 -8.5176 0.0000
# 4 0.0000 0.0000 0.0000 37.8331 0.0000 -9.3839
# 5 3.7029 6.3161 -8.5176 0.0000 46.7208 0.0000
# 6 0.0000 0.0000 0.0000 -9.3839 0.0000 19.9561
#
#
#
# Elastic Compliance Matrix: (Units=1/GPa)
#
#
# Indices 1 2 3 4 5 6 
#
# 1 0.013165 0.005827 -0.001665 0.000000 -0.002135 0.000000
# 2 0.005827 0.019052 0.001437 0.000000 -0.002775 0.000000
# 3 -0.001665 0.001437 0.013381 0.000000 0.002377 0.000000
# 4 0.000000 0.000000 0.000000 0.029922 0.000000 0.014070
# 5 -0.002135 -0.002775 0.002377 0.000000 0.022381 0.000000
# 6 0.000000 0.000000 0.000000 0.014070 0.000000 0.056726
#
#
# Mechanical properties :
#
#
# Convention : Reuss Voigt Hill
#
# Bulk Modulus (GPa) = 17.60628 20.10100 18.85364
# Shear Modulus (GPa) = 30.79548 38.15924 34.47736
#
# Velocity S-wave (km/s) = 3.37949 3.76191 3.57582
# Velocity P-wave (km/s) = 4.66450 5.13070 4.90314
#
# Compressibility (1/GPa) = 0.05679792
#
# Stress axis : x y z
#
# Youngs Moduli (GPa) = 75.95724 52.48702 74.73179
#
# Poissons Ratio (x) = -0.30585 0.12440
# Poissons Ratio (y) = -0.44261 -0.10739
# Poissons Ratio (z) = 0.12644 -0.07543
#
# Static dielectric constant tensor:
#      x y z
#    x 5.100580 0.000000 -0.015730 
#    y 0.000000 4.756590 0.000000 
#    z -0.015730 0.000000 5.147830 
# 
# 
# High freq. dielectric constant tensor:
#      x y z
#    x 2.109640 0.000000 -0.000460 
#    y 0.000000 2.080300 0.000000 
#    z -0.000460 0.000000 2.100170 
# 
# From -- ./inp_files/48982.got.cif
#   From: 2010.06.25/outbox.cif.g09.slc.cpg/sg13_25_cif.got.tgz:48982.got - 2010.06.28 04:50:58.
