data_PCOD8122853
_publ_section_title
;
Structure prediction by ZEFSAII (Michael W. Deem and Ramdas Pophale) SiO2 
 PCOD8122853
Probable space group: P 2/C
;
_chemical_formula_sum "Si O2"
_cell_formula_units_Z 22
_cell_length_a 20.130273
_cell_length_b 9.079844
_cell_length_c 12.562919
_cell_angle_alpha 90.000000
_cell_angle_beta 156.740025
_cell_angle_gamma 90.000000
_cell_volume 906.796706
_symmetry_space_group_name_H-M "P 2/C"
_symmetry_group_IT_number 13
_symmetry_cell_setting 'monoclinic'
loop_
_space_group_symop_operation_xyz
x,y,z
-x,y,1/2-z
-x,-y,-z
x,-y,1/2+z
loop_
_atom_site_type_symbol
_atom_site_label
_atom_site_fract_x
_atom_site_fract_y
_atom_site_fract_z
Si Si1 0.500000 0.930747 0.250000
Si Si2 0.609475 0.835907 0.066137
Si Si3 0.144607 0.500935 0.802671
Si Si4 0.500000 0.406692 0.250000
Si Si5 0.000000 0.267613 0.750000
Si Si6 0.055151 0.003989 0.460677
Si Si7 0.756093 0.192210 0.991924
O O1 0.669566 0.835244 0.481370
O O2 0.501984 0.029518 0.360359
O O3 0.803087 0.871585 0.327956
O O4 0.599307 0.809069 0.177896
O O5 0.548040 0.687088 0.923182
O O6 0.119955 0.370014 0.853163
O O7 0.138025 0.656974 0.852915
O O8 0.000000 0.500000 0.500000
O O9 0.332771 0.498752 0.030606
O O10 0.102271 0.157726 0.981227
O O11 0.887370 0.063180 0.151472
O O12 0.000000 0.000000 0.500000
#
# Coordination Sequence:
#
# PCOD8122853 Si02
#       7
#     2   4   4   2   2   4   4
#     4  11  25  42  70 106 148 188 248 324 370 452
#     4  11  24  43  75 106 147 185 259 315 382 437
#     4  12  30  51  77 113 161 207 257 317 397 470
#     4  11  27  52  76 112 160 204 256 328 388 466
#     4  12  28  46  80 114 150 208 260 318 396 462
#     4  12  23  46  77 106 142 198 260 320 383 456
#     4  12  25  45  74 105 146 199 251 308 387 458
#
# _framework density 24.261226000000001
#
# number of rings (size 3 to 8) (size 9 to 14) (size 15 to 20)
#    0.000    0.364    3.636    4.364    7.636    2.182 
#    0.000    0.000    0.000    0.000    0.000    0.000 
#    0.000    0.000    0.000    0.000    0.000    0.000 
#
# Total GULP energy -272610.550018 kJ/mol
# GULP energy per Si atom -12391.388637 kJ/mol
# Density = 2.420601 g / cm^3
# Si number density = 24.261226 Si / 1000 Ang^3
#
#
#
# Elastic Constant Matrix: (Units=GPa)
#
#
# Indices 1 2 3 4 5 6 
#
# 1 87.1763 44.6417 35.2437 0.0000 -0.7632 0.0000
# 2 44.6417 137.6394 36.6605 0.0000 -5.7985 0.0000
# 3 35.2437 36.6605 126.4650 0.0000 -1.8324 0.0000
# 4 0.0000 0.0000 0.0000 13.6620 0.0000 26.2176
# 5 -0.7632 -5.7985 -1.8324 0.0000 57.2592 0.0000
# 6 0.0000 0.0000 0.0000 26.2176 0.0000 16.4332
#
#
#
# Elastic Compliance Matrix: (Units=1/GPa)
#
#
# Indices 1 2 3 4 5 6 
#
# 1 0.014706 -0.003998 -0.002944 0.000000 -0.000303 0.000000
# 2 -0.003998 0.008991 -0.001480 0.000000 0.000810 0.000000
# 3 -0.002944 -0.001480 0.009158 0.000000 0.000104 0.000000
# 4 0.000000 0.000000 0.000000 -0.035504 0.000000 0.056644
# 5 -0.000303 0.000810 0.000104 0.000000 0.017546 0.000000
# 6 0.000000 0.000000 0.000000 0.056644 0.000000 -0.029517
#
#
# Mechanical properties :
#
#
# Convention : Reuss Voigt Hill
#
# Bulk Modulus (GPa) = 62.45987 64.93026 63.69507
# Shear Modulus (GPa) = 661.36258 33.11988 347.24123
#
# Velocity S-wave (km/s) = 16.52853 3.69878 11.97651
# Velocity P-wave (km/s) = 19.74987 6.71285 14.74991
#
# Compressibility (1/GPa) = 0.01601028
#
# Stress axis : x y z
#
# Youngs Moduli (GPa) = 67.99983 111.22762 109.19103
#
# Poissons Ratio (x) = 0.44473 0.32141
# Poissons Ratio (y) = 0.27189 0.16163
# Poissons Ratio (z) = 0.20016 0.16464
#
# Static dielectric constant tensor:
#      x y z
#    x 4.909750 0.000000 -0.321370 
#    y 0.000000 4.447760 0.000000 
#    z -0.321370 0.000000 4.573230 
# 
# 
# High freq. dielectric constant tensor:
#      x y z
#    x 1.980360 0.000000 -0.010850 
#    y 0.000000 1.961190 0.000000 
#    z -0.010850 0.000000 1.964290 
# 
# From -- ./inp_files/58768.got.cif
#   From: 2010.06.25/outbox.cif.g09.slc.cpg/sg13_30_cif.got.tgz:58768.got - 2010.06.28 04:50:58.
