data_PCOD8122710
_publ_section_title
;
Structure prediction by ZEFSAII (Michael W. Deem and Ramdas Pophale) SiO2 
 PCOD8122710
Probable space group: P 2/C
;
_chemical_formula_sum "Si O2"
_cell_formula_units_Z 24
_cell_length_a 8.732547
_cell_length_b 9.076385
_cell_length_c 14.025334
_cell_angle_alpha 90.000000
_cell_angle_beta 91.778331
_cell_angle_gamma 90.000000
_cell_volume 1111.111988
_symmetry_space_group_name_H-M "P 2/C"
_symmetry_group_IT_number 13
_symmetry_cell_setting 'monoclinic'
loop_
_space_group_symop_operation_xyz
x,y,z
-x,y,1/2-z
-x,-y,-z
x,-y,1/2+z
loop_
_atom_site_type_symbol
_atom_site_label
_atom_site_fract_x
_atom_site_fract_y
_atom_site_fract_z
Si Si1 0.806319 0.199232 0.666107
Si Si2 0.711113 0.469101 0.180060
Si Si3 0.647496 0.091521 0.478975
Si Si4 0.376931 0.612414 0.622416
Si Si5 0.837693 0.421285 0.997236
Si Si6 0.848117 0.136574 0.873433
O O1 0.798443 0.374761 0.678918
O O2 0.689552 0.153696 0.582891
O O3 0.763382 0.131812 0.768980
O O4 0.970266 0.135105 0.637735
O O5 0.728730 0.397218 0.284629
O O6 0.532670 0.476333 0.146257
O O7 0.800382 0.367905 0.104388
O O8 0.597271 0.217406 0.403351
O O9 0.500000 0.000000 0.500000
O O10 0.787133 0.998828 0.435537
O O11 0.288737 0.543051 0.531688
O O12 0.812193 0.288191 0.925648
O O13 0.000000 0.500000 0.000000
#
# Coordination Sequence:
#
# PCOD8122710 Si02
#       6
#     4   4   4   4   4   4
#     4  11  24  45  70  98 137 187 229 293 358 418
#     4  11  23  41  70  98 142 173 240 295 346 416
#     4  12  27  45  69 101 147 187 235 287 362 432
#     4  11  25  42  66 101 134 181 233 291 350 415
#     4  12  22  40  70 103 132 175 237 290 348 417
#     4  11  25  44  71 100 139 183 234 286 361 431
#
# _framework density 21.599981
#
# number of rings (size 3 to 8) (size 9 to 14) (size 15 to 20)
#    0.000    0.667    5.000    2.000    2.333    5.333 
#    0.000    1.667    0.000    0.000    0.000    0.000 
#    0.000    0.000    0.000    0.000    0.000    0.000 
#
# Total GULP energy -297532.042957 kJ/mol
# GULP energy per Si atom -12397.168457 kJ/mol
# Density = 2.155082 g / cm^3
# Si number density = 21.599981 Si / 1000 Ang^3
#
#
#
# Elastic Constant Matrix: (Units=GPa)
#
#
# Indices 1 2 3 4 5 6 
#
# 1 47.1969 9.8019 22.2329 0.0000 -4.7630 0.0000
# 2 9.8019 84.4882 35.5458 0.0000 -4.9723 0.0000
# 3 22.2329 35.5458 154.8724 0.0000 -17.2719 0.0000
# 4 0.0000 0.0000 0.0000 41.1814 0.0000 -6.6461
# 5 -4.7630 -4.9723 -17.2719 0.0000 39.3361 0.0000
# 6 0.0000 0.0000 0.0000 -6.6461 0.0000 36.0650
#
#
#
# Elastic Compliance Matrix: (Units=1/GPa)
#
#
# Indices 1 2 3 4 5 6 
#
# 1 0.022944 -0.001395 -0.002822 0.000000 0.001363 0.000000
# 2 -0.001395 0.013190 -0.002797 0.000000 0.000270 0.000000
# 3 -0.002822 -0.002797 0.007809 0.000000 0.002734 0.000000
# 4 0.000000 0.000000 0.000000 0.025027 0.000000 0.004612
# 5 0.001363 0.000270 0.002734 0.000000 0.026821 0.000000
# 6 0.000000 0.000000 0.000000 0.004612 0.000000 0.028578
#
#
# Mechanical properties :
#
#
# Convention : Reuss Voigt Hill
#
# Bulk Modulus (GPa) = 33.42600 46.85764 40.14182
# Shear Modulus (GPa) = 33.69985 37.91494 35.80740
#
# Velocity S-wave (km/s) = 3.95420 4.19420 4.07597
# Velocity P-wave (km/s) = 6.02961 6.72277 6.38560
#
# Compressibility (1/GPa) = 0.02991683
#
# Stress axis : x y z
#
# Youngs Moduli (GPa) = 43.58402 75.81243 128.06011
#
# Poissons Ratio (x) = 0.10572 0.36135
# Poissons Ratio (y) = 0.06078 0.35819
# Poissons Ratio (z) = 0.12298 0.21205
#
# Static dielectric constant tensor:
#      x y z
#    x 4.097650 0.000000 0.188860 
#    y 0.000000 3.854030 0.000000 
#    z 0.188860 0.000000 4.971750 
# 
# 
# High freq. dielectric constant tensor:
#      x y z
#    x 1.846690 0.000000 -0.007160 
#    y 0.000000 1.829630 0.000000 
#    z -0.007160 0.000000 1.881530 
# 
# From -- ./inp_files/46102.got.cif
#   From: 2010.06.25/outbox.cif.g09.slc.cpg/sg13_24_cif.got.tgz:46102.got - 2010.06.28 04:50:58.
