data_PCOD8122581
_publ_section_title
;
Structure prediction by ZEFSAII (Michael W. Deem and Ramdas Pophale) SiO2 
 PCOD8122581
Probable space group: P 2/C
;
_chemical_formula_sum "Si O2"
_cell_formula_units_Z 32
_cell_length_a 8.851238
_cell_length_b 23.665232
_cell_length_c 15.436047
_cell_angle_alpha 90.000000
_cell_angle_beta 29.311395
_cell_angle_gamma 90.000000
_cell_volume 1582.898793
_symmetry_space_group_name_H-M "P 2/C"
_symmetry_group_IT_number 13
_symmetry_cell_setting 'monoclinic'
loop_
_space_group_symop_operation_xyz
x,y,z
-x,y,1/2-z
-x,-y,-z
x,-y,1/2+z
loop_
_atom_site_type_symbol
_atom_site_label
_atom_site_fract_x
_atom_site_fract_y
_atom_site_fract_z
Si Si1 0.144902 0.373399 0.427552
Si Si2 0.865243 0.822963 0.906940
Si Si3 0.132498 0.561101 0.276061
Si Si4 0.147530 0.239849 0.426237
Si Si5 0.132487 0.438893 0.091446
Si Si6 0.134760 0.177034 0.772181
Si Si7 0.863717 0.057002 0.469631
Si Si8 0.136289 0.057001 0.833343
O O1 0.500000 0.393802 0.250000
O O2 0.119536 0.306625 0.440240
O O3 0.972752 0.395084 0.598888
O O4 0.972748 0.395077 0.428363
O O5 0.983632 0.887434 0.860138
O O6 0.000000 0.799331 0.750000
O O7 0.981391 0.783224 0.924711
O O8 0.500002 0.820319 0.088337
O O9 0.000000 0.581491 0.250000
O O10 0.000023 0.499996 0.367187
O O11 0.500007 0.558130 0.087435
O O12 0.500000 0.219585 0.250000
O O13 0.981387 0.216770 0.593898
O O14 0.000000 0.418500 0.250000
O O15 0.016376 0.112563 0.843759
O O16 0.000000 0.200668 0.750000
O O17 0.500003 0.053242 0.647852
O O18 0.983130 0.062106 0.508436
O O19 0.000009 0.000002 0.358163
#
# Coordination Sequence:
#
# PCOD8122581 Si02
#       8
#     4   4   4   4   4   4   4   4
#     4  11  24  42  63  90 123 160 207 255 300 359
#     4  11  23  41  63  88 120 156 200 249 302 363
#     4  11  22  39  64  95 130 167 204 247 300 354
#     4  11  25  44  65  88 117 158 206 255 306 355
#     4  11  22  39  64  95 130 167 204 247 300 354
#     4  11  23  41  63  88 120 156 200 249 302 363
#     4   9  18  34  56  84 116 152 190 238 298 358
#     4   9  18  34  56  84 116 152 190 238 298 358
#
# _framework density 20.216073999999999
#
# number of rings (size 3 to 8) (size 9 to 14) (size 15 to 20)
#    0.000    1.500    1.250    4.875    0.000    5.500 
#    0.000    2.500    0.000    0.000    0.000    0.000 
#    0.000    0.000    0.000    0.000    0.000    0.000 
#
# Total GULP energy -396912.782696 kJ/mol
# GULP energy per Si atom -12403.524459 kJ/mol
# Density = 2.017006 g / cm^3
# Si number density = 20.216074 Si / 1000 Ang^3
#
#
#
# Elastic Constant Matrix: (Units=GPa)
#
#
# Indices 1 2 3 4 5 6 
#
# 1 132.9636 55.0582 64.3034 0.0000 7.5113 0.0000
# 2 55.0582 87.2513 52.3630 0.0000 2.7799 0.0000
# 3 64.3034 52.3630 126.7257 0.0000 -1.0941 0.0000
# 4 0.0000 0.0000 0.0000 21.1739 0.0000 -18.1123
# 5 7.5113 2.7799 -1.0941 0.0000 39.4343 0.0000
# 6 0.0000 0.0000 0.0000 -18.1123 0.0000 3.4126
#
#
#
# Elastic Compliance Matrix: (Units=1/GPa)
#
#
# Indices 1 2 3 4 5 6 
#
# 1 0.011516 -0.004904 -0.003834 0.000000 -0.001954 0.000000
# 2 -0.004904 0.017390 -0.004701 0.000000 -0.000422 0.000000
# 3 -0.003834 -0.004701 0.011791 0.000000 0.001389 0.000000
# 4 0.000000 0.000000 0.000000 -0.013341 0.000000 -0.070807
# 5 -0.001954 -0.000422 0.001389 0.000000 0.025799 0.000000
# 6 0.000000 0.000000 0.000000 -0.070807 0.000000 -0.082775
#
#
# Mechanical properties :
#
#
# Convention : Reuss Voigt Hill
#
# Bulk Modulus (GPa) = 72.36114 76.70996 74.53555
# Shear Modulus (GPa) = 2681.57430 24.48521 1353.02976
#
# Velocity S-wave (km/s) = 36.46006 3.48397 25.89859
# Velocity P-wave (km/s) = 42.52434 7.36284 30.51664
#
# Compressibility (1/GPa) = 0.01381957
#
# Stress axis : x y z
#
# Youngs Moduli (GPa) = 86.83527 57.50344 84.80990
#
# Poissons Ratio (x) = 0.28198 0.32518
# Poissons Ratio (y) = 0.42581 0.39870
# Poissons Ratio (z) = 0.33294 0.27033
#
# Static dielectric constant tensor:
#      x y z
#    x 3.752230 0.000000 -0.003480 
#    y 0.000000 3.716970 0.000000 
#    z -0.003480 0.000000 3.755530 
# 
# 
# High freq. dielectric constant tensor:
#      x y z
#    x 1.797410 0.000000 -0.001180 
#    y 0.000000 1.788280 0.000000 
#    z -0.001180 0.000000 1.798560 
# 
# From -- ./inp_files/48295.got.cif
#   From: 2010.06.25/outbox.cif.g09.slc.cpg/sg13_25_cif.got.tgz:48295.got - 2010.06.28 04:50:58.
