data_PCOD8122006
_publ_section_title
;
Structure prediction by ZEFSAII (Michael W. Deem and Ramdas Pophale) SiO2 
 PCOD8122006
Probable space group: P 2/C
;
_chemical_formula_sum "Si O2"
_cell_formula_units_Z 26
_cell_length_a 7.849959
_cell_length_b 11.389736
_cell_length_c 14.040885
_cell_angle_alpha 90.000000
_cell_angle_beta 60.930114
_cell_angle_gamma 90.000000
_cell_volume 1097.237729
_symmetry_space_group_name_H-M "P 2/C"
_symmetry_group_IT_number 13
_symmetry_cell_setting 'monoclinic'
loop_
_space_group_symop_operation_xyz
x,y,z
-x,y,1/2-z
-x,-y,-z
x,-y,1/2+z
loop_
_atom_site_type_symbol
_atom_site_label
_atom_site_fract_x
_atom_site_fract_y
_atom_site_fract_z
Si Si1 0.721584 0.959992 0.670081
Si Si2 0.705025 0.771267 0.150353
Si Si3 0.299266 0.492127 0.155198
Si Si4 0.000000 0.982144 0.750000
Si Si5 0.457619 0.308060 0.985990
Si Si6 0.954863 0.554355 0.114538
Si Si7 0.683040 0.086287 0.968479
O O1 0.500000 0.919175 0.750000
O O2 0.747230 0.099437 0.677344
O O3 0.873592 0.904899 0.706960
O O4 0.776863 0.926473 0.547763
O O5 0.500000 0.726983 0.250000
O O6 0.689698 0.768635 0.038983
O O7 0.884665 0.688868 0.130478
O O8 0.480980 0.581221 0.097628
O O9 0.215983 0.480818 0.284890
O O10 0.147309 0.551140 0.124328
O O11 0.352849 0.360077 0.108171
O O12 0.846862 0.062416 0.846922
O O13 0.628453 0.222651 0.973232
O O14 0.000000 0.500000 0.000000
O O15 0.500000 0.000000 0.000000
#
# Coordination Sequence:
#
# PCOD8122006 Si02
#       7
#     4   4   4   2   4   4   4
#     4  11  24  45  74 108 142 188 243 303 371 434
#     4  11  20  37  67  98 134 180 235 296 351 421
#     4  10  24  40  64  97 133 181 231 283 354 421
#     4  12  26  44  76 104 146 192 240 298 372 444
#     4  11  22  43  67  93 138 182 229 295 352 416
#     4  11  22  38  63  97 136 174 232 286 344 428
#     4  12  24  46  73 105 145 186 243 305 365 443
#
# _framework density 23.695868000000001
#
# number of rings (size 3 to 8) (size 9 to 14) (size 15 to 20)
#    0.000    0.923    6.154    1.385    2.154    0.000 
#    0.000    4.615    0.000    0.000    0.000    0.000 
#    0.000    0.000    0.000    0.000    0.000    0.000 
#
# Total GULP energy -322326.162074 kJ/mol
# GULP energy per Si atom -12397.160080 kJ/mol
# Density = 2.364194 g / cm^3
# Si number density = 23.695868 Si / 1000 Ang^3
#
#
#
# Elastic Constant Matrix: (Units=GPa)
#
#
# Indices 1 2 3 4 5 6 
#
# 1 115.1467 14.3089 34.3448 0.0000 15.9781 0.0000
# 2 14.3089 44.5278 24.3185 0.0000 -6.0413 0.0000
# 3 34.3448 24.3185 169.7634 0.0000 9.0654 0.0000
# 4 0.0000 0.0000 0.0000 18.4337 0.0000 4.1176
# 5 15.9781 -6.0413 9.0654 0.0000 46.6239 0.0000
# 6 0.0000 0.0000 0.0000 4.1176 0.0000 24.7668
#
#
#
# Elastic Compliance Matrix: (Units=1/GPa)
#
#
# Indices 1 2 3 4 5 6 
#
# 1 0.009954 -0.002905 -0.001410 0.000000 -0.003513 0.000000
# 2 -0.002905 0.025925 -0.003394 0.000000 0.005015 0.000000
# 3 -0.001410 -0.003394 0.006730 0.000000 -0.001265 0.000000
# 4 0.000000 0.000000 0.000000 0.056341 0.000000 -0.009367
# 5 -0.003513 0.005015 -0.001265 0.000000 0.023548 0.000000
# 6 0.000000 0.000000 0.000000 -0.009367 0.000000 0.041934
#
#
# Mechanical properties :
#
#
# Convention : Reuss Voigt Hill
#
# Bulk Modulus (GPa) = 36.77748 52.82026 44.79887
# Shear Modulus (GPa) = 26.46725 35.06261 30.76493
#
# Velocity S-wave (km/s) = 3.34572 3.85085 3.60714
# Velocity P-wave (km/s) = 5.52082 6.48933 6.02457
#
# Compressibility (1/GPa) = 0.02719055
#
# Stress axis : x y z
#
# Youngs Moduli (GPa) = 100.46542 38.57225 148.59926
#
# Poissons Ratio (x) = 0.11206 0.20952
# Poissons Ratio (y) = 0.29188 0.50432
# Poissons Ratio (z) = 0.14165 0.13091
#
# Static dielectric constant tensor:
#      x y z
#    x 4.528820 0.000000 0.100960 
#    y 0.000000 3.881580 0.000000 
#    z 0.100960 0.000000 4.580800 
# 
# 
# High freq. dielectric constant tensor:
#      x y z
#    x 1.944240 0.000000 0.005810 
#    y 0.000000 1.904790 0.000000 
#    z 0.005810 0.000000 1.950990 
# 
# From -- ./inp_files/46800.got.cif
#   From: 2010.06.25/outbox.cif.g09.slc.cpg/sg13_24_cif.got.tgz:46800.got - 2010.06.28 04:50:58.
