data_PCOD8122489
_publ_section_title
;
Structure prediction by ZEFSAII (Michael W. Deem and Ramdas Pophale) SiO2 
 PCOD8122489
Probable space group: P 2/C
;
_chemical_formula_sum "Si O2"
_cell_formula_units_Z 24
_cell_length_a 9.591754
_cell_length_b 9.265416
_cell_length_c 13.950855
_cell_angle_alpha 90.000000
_cell_angle_beta 98.430803
_cell_angle_gamma 90.000000
_cell_volume 1226.436597
_symmetry_space_group_name_H-M "P 2/C"
_symmetry_group_IT_number 13
_symmetry_cell_setting 'monoclinic'
loop_
_space_group_symop_operation_xyz
x,y,z
-x,y,1/2-z
-x,-y,-z
x,-y,1/2+z
loop_
_atom_site_type_symbol
_atom_site_label
_atom_site_fract_x
_atom_site_fract_y
_atom_site_fract_z
Si Si1 0.090019 0.159665 0.167877
Si Si2 0.915041 0.643205 0.507620
Si Si3 0.657641 0.644387 0.806535
Si Si4 0.344595 0.657977 0.275908
Si Si5 0.111064 0.841154 0.175998
Si Si6 0.342284 0.450431 0.983963
O O1 0.236478 0.231514 0.217080
O O2 0.000000 0.122261 0.250000
O O3 0.994815 0.260122 0.092582
O O4 0.121069 0.000003 0.128492
O O5 0.921191 0.728423 0.409920
O O6 0.758846 0.592730 0.525849
O O7 0.000000 0.500000 0.500000
O O8 0.500000 0.674198 0.750000
O O9 0.715471 0.490993 0.774691
O O10 0.673706 0.647901 0.923379
O O11 0.500000 0.677123 0.250000
O O12 0.262267 0.799368 0.234733
O O13 0.324994 0.648510 0.388496
O O14 0.000000 0.823442 0.250000
O O15 0.500000 0.500000 0.000000
#
# Coordination Sequence:
#
# PCOD8122489 Si02
#       6
#     4   4   4   4   4   4
#     4  11  25  42  60  90 130 166 204 252 308 371
#     4  12  22  40  67  93 122 159 209 259 310 364
#     4  11  22  40  63  93 124 163 205 263 305 366
#     4  11  21  39  65  90 122 159 212 256 312 366
#     4  11  24  41  61  89 127 168 204 251 311 375
#     4  12  21  37  65  98 123 155 208 266 311 360
#
# _framework density 19.568887
#
# number of rings (size 3 to 8) (size 9 to 14) (size 15 to 20)
#    0.000    0.667    6.667    2.500    0.000    2.000 
#    0.000    0.000    0.000    3.000    0.000    0.000 
#    0.000    0.000    0.000    0.000    0.000    0.000 
#
# Total GULP energy -297470.259231 kJ/mol
# GULP energy per Si atom -12394.594135 kJ/mol
# Density = 1.952435 g / cm^3
# Si number density = 19.568887 Si / 1000 Ang^3
#
#
#
# Elastic Constant Matrix: (Units=GPa)
#
#
# Indices 1 2 3 4 5 6 
#
# 1 114.5581 70.4150 28.2087 0.0000 11.0455 0.0000
# 2 70.4150 141.8177 46.5101 0.0000 15.0738 0.0000
# 3 28.2087 46.5101 116.6131 0.0000 7.7756 0.0000
# 4 0.0000 0.0000 0.0000 21.8563 0.0000 -17.1784
# 5 11.0455 15.0738 7.7756 0.0000 30.4397 0.0000
# 6 0.0000 0.0000 0.0000 -17.1784 0.0000 -50.0029
#
#
#
# Elastic Compliance Matrix: (Units=1/GPa)
#
#
# Indices 1 2 3 4 5 6 
#
# 1 0.012669 -0.005935 -0.000597 0.000000 -0.001506 0.000000
# 2 -0.005935 0.011220 -0.002861 0.000000 -0.002672 0.000000
# 3 -0.000597 -0.002861 0.009921 0.000000 -0.000901 0.000000
# 4 0.000000 0.000000 0.000000 0.036026 0.000000 -0.012377
# 5 -0.001506 -0.002672 -0.000901 0.000000 0.034951 0.000000
# 6 0.000000 0.000000 0.000000 -0.012377 0.000000 -0.015747
#
#
# Mechanical properties :
#
#
# Convention : Reuss Voigt Hill
#
# Bulk Modulus (GPa) = 66.55950 73.69517 70.12734
# Shear Modulus (GPa) = 44.31224 15.64896 29.98060
#
# Velocity S-wave (km/s) = 4.76376 2.83094 3.91839
# Velocity P-wave (km/s) = 8.02151 6.95893 7.50904
#
# Compressibility (1/GPa) = 0.01502415
#
# Stress axis : x y z
#
# Youngs Moduli (GPa) = 78.93138 89.12394 100.79471
#
# Poissons Ratio (x) = 0.52891 0.06021
# Poissons Ratio (y) = 0.46842 0.28841
# Poissons Ratio (z) = 0.04715 0.25502
#
# Static dielectric constant tensor:
#      x y z
#    x 3.670190 0.000000 0.020920 
#    y 0.000000 3.472290 0.000000 
#    z 0.020920 0.000000 3.464200 
# 
# 
# High freq. dielectric constant tensor:
#      x y z
#    x 1.774760 0.000000 0.001640 
#    y 0.000000 1.749840 0.000000 
#    z 0.001640 0.000000 1.776040 
# 
# From -- ./inp_files/46183.got.cif
#   From: 2010.06.25/outbox.cif.g09.slc.cpg/sg13_24_cif.got.tgz:46183.got - 2010.06.28 04:50:58.
