data_PCOD8122929
_publ_section_title
;
Structure prediction by ZEFSAII (Michael W. Deem and Ramdas Pophale) SiO2 
 PCOD8122929
Probable space group: P 2/C
;
_chemical_formula_sum "Si O2"
_cell_formula_units_Z 16
_cell_length_a 9.460075
_cell_length_b 8.127093
_cell_length_c 16.981294
_cell_angle_alpha 90.000000
_cell_angle_beta 31.690786
_cell_angle_gamma 90.000000
_cell_volume 685.862059
_symmetry_space_group_name_H-M "P 2/C"
_symmetry_group_IT_number 13
_symmetry_cell_setting 'monoclinic'
loop_
_space_group_symop_operation_xyz
x,y,z
-x,y,1/2-z
-x,-y,-z
x,-y,1/2+z
loop_
_atom_site_type_symbol
_atom_site_label
_atom_site_fract_x
_atom_site_fract_y
_atom_site_fract_z
Si Si1 0.078342 0.809055 0.103727
Si Si2 0.590089 0.323911 0.923394
Si Si3 0.946298 0.813976 0.863358
Si Si4 0.194983 0.352077 0.390719
O O1 0.346842 0.784055 0.028680
O O2 0.853568 0.677605 0.241435
O O3 0.983455 0.994965 0.160776
O O4 0.144089 0.786208 0.981007
O O5 0.500000 0.500000 0.000000
O O6 0.364672 0.236137 0.975607
O O7 0.000000 0.750076 0.750000
O O8 0.140223 0.719579 0.830852
O O9 0.500000 0.416229 0.250000
O O10 0.000000 0.500000 0.500000
#
# Coordination Sequence:
#
# PCOD8122929 Si02
#       4
#     4   4   4   4
#     4  11  26  48  74 111 150 198 252 308 386 453
#     4  11  25  44  77 112 150 193 252 311 380 449
#     4  12  26  47  78 107 151 197 252 313 377 460
#     4  12  30  50  75 110 153 200 254 313 383 448
#
# _framework density 23.328305
#
# number of rings (size 3 to 8) (size 9 to 14) (size 15 to 20)
#    0.000    0.500    2.500    4.500   17.500    0.000 
#    0.000    0.000    0.000    0.000    0.000    0.000 
#    0.000    0.000    0.000    0.000    0.000    0.000 
#
# Total GULP energy -198420.966179 kJ/mol
# GULP energy per Si atom -12401.310386 kJ/mol
# Density = 2.327521 g / cm^3
# Si number density = 23.328305 Si / 1000 Ang^3
#
#
#
# Elastic Constant Matrix: (Units=GPa)
#
#
# Indices 1 2 3 4 5 6 
#
# 1 173.4407 42.1450 61.8589 0.0000 -1.0712 0.0000
# 2 42.1450 125.4252 48.7438 0.0000 -9.5782 0.0000
# 3 61.8589 48.7438 119.9609 0.0000 -9.4469 0.0000
# 4 0.0000 0.0000 0.0000 34.0276 0.0000 -2.2318
# 5 -1.0712 -9.5782 -9.4469 0.0000 51.5294 0.0000
# 6 0.0000 0.0000 0.0000 -2.2318 0.0000 34.2272
#
#
#
# Elastic Compliance Matrix: (Units=1/GPa)
#
#
# Indices 1 2 3 4 5 6 
#
# 1 0.007227 -0.001201 -0.003292 0.000000 -0.000677 0.000000
# 2 -0.001201 0.009726 -0.003239 0.000000 0.001189 0.000000
# 3 -0.003292 -0.003239 0.011463 0.000000 0.001431 0.000000
# 4 0.000000 0.000000 0.000000 0.029514 0.000000 0.001925
# 5 -0.000677 0.001189 0.001431 0.000000 0.019876 0.000000
# 6 0.000000 0.000000 0.000000 0.001925 0.000000 0.029342
#
#
# Mechanical properties :
#
#
# Convention : Reuss Voigt Hill
#
# Bulk Modulus (GPa) = 77.21005 80.48025 78.84515
# Shear Modulus (GPa) = 39.39195 41.69545 40.54370
#
# Velocity S-wave (km/s) = 4.11370 4.23227 4.17341
# Velocity P-wave (km/s) = 7.46541 7.64570 7.55609
#
# Compressibility (1/GPa) = 0.01295168
#
# Stress axis : x y z
#
# Youngs Moduli (GPa) = 138.36103 102.81741 87.24022
#
# Poissons Ratio (x) = 0.12346 0.28722
# Poissons Ratio (y) = 0.16614 0.28258
# Poissons Ratio (z) = 0.45552 0.33304
#
# Static dielectric constant tensor:
#      x y z
#    x 4.927680 0.000000 0.078380 
#    y 0.000000 4.271930 0.000000 
#    z 0.078380 0.000000 4.435550 
# 
# 
# High freq. dielectric constant tensor:
#      x y z
#    x 1.938170 0.000000 -0.005340 
#    y 0.000000 1.917400 0.000000 
#    z -0.005340 0.000000 1.928750 
# 
# From -- ./inp_files/63627.got.cif
#   From: 2010.06.25/outbox.cif.g09.slc.cpg/sg13_32_cif.got.tgz:63627.got - 2010.06.28 04:50:58.
