data_PCOD8122915
_publ_section_title
;
Structure prediction by ZEFSAII (Michael W. Deem and Ramdas Pophale) SiO2 
 PCOD8122915
Probable space group: P 2/C
;
_chemical_formula_sum "Si O2"
_cell_formula_units_Z 22
_cell_length_a 5.101456
_cell_length_b 6.277775
_cell_length_c 28.695214
_cell_angle_alpha 90.000000
_cell_angle_beta 80.733393
_cell_angle_gamma 90.000000
_cell_volume 906.993958
_symmetry_space_group_name_H-M "P 2/C"
_symmetry_group_IT_number 13
_symmetry_cell_setting 'monoclinic'
loop_
_space_group_symop_operation_xyz
x,y,z
-x,y,1/2-z
-x,-y,-z
x,-y,1/2+z
loop_
_atom_site_type_symbol
_atom_site_label
_atom_site_fract_x
_atom_site_fract_y
_atom_site_fract_z
Si Si1 0.369786 0.758260 0.207554
Si Si2 0.956029 0.056739 0.054288
Si Si3 0.273617 0.326460 0.887447
Si Si4 0.948560 0.408510 0.329016
Si Si5 0.427028 0.305731 0.087224
Si Si6 0.000000 0.890222 0.750000
O O1 0.500000 0.650702 0.250000
O O2 0.569826 0.793209 0.158538
O O3 0.123253 0.616031 0.198664
O O4 0.257158 0.983143 0.226752
O O5 0.184391 0.226210 0.061306
O O6 0.664017 0.147954 0.069905
O O7 0.942827 0.834984 0.084090
O O8 0.000000 0.000000 0.000000
O O9 0.469423 0.444131 0.920235
O O10 0.121621 0.527244 0.868843
O O11 0.682426 0.292735 0.356542
O O12 0.103346 0.248764 0.290775
#
# Coordination Sequence:
#
# PCOD8122915 Si02
#       6
#     4   4   4   4   4   2
#     4  11  25  41  68 104 143 197 244 303 365 443
#     4  12  28  49  78 114 148 196 255 315 386 458
#     4  11  26  48  75 105 155 196 252 312 379 456
#     4  11  25  46  69 104 146 195 246 300 370 444
#     4  11  26  48  76 110 148 197 245 307 384 449
#     4  12  24  40  68 100 148 186 248 296 364 436
#
# _framework density 24.255949999999999
#
# number of rings (size 3 to 8) (size 9 to 14) (size 15 to 20)
#    0.000    0.727    1.818    4.364   10.182    5.091 
#    0.000    0.000    0.000    0.000    0.000    0.000 
#    0.000    0.000    0.000    0.000    0.000    0.000 
#
# Total GULP energy -272588.560924 kJ/mol
# GULP energy per Si atom -12390.389133 kJ/mol
# Density = 2.420074 g / cm^3
# Si number density = 24.255950 Si / 1000 Ang^3
#
#
#
# Elastic Constant Matrix: (Units=GPa)
#
#
# Indices 1 2 3 4 5 6 
#
# 1 119.7116 43.6311 46.3922 0.0000 -7.3653 0.0000
# 2 43.6311 89.9256 76.6749 0.0000 -17.1039 0.0000
# 3 46.3922 76.6749 138.2635 0.0000 -10.9958 0.0000
# 4 0.0000 0.0000 0.0000 34.6322 0.0000 1.2112
# 5 -7.3653 -17.1039 -10.9958 0.0000 32.9716 0.0000
# 6 0.0000 0.0000 0.0000 1.2112 0.0000 37.5623
#
#
#
# Elastic Compliance Matrix: (Units=1/GPa)
#
#
# Indices 1 2 3 4 5 6 
#
# 1 0.010270 -0.003917 -0.001287 0.000000 -0.000167 0.000000
# 2 -0.003917 0.024414 -0.011594 0.000000 0.007923 0.000000
# 3 -0.001287 -0.011594 0.013963 0.000000 -0.001645 0.000000
# 4 0.000000 0.000000 0.000000 0.028907 0.000000 -0.000932
# 5 -0.000167 0.007923 -0.001645 0.000000 0.033853 0.000000
# 6 0.000000 0.000000 0.000000 -0.000932 0.000000 0.026653
#
#
# Mechanical properties :
#
#
# Convention : Reuss Voigt Hill
#
# Bulk Modulus (GPa) = 66.44653 75.69969 71.07311
# Shear Modulus (GPa) = 28.30090 33.11337 30.70713
#
# Velocity S-wave (km/s) = 3.41949 3.69882 3.56190
# Velocity P-wave (km/s) = 6.56079 7.03692 6.80302
#
# Compressibility (1/GPa) = 0.01504970
#
# Stress axis : x y z
#
# Youngs Moduli (GPa) = 97.37556 40.96042 71.61716
#
# Poissons Ratio (x) = 0.16046 0.09215
# Poissons Ratio (y) = 0.38146 0.83035
# Poissons Ratio (z) = 0.12529 0.47491
#
# Static dielectric constant tensor:
#      x y z
#    x 4.641000 0.000000 -0.166800 
#    y 0.000000 4.422030 0.000000 
#    z -0.166800 0.000000 4.470520 
# 
# 
# High freq. dielectric constant tensor:
#      x y z
#    x 1.968160 0.000000 -0.016900 
#    y 0.000000 1.962600 0.000000 
#    z -0.016900 0.000000 1.958910 
# 
# From -- ./inp_files/94561.got.cif
#   From: 2010.06.25/outbox.cif.g09.slc.cpg/sg13_48_cif.got.tgz:94561.got - 2010.06.28 04:50:58.
