data_PCOD8122800
_publ_section_title
;
Structure prediction by ZEFSAII (Michael W. Deem and Ramdas Pophale) SiO2 
 PCOD8122800
Probable space group: P 2/C
;
_chemical_formula_sum "Si O2"
_cell_formula_units_Z 26
_cell_length_a 12.225903
_cell_length_b 13.523765
_cell_length_c 16.226606
_cell_angle_alpha 90.000000
_cell_angle_beta 26.294677
_cell_angle_gamma 90.000000
_cell_volume 1188.497077
_symmetry_space_group_name_H-M "P 2/C"
_symmetry_group_IT_number 13
_symmetry_cell_setting 'monoclinic'
loop_
_space_group_symop_operation_xyz
x,y,z
-x,y,1/2-z
-x,-y,-z
x,-y,1/2+z
loop_
_atom_site_type_symbol
_atom_site_label
_atom_site_fract_x
_atom_site_fract_y
_atom_site_fract_z
Si Si1 0.000000 0.192549 0.750000
Si Si2 0.255119 0.619956 0.272289
Si Si3 0.533249 0.702652 0.527716
Si Si4 0.698716 0.417093 0.180728
Si Si5 0.281970 0.823153 0.338273
Si Si6 0.242222 0.956428 0.209790
Si Si7 0.104764 0.834475 0.770054
O O1 0.904057 0.129729 0.738315
O O2 0.240099 0.259864 0.567446
O O3 0.359496 0.531088 0.257102
O O4 0.346250 0.724151 0.245926
O O5 0.963016 0.603182 0.462397
O O6 0.364066 0.622253 0.106514
O O7 0.327136 0.647900 0.720058
O O8 0.389155 0.795673 0.581922
O O9 0.500000 0.380894 0.250000
O O10 0.500000 0.857517 0.250000
O O11 0.254164 0.916774 0.295207
O O12 0.051611 0.787687 0.549921
O O13 0.066767 0.050588 0.318404
O O14 0.500000 0.000000 0.000000
O O15 0.000000 0.810036 0.750000
#
# Coordination Sequence:
#
# PCOD8122800 Si02
#       7
#     2   4   4   4   4   4   4
#     4  12  24  40  78  98 146 186 226 290 352 416
#     4  11  23  46  68 102 136 181 236 290 355 421
#     4  12  24  45  70 105 139 186 234 292 354 426
#     4  11  25  43  70  99 140 179 230 295 357 426
#     4  12  25  44  70 101 137 186 237 289 351 422
#     4  12  24  45  66 102 140 185 233 289 350 418
#     4  12  25  44  69 100 142 187 239 290 351 418
#
# _framework density 21.876366999999998
#
# number of rings (size 3 to 8) (size 9 to 14) (size 15 to 20)
#    0.000    0.308    5.385    4.154    0.000    0.000 
#    0.000    0.769    0.000    0.000    0.000    0.000 
#    0.000    0.000    0.000    0.000    0.000    0.000 
#
# Total GULP energy -322239.334917 kJ/mol
# GULP energy per Si atom -12393.820574 kJ/mol
# Density = 2.182658 g / cm^3
# Si number density = 21.876367 Si / 1000 Ang^3
#
#
#
# Elastic Constant Matrix: (Units=GPa)
#
#
# Indices 1 2 3 4 5 6 
#
# 1 126.8144 19.2021 46.8868 0.0000 -2.6875 0.0000
# 2 19.2021 68.3693 26.2501 0.0000 6.6851 0.0000
# 3 46.8868 26.2501 109.6646 0.0000 7.7969 0.0000
# 4 0.0000 0.0000 0.0000 27.4321 0.0000 -0.5748
# 5 -2.6875 6.6851 7.7969 0.0000 37.4612 0.0000
# 6 0.0000 0.0000 0.0000 -0.5748 0.0000 26.7447
#
#
#
# Elastic Compliance Matrix: (Units=1/GPa)
#
#
# Indices 1 2 3 4 5 6 
#
# 1 0.009566 -0.001364 -0.003887 0.000000 0.001739 0.000000
# 2 -0.001364 0.016466 -0.003189 0.000000 -0.002373 0.000000
# 3 -0.003887 -0.003189 0.011696 0.000000 -0.002144 0.000000
# 4 0.000000 0.000000 0.000000 0.036470 0.000000 0.000784
# 5 0.001739 -0.002373 -0.002144 0.000000 0.027689 0.000000
# 6 0.000000 0.000000 0.000000 0.000784 0.000000 0.037407
#
#
# Mechanical properties :
#
#
# Convention : Reuss Voigt Hill
#
# Bulk Modulus (GPa) = 47.96814 54.39181 51.17997
# Shear Modulus (GPa) = 30.65120 32.49487 31.57303
#
# Velocity S-wave (km/s) = 3.74720 3.85825 3.80313
# Velocity P-wave (km/s) = 6.37938 6.69070 6.53689
#
# Compressibility (1/GPa) = 0.02084717
#
# Stress axis : x y z
#
# Youngs Moduli (GPa) = 104.53569 60.73043 85.49569
#
# Poissons Ratio (x) = 0.08286 0.33232
# Poissons Ratio (y) = 0.14262 0.27269
# Poissons Ratio (z) = 0.40633 0.19370
#
# Static dielectric constant tensor:
#      x y z
#    x 3.884410 0.000000 -0.107320 
#    y 0.000000 4.105760 0.000000 
#    z -0.107320 0.000000 4.285070 
# 
# 
# High freq. dielectric constant tensor:
#      x y z
#    x 1.860460 0.000000 -0.001230 
#    y 0.000000 1.866500 0.000000 
#    z -0.001230 0.000000 1.867830 
# 
# From -- ./inp_files/51423.got.cif
#   From: 2010.06.25/outbox.cif.g09.slc.cpg/sg13_26_cif.got.tgz:51423.got - 2010.06.28 04:50:58.
