data_PCOD8122876
_publ_section_title
;
Structure prediction by ZEFSAII (Michael W. Deem and Ramdas Pophale) SiO2 
 PCOD8122876
Probable space group: P 2/C
;
_chemical_formula_sum "Si O2"
_cell_formula_units_Z 24
_cell_length_a 9.054305
_cell_length_b 14.692398
_cell_length_c 17.187907
_cell_angle_alpha 90.000000
_cell_angle_beta 150.326896
_cell_angle_gamma 90.000000
_cell_volume 1131.932727
_symmetry_space_group_name_H-M "P 2/C"
_symmetry_group_IT_number 13
_symmetry_cell_setting 'monoclinic'
loop_
_space_group_symop_operation_xyz
x,y,z
-x,y,1/2-z
-x,-y,-z
x,-y,1/2+z
loop_
_atom_site_type_symbol
_atom_site_label
_atom_site_fract_x
_atom_site_fract_y
_atom_site_fract_z
Si Si1 0.710673 0.225552 0.666805
Si Si2 0.286377 0.279456 0.342521
Si Si3 0.523215 0.940917 0.352241
Si Si4 0.894356 0.093475 0.288701
Si Si5 0.700807 0.395602 0.771297
Si Si6 0.614524 0.419361 0.386730
O O1 0.435842 0.226031 0.482345
O O2 0.672129 0.145390 0.710741
O O3 0.736057 0.322353 0.720463
O O4 0.000000 0.204553 0.750000
O O5 0.186038 0.200411 0.236811
O O6 0.508765 0.349290 0.403950
O O7 0.000000 0.330588 0.250000
O O8 0.500000 0.945315 0.250000
O O9 0.862891 0.932259 0.535374
O O10 0.398945 0.033995 0.331149
O O11 0.000000 0.072416 0.250000
O O12 0.500000 0.355903 0.750000
O O13 0.527160 0.482976 0.657539
O O14 0.027497 0.425373 0.950790
O O15 0.500000 0.386594 0.250000
#
# Coordination Sequence:
#
# PCOD8122876 Si02
#       6
#     4   4   4   4   4   4
#     4  12  25  45  66  98 132 174 227 274 339 397
#     4  11  25  44  68  98 133 177 223 275 336 400
#     4  12  26  43  69 100 134 175 223 278 337 398
#     4  11  24  45  68  98 132 178 220 274 339 397
#     4  11  25  43  68  97 134 176 221 276 338 397
#     4  11  25  43  67  98 132 179 220 278 336 400
#
# _framework density 21.202673000000001
#
# number of rings (size 3 to 8) (size 9 to 14) (size 15 to 20)
#    0.000    0.667    5.000    4.000    7.000    3.333 
#    0.000    0.000    0.000    0.000    0.000    0.000 
#    0.000    0.000    0.000    0.000    0.000    0.000 
#
# Total GULP energy -297683.554222 kJ/mol
# GULP energy per Si atom -12403.481426 kJ/mol
# Density = 2.115441 g / cm^3
# Si number density = 21.202673 Si / 1000 Ang^3
#
#
#
# Elastic Constant Matrix: (Units=GPa)
#
#
# Indices 1 2 3 4 5 6 
#
# 1 75.5222 26.6114 6.9995 0.0000 7.0346 0.0000
# 2 26.6114 78.4845 7.1626 0.0000 6.4460 0.0000
# 3 6.9995 7.1626 109.8511 0.0000 14.6509 0.0000
# 4 0.0000 0.0000 0.0000 25.4932 0.0000 -1.5937
# 5 7.0346 6.4460 14.6509 0.0000 41.6765 0.0000
# 6 0.0000 0.0000 0.0000 -1.5937 0.0000 25.8772
#
#
#
# Elastic Compliance Matrix: (Units=1/GPa)
#
#
# Indices 1 2 3 4 5 6 
#
# 1 0.015187 -0.004976 -0.000424 0.000000 -0.001645 0.000000
# 2 -0.004976 0.014574 -0.000466 0.000000 -0.001250 0.000000
# 3 -0.000424 -0.000466 0.009591 0.000000 -0.003228 0.000000
# 4 0.000000 0.000000 0.000000 0.039378 0.000000 0.002425
# 5 -0.001645 -0.001250 -0.003228 0.000000 0.025600 0.000000
# 6 0.000000 0.000000 0.000000 0.002425 0.000000 0.038793
#
#
# Mechanical properties :
#
#
# Convention : Reuss Voigt Hill
#
# Bulk Modulus (GPa) = 36.20579 38.37829 37.29204
# Shear Modulus (GPa) = 30.47642 33.48168 31.97905
#
# Velocity S-wave (km/s) = 3.79540 3.97813 3.88784
# Velocity P-wave (km/s) = 6.02660 6.26424 6.14657
#
# Compressibility (1/GPa) = 0.02761989
#
# Stress axis : x y z
#
# Youngs Moduli (GPa) = 65.84647 68.61695 104.26250
#
# Poissons Ratio (x) = 0.34141 0.04419
# Poissons Ratio (y) = 0.32762 0.04863
# Poissons Ratio (z) = 0.02791 0.03201
#
# Static dielectric constant tensor:
#      x y z
#    x 3.783360 0.000000 0.107570 
#    y 0.000000 3.792070 0.000000 
#    z 0.107570 0.000000 3.932280 
# 
# 
# High freq. dielectric constant tensor:
#      x y z
#    x 1.834580 0.000000 0.009380 
#    y 0.000000 1.833690 0.000000 
#    z 0.009380 0.000000 1.847330 
# 
# From -- ./inp_files/64693.got.cif
#   From: 2010.06.25/outbox.cif.g09.slc.cpg/sg13_33_cif.got.tgz:64693.got - 2010.06.28 04:50:58.
