data_PCOD8122033
_publ_section_title
;
Structure prediction by ZEFSAII (Michael W. Deem and Ramdas Pophale) SiO2 
 PCOD8122033
Probable space group: P 2/C
;
_chemical_formula_sum "Si O2"
_cell_formula_units_Z 18
_cell_length_a 14.919500
_cell_length_b 11.635850
_cell_length_c 7.272705
_cell_angle_alpha 90.000000
_cell_angle_beta 41.023035
_cell_angle_gamma 90.000000
_cell_volume 828.689902
_symmetry_space_group_name_H-M "P 2/C"
_symmetry_group_IT_number 13
_symmetry_cell_setting 'monoclinic'
loop_
_space_group_symop_operation_xyz
x,y,z
-x,y,1/2-z
-x,-y,-z
x,-y,1/2+z
loop_
_atom_site_type_symbol
_atom_site_label
_atom_site_fract_x
_atom_site_fract_y
_atom_site_fract_z
Si Si1 0.949572 0.373995 0.126347
Si Si2 0.272003 0.893951 0.823765
Si Si3 0.000000 0.202983 0.750000
Si Si4 0.643015 0.709525 0.084330
Si Si5 0.640803 0.135885 0.929944
O O1 0.783131 0.364710 0.350615
O O2 0.000000 0.340690 0.250000
O O3 0.000000 0.500000 0.000000
O O4 0.032545 0.287022 0.869490
O O5 0.364532 0.814978 0.549409
O O6 0.320859 0.024958 0.750914
O O7 0.258610 0.846627 0.053973
O O8 0.117644 0.881475 0.995042
O O9 0.500000 0.641858 0.250000
O O10 0.638189 0.754181 0.301829
O O11 0.500000 0.112216 0.250000
#
# Coordination Sequence:
#
# PCOD8122033 Si02
#       5
#     4   4   2   4   4
#     4  11  23  46  73  91 122 166 212 271 334 377
#     4  11  22  36  59  92 132 176 209 257 299 378
#     4  10  24  42  62  90 128 166 220 254 318 382
#     4  11  23  41  64  98 128 167 215 260 312 379
#     4  12  21  36  60  91 134 173 209 245 312 362
#
# _framework density 21.721031
#
# number of rings (size 3 to 8) (size 9 to 14) (size 15 to 20)
#    0.000    0.889    5.556    2.667    0.000    0.889 
#    2.000    1.111    0.000    0.000    0.000    0.000 
#    0.000    0.000    0.000    0.000    0.000    0.000 
#
# Total GULP energy -223001.173168 kJ/mol
# GULP energy per Si atom -12388.954065 kJ/mol
# Density = 2.167159 g / cm^3
# Si number density = 21.721031 Si / 1000 Ang^3
#
#
#
# Elastic Constant Matrix: (Units=GPa)
#
#
# Indices 1 2 3 4 5 6 
#
# 1 101.2616 25.2551 31.7913 0.0000 19.1834 0.0000
# 2 25.2551 71.6853 43.6629 0.0000 -9.5429 0.0000
# 3 31.7913 43.6629 111.0192 0.0000 -8.5129 0.0000
# 4 0.0000 0.0000 0.0000 13.1697 0.0000 -8.1875
# 5 19.1834 -9.5429 -8.5129 0.0000 52.3901 0.0000
# 6 0.0000 0.0000 0.0000 -8.1875 0.0000 19.2994
#
#
#
# Elastic Compliance Matrix: (Units=1/GPa)
#
#
# Indices 1 2 3 4 5 6 
#
# 1 0.012699 -0.003623 -0.002652 0.000000 -0.005741 0.000000
# 2 -0.003623 0.019631 -0.006387 0.000000 0.003865 0.000000
# 3 -0.002652 -0.006387 0.012419 0.000000 0.001826 0.000000
# 4 0.000000 0.000000 0.000000 0.103132 0.000000 0.043752
# 5 -0.005741 0.003865 0.001826 0.000000 0.022190 0.000000
# 6 0.000000 0.000000 0.000000 0.043752 0.000000 0.070376
#
#
# Mechanical properties :
#
#
# Convention : Reuss Voigt Hill
#
# Bulk Modulus (GPa) = 51.47902 53.93163 52.70532
# Shear Modulus (GPa) = 18.36576 29.18898 23.77737
#
# Velocity S-wave (km/s) = 2.91095 3.66978 3.31217
# Velocity P-wave (km/s) = 5.92028 6.54519 6.24056
#
# Compressibility (1/GPa) = 0.01942539
#
# Stress axis : x y z
#
# Youngs Moduli (GPa) = 78.74577 50.94015 80.52388
#
# Poissons Ratio (x) = 0.18456 0.21353
# Poissons Ratio (y) = 0.28530 0.51429
# Poissons Ratio (z) = 0.20882 0.32535
#
# Static dielectric constant tensor:
#      x y z
#    x 4.515750 0.000000 -0.385760 
#    y 0.000000 3.408860 0.000000 
#    z -0.385760 0.000000 3.612330 
# 
# 
# High freq. dielectric constant tensor:
#      x y z
#    x 1.875750 0.000000 0.004490 
#    y 0.000000 1.806760 0.000000 
#    z 0.004490 0.000000 1.872140 
# 
# From -- ./inp_files/21471.got.cif
#   From: 2010.06.25/outbox.cif.g09.slc.cpg/sg13_11_cif.got.tgz:21471.got - 2010.06.28 04:50:58.
