data_PCOD8122729
_publ_section_title
;
Structure prediction by ZEFSAII (Michael W. Deem and Ramdas Pophale) SiO2 
 PCOD8122729
Probable space group: P 2/C
;
_chemical_formula_sum "Si O2"
_cell_formula_units_Z 28
_cell_length_a 24.033705
_cell_length_b 9.166311
_cell_length_c 8.927368
_cell_angle_alpha 90.000000
_cell_angle_beta 138.227243
_cell_angle_gamma 90.000000
_cell_volume 1310.174059
_symmetry_space_group_name_H-M "P 2/C"
_symmetry_group_IT_number 13
_symmetry_cell_setting 'monoclinic'
loop_
_space_group_symop_operation_xyz
x,y,z
-x,y,1/2-z
-x,-y,-z
x,-y,1/2+z
loop_
_atom_site_type_symbol
_atom_site_label
_atom_site_fract_x
_atom_site_fract_y
_atom_site_fract_z
Si Si1 0.092567 0.334158 0.882776
Si Si2 0.498195 0.657284 0.926779
Si Si3 0.355879 0.844687 0.778259
Si Si4 0.170285 0.167771 0.285552
Si Si5 0.360244 0.849357 0.146438
Si Si6 0.094619 0.327435 0.391517
Si Si7 0.829707 0.830788 0.203996
O O1 0.117824 0.502523 0.953813
O O2 0.102329 0.280405 0.732038
O O3 0.000000 0.304651 0.750000
O O4 0.156906 0.221962 0.089748
O O5 0.500000 0.657388 0.750000
O O6 0.413211 0.723882 0.818775
O O7 0.500000 0.500000 0.000000
O O8 0.578814 0.735410 0.155859
O O9 0.261786 0.804870 0.544847
O O10 0.385312 0.994309 0.761864
O O11 0.367204 0.850888 0.980225
O O12 0.267497 0.189069 0.517352
O O13 0.108316 0.276927 0.248955
O O14 0.143431 0.999650 0.252717
O O15 0.162992 0.223951 0.610620
O O16 0.000000 0.295981 0.250000
#
# Coordination Sequence:
#
# PCOD8122729 Si02
#       7
#     4   4   4   4   4   4   4
#     4  11  23  43  63  92 133 176 223 277 342 411
#     4  12  27  46  71 104 142 180 224 276 329 400
#     4  11  24  45  71 100 135 177 224 278 343 408
#     4  11  24  41  67  97 131 173 228 280 338 401
#     4  11  24  45  71 100 135 177 224 278 343 408
#     4  11  25  41  63  94 133 180 225 281 348 413
#     4  11  24  41  67  97 131 173 228 280 338 401
#
# _framework density 21.371205
#
# number of rings (size 3 to 8) (size 9 to 14) (size 15 to 20)
#    0.000    0.857    1.429    5.143    8.000    8.000 
#    0.000    0.000    0.000    0.000    0.000    0.000 
#    0.000    0.000    0.000    0.000    0.000    0.000 
#
# Total GULP energy -347181.670171 kJ/mol
# GULP energy per Si atom -12399.345363 kJ/mol
# Density = 2.132256 g / cm^3
# Si number density = 21.371205 Si / 1000 Ang^3
#
#
#
# Elastic Constant Matrix: (Units=GPa)
#
#
# Indices 1 2 3 4 5 6 
#
# 1 115.9805 68.6517 28.3732 0.0000 -9.7519 0.0000
# 2 68.6517 161.3525 66.3275 0.0000 14.7659 0.0000
# 3 28.3732 66.3275 112.3993 0.0000 -14.0721 0.0000
# 4 0.0000 0.0000 0.0000 40.2523 0.0000 -5.0395
# 5 -9.7519 14.7659 -14.0721 0.0000 30.7503 0.0000
# 6 0.0000 0.0000 0.0000 -5.0395 0.0000 21.5658
#
#
#
# Elastic Compliance Matrix: (Units=1/GPa)
#
#
# Indices 1 2 3 4 5 6 
#
# 1 0.013092 -0.007166 0.001988 0.000000 0.008503 0.000000
# 2 -0.007166 0.013551 -0.007730 0.000000 -0.012317 0.000000
# 3 0.001988 -0.007730 0.014320 0.000000 0.010896 0.000000
# 4 0.000000 0.000000 0.000000 0.025592 0.000000 0.005980
# 5 0.008503 -0.012317 0.010896 0.000000 0.046117 0.000000
# 6 0.000000 0.000000 0.000000 0.005980 0.000000 0.047767
#
#
# Mechanical properties :
#
#
# Convention : Reuss Voigt Hill
#
# Bulk Modulus (GPa) = 66.01050 79.60410 72.80730
# Shear Modulus (GPa) = 26.13628 33.60569 29.87098
#
# Velocity S-wave (km/s) = 3.50089 3.96975 3.74267
# Velocity P-wave (km/s) = 6.87723 7.63813 7.26764
#
# Compressibility (1/GPa) = 0.01514910
#
# Stress axis : x y z
#
# Youngs Moduli (GPa) = 76.38039 73.79404 69.83016
#
# Poissons Ratio (x) = 0.52880 -0.13884
# Poissons Ratio (y) = 0.54734 0.53977
# Poissons Ratio (z) = -0.15186 0.57041
#
# Static dielectric constant tensor:
#      x y z
#    x 3.931200 0.000000 -0.161990 
#    y 0.000000 3.800550 0.000000 
#    z -0.161990 0.000000 3.971690 
# 
# 
# High freq. dielectric constant tensor:
#      x y z
#    x 1.853010 0.000000 -0.009750 
#    y 0.000000 1.846240 0.000000 
#    z -0.009750 0.000000 1.853830 
# 
# From -- ./inp_files/24600.got.cif
#   From: 2010.06.25/outbox.cif.g09.slc.cpg/sg13_13_cif.got.tgz:24600.got - 2010.06.28 04:50:58.
