data_PCOD8122050
_publ_section_title
;
Structure prediction by ZEFSAII (Michael W. Deem and Ramdas Pophale) SiO2 
 PCOD8122050
Probable space group: P 2/C
;
_chemical_formula_sum "Si O2"
_cell_formula_units_Z 22
_cell_length_a 23.669149
_cell_length_b 5.126650
_cell_length_c 8.870446
_cell_angle_alpha 90.000000
_cell_angle_beta 64.953618
_cell_angle_gamma 90.000000
_cell_volume 975.154362
_symmetry_space_group_name_H-M "P 2/C"
_symmetry_group_IT_number 13
_symmetry_cell_setting 'monoclinic'
loop_
_space_group_symop_operation_xyz
x,y,z
-x,y,1/2-z
-x,-y,-z
x,-y,1/2+z
loop_
_atom_site_type_symbol
_atom_site_label
_atom_site_fract_x
_atom_site_fract_y
_atom_site_fract_z
Si Si1 0.696725 0.179436 0.236624
Si Si2 0.116961 0.715268 0.306668
Si Si3 0.500000 0.519937 0.250000
Si Si4 0.928661 0.224734 0.307111
Si Si5 0.740695 0.692957 0.355319
Si Si6 0.557549 0.189411 0.434271
O O1 0.707331 0.442778 0.319755
O O2 0.626292 0.070758 0.340396
O O3 0.739757 0.942598 0.244902
O O4 0.707982 0.234925 0.048899
O O5 0.073040 0.491887 0.286298
O O6 0.105802 0.734169 0.496609
O O7 0.187454 0.624487 0.195874
O O8 0.104806 0.993661 0.244886
O O9 0.546949 0.372140 0.304870
O O10 0.446970 0.674198 0.399538
O O11 0.000000 0.143556 0.250000
O O12 0.500000 0.000000 0.500000
#
# Coordination Sequence:
#
# PCOD8122050 Si02
#       6
#     4   4   2   4   4   4
#     4  12  27  44  71  97 135 170 233 274 337 405
#     4  12  24  44  69  97 142 179 228 276 333 393
#     4  10  24  42  64  92 126 162 210 254 348 390
#     4  12  24  42  69 104 139 181 225 277 332 394
#     4  12  26  47  69 101 132 184 224 280 331 395
#     4  11  25  41  67  92 128 165 211 271 339 394
#
# _framework density 22.560533
#
# number of rings (size 3 to 8) (size 9 to 14) (size 15 to 20)
#    0.000    0.364    0.000    8.727   10.182    0.000 
#    0.000    0.000    0.000    0.000    0.000    0.000 
#    0.000    0.000    0.000    0.000    0.000    0.000 
#
# Total GULP energy -272851.687101 kJ/mol
# GULP energy per Si atom -12402.349414 kJ/mol
# Density = 2.250918 g / cm^3
# Si number density = 22.560533 Si / 1000 Ang^3
#
#
#
# Elastic Constant Matrix: (Units=GPa)
#
#
# Indices 1 2 3 4 5 6 
#
# 1 81.6930 20.0992 27.4372 0.0000 -20.4851 0.0000
# 2 20.0992 124.8917 36.8977 0.0000 17.5336 0.0000
# 3 27.4372 36.8977 106.8290 0.0000 11.0413 0.0000
# 4 0.0000 0.0000 0.0000 44.7432 0.0000 9.4006
# 5 -20.4851 17.5336 11.0413 0.0000 44.4107 0.0000
# 6 0.0000 0.0000 0.0000 9.4006 0.0000 32.9240
#
#
#
# Elastic Compliance Matrix: (Units=1/GPa)
#
#
# Indices 1 2 3 4 5 6 
#
# 1 0.016930 -0.002830 -0.004407 0.000000 0.010022 0.000000
# 2 -0.002830 0.009750 -0.002164 0.000000 -0.004617 0.000000
# 3 -0.004407 -0.002164 0.011661 0.000000 -0.004078 0.000000
# 4 0.000000 0.000000 0.000000 0.023776 0.000000 -0.006789
# 5 0.010022 -0.004617 -0.004078 0.000000 0.029976 0.000000
# 6 0.000000 0.000000 0.000000 -0.006789 0.000000 0.032311
#
#
# Mechanical properties :
#
#
# Convention : Reuss Voigt Hill
#
# Bulk Modulus (GPa) = 51.17385 53.58687 52.38036
# Shear Modulus (GPa) = 33.39596 39.68088 36.53842
#
# Velocity S-wave (km/s) = 3.85162 4.19843 4.02876
# Velocity P-wave (km/s) = 6.52013 6.87797 6.70144
#
# Compressibility (1/GPa) = 0.01954123
#
# Stress axis : x y z
#
# Youngs Moduli (GPa) = 59.06567 102.56782 85.75413
#
# Poissons Ratio (x) = 0.29024 0.37789
# Poissons Ratio (y) = 0.16714 0.18553
# Poissons Ratio (z) = 0.26029 0.22191
#
# Static dielectric constant tensor:
#      x y z
#    x 4.126900 0.000000 0.130330 
#    y 0.000000 3.734400 0.000000 
#    z 0.130330 0.000000 4.314210 
# 
# 
# High freq. dielectric constant tensor:
#      x y z
#    x 1.901680 0.000000 0.005290 
#    y 0.000000 1.896060 0.000000 
#    z 0.005290 0.000000 1.913170 
# 
# From -- ./inp_files/22217.got.cif
#   From: 2010.06.25/outbox.cif.g09.slc.cpg/sg13_12_cif.got.tgz:22217.got - 2010.06.28 04:50:58.
