data_PCOD8122973
_publ_section_title
;
Structure prediction by ZEFSAII (Michael W. Deem and Ramdas Pophale) SiO2 
 PCOD8122973
Probable space group: P 2/C
;
_chemical_formula_sum "Si O2"
_cell_formula_units_Z 16
_cell_length_a 11.985595
_cell_length_b 8.746836
_cell_length_c 8.838887
_cell_angle_alpha 90.000000
_cell_angle_beta 137.515301
_cell_angle_gamma 90.000000
_cell_volume 625.842290
_symmetry_space_group_name_H-M "P 2/C"
_symmetry_group_IT_number 13
_symmetry_cell_setting 'monoclinic'
loop_
_space_group_symop_operation_xyz
x,y,z
-x,y,1/2-z
-x,-y,-z
x,-y,1/2+z
loop_
_atom_site_type_symbol
_atom_site_label
_atom_site_fract_x
_atom_site_fract_y
_atom_site_fract_z
Si Si1 0.186531 0.975645 0.138439
Si Si2 0.813469 0.524355 0.265380
Si Si3 0.686934 0.800187 0.963101
Si Si4 0.686934 0.300186 0.910771
O O1 0.301659 0.931553 0.396153
O O2 0.199976 0.842596 0.025173
O O3 0.246848 0.135259 0.129186
O O4 0.000000 0.000000 0.000000
O O5 0.698342 0.568444 0.292841
O O6 0.000000 0.500000 0.500000
O O7 0.800021 0.657403 0.125221
O O8 0.753150 0.364740 0.135493
O O9 0.500000 0.746160 0.750000
O O10 0.500000 0.246158 0.750000
#
# Coordination Sequence:
#
# PCOD8122973 Si02
#       4
#     4   4   4   4
#     4  11  26  46  72 108 147 195 248 308 372 444
#     4  11  26  46  72 108 147 195 248 308 372 444
#     4  11  25  48  74 106 146 194 247 308 373 445
#     4  11  25  48  74 106 146 194 247 308 373 445
#
# _framework density 25.565548
#
# number of rings (size 3 to 8) (size 9 to 14) (size 15 to 20)
#    0.000    1.000    0.000    4.500    0.000   22.000 
#    0.000    0.000    0.000    0.000    0.000    0.000 
#    0.000    0.000    0.000    0.000    0.000    0.000 
#
# Total GULP energy -198481.899276 kJ/mol
# GULP energy per Si atom -12405.118705 kJ/mol
# Density = 2.550736 g / cm^3
# Si number density = 25.565548 Si / 1000 Ang^3
#
#
#
# Elastic Constant Matrix: (Units=GPa)
#
#
# Indices 1 2 3 4 5 6 
#
# 1 142.3544 70.9320 40.9922 0.0000 34.1890 0.0000
# 2 70.9320 90.4825 74.1072 0.0000 10.4730 0.0000
# 3 40.9922 74.1072 161.5283 0.0000 29.0584 0.0000
# 4 0.0000 0.0000 0.0000 60.4906 0.0000 -16.9158
# 5 34.1890 10.4730 29.0584 0.0000 38.9336 0.0000
# 6 0.0000 0.0000 0.0000 -16.9158 0.0000 65.6174
#
#
#
# Elastic Compliance Matrix: (Units=1/GPa)
#
#
# Indices 1 2 3 4 5 6 
#
# 1 0.017241 -0.016677 0.005998 0.000000 -0.015130 0.000000
# 2 -0.016677 0.033912 -0.014230 0.000000 0.016143 0.000000
# 3 0.005998 -0.014230 0.013233 0.000000 -0.011315 0.000000
# 4 0.000000 0.000000 0.000000 0.017816 0.000000 0.004593
# 5 -0.015130 0.016143 -0.011315 0.000000 0.043074 0.000000
# 6 0.000000 0.000000 0.000000 0.004593 0.000000 0.016424
#
#
# Mechanical properties :
#
#
# Convention : Reuss Voigt Hill
#
# Bulk Modulus (GPa) = 68.64747 85.15868 76.90307
# Shear Modulus (GPa) = 25.46166 46.89724 36.17945
#
# Velocity S-wave (km/s) = 3.15927 4.28763 3.76595
# Velocity P-wave (km/s) = 6.34175 7.60880 7.00399
#
# Compressibility (1/GPa) = 0.01456718
#
# Stress axis : x y z
#
# Youngs Moduli (GPa) = 58.00092 29.48852 75.56854
#
# Poissons Ratio (x) = 0.49177 -0.45323
# Poissons Ratio (y) = 0.96726 1.07535
# Poissons Ratio (z) = -0.34786 0.41962
#
# Static dielectric constant tensor:
#      x y z
#    x 4.841210 0.000000 -0.436710 
#    y 0.000000 4.826750 0.000000 
#    z -0.436710 0.000000 4.708860 
# 
# 
# High freq. dielectric constant tensor:
#      x y z
#    x 2.030390 0.000000 -0.014930 
#    y 0.000000 2.028850 0.000000 
#    z -0.014930 0.000000 2.025860 
# 
# From -- ./inp_files/15142.got.cif
#   From: 2010.06.25/outbox.cif.g09.slc.cpg/sg13_8_cif.got.tgz:15142.got - 2010.06.28 04:50:58.
