data_PCOD8122180
_publ_section_title
;
Structure prediction by ZEFSAII (Michael W. Deem and Ramdas Pophale) SiO2 
 PCOD8122180
Probable space group: P 2/C
;
_chemical_formula_sum "Si O2"
_cell_formula_units_Z 26
_cell_length_a 13.700944
_cell_length_b 9.642981
_cell_length_c 12.901235
_cell_angle_alpha 90.000000
_cell_angle_beta 133.209566
_cell_angle_gamma 90.000000
_cell_volume 1242.320994
_symmetry_space_group_name_H-M "P 2/C"
_symmetry_group_IT_number 13
_symmetry_cell_setting 'monoclinic'
loop_
_space_group_symop_operation_xyz
x,y,z
-x,y,1/2-z
-x,-y,-z
x,-y,1/2+z
loop_
_atom_site_type_symbol
_atom_site_label
_atom_site_fract_x
_atom_site_fract_y
_atom_site_fract_z
Si Si1 0.185958 0.675673 0.225678
Si Si2 0.849063 0.570945 0.656804
Si Si3 0.906590 0.218849 0.464489
Si Si4 0.500000 0.271419 0.250000
Si Si5 0.269555 0.534318 0.637625
Si Si6 0.268108 0.865440 0.467161
Si Si7 0.859776 0.131683 0.207679
O O1 0.134315 0.534223 0.237686
O O2 0.281638 0.615660 0.203224
O O3 0.263265 0.764880 0.365288
O O4 0.065845 0.767279 0.092890
O O5 0.766281 0.493902 0.507644
O O6 0.784423 0.720988 0.633839
O O7 0.000000 0.618252 0.750000
O O8 0.847690 0.371344 0.397791
O O9 0.843478 0.162425 0.525689
O O10 0.882608 0.116911 0.349025
O O11 0.595208 0.375161 0.254065
O O12 0.584478 0.164817 0.381613
O O13 0.248582 0.020257 0.411006
O O14 0.000000 0.107585 0.250000
#
# Coordination Sequence:
#
# PCOD8122180 Si02
#       7
#     4   4   4   2   4   4   4
#     4  12  19  36  68  95 122 163 204 256 328 373
#     4  11  19  35  62 100 130 153 199 261 322 377
#     4  11  21  38  66  96 132 160 201 260 331 385
#     4  10  24  46  62  84 126 172 226 260 300 364
#     4  11  22  37  63  97 123 166 213 265 305 372
#     4  11  25  43  62  87 130 176 213 253 309 383
#     4  11  24  38  62 100 134 159 200 261 323 387
#
# _framework density 20.928567000000001
#
# number of rings (size 3 to 8) (size 9 to 14) (size 15 to 20)
#    0.000    0.923    6.154    3.692    0.000    4.308 
#    0.000    3.846    0.000    0.000    0.000    0.000 
#    0.000    0.000    0.000    0.000    0.000    0.000 
#
# Total GULP energy -322144.471777 kJ/mol
# GULP energy per Si atom -12390.171991 kJ/mol
# Density = 2.088093 g / cm^3
# Si number density = 20.928567 Si / 1000 Ang^3
#
#
#
# Elastic Constant Matrix: (Units=GPa)
#
#
# Indices 1 2 3 4 5 6 
#
# 1 46.0504 15.0534 43.7694 0.0000 -12.9293 0.0000
# 2 15.0534 113.2174 63.5726 0.0000 -0.9285 0.0000
# 3 43.7694 63.5726 133.0825 0.0000 3.4662 0.0000
# 4 0.0000 0.0000 0.0000 -710.2929 0.0000-1948.8140
# 5 -12.9293 -0.9285 3.4662 0.0000 29.1052 0.0000
# 6 0.0000 0.0000 0.0000-1948.8140 0.0000-4967.7273
#
#
#
# Elastic Compliance Matrix: (Units=1/GPa)
#
#
# Indices 1 2 3 4 5 6 
#
# 1 0.041286 0.003552 -0.015805 0.000000 0.020336 0.000000
# 2 0.003552 0.012409 -0.007170 0.000000 0.002828 0.000000
# 3 -0.015805 -0.007170 0.016377 0.000000 -0.009200 0.000000
# 4 0.000000 0.000000 0.000000 0.018444 0.000000 -0.007236
# 5 0.020336 0.002828 -0.009200 0.000000 0.044578 0.000000
# 6 0.000000 0.000000 0.000000 -0.007236 0.000000 0.002637
#
#
# Mechanical properties :
#
#
# Convention : Reuss Voigt Hill
#
# Bulk Modulus (GPa) = 32.02382 59.68233 45.85307
# Shear Modulus (GPa) = 27.02912 -1118.45268 -545.71178
#
# Velocity S-wave (km/s) = 3.59763 -23.14248 -16.16526
# Velocity P-wave (km/s) = 5.70894 26.18244 18.06832
#
# Compressibility (1/GPa) = 0.03122676
#
# Stress axis : x y z
#
# Youngs Moduli (GPa) = 24.22133 80.58438 61.06213
#
# Poissons Ratio (x) = -0.28624 0.96508
# Poissons Ratio (y) = -0.08603 0.43780
# Poissons Ratio (z) = 0.38282 0.57777
#
# Static dielectric constant tensor:
#      x y z
#    x 3.301380 0.000000 -0.355530 
#    y 0.000000 3.885010 0.000000 
#    z -0.355530 0.000000 3.730680 
# 
# 
# High freq. dielectric constant tensor:
#      x y z
#    x 1.795590 0.000000 -0.030550 
#    y 0.000000 1.829200 0.000000 
#    z -0.030550 0.000000 1.812010 
# 
# From -- ./inp_files/53365.got.cif
#   From: 2010.06.25/outbox.cif.g09.slc.cpg/sg13_27_cif.got.tgz:53365.got - 2010.06.28 04:50:58.
