data_PCOD8122182
_publ_section_title
;
Structure prediction by ZEFSAII (Michael W. Deem and Ramdas Pophale) SiO2 
 PCOD8122182
Probable space group: P 2/C
;
_chemical_formula_sum "Si O2"
_cell_formula_units_Z 18
_cell_length_a 11.198522
_cell_length_b 7.481168
_cell_length_c 16.664455
_cell_angle_alpha 90.000000
_cell_angle_beta 35.329590
_cell_angle_gamma 90.000000
_cell_volume 807.344104
_symmetry_space_group_name_H-M "P 2/C"
_symmetry_group_IT_number 13
_symmetry_cell_setting 'monoclinic'
loop_
_space_group_symop_operation_xyz
x,y,z
-x,y,1/2-z
-x,-y,-z
x,-y,1/2+z
loop_
_atom_site_type_symbol
_atom_site_label
_atom_site_fract_x
_atom_site_fract_y
_atom_site_fract_z
Si Si1 0.056246 0.539043 0.059083
Si Si2 0.000000 0.123207 0.750000
Si Si3 0.887175 0.053152 0.979212
Si Si4 0.396767 0.740045 0.386229
Si Si5 0.674249 0.371946 0.868481
O O1 0.154802 0.736556 0.003202
O O2 0.850909 0.518111 0.225032
O O3 0.214265 0.396342 0.010013
O O4 0.000000 0.500000 0.000000
O O5 0.009072 0.007405 0.827773
O O6 0.792619 0.248579 0.868764
O O7 0.678112 0.940532 0.091385
O O8 0.000000 0.000000 0.000000
O O9 0.500000 0.659214 0.250000
O O10 0.562086 0.757490 0.366320
O O11 0.500000 0.500000 0.000000
#
# Coordination Sequence:
#
# PCOD8122182 Si02
#       5
#     4   2   4   4   4
#     4  11  22  45  71  99 141 183 232 289 350 422
#     4  10  24  46  66 100 144 182 232 294 352 418
#     4  11  23  43  68  99 137 181 226 288 350 415
#     4  12  24  43  70 103 136 185 239 287 353 426
#     4  11  23  43  70 103 139 180 238 293 354 424
#
# _framework density 22.295324999999998
#
# number of rings (size 3 to 8) (size 9 to 14) (size 15 to 20)
#    0.000    0.889    4.444    4.000    0.000    3.556 
#    4.000    0.000    0.000    0.000    0.000    0.000 
#    0.000    0.000    0.000    0.000    0.000    0.000 
#
# Total GULP energy -223044.116428 kJ/mol
# GULP energy per Si atom -12391.339802 kJ/mol
# Density = 2.224458 g / cm^3
# Si number density = 22.295325 Si / 1000 Ang^3
#
#
#
# Elastic Constant Matrix: (Units=GPa)
#
#
# Indices 1 2 3 4 5 6 
#
# 1 172.2994 36.8224 50.8496 0.0000 3.9121 0.0000
# 2 36.8224 103.2657 48.6965 0.0000 -12.7658 0.0000
# 3 50.8496 48.6965 139.7750 0.0000 0.5879 0.0000
# 4 0.0000 0.0000 0.0000 38.3221 0.0000 -6.7520
# 5 3.9121 -12.7658 0.5879 0.0000 50.4199 0.0000
# 6 0.0000 0.0000 0.0000 -6.7520 0.0000 41.5467
#
#
#
# Elastic Compliance Matrix: (Units=1/GPa)
#
#
# Indices 1 2 3 4 5 6 
#
# 1 0.006726 -0.001626 -0.001876 0.000000 -0.000912 0.000000
# 2 -0.001626 0.012447 -0.003759 0.000000 0.003321 0.000000
# 3 -0.001876 -0.003759 0.009150 0.000000 -0.000913 0.000000
# 4 0.000000 0.000000 0.000000 0.026864 0.000000 0.004366
# 5 -0.000912 0.003321 -0.000913 0.000000 0.020756 0.000000
# 6 0.000000 0.000000 0.000000 0.004366 0.000000 0.024779
#
#
# Mechanical properties :
#
#
# Convention : Reuss Voigt Hill
#
# Bulk Modulus (GPa) = 72.46244 76.45302 74.45773
# Shear Modulus (GPa) = 41.72088 44.65583 43.18835
#
# Velocity S-wave (km/s) = 4.33053 4.48026 4.40603
# Velocity P-wave (km/s) = 7.58791 7.81851 7.70407
#
# Compressibility (1/GPa) = 0.01380025
#
# Stress axis : x y z
#
# Youngs Moduli (GPa) = 148.67977 80.34276 109.28536
#
# Poissons Ratio (x) = 0.13065 0.20507
# Poissons Ratio (y) = 0.24177 0.41077
# Poissons Ratio (z) = 0.27899 0.30199
#
# Static dielectric constant tensor:
#      x y z
#    x 4.308820 0.000000 0.173280 
#    y 0.000000 4.310200 0.000000 
#    z 0.173280 0.000000 4.535240 
# 
# 
# High freq. dielectric constant tensor:
#      x y z
#    x 1.912320 0.000000 0.011700 
#    y 0.000000 1.857280 0.000000 
#    z 0.011700 0.000000 1.872210 
# 
# From -- ./inp_files/66247.got.cif
#   From: 2010.06.25/outbox.cif.g09.slc.cpg/sg13_34_cif.got.tgz:66247.got - 2010.06.28 04:50:58.
