data_PCOD8122111
_publ_section_title
;
Structure prediction by ZEFSAII (Michael W. Deem and Ramdas Pophale) SiO2 
 PCOD8122111
Probable space group: P 2/C
;
_chemical_formula_sum "Si O2"
_cell_formula_units_Z 20
_cell_length_a 7.361328
_cell_length_b 7.457155
_cell_length_c 15.953383
_cell_angle_alpha 90.000000
_cell_angle_beta 97.305283
_cell_angle_gamma 90.000000
_cell_volume 868.645264
_symmetry_space_group_name_H-M "P 2/C"
_symmetry_group_IT_number 13
_symmetry_cell_setting 'monoclinic'
loop_
_space_group_symop_operation_xyz
x,y,z
-x,y,1/2-z
-x,-y,-z
x,-y,1/2+z
loop_
_atom_site_type_symbol
_atom_site_label
_atom_site_fract_x
_atom_site_fract_y
_atom_site_fract_z
Si Si1 0.638993 0.150111 0.688065
Si Si2 0.533415 0.791580 0.007343
Si Si3 0.283756 0.493151 0.237268
Si Si4 0.211668 0.783544 0.871890
Si Si5 0.116134 0.637711 0.560733
O O1 0.500000 0.073641 0.750000
O O2 0.527252 0.251839 0.606308
O O3 0.766313 0.304405 0.735903
O O4 0.754601 0.984738 0.659045
O O5 0.371136 0.702650 0.942885
O O6 0.731845 0.738670 0.984514
O O7 0.500000 0.000000 0.000000
O O8 0.500000 0.461917 0.250000
O O9 0.189172 0.349812 0.292699
O O10 0.209755 0.472793 0.140003
O O11 0.020959 0.788836 0.910745
O O12 0.000000 0.500000 0.500000
#
# Coordination Sequence:
#
# PCOD8122111 Si02
#       5
#     4   4   4   4   4
#     4  10  24  43  75 108 139 195 245 296 367 444
#     4  10  24  46  72 107 149 192 244 302 380 437
#     4  11  23  46  77 105 147 197 244 302 370 441
#     4  11  24  46  77 103 153 191 244 306 374 436
#     4  12  27  45  76 113 148 196 252 307 375 447
#
# _framework density 23.024359
#
# number of rings (size 3 to 8) (size 9 to 14) (size 15 to 20)
#    0.000    1.200    2.000    2.400    8.400    4.800 
#    0.000   12.000    0.000    0.000    0.000    0.000 
#    0.000    0.000    0.000    0.000    0.000    0.000 
#
# Total GULP energy -247966.337266 kJ/mol
# GULP energy per Si atom -12398.316863 kJ/mol
# Density = 2.297195 g / cm^3
# Si number density = 23.024359 Si / 1000 Ang^3
#
#
#
# Elastic Constant Matrix: (Units=GPa)
#
#
# Indices 1 2 3 4 5 6 
#
# 1 141.0443 43.3650 65.9070 0.0000 -6.0012 0.0000
# 2 43.3650 119.0038 50.1645 0.0000 -0.9512 0.0000
# 3 65.9070 50.1645 170.7278 0.0000 6.1452 0.0000
# 4 0.0000 0.0000 0.0000 25.0861 0.0000 -11.8186
# 5 -6.0012 -0.9512 6.1452 0.0000 38.8881 0.0000
# 6 0.0000 0.0000 0.0000 -11.8186 0.0000 7.2139
#
#
#
# Elastic Compliance Matrix: (Units=1/GPa)
#
#
# Indices 1 2 3 4 5 6 
#
# 1 0.009214 -0.002072 -0.003015 0.000000 0.001848 0.000000
# 2 -0.002072 0.010075 -0.002170 0.000000 0.000270 0.000000
# 3 -0.003015 -0.002170 0.007721 0.000000 -0.001738 0.000000
# 4 0.000000 0.000000 0.000000 0.174715 0.000000 0.286238
# 5 0.001848 0.000270 -0.001738 0.000000 0.026281 0.000000
# 6 0.000000 0.000000 0.000000 0.286238 0.000000 0.607568
#
#
# Mechanical properties :
#
#
# Convention : Reuss Voigt Hill
#
# Bulk Modulus (GPa) = 80.02050 83.29433 81.65741
# Shear Modulus (GPa) = 5.85305 32.32690 19.08997
#
# Velocity S-wave (km/s) = 1.59613 3.75110 2.88257
# Velocity P-wave (km/s) = 6.18280 7.41729 6.82800
#
# Compressibility (1/GPa) = 0.01249680
#
# Stress axis : x y z
#
# Youngs Moduli (GPa) = 108.52572 99.25431 129.51200
#
# Poissons Ratio (x) = 0.20567 0.39045
# Poissons Ratio (y) = 0.22488 0.28106
# Poissons Ratio (z) = 0.32718 0.21539
#
# Static dielectric constant tensor:
#      x y z
#    x 4.481920 0.000000 0.527420 
#    y 0.000000 4.008410 0.000000 
#    z 0.527420 0.000000 5.337880 
# 
# 
# High freq. dielectric constant tensor:
#      x y z
#    x 1.902660 0.000000 0.000730 
#    y 0.000000 1.906460 0.000000 
#    z 0.000730 0.000000 1.939000 
# 
# From -- ./inp_files/45550.got.cif
#   From: 2010.06.25/outbox.cif.g09.slc.cpg/sg13_23_cif.got.tgz:45550.got - 2010.06.28 04:50:58.
