data_PCOD8122018
_publ_section_title
;
Structure prediction by ZEFSAII (Michael W. Deem and Ramdas Pophale) SiO2 
 PCOD8122018
Probable space group: P 2/C
;
_chemical_formula_sum "Si O2"
_cell_formula_units_Z 20
_cell_length_a 16.343050
_cell_length_b 8.758858
_cell_length_c 10.618130
_cell_angle_alpha 90.000000
_cell_angle_beta 144.638881
_cell_angle_gamma 90.000000
_cell_volume 879.636105
_symmetry_space_group_name_H-M "P 2/C"
_symmetry_group_IT_number 13
_symmetry_cell_setting 'monoclinic'
loop_
_space_group_symop_operation_xyz
x,y,z
-x,y,1/2-z
-x,-y,-z
x,-y,1/2+z
loop_
_atom_site_type_symbol
_atom_site_label
_atom_site_fract_x
_atom_site_fract_y
_atom_site_fract_z
Si Si1 0.575340 0.065097 0.717255
Si Si2 0.015611 0.249399 0.013742
Si Si3 0.123224 0.998140 0.315308
Si Si4 0.573862 0.573635 0.212802
Si Si5 0.875818 0.488509 0.003486
O O1 0.500000 0.008964 0.750000
O O2 0.570558 0.245668 0.698900
O O3 0.500000 0.000000 0.500000
O O4 0.733158 0.997578 0.924614
O O5 0.908569 0.325927 0.979459
O O6 0.912450 0.170876 0.781489
O O7 0.124063 0.123199 0.204843
O O8 0.126445 0.375190 0.101408
O O9 0.000000 0.055976 0.250000
O O10 0.500000 0.517280 0.250000
O O11 0.735664 0.518850 0.411725
O O12 0.500000 0.500000 0.000000
O O13 0.000000 0.537303 0.250000
#
# Coordination Sequence:
#
# PCOD8122018 Si02
#       5
#     4   4   4   4   4
#     4  11  28  47  73 107 149 194 243 303 369 439
#     4  10  24  40  77 104 140 185 246 304 368 430
#     4  11  24  45  72 103 142 186 246 299 366 437
#     4  11  28  48  72 107 150 194 241 304 369 437
#     4  11  24  44  72 104 141 186 247 299 364 437
#
# _framework density 22.736673
#
# number of rings (size 3 to 8) (size 9 to 14) (size 15 to 20)
#    0.000    1.200    0.000    3.600   19.600    2.400 
#    0.000    0.000    0.000    0.000    0.000    0.000 
#    0.000    0.000    0.000    0.000    0.000    0.000 
#
# Total GULP energy -248026.162532 kJ/mol
# GULP energy per Si atom -12401.308127 kJ/mol
# Density = 2.268492 g / cm^3
# Si number density = 22.736673 Si / 1000 Ang^3
#
#
#
# Elastic Constant Matrix: (Units=GPa)
#
#
# Indices 1 2 3 4 5 6 
#
# 1 169.2986 35.1963 70.4007 0.0000 15.0404 0.0000
# 2 35.1963 92.5331 31.9616 0.0000 -0.4675 0.0000
# 3 70.4007 31.9616 170.7103 0.0000 5.9078 0.0000
# 4 0.0000 0.0000 0.0000 33.9017 0.0000 -7.4737
# 5 15.0404 -0.4675 5.9078 0.0000 44.1738 0.0000
# 6 0.0000 0.0000 0.0000 -7.4737 0.0000 27.2749
#
#
#
# Elastic Compliance Matrix: (Units=1/GPa)
#
#
# Indices 1 2 3 4 5 6 
#
# 1 0.007644 -0.001986 -0.002702 0.000000 -0.002262 0.000000
# 2 -0.001986 0.012077 -0.001477 0.000000 0.001001 0.000000
# 3 -0.002702 -0.001477 0.007251 0.000000 -0.000065 0.000000
# 4 0.000000 0.000000 0.000000 0.031393 0.000000 0.008602
# 5 -0.002262 0.001001 -0.000065 0.000000 0.023427 0.000000
# 6 0.000000 0.000000 0.000000 0.008602 0.000000 0.039021
#
#
# Mechanical properties :
#
#
# Convention : Reuss Voigt Hill
#
# Bulk Modulus (GPa) = 68.29321 78.62880 73.46100
# Shear Modulus (GPa) = 36.22515 40.73565 38.48040
#
# Velocity S-wave (km/s) = 3.99588 4.23735 4.11839
# Velocity P-wave (km/s) = 7.16877 7.65491 7.41582
#
# Compressibility (1/GPa) = 0.01464274
#
# Stress axis : x y z
#
# Youngs Moduli (GPa) = 130.81672 82.79912 137.90902
#
# Poissons Ratio (x) = 0.16441 0.37269
# Poissons Ratio (y) = 0.25975 0.20369
# Poissons Ratio (z) = 0.35352 0.12230
#
# Static dielectric constant tensor:
#      x y z
#    x 4.334440 0.000000 -0.025280 
#    y 0.000000 4.151250 0.000000 
#    z -0.025280 0.000000 4.048900 
# 
# 
# High freq. dielectric constant tensor:
#      x y z
#    x 1.908040 0.000000 -0.009000 
#    y 0.000000 1.906860 0.000000 
#    z -0.009000 0.000000 1.894990 
# 
# From -- ./inp_files/32759.got.cif
#   From: 2010.06.25/outbox.cif.g09.slc.cpg/sg13_17_cif.got.tgz:32759.got - 2010.06.28 04:50:58.
