data_PCOD8122977
_publ_section_title
;
Structure prediction by ZEFSAII (Michael W. Deem and Ramdas Pophale) SiO2 
 PCOD8122977
Probable space group: P 2/C
;
_chemical_formula_sum "Si O2"
_cell_formula_units_Z 20
_cell_length_a 17.650653
_cell_length_b 5.308365
_cell_length_c 25.640755
_cell_angle_alpha 90.000000
_cell_angle_beta 160.652869
_cell_angle_gamma 90.000000
_cell_volume 795.905550
_symmetry_space_group_name_H-M "P 2/C"
_symmetry_group_IT_number 13
_symmetry_cell_setting 'monoclinic'
loop_
_space_group_symop_operation_xyz
x,y,z
-x,y,1/2-z
-x,-y,-z
x,-y,1/2+z
loop_
_atom_site_type_symbol
_atom_site_label
_atom_site_fract_x
_atom_site_fract_y
_atom_site_fract_z
Si Si1 0.450010 0.812078 0.656811
Si Si2 0.161039 0.044337 0.311127
Si Si3 0.833774 0.694849 0.531955
Si Si4 0.394072 0.310694 0.889286
Si Si5 0.141127 0.618226 0.638131
O O1 0.500000 0.804698 0.750000
O O2 0.295787 0.567645 0.544378
O O3 0.681688 0.813247 0.772744
O O4 0.331804 0.071666 0.564710
O O5 0.402388 0.118556 0.494156
O O6 0.000000 0.918214 0.250000
O O7 0.037662 0.293811 0.207082
O O8 0.189542 0.844403 0.283149
O O9 0.947631 0.740182 0.549122
O O10 0.292150 0.426322 0.770674
O O11 0.500000 0.500000 0.000000
O O12 0.000000 0.500000 0.500000
#
# Coordination Sequence:
#
# PCOD8122977 Si02
#       5
#     4   4   4   4   4
#     4  12  28  48  77 116 157 206 271 320 396 489
#     4  11  26  46  79 108 153 206 262 339 400 470
#     4  12  27  50  76 118 153 206 270 324 402 475
#     4  11  25  49  72 114 154 200 273 318 399 486
#     4  12  27  52  81 112 166 213 256 340 400 472
#
# _framework density 25.128610999999999
#
# number of rings (size 3 to 8) (size 9 to 14) (size 15 to 20)
#    0.000    0.400    4.000    3.000    2.800    4.800 
#    0.000    0.000    0.000    0.000    0.000    0.000 
#    0.000    0.000    0.000    0.000    0.000    0.000 
#
# Total GULP energy -247988.926195 kJ/mol
# GULP energy per Si atom -12399.446310 kJ/mol
# Density = 2.507142 g / cm^3
# Si number density = 25.128611 Si / 1000 Ang^3
#
#
#
# Elastic Constant Matrix: (Units=GPa)
#
#
# Indices 1 2 3 4 5 6 
#
# 1 115.7412 -8.3144 40.7001 0.0000 19.1208 0.0000
# 2 -8.3144 77.1094 26.5350 0.0000 4.7461 0.0000
# 3 40.7001 26.5350 116.9229 0.0000 -5.6206 0.0000
# 4 0.0000 0.0000 0.0000 26.7567 0.0000 5.8552
# 5 19.1208 4.7461 -5.6206 0.0000 71.1132 0.0000
# 6 0.0000 0.0000 0.0000 5.8552 0.0000 22.5768
#
#
#
# Elastic Compliance Matrix: (Units=1/GPa)
#
#
# Indices 1 2 3 4 5 6 
#
# 1 0.011111 0.003045 -0.004730 0.000000 -0.003565 0.000000
# 2 0.003045 0.015004 -0.004570 0.000000 -0.002181 0.000000
# 3 -0.004730 -0.004570 0.011355 0.000000 0.002474 0.000000
# 4 0.000000 0.000000 0.000000 0.039623 0.000000 -0.010276
# 5 -0.003565 -0.002181 0.002474 0.000000 0.015362 0.000000
# 6 0.000000 0.000000 0.000000 -0.010276 0.000000 0.046958
#
#
# Mechanical properties :
#
#
# Convention : Reuss Voigt Hill
#
# Bulk Modulus (GPa) = 40.06357 47.51275 43.78816
# Shear Modulus (GPa) = 31.20279 40.81288 36.00783
#
# Velocity S-wave (km/s) = 3.52763 4.03446 3.78953
# Velocity P-wave (km/s) = 5.70704 6.37584 6.05069
#
# Compressibility (1/GPa) = 0.02496033
#
# Stress axis : x y z
#
# Youngs Moduli (GPa) = 90.00160 66.64982 88.06534
#
# Poissons Ratio (x) = -0.20296 0.41656
# Poissons Ratio (y) = -0.27407 0.40245
# Poissons Ratio (z) = 0.42571 0.30458
#
# Static dielectric constant tensor:
#      x y z
#    x 4.968480 0.000000 0.531220 
#    y 0.000000 4.952490 0.000000 
#    z 0.531220 0.000000 5.185260 
# 
# 
# High freq. dielectric constant tensor:
#      x y z
#    x 2.020650 0.000000 0.008560 
#    y 0.000000 1.986770 0.000000 
#    z 0.008560 0.000000 2.026530 
# 
# From -- ./inp_files/93205.got.cif
#   From: 2010.06.25/outbox.cif.g09.slc.cpg/sg13_47_cif.got.tgz:93205.got - 2010.06.28 04:50:58.
