data_PCOD8122021
_publ_section_title
;
Structure prediction by ZEFSAII (Michael W. Deem and Ramdas Pophale) SiO2 
 PCOD8122021
Probable space group: P 2/C
;
_chemical_formula_sum "Si O2"
_cell_formula_units_Z 32
_cell_length_a 18.584874
_cell_length_b 15.248793
_cell_length_c 14.069239
_cell_angle_alpha 90.000000
_cell_angle_beta 21.218759
_cell_angle_gamma 90.000000
_cell_volume 1443.078776
_symmetry_space_group_name_H-M "P 2/C"
_symmetry_group_IT_number 13
_symmetry_cell_setting 'monoclinic'
loop_
_space_group_symop_operation_xyz
x,y,z
-x,y,1/2-z
-x,-y,-z
x,-y,1/2+z
loop_
_atom_site_type_symbol
_atom_site_label
_atom_site_fract_x
_atom_site_fract_y
_atom_site_fract_z
Si Si1 0.275711 0.075703 0.349269
Si Si2 0.798299 0.630615 0.758696
Si Si3 0.080619 0.717651 0.545132
Si Si4 0.727201 0.508460 0.487439
Si Si5 0.288665 0.105531 0.733438
Si Si6 0.076295 0.315726 0.757949
Si Si7 0.608771 0.578761 0.308671
Si Si8 0.869968 0.127356 0.770495
O O1 0.248730 0.083864 0.496071
O O2 0.105122 0.123374 0.499429
O O3 0.268925 0.973270 0.332273
O O4 0.478369 0.124037 0.070184
O O5 0.890912 0.709404 0.708232
O O6 0.899727 0.635416 0.531150
O O7 0.848619 0.539436 0.752943
O O8 0.561031 0.638093 0.033865
O O9 0.178439 0.812650 0.415343
O O10 0.249620 0.645136 0.306510
O O11 0.000000 0.705060 0.750000
O O12 0.500000 0.489537 0.750000
O O13 0.755414 0.611750 0.460122
O O14 0.767649 0.463985 0.539794
O O15 0.191755 0.079375 0.750868
O O16 0.175239 0.231455 0.686876
O O17 0.000000 0.282761 0.750000
O O18 0.500000 0.500000 0.500000
#
# Coordination Sequence:
#
# PCOD8122021 Si02
#       8
#     4   4   4   4   4   4   4   4
#     4  10  24  46  70 103 139 170 221 284 348 434
#     4  11  25  45  64  94 139 179 228 284 341 401
#     4  12  27  43  70 101 135 186 236 287 339 416
#     4  10  24  41  61  93 134 181 227 279 336 394
#     4  11  25  45  74 101 136 181 223 282 352 418
#     4  12  24  40  67  98 131 178 223 284 339 403
#     4  11  26  42  67  97 138 184 231 288 337 404
#     4  11  23  45  71 102 141 173 220 286 346 414
#
# _framework density 22.174811999999999
#
# number of rings (size 3 to 8) (size 9 to 14) (size 15 to 20)
#    0.000    1.000    3.750    1.875   10.500    2.000 
#    0.000    0.000    2.750    0.000    0.000    0.000 
#    0.000    0.000    0.000    0.000    0.000    0.000 
#
# Total GULP energy -396694.158173 kJ/mol
# GULP energy per Si atom -12396.692443 kJ/mol
# Density = 2.212434 g / cm^3
# Si number density = 22.174812 Si / 1000 Ang^3
#
#
#
# Elastic Constant Matrix: (Units=GPa)
#
#
# Indices 1 2 3 4 5 6 
#
# 1 81.7497 24.6201 40.3872 0.0000 6.4266 0.0000
# 2 24.6201 107.9469 49.1986 0.0000 -1.5101 0.0000
# 3 40.3872 49.1986 106.8868 0.0000 7.4988 0.0000
# 4 0.0000 0.0000 0.0000 38.6904 0.0000 0.4387
# 5 6.4266 -1.5101 7.4988 0.0000 31.7139 0.0000
# 6 0.0000 0.0000 0.0000 0.4387 0.0000 35.1782
#
#
#
# Elastic Compliance Matrix: (Units=1/GPa)
#
#
# Indices 1 2 3 4 5 6 
#
# 1 0.015253 -0.001192 -0.005078 0.000000 -0.001947 0.000000
# 2 -0.001192 0.011926 -0.005182 0.000000 0.002035 0.000000
# 3 -0.005078 -0.005182 0.013834 0.000000 -0.002489 0.000000
# 4 0.000000 0.000000 0.000000 0.025850 0.000000 -0.000322
# 5 -0.001947 0.002035 -0.002489 0.000000 0.032612 0.000000
# 6 0.000000 0.000000 0.000000 -0.000322 0.000000 0.028431
#
#
# Mechanical properties :
#
#
# Convention : Reuss Voigt Hill
#
# Bulk Modulus (GPa) = 55.21869 58.33278 56.77574
# Shear Modulus (GPa) = 31.87847 33.27501 32.57674
#
# Velocity S-wave (km/s) = 3.79568 3.87793 3.83703
# Velocity P-wave (km/s) = 6.64569 6.81279 6.72976
#
# Compressibility (1/GPa) = 0.01810981
#
# Stress axis : x y z
#
# Youngs Moduli (GPa) = 65.55968 83.85240 72.28433
#
# Poissons Ratio (x) = 0.09992 0.36709
# Poissons Ratio (y) = 0.07812 0.37456
# Poissons Ratio (z) = 0.33294 0.43450
#
# Static dielectric constant tensor:
#      x y z
#    x 4.200380 0.000000 0.140360 
#    y 0.000000 3.832190 0.000000 
#    z 0.140360 0.000000 4.184200 
# 
# 
# High freq. dielectric constant tensor:
#      x y z
#    x 1.880070 0.000000 0.003320 
#    y 0.000000 1.864160 0.000000 
#    z 0.003320 0.000000 1.876180 
# 
# From -- ./inp_files/57853.got.cif
#   From: 2010.06.25/outbox.cif.g09.slc.cpg/sg13_29_cif.got.tgz:57853.got - 2010.06.28 04:50:58.
