data_PCOD8122191
_publ_section_title
;
Structure prediction by ZEFSAII (Michael W. Deem and Ramdas Pophale) SiO2 
 PCOD8122191
Probable space group: P 2/C
;
_chemical_formula_sum "Si O2"
_cell_formula_units_Z 32
_cell_length_a 14.502147
_cell_length_b 12.095712
_cell_length_c 17.626240
_cell_angle_alpha 90.000000
_cell_angle_beta 29.570876
_cell_angle_gamma 90.000000
_cell_volume 1525.845030
_symmetry_space_group_name_H-M "P 2/C"
_symmetry_group_IT_number 13
_symmetry_cell_setting 'monoclinic'
loop_
_space_group_symop_operation_xyz
x,y,z
-x,y,1/2-z
-x,-y,-z
x,-y,1/2+z
loop_
_atom_site_type_symbol
_atom_site_label
_atom_site_fract_x
_atom_site_fract_y
_atom_site_fract_z
Si Si1 0.163582 0.330647 0.921963
Si Si2 0.041839 0.950661 0.301576
Si Si3 0.253427 0.720151 0.799409
Si Si4 0.305702 0.936925 0.849128
Si Si5 0.541699 0.507219 0.808379
Si Si6 0.691216 0.125261 0.769132
Si Si7 0.811600 0.371330 0.417959
Si Si8 0.281838 0.168693 0.117180
O O1 0.278834 0.430868 0.802462
O O2 0.267801 0.218293 0.822829
O O3 0.169685 0.342204 0.007598
O O4 0.951737 0.333447 0.043497
O O5 0.161842 0.866482 0.266959
O O6 0.000000 0.893707 0.250000
O O7 0.849578 0.977561 0.481183
O O8 0.148315 0.064136 0.209628
O O9 0.284175 0.807838 0.844744
O O10 0.413694 0.627181 0.689792
O O11 0.273785 0.777582 0.704880
O O12 0.500000 0.962328 0.750000
O O13 0.285950 0.005837 0.785881
O O14 0.500000 0.517787 0.750000
O O15 0.358545 0.454718 0.978970
O O16 0.489834 0.132118 0.949896
O O17 0.785783 0.254752 0.396370
O O18 0.000000 0.427849 0.250000
#
# Coordination Sequence:
#
# PCOD8122191 Si02
#       8
#     4   4   4   4   4   4   4   4
#     4  11  23  44  73  99 130 177 231 283 338 402
#     4  12  26  44  67 100 143 181 224 278 337 404
#     4  12  24  45  69  95 137 181 226 278 342 405
#     4  12  27  42  68  98 139 186 224 272 339 413
#     4  10  24  46  69  97 132 175 232 282 339 404
#     4  12  25  45  67 103 138 179 227 278 337 410
#     4  11  23  42  68 104 132 171 230 291 341 396
#     4  12  25  41  69  99 139 176 225 284 337 400
#
# _framework density 20.971985
#
# number of rings (size 3 to 8) (size 9 to 14) (size 15 to 20)
#    0.000    0.500    5.000    3.375    5.250    0.500 
#    0.000    0.000    0.000    0.000    0.000    0.000 
#    0.000    0.000    0.000    0.000    0.000    0.000 
#
# Total GULP energy -396956.322832 kJ/mol
# GULP energy per Si atom -12404.885088 kJ/mol
# Density = 2.092425 g / cm^3
# Si number density = 20.971985 Si / 1000 Ang^3
#
#
#
# Elastic Constant Matrix: (Units=GPa)
#
#
# Indices 1 2 3 4 5 6 
#
# 1 87.1856 16.8793 29.6439 0.0000 -9.2612 0.0000
# 2 16.8793 70.3946 16.9029 0.0000 -6.3668 0.0000
# 3 29.6439 16.9029 138.0732 0.0000 -29.6273 0.0000
# 4 0.0000 0.0000 0.0000 28.3895 0.0000 -0.0332
# 5 -9.2612 -6.3668 -29.6273 0.0000 20.2514 0.0000
# 6 0.0000 0.0000 0.0000 -0.0332 0.0000 54.2265
#
#
#
# Elastic Compliance Matrix: (Units=1/GPa)
#
#
# Indices 1 2 3 4 5 6 
#
# 1 0.012846 -0.002403 -0.001990 0.000000 0.002208 0.000000
# 2 -0.002403 0.015202 -0.000810 0.000000 0.002496 0.000000
# 3 -0.001990 -0.000810 0.010959 0.000000 0.014869 0.000000
# 4 0.000000 0.000000 0.000000 0.035224 0.000000 0.000022
# 5 0.002208 0.002496 0.014869 0.000000 0.072926 0.000000
# 6 0.000000 0.000000 0.000000 0.000022 0.000000 0.018441
#
#
# Mechanical properties :
#
#
# Convention : Reuss Voigt Hill
#
# Bulk Modulus (GPa) = 34.96184 46.94508 40.95346
# Shear Modulus (GPa) = 26.94861 36.05529 31.50195
#
# Velocity S-wave (km/s) = 3.58855 4.15084 3.87989
# Velocity P-wave (km/s) = 5.82041 6.73839 6.29615
#
# Compressibility (1/GPa) = 0.02860261
#
# Stress axis : x y z
#
# Youngs Moduli (GPa) = 77.84440 65.78126 91.24592
#
# Poissons Ratio (x) = 0.15805 0.18159
# Poissons Ratio (y) = 0.18704 0.07387
# Poissons Ratio (z) = 0.15492 0.05325
#
# Static dielectric constant tensor:
#      x y z
#    x 3.927510 0.000000 -0.077810 
#    y 0.000000 3.780590 0.000000 
#    z -0.077810 0.000000 4.256350 
# 
# 
# High freq. dielectric constant tensor:
#      x y z
#    x 1.829070 0.000000 -0.007070 
#    y 0.000000 1.811440 0.000000 
#    z -0.007070 0.000000 1.840880 
# 
# From -- ./inp_files/68635.got.cif
#   From: 2010.06.25/outbox.cif.g09.slc.cpg/sg13_35_cif.got.tgz:68635.got - 2010.06.28 04:50:58.
