data_PCOD8122945
_publ_section_title
;
Structure prediction by ZEFSAII (Michael W. Deem and Ramdas Pophale) SiO2 
 PCOD8122945
Probable space group: P 2/C
;
_chemical_formula_sum "Si O2"
_cell_formula_units_Z 12
_cell_length_a 4.927347
_cell_length_b 10.465706
_cell_length_c 10.115443
_cell_angle_alpha 90.000000
_cell_angle_beta 96.510122
_cell_angle_gamma 90.000000
_cell_volume 518.271250
_symmetry_space_group_name_H-M "P 2/C"
_symmetry_group_IT_number 13
_symmetry_cell_setting 'monoclinic'
loop_
_space_group_symop_operation_xyz
x,y,z
-x,y,1/2-z
-x,-y,-z
x,-y,1/2+z
loop_
_atom_site_type_symbol
_atom_site_label
_atom_site_fract_x
_atom_site_fract_y
_atom_site_fract_z
Si Si1 0.522570 0.382829 0.600275
Si Si2 0.316484 0.030276 0.118034
Si Si3 0.018962 0.212247 0.555463
O O1 0.500000 0.431176 0.750000
O O2 0.500000 0.500000 0.500000
O O3 0.282580 0.293657 0.533060
O O4 0.804875 0.303444 0.618292
O O5 0.500000 0.069260 0.250000
O O6 0.128339 0.908408 0.147664
O O7 0.122273 0.152569 0.082492
O O8 0.500000 0.000000 0.000000
#
# Coordination Sequence:
#
# PCOD8122945 Si02
#       3
#     4   4   4
#     4  12  27  49  74 103 142 192 244 298 354 419
#     4  11  25  45  74 112 146 185 233 291 362 434
#     4  11  25  46  74 106 145 187 232 291 363 422
#
# _framework density 23.153896
#
# number of rings (size 3 to 8) (size 9 to 14) (size 15 to 20)
#    0.000    0.667    3.333    3.000    4.667    5.333 
#    6.000    0.000    0.000    0.000    0.000    0.000 
#    0.000    0.000    0.000    0.000    0.000    0.000 
#
# Total GULP energy -148742.347336 kJ/mol
# GULP energy per Si atom -12395.195611 kJ/mol
# Density = 2.310120 g / cm^3
# Si number density = 23.153896 Si / 1000 Ang^3
#
#
#
# Elastic Constant Matrix: (Units=GPa)
#
#
# Indices 1 2 3 4 5 6 
#
# 1 116.6010 35.6256 26.8415 0.0000 24.1263 0.0000
# 2 35.6256 127.3212 56.7572 0.0000 8.3857 0.0000
# 3 26.8415 56.7572 125.8965 0.0000 28.7001 0.0000
# 4 0.0000 0.0000 0.0000 8.4516 0.0000 2.0953
# 5 24.1263 8.3857 28.7001 0.0000 42.0706 0.0000
# 6 0.0000 0.0000 0.0000 2.0953 0.0000 12.3095
#
#
#
# Elastic Compliance Matrix: (Units=1/GPa)
#
#
# Indices 1 2 3 4 5 6 
#
# 1 0.010509 -0.002684 0.000262 0.000000 -0.005671 0.000000
# 2 -0.002684 0.010572 -0.004813 0.000000 0.002715 0.000000
# 3 0.000262 -0.004813 0.011690 0.000000 -0.007166 0.000000
# 4 0.000000 0.000000 0.000000 0.123534 0.000000 -0.021027
# 5 -0.005671 0.002715 -0.007166 0.000000 0.031369 0.000000
# 6 0.000000 0.000000 0.000000 -0.021027 0.000000 0.084817
#
#
# Mechanical properties :
#
#
# Convention : Reuss Voigt Hill
#
# Bulk Modulus (GPa) = 54.63793 67.58526 61.11160
# Shear Modulus (GPa) = 17.06126 29.27263 23.16694
#
# Velocity S-wave (km/s) = 2.71747 3.55951 3.16660
# Velocity P-wave (km/s) = 5.78750 6.79311 6.31037
#
# Compressibility (1/GPa) = 0.01830230
#
# Stress axis : x y z
#
# Youngs Moduli (GPa) = 95.15398 94.59187 85.53971
#
# Poissons Ratio (x) = 0.25388 -0.02242
# Poissons Ratio (y) = 0.25539 0.41168
# Poissons Ratio (z) = -0.02494 0.45525
#
# Static dielectric constant tensor:
#      x y z
#    x 4.762340 0.000000 0.106520 
#    y 0.000000 3.534520 0.000000 
#    z 0.106520 0.000000 4.104070 
# 
# 
# High freq. dielectric constant tensor:
#      x y z
#    x 1.946950 0.000000 0.018890 
#    y 0.000000 1.912080 0.000000 
#    z 0.018890 0.000000 1.902700 
# 
# From -- ./inp_files/8582.got.cif
#   From: 2010.06.25/outbox.cif.g09.slc.cpg/sg13_5_cif.got.tgz:8582.got - 2010.06.28 04:50:58.
