data_PCOD8122965
_publ_section_title
;
Structure prediction by ZEFSAII (Michael W. Deem and Ramdas Pophale) SiO2 
 PCOD8122965
Probable space group: P 2/C
;
_chemical_formula_sum "Si O2"
_cell_formula_units_Z 22
_cell_length_a 18.761259
_cell_length_b 10.214726
_cell_length_c 15.481902
_cell_angle_alpha 90.000000
_cell_angle_beta 18.347105
_cell_angle_gamma 90.000000
_cell_volume 933.921473
_symmetry_space_group_name_H-M "P 2/C"
_symmetry_group_IT_number 13
_symmetry_cell_setting 'monoclinic'
loop_
_space_group_symop_operation_xyz
x,y,z
-x,y,1/2-z
-x,-y,-z
x,-y,1/2+z
loop_
_atom_site_type_symbol
_atom_site_label
_atom_site_fract_x
_atom_site_fract_y
_atom_site_fract_z
Si Si1 0.252026 0.454474 0.566619
Si Si2 0.055616 0.276419 0.279277
Si Si3 0.234773 0.931508 0.707607
Si Si4 0.671798 0.395801 0.840146
Si Si5 0.000000 0.250341 0.750000
Si Si6 0.414387 0.149055 0.184206
O O1 0.205670 0.598080 0.581167
O O2 0.201331 0.469298 0.727463
O O3 0.073436 0.345050 0.743046
O O4 0.500000 0.411923 0.250000
O O5 0.195126 0.173856 0.177311
O O6 0.000000 0.209504 0.250000
O O7 0.829595 0.327268 0.587685
O O8 0.340389 0.865452 0.670221
O O9 0.420099 0.038971 0.466538
O O10 0.000000 0.000000 0.000000
O O11 0.500000 0.500000 0.000000
O O12 0.537469 0.286989 0.048514
O O13 0.195081 0.151396 0.496453
#
# Coordination Sequence:
#
# PCOD8122965 Si02
#       6
#     4   4   4   4   2   4
#     4  12  24  45  73 112 151 191 247 315 391 459
#     4  12  25  46  73 110 153 198 256 318 377 462
#     4  11  25  52  73  99 149 205 257 307 376 453
#     4  12  23  44  75 108 148 200 240 316 393 444
#     4  12  24  46  72 118 148 184 254 314 386 456
#     4  11  25  47  76 106 143 195 255 310 373 463
#
# _framework density 23.556584999999998
#
# number of rings (size 3 to 8) (size 9 to 14) (size 15 to 20)
#    0.000    0.364    4.545    4.909    0.000    0.000 
#    1.636    1.818    0.000    0.000    0.000    0.000 
#    0.000    0.000    0.000    0.000    0.000    0.000 
#
# Total GULP energy -272800.148505 kJ/mol
# GULP energy per Si atom -12400.006750 kJ/mol
# Density = 2.350297 g / cm^3
# Si number density = 23.556585 Si / 1000 Ang^3
#
#
#
# Elastic Constant Matrix: (Units=GPa)
#
#
# Indices 1 2 3 4 5 6 
#
# 1 152.8528 49.7093 46.8821 0.0000 -4.9226 0.0000
# 2 49.7093 131.9932 58.7421 0.0000 -6.8905 0.0000
# 3 46.8821 58.7421 146.7477 0.0000 5.2215 0.0000
# 4 0.0000 0.0000 0.0000 46.6259 0.0000 -8.6550
# 5 -4.9226 -6.8905 5.2215 0.0000 35.3077 0.0000
# 6 0.0000 0.0000 0.0000 -8.6550 0.0000 35.2197
#
#
#
# Elastic Compliance Matrix: (Units=1/GPa)
#
#
# Indices 1 2 3 4 5 6 
#
# 1 0.007777 -0.002143 -0.001659 0.000000 0.000912 0.000000
# 2 -0.002143 0.010008 -0.003398 0.000000 0.002157 0.000000
# 3 -0.001659 -0.003398 0.008783 0.000000 -0.002193 0.000000
# 4 0.000000 0.000000 0.000000 0.022472 0.000000 0.005522
# 5 0.000912 0.002157 -0.002193 0.000000 0.029195 0.000000
# 6 0.000000 0.000000 0.000000 0.005522 0.000000 0.029750
#
#
# Mechanical properties :
#
#
# Convention : Reuss Voigt Hill
#
# Bulk Modulus (GPa) = 82.18753 82.47342 82.33048
# Shear Modulus (GPa) = 39.54347 41.84800 40.69574
#
# Velocity S-wave (km/s) = 4.10159 4.21941 4.16092
# Velocity P-wave (km/s) = 7.57601 7.66973 7.62301
#
# Compressibility (1/GPa) = 0.01216730
#
# Stress axis : x y z
#
# Youngs Moduli (GPa) = 128.57676 99.91815 113.85773
#
# Poissons Ratio (x) = 0.21412 0.18892
# Poissons Ratio (y) = 0.27554 0.38693
# Poissons Ratio (z) = 0.21335 0.33955
#
# Static dielectric constant tensor:
#      x y z
#    x 4.589970 0.000000 -0.212330 
#    y 0.000000 4.352970 0.000000 
#    z -0.212330 0.000000 4.234840 
# 
# 
# High freq. dielectric constant tensor:
#      x y z
#    x 1.946830 0.000000 -0.007850 
#    y 0.000000 1.938170 0.000000 
#    z -0.007850 0.000000 1.938250 
# 
# From -- ./inp_files/55618.got.cif
#   From: 2010.06.25/outbox.cif.g09.slc.cpg/sg13_28_cif.got.tgz:55618.got - 2010.06.28 04:50:58.
