data_PCOD8122774
_publ_section_title
;
Structure prediction by ZEFSAII (Michael W. Deem and Ramdas Pophale) SiO2 
 PCOD8122774
Probable space group: P 2/C
;
_chemical_formula_sum "Si O2"
_cell_formula_units_Z 14
_cell_length_a 5.936846
_cell_length_b 7.350044
_cell_length_c 15.354121
_cell_angle_alpha 90.000000
_cell_angle_beta 106.545701
_cell_angle_gamma 90.000000
_cell_volume 642.251141
_symmetry_space_group_name_H-M "P 2/C"
_symmetry_group_IT_number 13
_symmetry_cell_setting 'monoclinic'
loop_
_space_group_symop_operation_xyz
x,y,z
-x,y,1/2-z
-x,-y,-z
x,-y,1/2+z
loop_
_atom_site_type_symbol
_atom_site_label
_atom_site_fract_x
_atom_site_fract_y
_atom_site_fract_z
Si Si1 0.500000 0.836652 0.250000
Si Si2 0.059931 0.719561 0.110485
Si Si3 0.677769 0.019667 0.098772
Si Si4 0.740270 0.398907 0.050236
O O1 0.275008 0.713223 0.202249
O O2 0.552422 0.959650 0.172807
O O3 0.915959 0.907476 0.105900
O O4 0.900083 0.547147 0.115441
O O5 0.147441 0.696898 0.021750
O O6 0.719738 0.234900 0.116637
O O7 0.500000 0.000000 0.000000
O O8 0.500000 0.500000 0.000000
#
# Coordination Sequence:
#
# PCOD8122774 Si02
#       4
#     2   4   4   4
#     4  12  26  44  70 106 144 184 238 292 352 430
#     4  11  24  45  72 101 145 182 237 296 354 427
#     4  12  24  46  74 100 143 188 236 293 360 417
#     4  11  23  44  76 103 135 191 236 288 365 420
#
# _framework density 21.798327
#
# number of rings (size 3 to 8) (size 9 to 14) (size 15 to 20)
#    0.000    0.571    5.714    1.714    0.000    0.000 
#    0.000   21.429    0.000    0.000    0.000    0.000 
#    0.000    0.000    0.000    0.000    0.000    0.000 
#
# Total GULP energy -173605.141712 kJ/mol
# GULP energy per Si atom -12400.367265 kJ/mol
# Density = 2.174871 g / cm^3
# Si number density = 21.798327 Si / 1000 Ang^3
#
#
#
# Elastic Constant Matrix: (Units=GPa)
#
#
# Indices 1 2 3 4 5 6 
#
# 1 143.0813 80.0037 62.2065 0.0000 25.6541 0.0000
# 2 80.0037 186.8570 59.6383 0.0000 22.2376 0.0000
# 3 62.2065 59.6383 129.0951 0.0000 21.3975 0.0000
# 4 0.0000 0.0000 0.0000 24.6732 0.0000 -1.3645
# 5 25.6541 22.2376 21.3975 0.0000 55.5488 0.0000
# 6 0.0000 0.0000 0.0000 -1.3645 0.0000 33.5426
#
#
#
# Elastic Compliance Matrix: (Units=1/GPa)
#
#
# Indices 1 2 3 4 5 6 
#
# 1 0.010630 -0.003237 -0.003234 0.000000 -0.002367 0.000000
# 2 -0.003237 0.007381 -0.001718 0.000000 -0.000798 0.000000
# 3 -0.003234 -0.001718 0.010401 0.000000 -0.001825 0.000000
# 4 0.000000 0.000000 0.000000 0.040621 0.000000 0.001652
# 5 -0.002367 -0.000798 -0.001825 0.000000 0.020118 0.000000
# 6 0.000000 0.000000 0.000000 0.001652 0.000000 0.029880
#
#
# Mechanical properties :
#
#
# Convention : Reuss Voigt Hill
#
# Bulk Modulus (GPa) = 83.10280 95.85897 89.48088
# Shear Modulus (GPa) = 35.86297 39.89856 37.88077
#
# Velocity S-wave (km/s) = 4.06053 4.28290 4.17320
# Velocity P-wave (km/s) = 7.75823 8.27819 8.02242
#
# Compressibility (1/GPa) = 0.01203329
#
# Stress axis : x y z
#
# Youngs Moduli (GPa) = 94.07640 135.48539 96.14765
#
# Poissons Ratio (x) = 0.43859 0.31096
# Poissons Ratio (y) = 0.30454 0.16514
# Poissons Ratio (z) = 0.30426 0.23271
#
# Static dielectric constant tensor:
#      x y z
#    x 4.333290 0.000000 -0.116940 
#    y 0.000000 4.312140 0.000000 
#    z -0.116940 0.000000 5.715940 
# 
# 
# High freq. dielectric constant tensor:
#      x y z
#    x 1.877990 0.000000 0.003510 
#    y 0.000000 1.865790 0.000000 
#    z 0.003510 0.000000 1.847050 
# 
# From -- ./inp_files/43131.got.cif
#   From: 2010.06.25/outbox.cif.g09.slc.cpg/sg13_22_cif.got.tgz:43131.got - 2010.06.28 04:50:58.
