data_PCOD8122634
_publ_section_title
;
Structure prediction by ZEFSAII (Michael W. Deem and Ramdas Pophale) SiO2 
 PCOD8122634
Probable space group: P 2/C
;
_chemical_formula_sum "Si O2"
_cell_formula_units_Z 26
_cell_length_a 15.305769
_cell_length_b 8.488248
_cell_length_c 14.459592
_cell_angle_alpha 90.000000
_cell_angle_beta 141.065628
_cell_angle_gamma 90.000000
_cell_volume 1180.554485
_symmetry_space_group_name_H-M "P 2/C"
_symmetry_group_IT_number 13
_symmetry_cell_setting 'monoclinic'
loop_
_space_group_symop_operation_xyz
x,y,z
-x,y,1/2-z
-x,-y,-z
x,-y,1/2+z
loop_
_atom_site_type_symbol
_atom_site_label
_atom_site_fract_x
_atom_site_fract_y
_atom_site_fract_z
Si Si1 0.256685 0.628452 0.715775
Si Si2 0.000000 0.192333 0.750000
Si Si3 0.337972 0.441126 0.608204
Si Si4 0.483925 0.187634 0.985435
Si Si5 0.759872 0.382554 0.644446
Si Si6 0.115491 0.081537 0.032224
Si Si7 0.626014 0.128888 0.792809
O O1 0.289653 0.572817 0.639877
O O2 0.208951 0.476714 0.735193
O O3 0.131163 0.750081 0.595484
O O4 0.383879 0.715863 0.870931
O O5 0.898938 0.303882 0.723771
O O6 0.926371 0.085954 0.610819
O O7 0.500000 0.425196 0.750000
O O8 0.291984 0.486914 0.468857
O O9 0.282158 0.262162 0.579088
O O10 0.352851 0.243531 0.938398
O O11 0.450728 0.227672 0.851996
O O12 0.500000 0.000000 0.000000
O O13 0.268300 0.000730 0.160468
O O14 0.000000 0.000000 0.000000
O O15 0.500000 0.050816 0.750000
#
# Coordination Sequence:
#
# PCOD8122634 Si02
#       7
#     4   2   4   4   4   4   4
#     4  12  24  44  76 104 137 186 232 301 357 419
#     4  12  30  46  72  98 138 200 240 282 352 426
#     4  11  22  43  72 107 139 177 231 293 360 422
#     4  12  24  42  75 108 140 178 228 296 364 425
#     4  12  26  46  71 103 141 183 245 290 352 432
#     4  12  29  49  71 105 147 192 239 297 358 429
#     4  11  25  44  72 107 141 181 232 294 360 430
#
# _framework density 22.02355
#
# number of rings (size 3 to 8) (size 9 to 14) (size 15 to 20)
#    0.000    0.308    6.154    3.231    2.154    3.692 
#    0.000    0.000    0.000    0.000    0.000    0.000 
#    0.000    0.000    0.000    0.000    0.000    0.000 
#
# Total GULP energy -322320.477823 kJ/mol
# GULP energy per Si atom -12396.941455 kJ/mol
# Density = 2.197342 g / cm^3
# Si number density = 22.023550 Si / 1000 Ang^3
#
#
#
# Elastic Constant Matrix: (Units=GPa)
#
#
# Indices 1 2 3 4 5 6 
#
# 1 123.0482 47.4071 34.0873 0.0000 4.1716 0.0000
# 2 47.4071 113.6703 17.4461 0.0000 7.2099 0.0000
# 3 34.0873 17.4461 78.0063 0.0000 -7.3465 0.0000
# 4 0.0000 0.0000 0.0000 37.2070 0.0000 -1.4666
# 5 4.1716 7.2099 -7.3465 0.0000 35.9329 0.0000
# 6 0.0000 0.0000 0.0000 -1.4666 0.0000 46.4022
#
#
#
# Elastic Compliance Matrix: (Units=1/GPa)
#
#
# Indices 1 2 3 4 5 6 
#
# 1 0.010726 -0.003783 -0.003963 0.000000 -0.001296 0.000000
# 2 -0.003783 0.010633 -0.000902 0.000000 -0.001879 0.000000
# 3 -0.003963 -0.000902 0.015104 0.000000 0.003729 0.000000
# 4 0.000000 0.000000 0.000000 0.026910 0.000000 0.000851
# 5 -0.001296 -0.001879 0.003729 0.000000 0.029120 0.000000
# 6 0.000000 0.000000 0.000000 0.000851 0.000000 0.021578
#
#
# Mechanical properties :
#
#
# Convention : Reuss Voigt Hill
#
# Bulk Modulus (GPa) = 52.17272 56.95622 54.56447
# Shear Modulus (GPa) = 36.29622 38.29405 37.29513
#
# Velocity S-wave (km/s) = 4.06404 4.17439 4.11958
# Velocity P-wave (km/s) = 6.76482 7.01083 6.88892
#
# Compressibility (1/GPa) = 0.01916711
#
# Stress axis : x y z
#
# Youngs Moduli (GPa) = 93.22951 94.04986 66.20665
#
# Poissons Ratio (x) = 0.35579 0.26239
# Poissons Ratio (y) = 0.35268 0.05971
# Poissons Ratio (z) = 0.36949 0.08482
#
# Static dielectric constant tensor:
#      x y z
#    x 4.054510 0.000000 -0.195840 
#    y 0.000000 16.178940 0.000000 
#    z -0.195840 0.000000 3.961720 
# 
# 
# High freq. dielectric constant tensor:
#      x y z
#    x 1.875380 0.000000 -0.016100 
#    y 0.000000 1.878020 0.000000 
#    z -0.016100 0.000000 1.865950 
# 
# From -- ./inp_files/53370.got.cif
#   From: 2010.06.25/outbox.cif.g09.slc.cpg/sg13_27_cif.got.tgz:53370.got - 2010.06.28 04:50:58.
