data_PCOD8122332
_publ_section_title
;
Structure prediction by ZEFSAII (Michael W. Deem and Ramdas Pophale) SiO2 
 PCOD8122332
Probable space group: P 2/C
;
_chemical_formula_sum "Si O2"
_cell_formula_units_Z 22
_cell_length_a 23.560733
_cell_length_b 5.077023
_cell_length_c 25.137950
_cell_angle_alpha 90.000000
_cell_angle_beta 18.768044
_cell_angle_gamma 90.000000
_cell_volume 967.452587
_symmetry_space_group_name_H-M "P 2/C"
_symmetry_group_IT_number 13
_symmetry_cell_setting 'monoclinic'
loop_
_space_group_symop_operation_xyz
x,y,z
-x,y,1/2-z
-x,-y,-z
x,-y,1/2+z
loop_
_atom_site_type_symbol
_atom_site_label
_atom_site_fract_x
_atom_site_fract_y
_atom_site_fract_z
Si Si1 0.336321 0.268420 0.310044
Si Si2 0.829796 0.767539 0.996140
Si Si3 0.000000 0.488388 0.250000
Si Si4 0.784841 0.207989 0.304514
Si Si5 0.292138 0.302530 0.563544
Si Si6 0.123989 0.249128 0.390453
O O1 0.307162 0.555494 0.359972
O O2 0.248692 0.239191 0.330494
O O3 0.258555 0.054198 0.420199
O O4 0.545619 0.230752 0.118512
O O5 0.872152 0.705307 0.896919
O O6 0.006902 0.744336 0.873367
O O7 0.885722 0.677993 0.313546
O O8 0.733703 0.918638 0.369025
O O9 0.673140 0.421897 0.436893
O O10 0.746961 0.241168 0.275455
O O11 0.000000 0.500000 0.500000
O O12 0.000000 0.000000 0.500000
#
# Coordination Sequence:
#
# PCOD8122332 Si02
#       6
#     4   4   2   4   4   4
#     4  12  24  43  68 104 133 168 226 279 323 390
#     4  11  23  43  70  94 133 173 225 275 323 401
#     4  10  26  48  68  94 128 186 222 270 352 386
#     4  11  22  42  67  97 136 180 214 264 331 402
#     4  11  26  43  67  98 137 171 224 279 323 395
#     4  12  22  39  70 102 133 180 214 267 334 401
#
# _framework density 22.740131999999999
#
# number of rings (size 3 to 8) (size 9 to 14) (size 15 to 20)
#    0.000    0.727    3.636    4.364    0.000    8.727 
#    0.000    3.636    0.000    0.000    0.000    0.000 
#    0.000    0.000    0.000    0.000    0.000    0.000 
#
# Total GULP energy -272949.940851 kJ/mol
# GULP energy per Si atom -12406.815493 kJ/mol
# Density = 2.268837 g / cm^3
# Si number density = 22.740132 Si / 1000 Ang^3
#
#
#
# Elastic Constant Matrix: (Units=GPa)
#
#
# Indices 1 2 3 4 5 6 
#
# 1 63.8034 18.5647 21.7928 0.0000 18.1999 0.0000
# 2 18.5647 124.5391 26.8544 0.0000 -0.6444 0.0000
# 3 21.7928 26.8544 117.5240 0.0000 10.9898 0.0000
# 4 0.0000 0.0000 0.0000 45.5034 0.0000 10.9891
# 5 18.1999 -0.6444 10.9898 0.0000 32.1157 0.0000
# 6 0.0000 0.0000 0.0000 10.9891 0.0000 22.5514
#
#
#
# Elastic Compliance Matrix: (Units=1/GPa)
#
#
# Indices 1 2 3 4 5 6 
#
# 1 0.020244 -0.002610 -0.002149 0.000000 -0.010789 0.000000
# 2 -0.002610 0.008805 -0.001738 0.000000 0.002251 0.000000
# 3 -0.002149 -0.001738 0.009498 0.000000 -0.002067 0.000000
# 4 0.000000 0.000000 0.000000 0.024908 0.000000 -0.012137
# 5 -0.010789 0.002251 -0.002067 0.000000 0.038004 0.000000
# 6 0.000000 0.000000 0.000000 -0.012137 0.000000 0.050258
#
#
# Mechanical properties :
#
#
# Convention : Reuss Voigt Hill
#
# Bulk Modulus (GPa) = 39.13476 48.92115 44.02795
# Shear Modulus (GPa) = 28.86353 35.94439 32.40396
#
# Velocity S-wave (km/s) = 3.56656 3.98006 3.77897
# Velocity P-wave (km/s) = 5.84871 6.53307 6.20034
#
# Compressibility (1/GPa) = 0.02555273
#
# Stress axis : x y z
#
# Youngs Moduli (GPa) = 49.39687 113.56894 105.28667
#
# Poissons Ratio (x) = 0.29645 0.22621
# Poissons Ratio (y) = 0.12894 0.18304
# Poissons Ratio (z) = 0.10613 0.19743
#
# Static dielectric constant tensor:
#      x y z
#    x 4.075580 0.000000 0.159280 
#    y 0.000000 4.197420 0.000000 
#    z 0.159280 0.000000 4.075480 
# 
# 
# High freq. dielectric constant tensor:
#      x y z
#    x 1.891590 0.000000 0.021470 
#    y 0.000000 1.911410 0.000000 
#    z 0.021470 0.000000 1.898030 
# 
# From -- ./inp_files/88711.got.cif
#   From: 2010.06.25/outbox.cif.g09.slc.cpg/sg13_45_cif.got.tgz:88711.got - 2010.06.28 04:50:58.
