data_PCOD8122873
_publ_section_title
;
Structure prediction by ZEFSAII (Michael W. Deem and Ramdas Pophale) SiO2 
 PCOD8122873
Probable space group: P 2/C
;
_chemical_formula_sum "Si O2"
_cell_formula_units_Z 26
_cell_length_a 11.480178
_cell_length_b 14.446174
_cell_length_c 14.027542
_cell_angle_alpha 90.000000
_cell_angle_beta 149.115116
_cell_angle_gamma 90.000000
_cell_volume 1194.171974
_symmetry_space_group_name_H-M "P 2/C"
_symmetry_group_IT_number 13
_symmetry_cell_setting 'monoclinic'
loop_
_space_group_symop_operation_xyz
x,y,z
-x,y,1/2-z
-x,-y,-z
x,-y,1/2+z
loop_
_atom_site_type_symbol
_atom_site_label
_atom_site_fract_x
_atom_site_fract_y
_atom_site_fract_z
Si Si1 0.479257 0.292080 0.489206
Si Si2 0.578905 0.091236 0.108977
Si Si3 0.877223 0.388899 0.366728
Si Si4 0.902369 0.424018 0.787395
Si Si5 0.732281 0.287702 0.965258
Si Si6 0.069744 0.910941 0.900962
Si Si7 0.500000 0.025409 0.250000
O O1 0.512531 0.180622 0.513440
O O2 0.721448 0.341190 0.656036
O O3 0.331989 0.327567 0.476073
O O4 0.325804 0.315960 0.289542
O O5 0.476911 0.091732 0.142978
O O6 0.849887 0.088691 0.313255
O O7 0.500000 0.000000 0.000000
O O8 0.901861 0.397625 0.498388
O O9 0.118472 0.360409 0.489450
O O10 0.793255 0.482753 0.254853
O O11 0.000000 0.439903 0.750000
O O12 0.500000 0.265059 0.750000
O O13 0.869305 0.194534 0.076213
O O14 0.000000 0.956536 0.750000
O O15 0.275403 0.962217 0.097909
#
# Coordination Sequence:
#
# PCOD8122873 Si02
#       7
#     4   4   4   4   4   4   2
#     4  12  24  45  70  98 139 177 228 283 341 400
#     4  12  26  45  68 102 136 184 230 281 344 405
#     4  11  24  44  74 102 131 179 228 277 341 401
#     4  11  26  46  66 103 142 178 222 276 341 418
#     4  12  21  41  75 104 129 175 235 291 341 395
#     4  12  22  44  71  97 135 178 234 294 332 400
#     4  12  26  44  66 100 140 186 226 280 350 414
#
# _framework density 21.772407000000001
#
# number of rings (size 3 to 8) (size 9 to 14) (size 15 to 20)
#    0.000    0.308    6.923    2.308    0.000    1.846 
#    5.538    0.000    0.000    0.000    0.000    0.000 
#    0.000    0.000    0.000    0.000    0.000    0.000 
#
# Total GULP energy -322408.864847 kJ/mol
# GULP energy per Si atom -12400.340956 kJ/mol
# Density = 2.172285 g / cm^3
# Si number density = 21.772407 Si / 1000 Ang^3
#
#
#
# Elastic Constant Matrix: (Units=GPa)
#
#
# Indices 1 2 3 4 5 6 
#
# 1 110.8394 28.5122 31.1380 0.0000 -22.2837 0.0000
# 2 28.5122 96.4078 50.3402 0.0000 0.2321 0.0000
# 3 31.1380 50.3402 117.6447 0.0000 -4.5427 0.0000
# 4 0.0000 0.0000 0.0000 29.9918 0.0000 1.0713
# 5 -22.2837 0.2321 -4.5427 0.0000 41.8947 0.0000
# 6 0.0000 0.0000 0.0000 1.0713 0.0000 26.2384
#
#
#
# Elastic Compliance Matrix: (Units=1/GPa)
#
#
# Indices 1 2 3 4 5 6 
#
# 1 0.011313 -0.002465 -0.001714 0.000000 0.005845 0.000000
# 2 -0.002465 0.013914 -0.005378 0.000000 -0.001971 0.000000
# 3 -0.001714 -0.005378 0.011268 0.000000 0.000340 0.000000
# 4 0.000000 0.000000 0.000000 0.033391 0.000000 -0.001363
# 5 0.005845 -0.001971 0.000340 0.000000 0.027026 0.000000
# 6 0.000000 0.000000 0.000000 -0.001363 0.000000 0.038168
#
#
# Mechanical properties :
#
#
# Convention : Reuss Voigt Hill
#
# Bulk Modulus (GPa) = 57.52965 60.54143 59.03554
# Shear Modulus (GPa) = 31.25257 33.95174 32.60216
#
# Velocity S-wave (km/s) = 3.79281 3.95320 3.87383
# Velocity P-wave (km/s) = 6.75730 6.97882 6.86895
#
# Compressibility (1/GPa) = 0.01738234
#
# Stress axis : x y z
#
# Youngs Moduli (GPa) = 88.39621 71.86838 88.74680
#
# Poissons Ratio (x) = 0.17715 0.15209
# Poissons Ratio (y) = 0.21789 0.47725
# Poissons Ratio (z) = 0.15149 0.38648
#
# Static dielectric constant tensor:
#      x y z
#    x 4.174710 0.000000 -0.184850 
#    y 0.000000 3.879010 0.000000 
#    z -0.184850 0.000000 4.149010 
# 
# 
# High freq. dielectric constant tensor:
#      x y z
#    x 1.849520 0.000000 -0.008690 
#    y 0.000000 1.851430 0.000000 
#    z -0.008690 0.000000 1.867620 
# 
# From -- ./inp_files/51538.got.cif
#   From: 2010.06.25/outbox.cif.g09.slc.cpg/sg13_26_cif.got.tgz:51538.got - 2010.06.28 04:50:58.
