data_PCOD8122417
_publ_section_title
;
Structure prediction by ZEFSAII (Michael W. Deem and Ramdas Pophale) SiO2 
 PCOD8122417
Probable space group: P 2/C
;
_chemical_formula_sum "Si O2"
_cell_formula_units_Z 32
_cell_length_a 14.928114
_cell_length_b 6.336408
_cell_length_c 15.867219
_cell_angle_alpha 90.000000
_cell_angle_beta 88.233949
_cell_angle_gamma 90.000000
_cell_volume 1500.177170
_symmetry_space_group_name_H-M "P 2/C"
_symmetry_group_IT_number 13
_symmetry_cell_setting 'monoclinic'
loop_
_space_group_symop_operation_xyz
x,y,z
-x,y,1/2-z
-x,-y,-z
x,-y,1/2+z
loop_
_atom_site_type_symbol
_atom_site_label
_atom_site_fract_x
_atom_site_fract_y
_atom_site_fract_z
Si Si1 0.826177 0.828873 0.658944
Si Si2 0.733710 0.609533 0.798001
Si Si3 0.159899 0.277111 0.606297
Si Si4 0.602309 0.259639 0.747006
Si Si5 0.325603 0.019026 0.104569
Si Si6 0.025723 0.105475 0.912181
Si Si7 0.829564 0.554794 0.056384
Si Si8 0.685110 0.891651 0.075860
O O1 0.778742 0.815792 0.751313
O O2 0.832597 0.579278 0.641744
O O3 0.921900 0.947731 0.653506
O O4 0.761562 0.940354 0.594488
O O5 0.810814 0.452669 0.827354
O O6 0.663022 0.469979 0.746906
O O7 0.679983 0.731532 0.872889
O O8 0.227000 0.080991 0.601898
O O9 0.154811 0.385675 0.516462
O O10 0.062141 0.188153 0.634222
O O11 0.500000 0.333388 0.750000
O O12 0.616087 0.112614 0.829524
O O13 0.620936 0.134981 0.658918
O O14 0.366262 0.022395 0.007066
O O15 0.086986 0.294043 0.940766
O O16 0.000000 0.000000 0.000000
O O17 0.734570 0.672438 0.050873
#
# Coordination Sequence:
#
# PCOD8122417 Si02
#       8
#     4   4   4   4   4   4   4   4
#     4  11  22  40  64  89 126 182 219 265 335 388
#     4  11  24  43  67  89 138 179 217 273 343 397
#     4  11  22  38  63  96 131 171 228 279 320 387
#     4  11  26  45  69 103 136 166 219 282 338 412
#     4  11  23  42  71  99 130 177 222 268 331 411
#     4  11  23  35  62  95 128 170 233 280 320 382
#     4  11  20  37  66  92 124 178 222 267 329 389
#     4  11  21  41  72  99 129 176 219 265 341 405
#
# _framework density 21.330814
#
# number of rings (size 3 to 8) (size 9 to 14) (size 15 to 20)
#    0.000    1.000    6.250    1.125    0.000    1.000 
#    0.000    4.375    0.000    0.000    0.000    0.000 
#    0.000    0.000    0.000    0.000    0.000    0.000 
#
# Total GULP energy -396608.714797 kJ/mol
# GULP energy per Si atom -12394.022337 kJ/mol
# Density = 2.128226 g / cm^3
# Si number density = 21.330814 Si / 1000 Ang^3
#
#
#
# Elastic Constant Matrix: (Units=GPa)
#
#
# Indices 1 2 3 4 5 6 
#
# 1 103.9827 26.3233 29.6579 0.0000 3.3637 0.0000
# 2 26.3233 93.3244 24.7599 0.0000 2.1709 0.0000
# 3 29.6579 24.7599 106.8164 0.0000 2.7109 0.0000
# 4 0.0000 0.0000 0.0000 37.5297 0.0000 -10.6128
# 5 3.3637 2.1709 2.7109 0.0000 19.9342 0.0000
# 6 0.0000 0.0000 0.0000 -10.6128 0.0000 17.6211
#
#
#
# Elastic Compliance Matrix: (Units=1/GPa)
#
#
# Indices 1 2 3 4 5 6 
#
# 1 0.010969 -0.002414 -0.002454 0.000000 -0.001254 0.000000
# 2 -0.002414 0.011964 -0.002088 0.000000 -0.000612 0.000000
# 3 -0.002454 -0.002088 0.010547 0.000000 -0.000793 0.000000
# 4 0.000000 0.000000 0.000000 0.032115 0.000000 0.019342
# 5 -0.001254 -0.000612 -0.000793 0.000000 0.050551 0.000000
# 6 0.000000 0.000000 0.000000 0.019342 0.000000 0.068400
#
#
# Mechanical properties :
#
#
# Convention : Reuss Voigt Hill
#
# Bulk Modulus (GPa) = 51.10029 51.73398 51.41713
# Shear Modulus (GPa) = 24.39263 29.90915 27.15089
#
# Velocity S-wave (km/s) = 3.38529 3.74860 3.57157
# Velocity P-wave (km/s) = 6.26805 6.56063 6.41600
#
# Compressibility (1/GPa) = 0.01956936
#
# Stress axis : x y z
#
# Youngs Moduli (GPa) = 91.17008 83.58281 94.81102
#
# Poissons Ratio (x) = 0.20173 0.23268
# Poissons Ratio (y) = 0.22004 0.19793
# Poissons Ratio (z) = 0.22375 0.17449
#
# Static dielectric constant tensor:
#      x y z
#    x 3.596190 0.000000 0.012480 
#    y 0.000000 3.968970 0.000000 
#    z 0.012480 0.000000 3.179950 
# 
# 
# High freq. dielectric constant tensor:
#      x y z
#    x 1.805120 0.000000 -0.002870 
#    y 0.000000 1.850450 0.000000 
#    z -0.002870 0.000000 1.845050 
# 
# From -- ./inp_files/54674.got.cif
#   From: 2010.06.25/outbox.cif.g09.slc.cpg/sg13_28_cif.got.tgz:54674.got - 2010.06.28 04:50:58.
