data_PCOD8122230
_publ_section_title
;
Structure prediction by ZEFSAII (Michael W. Deem and Ramdas Pophale) SiO2 
 PCOD8122230
Probable space group: P 2/C
;
_chemical_formula_sum "Si O2"
_cell_formula_units_Z 28
_cell_length_a 12.003951
_cell_length_b 14.118780
_cell_length_c 9.109789
_cell_angle_alpha 90.000000
_cell_angle_beta 122.139824
_cell_angle_gamma 90.000000
_cell_volume 1307.332688
_symmetry_space_group_name_H-M "P 2/C"
_symmetry_group_IT_number 13
_symmetry_cell_setting 'monoclinic'
loop_
_space_group_symop_operation_xyz
x,y,z
-x,y,1/2-z
-x,-y,-z
x,-y,1/2+z
loop_
_atom_site_type_symbol
_atom_site_label
_atom_site_fract_x
_atom_site_fract_y
_atom_site_fract_z
Si Si1 0.703598 0.247646 0.677743
Si Si2 0.500000 0.931068 0.750000
Si Si3 0.924281 0.630495 0.437572
Si Si4 0.424373 0.213561 0.434480
Si Si5 0.187453 0.245055 0.069439
Si Si6 0.297892 0.092395 0.598100
Si Si7 0.000000 0.507388 0.750000
Si Si8 0.913175 0.954124 0.059201
O O1 0.791601 0.308845 0.851236
O O2 0.549019 0.280193 0.568249
O O3 0.770144 0.263245 0.567001
O O4 0.718442 0.140809 0.752997
O O5 0.497791 0.865090 0.605437
O O6 0.375155 0.996154 0.676991
O O7 0.915146 0.573931 0.583775
O O8 0.059212 0.692762 0.520772
O O9 0.910499 0.558643 0.291009
O O10 0.310588 0.268947 0.264500
O O11 0.364275 0.167532 0.537503
O O12 0.165317 0.132658 0.070020
O O13 0.166830 0.046319 0.438156
O O14 0.000000 0.909504 0.250000
O O15 0.000000 0.000000 0.000000
#
# Coordination Sequence:
#
# PCOD8122230 Si02
#       8
#     4   2   4   4   4   4   2   4
#     4  12  23  42  64  97 131 174 222 276 319 394
#     4  12  22  38  60  82 130 192 248 262 304 370
#     4  11  24  46  75 104 128 163 214 271 349 419
#     4  12  24  40  62  94 133 190 230 275 320 378
#     4  12  23  40  64  95 134 172 218 275 328 390
#     4  12  25  38  60  89 134 187 237 270 316 374
#     4  10  24  48  78 102 126 164 208 274 350 442
#     4  12  24  38  56  88 132 178 226 281 323 364
#
# _framework density 21.417656000000001
#
# number of rings (size 3 to 8) (size 9 to 14) (size 15 to 20)
#    0.000    0.286    5.714    3.857    4.000    0.000 
#    1.286    0.000    0.000    5.143    0.000    0.000 
#    0.000    0.000    0.000    0.000    0.000    0.000 
#
# Total GULP energy -346963.792449 kJ/mol
# GULP energy per Si atom -12391.564016 kJ/mol
# Density = 2.136891 g / cm^3
# Si number density = 21.417656 Si / 1000 Ang^3
#
#
#
# Elastic Constant Matrix: (Units=GPa)
#
#
# Indices 1 2 3 4 5 6 
#
# 1 92.0653 52.4824 47.0168 0.0000 24.2561 0.0000
# 2 52.4824 69.3655 50.8155 0.0000 11.8128 0.0000
# 3 47.0168 50.8155 114.1048 0.0000 23.9030 0.0000
# 4 0.0000 0.0000 0.0000 27.8159 0.0000 -0.9680
# 5 24.2561 11.8128 23.9030 0.0000 41.7738 0.0000
# 6 0.0000 0.0000 0.0000 -0.9680 0.0000 6.7770
#
#
#
# Elastic Compliance Matrix: (Units=1/GPa)
#
#
# Indices 1 2 3 4 5 6 
#
# 1 0.021574 -0.014361 -0.000818 0.000000 -0.007997 0.000000
# 2 -0.014361 0.030974 -0.008849 0.000000 0.004644 0.000000
# 3 -0.000818 -0.008849 0.014110 0.000000 -0.005096 0.000000
# 4 0.000000 0.000000 0.000000 0.036130 0.000000 0.005160
# 5 -0.007997 0.004644 -0.005096 0.000000 0.030185 0.000000
# 6 0.000000 0.000000 0.000000 0.005160 0.000000 0.148294
#
#
# Mechanical properties :
#
#
# Convention : Reuss Voigt Hill
#
# Bulk Modulus (GPa) = 53.76499 64.01831 58.89165
# Shear Modulus (GPa) = 14.90206 23.62141 19.26173
#
# Velocity S-wave (km/s) = 2.64063 3.32459 3.00215
# Velocity P-wave (km/s) = 5.86983 6.68525 6.29076
#
# Compressibility (1/GPa) = 0.01859946
#
# Stress axis : x y z
#
# Youngs Moduli (GPa) = 46.35304 32.28499 70.87404
#
# Poissons Ratio (x) = 0.46365 0.05801
# Poissons Ratio (y) = 0.66569 0.62718
# Poissons Ratio (z) = 0.03794 0.28570
#
# Static dielectric constant tensor:
#      x y z
#    x 4.211730 0.000000 0.235120 
#    y 0.000000 4.074700 0.000000 
#    z 0.235120 0.000000 4.097200 
# 
# 
# High freq. dielectric constant tensor:
#      x y z
#    x 1.847570 0.000000 0.000780 
#    y 0.000000 1.806390 0.000000 
#    z 0.000780 0.000000 1.857380 
# 
# From -- ./inp_files/16897.got.cif
#   From: 2010.06.25/outbox.cif.g09.slc.cpg/sg13_9_cif.got.tgz:16897.got - 2010.06.28 04:50:58.
