data_PCOD8122499
_publ_section_title
;
Structure prediction by ZEFSAII (Michael W. Deem and Ramdas Pophale) SiO2 
 PCOD8122499
Probable space group: P 2/C
;
_chemical_formula_sum "Si O2"
_cell_formula_units_Z 24
_cell_length_a 13.090029
_cell_length_b 14.329610
_cell_length_c 15.499380
_cell_angle_alpha 90.000000
_cell_angle_beta 24.165774
_cell_angle_gamma 90.000000
_cell_volume 1190.183462
_symmetry_space_group_name_H-M "P 2/C"
_symmetry_group_IT_number 13
_symmetry_cell_setting 'monoclinic'
loop_
_space_group_symop_operation_xyz
x,y,z
-x,y,1/2-z
-x,-y,-z
x,-y,1/2+z
loop_
_atom_site_type_symbol
_atom_site_label
_atom_site_fract_x
_atom_site_fract_y
_atom_site_fract_z
Si Si1 0.182798 0.248833 0.807649
Si Si2 0.000000 0.526314 0.750000
Si Si3 0.217607 0.324210 0.966897
Si Si4 0.000000 0.170844 0.250000
Si Si5 0.581137 0.895152 0.951363
Si Si6 0.262005 0.651306 0.080361
Si Si7 0.368373 0.795391 0.769624
O O1 0.133889 0.296705 0.936586
O O2 0.368847 0.160623 0.667678
O O3 0.295921 0.325624 0.655507
O O4 0.914115 0.216026 0.982517
O O5 0.045017 0.590610 0.631672
O O6 0.243377 0.461071 0.581297
O O7 0.500000 0.358520 0.750000
O O8 0.191830 0.235315 0.049340
O O9 0.838220 0.108290 0.308354
O O10 0.616520 0.854495 0.828860
O O11 0.500000 0.000000 0.000000
O O12 0.000000 0.697124 0.250000
O O13 0.494137 0.695040 0.849481
O O14 0.500000 0.846785 0.750000
#
# Coordination Sequence:
#
# PCOD8122499 Si02
#       7
#     4   2   4   2   4   4   4
#     4  11  22  40  66  90 124 176 214 258 336 386
#     4   9  22  38  61  96 132 164 223 272 308 391
#     4  11  22  40  65  89 124 177 217 261 324 390
#     4  11  22  46  65  90 134 166 209 268 324 385
#     4  11  26  43  67  99 128 164 217 274 324 395
#     4   9  20  39  58  92 129 164 207 270 312 369
#     4  11  21  40  67  92 132 173 209 263 333 386
#
# _framework density 20.164957999999999
#
# number of rings (size 3 to 8) (size 9 to 14) (size 15 to 20)
#    0.500    1.000    5.000    0.000    0.000    4.667 
#    3.000    1.667    0.000    0.000    0.000    0.000 
#    0.000    0.000    0.000    0.000    0.000    0.000 
#
# Total GULP energy -297514.177830 kJ/mol
# GULP energy per Si atom -12396.424076 kJ/mol
# Density = 2.011906 g / cm^3
# Si number density = 20.164958 Si / 1000 Ang^3
#
#
#
# Elastic Constant Matrix: (Units=GPa)
#
#
# Indices 1 2 3 4 5 6 
#
# 1 144.6354 51.4889 36.1341 0.0000 4.8129 0.0000
# 2 51.4889 126.0066 33.6071 0.0000 0.6429 0.0000
# 3 36.1341 33.6071 91.0354 0.0000 -5.6134 0.0000
# 4 0.0000 0.0000 0.0000 16.2252 0.0000 -4.0111
# 5 4.8129 0.6429 -5.6134 0.0000 40.9440 0.0000
# 6 0.0000 0.0000 0.0000 -4.0111 0.0000 21.8367
#
#
#
# Elastic Compliance Matrix: (Units=1/GPa)
#
#
# Indices 1 2 3 4 5 6 
#
# 1 0.008580 -0.002850 -0.002433 0.000000 -0.001297 0.000000
# 2 -0.002850 0.009764 -0.002483 0.000000 -0.000159 0.000000
# 3 -0.002433 -0.002483 0.012997 0.000000 0.002107 0.000000
# 4 0.000000 0.000000 0.000000 0.064564 0.000000 0.011860
# 5 -0.001297 -0.000159 0.002107 0.000000 0.024867 0.000000
# 6 0.000000 0.000000 0.000000 0.011860 0.000000 0.047973
#
#
# Mechanical properties :
#
#
# Convention : Reuss Voigt Hill
#
# Bulk Modulus (GPa) = 63.26026 67.12641 65.19333
# Shear Modulus (GPa) = 26.37864 31.83101 29.10483
#
# Velocity S-wave (km/s) = 3.62075 3.97738 3.80325
# Velocity P-wave (km/s) = 6.99423 7.37927 7.18933
#
# Compressibility (1/GPa) = 0.01580771
#
# Stress axis : x y z
#
# Youngs Moduli (GPa) = 116.55467 102.41938 76.94037
#
# Poissons Ratio (x) = 0.29192 0.18722
# Poissons Ratio (y) = 0.33221 0.19104
# Poissons Ratio (z) = 0.28361 0.25430
#
# Static dielectric constant tensor:
#      x y z
#    x 3.836280 0.000000 0.099280 
#    y 0.000000 3.401410 0.000000 
#    z 0.099280 0.000000 3.799170 
# 
# 
# High freq. dielectric constant tensor:
#      x y z
#    x 1.800270 0.000000 0.007610 
#    y 0.000000 1.758030 0.000000 
#    z 0.007610 0.000000 1.794420 
# 
# From -- ./inp_files/51399.got.cif
#   From: 2010.06.25/outbox.cif.g09.slc.cpg/sg13_26_cif.got.tgz:51399.got - 2010.06.28 04:50:58.
