data_PCOD8122553
_publ_section_title
;
Structure prediction by ZEFSAII (Michael W. Deem and Ramdas Pophale) SiO2 
 PCOD8122553
Probable space group: P 2/C
;
_chemical_formula_sum "Si O2"
_cell_formula_units_Z 18
_cell_length_a 21.686416
_cell_length_b 6.819010
_cell_length_c 24.493065
_cell_angle_alpha 90.000000
_cell_angle_beta 15.503663
_cell_angle_gamma 90.000000
_cell_volume 968.169007
_symmetry_space_group_name_H-M "P 2/C"
_symmetry_group_IT_number 13
_symmetry_cell_setting 'monoclinic'
loop_
_space_group_symop_operation_xyz
x,y,z
-x,y,1/2-z
-x,-y,-z
x,-y,1/2+z
loop_
_atom_site_type_symbol
_atom_site_label
_atom_site_fract_x
_atom_site_fract_y
_atom_site_fract_z
Si Si1 0.999386 0.439479 0.063189
Si Si2 0.604043 0.854708 0.269022
Si Si3 0.500000 0.025782 0.250000
Si Si4 0.095265 0.844088 0.032062
Si Si5 0.679021 0.118900 0.383569
O O1 0.234581 0.332032 0.877891
O O2 0.994567 0.633900 0.103742
O O3 0.000000 0.500000 0.000000
O O4 0.775793 0.307925 0.268472
O O5 0.451789 0.886778 0.343984
O O6 0.449322 0.808638 0.452878
O O7 0.769741 0.049549 0.134281
O O8 0.274380 0.161387 0.430539
O O9 0.880933 0.978117 0.231785
O O10 0.500000 0.000000 0.500000
#
# Coordination Sequence:
#
# PCOD8122553 Si02
#       5
#     4   4   2   4   4
#     4  11  22  37  61  94 121 155 201 250 306 353
#     4   9  21  40  61  83 122 160 196 249 296 358
#     4   8  20  44  62  76 120 168 204 232 304 364
#     4   9  21  40  59  85 120 158 197 248 296 355
#     4  11  22  37  62  92 121 156 199 249 307 354
#
# _framework density 18.591795999999999
#
# number of rings (size 3 to 8) (size 9 to 14) (size 15 to 20)
#    1.333    0.889    0.000    2.667    0.000   10.667 
#    0.000    0.000    4.889    0.000    0.000    0.000 
#    0.000    0.000    0.000    0.000    0.000    0.000 
#
# Total GULP energy -223010.629068 kJ/mol
# GULP energy per Si atom -12389.479393 kJ/mol
# Density = 1.854948 g / cm^3
# Si number density = 18.591796 Si / 1000 Ang^3
#
#
#
# Elastic Constant Matrix: (Units=GPa)
#
#
# Indices 1 2 3 4 5 6 
#
# 1 74.9847 11.7340 15.5508 0.0000 3.8236 0.0000
# 2 11.7340 100.1290 27.5170 0.0000 4.0532 0.0000
# 3 15.5508 27.5170 91.1456 0.0000 9.1626 0.0000
# 4 0.0000 0.0000 0.0000 26.6924 0.0000 -7.3533
# 5 3.8236 4.0532 9.1626 0.0000 42.2232 0.0000
# 6 0.0000 0.0000 0.0000 -7.3533 0.0000 32.7291
#
#
#
# Elastic Compliance Matrix: (Units=1/GPa)
#
#
# Indices 1 2 3 4 5 6 
#
# 1 0.013951 -0.001059 -0.001987 0.000000 -0.000730 0.000000
# 2 -0.001059 0.010976 -0.003104 0.000000 -0.000284 0.000000
# 3 -0.001987 -0.003104 0.012472 0.000000 -0.002228 0.000000
# 4 0.000000 0.000000 0.000000 0.039936 0.000000 0.008972
# 5 -0.000730 -0.000284 -0.002228 0.000000 0.024261 0.000000
# 6 0.000000 0.000000 0.000000 0.008972 0.000000 0.032570
#
#
# Mechanical properties :
#
#
# Convention : Reuss Voigt Hill
#
# Bulk Modulus (GPa) = 39.84479 41.76254 40.80366
# Shear Modulus (GPa) = 32.29312 34.42611 33.35962
#
# Velocity S-wave (km/s) = 4.17220 4.30779 4.24054
# Velocity P-wave (km/s) = 6.68488 6.87418 6.78019
#
# Compressibility (1/GPa) = 0.02509738
#
# Stress axis : x y z
#
# Youngs Moduli (GPa) = 71.67874 91.10895 80.18151
#
# Poissons Ratio (x) = 0.09651 0.15932
# Poissons Ratio (y) = 0.07593 0.24891
# Poissons Ratio (z) = 0.14243 0.28283
#
# Static dielectric constant tensor:
#      x y z
#    x 3.509000 0.000000 -0.089160 
#    y 0.000000 3.319800 0.000000 
#    z -0.089160 0.000000 3.474740 
# 
# 
# High freq. dielectric constant tensor:
#      x y z
#    x 1.710380 0.000000 -0.009030 
#    y 0.000000 1.717410 0.000000 
#    z -0.009030 0.000000 1.724020 
# 
# From -- ./inp_files/97800.got.cif
#   From: 2010.06.25/outbox.cif.g09.slc.cpg/sg13_49_cif.got.tgz:97800.got - 2010.06.28 04:50:58.
