data_PCOD8122461
_publ_section_title
;
Structure prediction by ZEFSAII (Michael W. Deem and Ramdas Pophale) SiO2 
 PCOD8122461
Probable space group: P 2/C
;
_chemical_formula_sum "Si O2"
_cell_formula_units_Z 22
_cell_length_a 12.370521
_cell_length_b 8.704615
_cell_length_c 10.425190
_cell_angle_alpha 90.000000
_cell_angle_beta 101.284409
_cell_angle_gamma 90.000000
_cell_volume 1100.888957
_symmetry_space_group_name_H-M "P 2/C"
_symmetry_group_IT_number 13
_symmetry_cell_setting 'monoclinic'
loop_
_space_group_symop_operation_xyz
x,y,z
-x,y,1/2-z
-x,-y,-z
x,-y,1/2+z
loop_
_atom_site_type_symbol
_atom_site_label
_atom_site_fract_x
_atom_site_fract_y
_atom_site_fract_z
Si Si1 0.897540 0.577813 0.418677
Si Si2 0.000000 0.809323 0.250000
Si Si3 0.572165 0.470851 0.892113
Si Si4 0.751825 0.311294 0.329834
Si Si5 0.124130 0.953712 0.484876
Si Si6 0.739631 0.246560 0.039006
O O1 0.827325 0.459224 0.317300
O O2 0.835747 0.632857 0.532284
O O3 0.000000 0.500000 0.500000
O O4 0.934781 0.717356 0.341218
O O5 0.100807 0.906789 0.332647
O O6 0.500000 0.440547 0.750000
O O7 0.648004 0.623215 0.887097
O O8 0.500000 0.500000 0.000000
O O9 0.636109 0.310284 0.933296
O O10 0.824289 0.186852 0.423220
O O11 0.712955 0.241441 0.184619
O O12 0.218619 0.083187 0.505563
O O13 0.000000 0.000000 0.500000
#
# Coordination Sequence:
#
# PCOD8122461 Si02
#       6
#     4   2   4   4   4   4
#     4  11  21  37  60  94 128 179 225 270 320 399
#     4  12  22  36  62  90 144 184 224 262 334 394
#     4  11  24  49  76 100 128 171 236 305 346 393
#     4  11  24  41  68  97 134 174 232 278 341 407
#     4  12  24  42  62 101 148 183 215 270 336 425
#     4  11  24  41  66  96 130 182 220 277 352 405
#
# _framework density 19.983851000000001
#
# number of rings (size 3 to 8) (size 9 to 14) (size 15 to 20)
#    0.000    0.727    5.455    2.182    2.545    1.455 
#    0.000    1.818    0.000    0.000    0.000    0.000 
#    0.000    0.000    0.000    0.000    0.000    0.000 
#
# Total GULP energy -272573.413395 kJ/mol
# GULP energy per Si atom -12389.700609 kJ/mol
# Density = 1.993837 g / cm^3
# Si number density = 19.983851 Si / 1000 Ang^3
#
#
#
# Elastic Constant Matrix: (Units=GPa)
#
#
# Indices 1 2 3 4 5 6 
#
# 1 124.5166 52.3667 56.0466 0.0000 -0.9366 0.0000
# 2 52.3667 111.9132 49.5645 0.0000 8.8681 0.0000
# 3 56.0466 49.5645 142.5654 0.0000 7.1155 0.0000
# 4 0.0000 0.0000 0.0000 35.2248 0.0000 6.8048
# 5 -0.9366 8.8681 7.1155 0.0000 35.6570 0.0000
# 6 0.0000 0.0000 0.0000 6.8048 0.0000 40.8501
#
#
#
# Elastic Compliance Matrix: (Units=1/GPa)
#
#
# Indices 1 2 3 4 5 6 
#
# 1 0.011105 -0.003985 -0.003075 0.000000 0.001896 0.000000
# 2 -0.003985 0.012122 -0.002517 0.000000 -0.002617 0.000000
# 3 -0.003075 -0.002517 0.009162 0.000000 -0.001283 0.000000
# 4 0.000000 0.000000 0.000000 0.029333 0.000000 -0.004886
# 5 0.001896 -0.002617 -0.001283 0.000000 0.029002 0.000000
# 6 0.000000 0.000000 0.000000 -0.004886 0.000000 0.025294
#
#
# Mechanical properties :
#
#
# Convention : Reuss Voigt Hill
#
# Bulk Modulus (GPa) = 75.55331 77.21677 76.38504
# Shear Modulus (GPa) = 35.82048 37.08086 36.45067
#
# Velocity S-wave (km/s) = 4.23835 4.31227 4.27547
# Velocity P-wave (km/s) = 7.86389 7.96980 7.91702
#
# Compressibility (1/GPa) = 0.01323569
#
# Stress axis : x y z
#
# Youngs Moduli (GPa) = 90.04696 82.49241 109.14109
#
# Poissons Ratio (x) = 0.32871 0.33562
# Poissons Ratio (y) = 0.35882 0.27474
# Poissons Ratio (z) = 0.27691 0.20766
#
# Static dielectric constant tensor:
#      x y z
#    x 3.783020 0.000000 0.074940 
#    y 0.000000 3.714510 0.000000 
#    z 0.074940 0.000000 3.321810 
# 
# 
# High freq. dielectric constant tensor:
#      x y z
#    x 1.778610 0.000000 -0.003540 
#    y 0.000000 1.781330 0.000000 
#    z -0.003540 0.000000 1.790260 
# 
# From -- ./inp_files/32692.got.cif
#   From: 2010.06.25/outbox.cif.g09.slc.cpg/sg13_17_cif.got.tgz:32692.got - 2010.06.28 04:50:58.
