data_PCOD8122835
_publ_section_title
;
Structure prediction by ZEFSAII (Michael W. Deem and Ramdas Pophale) SiO2 
 PCOD8122835
Probable space group: P 2/C
;
_chemical_formula_sum "Si O2"
_cell_formula_units_Z 24
_cell_length_a 20.331195
_cell_length_b 5.082800
_cell_length_c 12.497855
_cell_angle_alpha 90.000000
_cell_angle_beta 122.602991
_cell_angle_gamma 90.000000
_cell_volume 1088.008477
_symmetry_space_group_name_H-M "P 2/C"
_symmetry_group_IT_number 13
_symmetry_cell_setting 'monoclinic'
loop_
_space_group_symop_operation_xyz
x,y,z
-x,y,1/2-z
-x,-y,-z
x,-y,1/2+z
loop_
_atom_site_type_symbol
_atom_site_label
_atom_site_fract_x
_atom_site_fract_y
_atom_site_fract_z
Si Si1 0.911814 0.184624 0.208553
Si Si2 0.205942 0.736213 0.073801
Si Si3 0.154189 0.302254 0.749996
Si Si4 0.305748 0.344115 0.016887
Si Si5 0.591070 0.546054 0.085597
Si Si6 0.656738 0.043380 0.256629
O O1 0.895366 0.477997 0.232848
O O2 0.000000 0.159402 0.250000
O O3 0.894381 0.968935 0.284478
O O4 0.855752 0.127446 0.058358
O O5 0.161602 0.595253 0.133763
O O6 0.269393 0.555859 0.067961
O O7 0.252498 0.964956 0.179343
O O8 0.238071 0.248216 0.878149
O O9 0.346341 0.104222 0.118029
O O10 0.376691 0.445738 0.006641
O O11 0.601891 0.807653 0.167179
O O12 0.637341 0.306996 0.177846
O O13 0.500000 0.500000 0.000000
#
# Coordination Sequence:
#
# PCOD8122835 Si02
#       6
#     4   4   4   4   4   4
#     4  11  26  44  67 105 142 176 226 290 350 405
#     4  11  25  43  72 103 132 187 243 277 345 421
#     4  11  24  41  72  96 136 183 230 286 337 416
#     4  11  24  45  74 101 138 184 241 290 336 421
#     4  12  29  48  71 106 147 179 233 299 359 408
#     4  12  24  47  70 103 135 185 237 281 352 418
#
# _framework density 22.058651000000001
#
# number of rings (size 3 to 8) (size 9 to 14) (size 15 to 20)
#    0.000    0.667    5.000    1.000    9.333    2.000 
#    3.000    0.000    0.000    0.000    0.000    0.000 
#    0.000    0.000    0.000    0.000    0.000    0.000 
#
# Total GULP energy -297465.347414 kJ/mol
# GULP energy per Si atom -12394.389476 kJ/mol
# Density = 2.200844 g / cm^3
# Si number density = 22.058651 Si / 1000 Ang^3
#
#
#
# Elastic Constant Matrix: (Units=GPa)
#
#
# Indices 1 2 3 4 5 6 
#
# 1 158.2974 35.9773 62.3578 0.0000 -9.3167 0.0000
# 2 35.9773 108.6935 42.5789 0.0000 -11.8129 0.0000
# 3 62.3578 42.5789 85.1789 0.0000 -13.3705 0.0000
# 4 0.0000 0.0000 0.0000 29.9260 0.0000 -0.0596
# 5 -9.3167 -11.8129 -13.3705 0.0000 23.9201 0.0000
# 6 0.0000 0.0000 0.0000 -0.0596 0.0000 26.8446
#
#
#
# Elastic Compliance Matrix: (Units=1/GPa)
#
#
# Indices 1 2 3 4 5 6 
#
# 1 0.008900 -0.000508 -0.006311 0.000000 -0.000312 0.000000
# 2 -0.000508 0.011629 -0.005011 0.000000 0.002745 0.000000
# 3 -0.006311 -0.005011 0.019831 0.000000 0.006152 0.000000
# 4 0.000000 0.000000 0.000000 0.033416 0.000000 0.000074
# 5 -0.000312 0.002745 0.006152 0.000000 0.046478 0.000000
# 6 0.000000 0.000000 0.000000 0.000074 0.000000 0.037252
#
#
# Mechanical properties :
#
#
# Convention : Reuss Voigt Hill
#
# Bulk Modulus (GPa) = 59.87482 70.44422 65.15952
# Shear Modulus (GPa) = 26.77634 30.22187 28.49910
#
# Velocity S-wave (km/s) = 3.48784 3.70546 3.59830
# Velocity P-wave (km/s) = 6.58957 7.09306 6.84595
#
# Compressibility (1/GPa) = 0.01670151
#
# Stress axis : x y z
#
# Youngs Moduli (GPa) = 112.35580 85.98899 50.42735
#
# Poissons Ratio (x) = 0.04365 0.31824
# Poissons Ratio (y) = 0.05704 0.25268
# Poissons Ratio (z) = 0.70906 0.43087
#
# Static dielectric constant tensor:
#      x y z
#    x 4.114130 0.000000 0.454820 
#    y 0.000000 4.206760 0.000000 
#    z 0.454820 0.000000 5.593390 
# 
# 
# High freq. dielectric constant tensor:
#      x y z
#    x 1.858830 0.000000 -0.007500 
#    y 0.000000 1.871800 0.000000 
#    z -0.007500 0.000000 1.880990 
# 
# From -- ./inp_files/38233.got.cif
#   From: 2010.06.25/outbox.cif.g09.slc.cpg/sg13_20_cif.got.tgz:38233.got - 2010.06.28 04:50:58.
