data_PCOD8122940
_publ_section_title
;
Structure prediction by ZEFSAII (Michael W. Deem and Ramdas Pophale) SiO2 
 PCOD8122940
Probable space group: P 2/C
;
_chemical_formula_sum "Si O2"
_cell_formula_units_Z 20
_cell_length_a 6.811313
_cell_length_b 6.653796
_cell_length_c 21.516241
_cell_angle_alpha 90.000000
_cell_angle_beta 98.917623
_cell_angle_gamma 90.000000
_cell_volume 963.352176
_symmetry_space_group_name_H-M "P 2/C"
_symmetry_group_IT_number 13
_symmetry_cell_setting 'monoclinic'
loop_
_space_group_symop_operation_xyz
x,y,z
-x,y,1/2-z
-x,-y,-z
x,-y,1/2+z
loop_
_atom_site_type_symbol
_atom_site_label
_atom_site_fract_x
_atom_site_fract_y
_atom_site_fract_z
Si Si1 0.349072 0.981214 0.321839
Si Si2 0.500000 0.658328 0.250000
Si Si3 0.000000 0.201762 0.250000
Si Si4 0.222828 0.472332 0.031586
Si Si5 0.683052 0.322513 0.331974
Si Si6 0.529694 0.806585 0.043347
O O1 0.135116 0.083794 0.306196
O O2 0.535556 0.132232 0.318806
O O3 0.333766 0.807356 0.269183
O O4 0.366596 0.881114 0.389381
O O5 0.565875 0.526711 0.312030
O O6 0.145571 0.324741 0.211985
O O7 0.231064 0.338499 0.094579
O O8 0.321508 0.692167 0.046180
O O9 0.326836 0.353407 0.981399
O O10 0.000000 0.500000 0.000000
O O11 0.500000 0.000000 0.000000
#
# Coordination Sequence:
#
# PCOD8122940 Si02
#       6
#     4   2   2   4   4   4
#     4  12  25  46  68 104 139 178 227 284 341 403
#     4  12  22  46  70  92 140 180 212 282 352 382
#     4  12  26  42  72 104 132 182 232 272 344 412
#     4  11  27  44  70 107 133 181 233 280 336 405
#     4  12  25  46  67 101 146 170 226 294 331 405
#     4  11  25  45  72  97 141 182 220 281 346 394
#
# _framework density 20.760842
#
# number of rings (size 3 to 8) (size 9 to 14) (size 15 to 20)
#    0.000    0.400    8.000    0.000    2.800    6.400 
#    0.000    0.000    0.000    0.000    0.000    0.000 
#    0.000    0.000    0.000    0.000    0.000    0.000 
#
# Total GULP energy -247924.225531 kJ/mol
# GULP energy per Si atom -12396.211277 kJ/mol
# Density = 2.071359 g / cm^3
# Si number density = 20.760842 Si / 1000 Ang^3
#
#
#
# Elastic Constant Matrix: (Units=GPa)
#
#
# Indices 1 2 3 4 5 6 
#
# 1 111.5346 32.6789 40.2131 0.0000 13.6026 0.0000
# 2 32.6789 105.8064 40.6649 0.0000 5.5995 0.0000
# 3 40.2131 40.6649 127.1296 0.0000 9.8688 0.0000
# 4 0.0000 0.0000 0.0000 46.2345 0.0000 -8.0579
# 5 13.6026 5.5995 9.8688 0.0000 37.3835 0.0000
# 6 0.0000 0.0000 0.0000 -8.0579 0.0000 13.1792
#
#
#
# Elastic Compliance Matrix: (Units=1/GPa)
#
#
# Indices 1 2 3 4 5 6 
#
# 1 0.010885 -0.002246 -0.002494 0.000000 -0.002966 0.000000
# 2 -0.002246 0.011258 -0.002882 0.000000 -0.000108 0.000000
# 3 -0.002494 -0.002882 0.009671 0.000000 -0.001214 0.000000
# 4 0.000000 0.000000 0.000000 0.024209 0.000000 0.014801
# 5 -0.002966 -0.000108 -0.001214 0.000000 0.028165 0.000000
# 6 0.000000 0.000000 0.000000 0.014801 0.000000 0.084927
#
#
# Mechanical properties :
#
#
# Convention : Reuss Voigt Hill
#
# Bulk Modulus (GPa) = 60.35458 63.50937 61.93198
# Shear Modulus (GPa) = 26.33180 34.75370 30.54275
#
# Velocity S-wave (km/s) = 3.56524 4.09590 3.83975
# Velocity P-wave (km/s) = 6.78840 7.28188 7.03947
#
# Compressibility (1/GPa) = 0.01656875
#
# Stress axis : x y z
#
# Youngs Moduli (GPa) = 91.86963 88.82180 103.40000
#
# Poissons Ratio (x) = 0.19952 0.25792
# Poissons Ratio (y) = 0.20637 0.29803
# Poissons Ratio (z) = 0.22916 0.25601
#
# Static dielectric constant tensor:
#      x y z
#    x 3.484960 0.000000 0.182350 
#    y 0.000000 3.922070 0.000000 
#    z 0.182350 0.000000 3.585950 
# 
# 
# High freq. dielectric constant tensor:
#      x y z
#    x 1.802170 0.000000 -0.004820 
#    y 0.000000 1.824780 0.000000 
#    z -0.004820 0.000000 1.833740 
# 
# From -- ./inp_files/89984.got.cif
#   From: 2010.06.25/outbox.cif.g09.slc.cpg/sg13_45_cif.got.tgz:89984.got - 2010.06.28 04:50:58.
