data_PCOD8122921
_publ_section_title
;
Structure prediction by ZEFSAII (Michael W. Deem and Ramdas Pophale) SiO2 
 PCOD8122921
Probable space group: P 2/C
;
_chemical_formula_sum "Si O2"
_cell_formula_units_Z 20
_cell_length_a 14.234808
_cell_length_b 6.380617
_cell_length_c 26.903167
_cell_angle_alpha 90.000000
_cell_angle_beta 160.950473
_cell_angle_gamma 90.000000
_cell_volume 797.532430
_symmetry_space_group_name_H-M "P 2/C"
_symmetry_group_IT_number 13
_symmetry_cell_setting 'monoclinic'
loop_
_space_group_symop_operation_xyz
x,y,z
-x,y,1/2-z
-x,-y,-z
x,-y,1/2+z
loop_
_atom_site_type_symbol
_atom_site_label
_atom_site_fract_x
_atom_site_fract_y
_atom_site_fract_z
Si Si1 0.263405 0.838023 0.091194
Si Si2 0.153357 0.280536 0.944255
Si Si3 0.263013 0.607312 0.914983
Si Si4 0.807858 0.307505 0.429273
Si Si5 0.465473 0.101620 0.872768
O O1 0.500000 0.867716 0.250000
O O2 0.117384 0.066752 0.015964
O O3 0.394493 0.773136 0.103880
O O4 0.051721 0.651532 0.007398
O O5 0.878252 0.125818 0.801205
O O6 0.137454 0.447071 0.892498
O O7 0.447898 0.143526 0.087064
O O8 0.162784 0.411828 0.001336
O O9 0.407233 0.807126 0.012826
O O10 0.000000 0.689640 0.750000
O O11 0.500000 0.500000 0.000000
O O12 0.500000 0.349421 0.250000
#
# Coordination Sequence:
#
# PCOD8122921 Si02
#       5
#     4   4   4   4   4
#     4   9  16  32  59  93 135 173 208 259 319 391
#     4  11  25  44  70 103 134 175 226 271 331 403
#     4  12  28  50  69  94 134 174 223 291 345 389
#     4   9  18  32  59  97 137 173 214 259 321 393
#     4  11  25  43  71 102 134 176 225 271 331 404
#
# _framework density 25.077352000000001
#
# number of rings (size 3 to 8) (size 9 to 14) (size 15 to 20)
#    0.000    1.600    4.000    0.000   11.200    1.600 
#    0.000    2.000    0.000    0.000    0.000    0.000 
#    0.000    0.000    0.000    0.000    0.000    0.000 
#
# Total GULP energy -247958.417755 kJ/mol
# GULP energy per Si atom -12397.920888 kJ/mol
# Density = 2.502027 g / cm^3
# Si number density = 25.077352 Si / 1000 Ang^3
#
#
#
# Elastic Constant Matrix: (Units=GPa)
#
#
# Indices 1 2 3 4 5 6 
#
# 1 136.4624 11.1428 34.5355 0.0001 -18.6329 0.0000
# 2 11.1428 44.8300 -19.0336 0.0000 -7.2433 0.0000
# 3 34.5355 -19.0336 132.7075 0.0004 -18.2563 0.0002
# 4 0.0001 0.0000 0.0004 79.3548 0.0002 25.9233
# 5 -18.6329 -7.2433 -18.2563 0.0002 49.7517 0.0001
# 6 0.0000 0.0000 0.0002 25.9233 0.0001 58.9817
#
#
#
# Elastic Compliance Matrix: (Units=1/GPa)
#
#
# Indices 1 2 3 4 5 6 
#
# 1 0.008400 -0.002769 -0.002323 0.000000 0.001890 0.000000
# 2 -0.002769 0.025887 0.005065 0.000000 0.004590 0.000000
# 3 -0.002323 0.005065 0.009319 0.000000 0.003287 0.000000
# 4 0.000000 0.000000 0.000000 0.014714 0.000000 -0.006467
# 5 0.001890 0.004590 0.003287 0.000000 0.022682 0.000000
# 6 0.000000 0.000000 0.000000 -0.006467 0.000000 0.019797
#
#
# Mechanical properties :
#
#
# Convention : Reuss Voigt Hill
#
# Bulk Modulus (GPa) = 22.96136 40.80992 31.88564
# Shear Modulus (GPa) = 43.33883 56.77465 50.05674
#
# Velocity S-wave (km/s) = 4.16168 4.76329 4.47261
# Velocity P-wave (km/s) = 5.68057 6.82355 6.27813
#
# Compressibility (1/GPa) = 0.04355144
#
# Stress axis : x y z
#
# Youngs Moduli (GPa) = 119.04544 38.62971 107.31327
#
# Poissons Ratio (x) = 0.10696 0.24930
# Poissons Ratio (y) = 0.32961 -0.54353
# Poissons Ratio (z) = 0.27655 -0.19565
#
# Static dielectric constant tensor:
#      x y z
#    x 5.050560 0.000000 -0.158240 
#    y 0.000000 4.842690 0.000000 
#    z -0.158240 0.000000 4.465200 
# 
# 
# High freq. dielectric constant tensor:
#      x y z
#    x 2.023370 0.000000 -0.005960 
#    y 0.000000 2.008030 0.000000 
#    z -0.005960 0.000000 1.999390 
# 
# From -- ./inp_files/92751.got.cif
#   From: 2010.06.25/outbox.cif.g09.slc.cpg/sg13_47_cif.got.tgz:92751.got - 2010.06.28 04:50:58.
