data_PCOD8122211
_publ_section_title
;
Structure prediction by ZEFSAII (Michael W. Deem and Ramdas Pophale) SiO2 
 PCOD8122211
Probable space group: P 2/C
;
_chemical_formula_sum "Si O2"
_cell_formula_units_Z 26
_cell_length_a 16.309212
_cell_length_b 13.398975
_cell_length_c 8.779518
_cell_angle_alpha 90.000000
_cell_angle_beta 141.437475
_cell_angle_gamma 90.000000
_cell_volume 1195.969053
_symmetry_space_group_name_H-M "P 2/C"
_symmetry_group_IT_number 13
_symmetry_cell_setting 'monoclinic'
loop_
_space_group_symop_operation_xyz
x,y,z
-x,y,1/2-z
-x,-y,-z
x,-y,1/2+z
loop_
_atom_site_type_symbol
_atom_site_label
_atom_site_fract_x
_atom_site_fract_y
_atom_site_fract_z
Si Si1 0.903588 0.946738 0.747542
Si Si2 0.676557 0.601320 0.172110
Si Si3 0.844040 0.761869 0.862088
Si Si4 0.643538 0.607150 0.469215
Si Si5 0.076482 0.718716 0.021441
Si Si6 0.500000 0.244024 0.250000
Si Si7 0.766678 0.143231 0.556390
O O1 0.837458 0.848149 0.722634
O O2 0.000000 0.916613 0.750000
O O3 0.783222 0.025030 0.544957
O O4 0.000000 0.000000 0.000000
O O5 0.702002 0.590788 0.387703
O O6 0.819227 0.629532 0.313650
O O7 0.631897 0.496409 0.041723
O O8 0.566453 0.685022 0.974175
O O9 0.722549 0.687808 0.678624
O O10 0.845049 0.804026 0.032804
O O11 0.974761 0.698800 0.011674
O O12 0.500000 0.653967 0.250000
O O13 0.000000 0.724704 0.750000
O O14 0.157450 0.822077 0.177846
O O15 0.612187 0.173055 0.337923
#
# Coordination Sequence:
#
# PCOD8122211 Si02
#       7
#     4   4   4   4   4   2   4
#     4  12  23  41  70  99 135 178 225 277 351 407
#     4  11  25  44  69  98 132 185 228 284 344 405
#     4  12  25  43  69 103 137 179 231 283 341 414
#     4  12  26  44  69  97 137 182 236 278 340 412
#     4  11  22  42  66 100 137 172 224 288 348 391
#     4  10  24  46  76  96 138 180 232 286 342 400
#     4  11  24  44  71 103 133 183 230 279 344 416
#
# _framework density 21.739692999999999
#
# number of rings (size 3 to 8) (size 9 to 14) (size 15 to 20)
#    0.000    0.615    5.385    2.308    4.308    0.615 
#    1.385    0.769    0.000    0.000    0.000    0.000 
#    0.000    0.000    0.000    0.000    0.000    0.000 
#
# Total GULP energy -322231.723763 kJ/mol
# GULP energy per Si atom -12393.527837 kJ/mol
# Density = 2.169021 g / cm^3
# Si number density = 21.739693 Si / 1000 Ang^3
#
#
#
# Elastic Constant Matrix: (Units=GPa)
#
#
# Indices 1 2 3 4 5 6 
#
# 1 91.4679 14.0419 23.4466 0.0000 9.8478 0.0000
# 2 14.0419 90.2145 26.0458 0.0000 15.1242 0.0000
# 3 23.4466 26.0458 90.8555 0.0000 14.6691 0.0000
# 4 0.0000 0.0000 0.0000 25.8831 0.0000 4.5888
# 5 9.8478 15.1242 14.6691 0.0000 44.2977 0.0000
# 6 0.0000 0.0000 0.0000 4.5888 0.0000 26.9738
#
#
#
# Elastic Compliance Matrix: (Units=1/GPa)
#
#
# Indices 1 2 3 4 5 6 
#
# 1 0.011887 -0.000854 -0.002581 0.000000 -0.001496 0.000000
# 2 -0.000854 0.012576 -0.002876 0.000000 -0.003152 0.000000
# 3 -0.002581 -0.002876 0.012938 0.000000 -0.002729 0.000000
# 4 0.000000 0.000000 0.000000 0.039837 0.000000 -0.006777
# 5 -0.001496 -0.003152 -0.002729 0.000000 0.024887 0.000000
# 6 0.000000 0.000000 0.000000 -0.006777 0.000000 0.038226
#
#
# Mechanical properties :
#
#
# Convention : Reuss Voigt Hill
#
# Bulk Modulus (GPa) = 40.35835 44.40071 42.37953
# Shear Modulus (GPa) = 31.01123 33.36449 32.18786
#
# Velocity S-wave (km/s) = 3.78097 3.92181 3.85204
# Velocity P-wave (km/s) = 6.13724 6.40122 6.27062
#
# Compressibility (1/GPa) = 0.02477802
#
# Stress axis : x y z
#
# Youngs Moduli (GPa) = 84.12813 79.51450 77.29414
#
# Poissons Ratio (x) = 0.06792 0.19950
# Poissons Ratio (y) = 0.07186 0.22230
# Poissons Ratio (z) = 0.21714 0.22869
#
# Static dielectric constant tensor:
#      x y z
#    x 4.849710 0.000000 0.514380 
#    y 0.000000 3.686020 0.000000 
#    z 0.514380 0.000000 4.042510 
# 
# 
# High freq. dielectric constant tensor:
#      x y z
#    x 1.864990 0.000000 -0.001290 
#    y 0.000000 1.847870 0.000000 
#    z -0.001290 0.000000 1.855530 
# 
# From -- ./inp_files/19915.got.cif
#   From: 2010.06.25/outbox.cif.g09.slc.cpg/sg13_10_cif.got.tgz:19915.got - 2010.06.28 04:50:58.
