data_PCOD8122343
_publ_section_title
;
Structure prediction by ZEFSAII (Michael W. Deem and Ramdas Pophale) SiO2 
 PCOD8122343
Probable space group: P 2/C
;
_chemical_formula_sum "Si O2"
_cell_formula_units_Z 18
_cell_length_a 15.328277
_cell_length_b 5.030856
_cell_length_c 15.142414
_cell_angle_alpha 90.000000
_cell_angle_beta 39.553724
_cell_angle_gamma 90.000000
_cell_volume 743.591462
_symmetry_space_group_name_H-M "P 2/C"
_symmetry_group_IT_number 13
_symmetry_cell_setting 'monoclinic'
loop_
_space_group_symop_operation_xyz
x,y,z
-x,y,1/2-z
-x,-y,-z
x,-y,1/2+z
loop_
_atom_site_type_symbol
_atom_site_label
_atom_site_fract_x
_atom_site_fract_y
_atom_site_fract_z
Si Si1 0.750634 0.298198 0.504823
Si Si2 0.500000 0.621395 0.750000
Si Si3 0.999732 0.893018 0.902827
Si Si4 0.856487 0.611317 0.277657
Si Si5 0.405645 0.098788 0.494614
O O1 0.634759 0.441339 0.652553
O O2 0.860528 0.506194 0.376124
O O3 0.839669 0.125485 0.502461
O O4 0.686818 0.137385 0.472694
O O5 0.502930 0.795972 0.658628
O O6 0.082538 0.612992 0.835558
O O7 0.065817 0.109297 0.786700
O O8 0.000000 0.000000 0.000000
O O9 0.693785 0.672309 0.387435
O O10 0.500000 0.000000 0.500000
#
# Coordination Sequence:
#
# PCOD8122343 Si02
#       5
#     4   2   4   4   4
#     4  11  26  48  79 110 159 204 260 327 386 475
#     4  10  26  48  80 120 152 212 268 322 404 466
#     4  12  28  48  78 116 155 200 261 326 389 468
#     4  11  26  49  78 111 151 205 258 316 397 459
#     4  11  26  50  80 112 161 208 262 330 391 477
#
# _framework density 24.20684
#
# number of rings (size 3 to 8) (size 9 to 14) (size 15 to 20)
#    0.000    0.889    2.222    2.000    9.333    8.889 
#    4.000    0.000    0.000    0.000    0.000    0.000 
#    0.000    0.000    0.000    0.000    0.000    0.000 
#
# Total GULP energy -223182.168561 kJ/mol
# GULP energy per Si atom -12399.009364 kJ/mol
# Density = 2.415174 g / cm^3
# Si number density = 24.206840 Si / 1000 Ang^3
#
#
#
# Elastic Constant Matrix: (Units=GPa)
#
#
# Indices 1 2 3 4 5 6 
#
# 1 192.2300 64.9476 69.8988 0.0000 6.4691 0.0000
# 2 64.9476 143.7487 66.2066 0.0000 -7.9851 0.0000
# 3 69.8988 66.2066 162.5204 0.0000 -3.3648 0.0000
# 4 0.0000 0.0000 0.0000 62.4406 0.0000 -7.5659
# 5 6.4691 -7.9851 -3.3648 0.0000 21.9678 0.0000
# 6 0.0000 0.0000 0.0000 -7.5659 0.0000 36.9688
#
#
#
# Elastic Compliance Matrix: (Units=1/GPa)
#
#
# Indices 1 2 3 4 5 6 
#
# 1 0.006842 -0.002317 -0.002065 0.000000 -0.003173 0.000000
# 2 -0.002317 0.009497 -0.002796 0.000000 0.003706 0.000000
# 3 -0.002065 -0.002796 0.008198 0.000000 0.000847 0.000000
# 4 0.000000 0.000000 0.000000 0.016422 0.000000 0.003361
# 5 -0.003173 0.003706 0.000847 0.000000 0.047933 0.000000
# 6 0.000000 0.000000 0.000000 0.003361 0.000000 0.027738
#
#
# Mechanical properties :
#
#
# Convention : Reuss Voigt Hill
#
# Bulk Modulus (GPa) = 98.20845 100.06723 99.13784
# Shear Modulus (GPa) = 37.20847 44.10517 40.65682
#
# Velocity S-wave (km/s) = 3.92485 4.27313 4.10269
# Velocity P-wave (km/s) = 7.82291 8.11014 7.96782
#
# Compressibility (1/GPa) = 0.01018242
#
# Stress axis : x y z
#
# Youngs Moduli (GPa) = 146.14626 105.29889 121.98829
#
# Poissons Ratio (x) = 0.24396 0.25188
# Poissons Ratio (y) = 0.33859 0.34103
# Poissons Ratio (z) = 0.30176 0.29437
#
# Static dielectric constant tensor:
#      x y z
#    x 4.166480 0.000000 -0.729600 
#    y 0.000000 4.823450 0.000000 
#    z -0.729600 0.000000 5.803670 
# 
# 
# High freq. dielectric constant tensor:
#      x y z
#    x 1.938890 0.000000 -0.013680 
#    y 0.000000 1.980710 0.000000 
#    z -0.013680 0.000000 1.983230 
# 
# From -- ./inp_files/52020.got.cif
#   From: 2010.06.25/outbox.cif.g09.slc.cpg/sg13_27_cif.got.tgz:52020.got - 2010.06.28 04:50:58.
