data_PCOD8122638
_publ_section_title
;
Structure prediction by ZEFSAII (Michael W. Deem and Ramdas Pophale) SiO2 
 PCOD8122638
Probable space group: P 2/C
;
_chemical_formula_sum "Si O2"
_cell_formula_units_Z 22
_cell_length_a 7.231494
_cell_length_b 6.817698
_cell_length_c 25.447917
_cell_angle_alpha 90.000000
_cell_angle_beta 50.428986
_cell_angle_gamma 90.000000
_cell_volume 967.118750
_symmetry_space_group_name_H-M "P 2/C"
_symmetry_group_IT_number 13
_symmetry_cell_setting 'monoclinic'
loop_
_space_group_symop_operation_xyz
x,y,z
-x,y,1/2-z
-x,-y,-z
x,-y,1/2+z
loop_
_atom_site_type_symbol
_atom_site_label
_atom_site_fract_x
_atom_site_fract_y
_atom_site_fract_z
Si Si1 0.500000 0.790939 0.250000
Si Si2 0.843520 0.496008 0.855319
Si Si3 0.595789 0.099739 0.902469
Si Si4 0.652110 0.563442 0.784220
Si Si5 0.675152 0.910987 0.646626
Si Si6 0.797698 0.207853 0.448011
O O1 0.427584 0.657691 0.213933
O O2 0.293208 0.931658 0.311613
O O3 0.808927 0.260563 0.856849
O O4 0.665908 0.588504 0.844434
O O5 0.794875 0.573698 0.923069
O O6 0.101205 0.582929 0.792239
O O7 0.497039 0.003269 0.866986
O O8 0.704268 0.933622 0.919493
O O9 0.373467 0.209973 0.970743
O O10 0.453302 0.721788 0.803784
O O11 0.938779 0.853147 0.578632
#
# Coordination Sequence:
#
# PCOD8122638 Si02
#       6
#     2   4   4   4   4   4
#     4  12  22  40  64  94 132 174 218 280 338 406
#     4  11  22  44  65  95 135 175 222 276 338 401
#     4  11  24  45  68  99 133 180 229 271 341 411
#     4  11  24  40  67  97 133 173 225 281 335 407
#     4  12  24  44  67 100 137 175 229 284 345 398
#     4  11  24  43  70  96 135 178 225 283 331 407
#
# _framework density 22.747980999999999
#
# number of rings (size 3 to 8) (size 9 to 14) (size 15 to 20)
#    0.000    0.727    3.636    4.909    0.000    0.000 
#    0.000    0.909    0.000    0.000    0.000    0.000 
#    0.000    0.000    0.000    0.000    0.000    0.000 
#
# Total GULP energy -272602.643458 kJ/mol
# GULP energy per Si atom -12391.029248 kJ/mol
# Density = 2.269621 g / cm^3
# Si number density = 22.747981 Si / 1000 Ang^3
#
#
#
# Elastic Constant Matrix: (Units=GPa)
#
#
# Indices 1 2 3 4 5 6 
#
# 1 84.2197 30.5983 16.5336 0.0000 -11.6553 0.0000
# 2 30.5983 97.4847 23.2239 0.0000 -5.2063 0.0000
# 3 16.5336 23.2239 75.1100 0.0000 -3.7028 0.0000
# 4 0.0000 0.0000 0.0000 35.7079 0.0000 6.1183
# 5 -11.6553 -5.2063 -3.7028 0.0000 23.9540 0.0000
# 6 0.0000 0.0000 0.0000 6.1183 0.0000 32.5835
#
#
#
# Elastic Compliance Matrix: (Units=1/GPa)
#
#
# Indices 1 2 3 4 5 6 
#
# 1 0.014408 -0.003800 -0.001705 0.000000 0.005921 0.000000
# 2 -0.003800 0.012162 -0.002907 0.000000 0.000345 0.000000
# 3 -0.001705 -0.002907 0.014627 0.000000 0.000800 0.000000
# 4 0.000000 0.000000 0.000000 0.028936 0.000000 -0.005433
# 5 0.005921 0.000345 0.000800 0.000000 0.044826 0.000000
# 6 0.000000 0.000000 0.000000 -0.005433 0.000000 0.031711
#
#
# Mechanical properties :
#
#
# Convention : Reuss Voigt Hill
#
# Bulk Modulus (GPa) = 41.02741 44.16956 42.59848
# Shear Modulus (GPa) = 29.13436 30.87966 30.00701
#
# Velocity S-wave (km/s) = 3.58263 3.68838 3.63589
# Velocity P-wave (km/s) = 5.93199 6.13172 6.03268
#
# Compressibility (1/GPa) = 0.02437395
#
# Stress axis : x y z
#
# Youngs Moduli (GPa) = 69.40361 82.22512 68.36532
#
# Poissons Ratio (x) = 0.31247 0.11655
# Poissons Ratio (y) = 0.26374 0.19873
# Poissons Ratio (z) = 0.11832 0.23902
#
# Static dielectric constant tensor:
#      x y z
#    x 4.074390 0.000000 -0.000480 
#    y 0.000000 4.145140 0.000000 
#    z -0.000480 0.000000 3.995880 
# 
# 
# High freq. dielectric constant tensor:
#      x y z
#    x 1.899140 0.000000 0.008900 
#    y 0.000000 1.906930 0.000000 
#    z 0.008900 0.000000 1.892250 
# 
# From -- ./inp_files/74597.got.cif
#   From: 2010.06.25/outbox.cif.g09.slc.cpg/sg13_38_cif.got.tgz:74597.got - 2010.06.28 04:50:58.
