data_PCOD8122892
_publ_section_title
;
Structure prediction by ZEFSAII (Michael W. Deem and Ramdas Pophale) SiO2 
 PCOD8122892
Probable space group: P 2/C
;
_chemical_formula_sum "Si O2"
_cell_formula_units_Z 20
_cell_length_a 19.740013
_cell_length_b 6.884106
_cell_length_c 12.909531
_cell_angle_alpha 90.000000
_cell_angle_beta 150.225013
_cell_angle_gamma 90.000000
_cell_volume 871.179932
_symmetry_space_group_name_H-M "P 2/C"
_symmetry_group_IT_number 13
_symmetry_cell_setting 'monoclinic'
loop_
_space_group_symop_operation_xyz
x,y,z
-x,y,1/2-z
-x,-y,-z
x,-y,1/2+z
loop_
_atom_site_type_symbol
_atom_site_label
_atom_site_fract_x
_atom_site_fract_y
_atom_site_fract_z
Si Si1 0.907143 0.343855 0.932932
Si Si2 0.500000 0.992032 0.250000
Si Si3 0.505632 0.202234 0.952229
Si Si4 0.000000 0.087207 0.250000
Si Si5 0.705795 0.506255 0.818149
Si Si6 0.218077 0.182021 0.933078
O O1 0.792229 0.478952 0.829703
O O2 0.847942 0.194318 0.768769
O O3 0.000000 0.500000 0.000000
O O4 0.973898 0.220778 0.114814
O O5 0.430449 0.848176 0.074161
O O6 0.623241 0.118416 0.365185
O O7 0.356459 0.297339 0.733238
O O8 0.588994 0.343508 0.134544
O O9 0.500000 0.000000 0.000000
O O10 0.131592 0.957408 0.394900
O O11 0.787339 0.602000 0.022489
#
# Coordination Sequence:
#
# PCOD8122892 Si02
#       6
#     4   2   4   2   4   4
#     4  12  27  47  76 105 146 199 258 307 377 451
#     4  12  26  40  78 106 148 188 252 290 390 440
#     4  11  24  46  68 108 151 195 230 308 375 449
#     4  12  28  52  74 106 154 200 254 322 376 452
#     4  11  26  45  73 105 153 187 252 306 372 443
#     4  12  27  46  76 111 148 195 252 308 381 453
#
# _framework density 22.957371999999999
#
# number of rings (size 3 to 8) (size 9 to 14) (size 15 to 20)
#    0.000    0.400    2.000    5.400   11.200    0.000 
#    0.000    0.000    0.000    0.000    0.000    0.000 
#    0.000    0.000    0.000    0.000    0.000    0.000 
#
# Total GULP energy -247872.108193 kJ/mol
# GULP energy per Si atom -12393.605410 kJ/mol
# Density = 2.290512 g / cm^3
# Si number density = 22.957372 Si / 1000 Ang^3
#
#
#
# Elastic Constant Matrix: (Units=GPa)
#
#
# Indices 1 2 3 4 5 6 
#
# 1 151.2675 66.5243 47.8347 0.0000 2.4103 0.0000
# 2 66.5243 146.1683 54.3429 0.0000 0.8559 0.0000
# 3 47.8347 54.3429 86.4203 0.0000 -4.0991 0.0000
# 4 0.0000 0.0000 0.0000 35.4763 0.0000 -9.2938
# 5 2.4103 0.8559 -4.0991 0.0000 60.2589 0.0000
# 6 0.0000 0.0000 0.0000 -9.2938 0.0000 57.4434
#
#
#
# Elastic Compliance Matrix: (Units=1/GPa)
#
#
# Indices 1 2 3 4 5 6 
#
# 1 0.008872 -0.002871 -0.003130 0.000000 -0.000527 0.000000
# 2 -0.002871 0.009873 -0.004636 0.000000 -0.000341 0.000000
# 3 -0.003130 -0.004636 0.016281 0.000000 0.001299 0.000000
# 4 0.000000 0.000000 0.000000 0.029435 0.000000 0.004762
# 5 -0.000527 -0.000341 0.001299 0.000000 0.016709 0.000000
# 6 0.000000 0.000000 0.000000 0.004762 0.000000 0.018179
#
#
# Mechanical properties :
#
#
# Convention : Reuss Voigt Hill
#
# Bulk Modulus (GPa) = 72.71680 80.13997 76.42838
# Shear Modulus (GPa) = 39.93378 44.97935 42.45657
#
# Velocity S-wave (km/s) = 4.17523 4.43115 4.30509
# Velocity P-wave (km/s) = 7.41531 7.82075 7.62072
#
# Compressibility (1/GPa) = 0.01375198
#
# Stress axis : x y z
#
# Youngs Moduli (GPa) = 112.71928 101.28140 61.42232
#
# Poissons Ratio (x) = 0.29075 0.19227
# Poissons Ratio (y) = 0.32359 0.28474
# Poissons Ratio (z) = 0.35285 0.46952
#
# Static dielectric constant tensor:
#      x y z
#    x 6.519330 0.000000 -0.335960 
#    y 0.000000 4.435070 0.000000 
#    z -0.335960 0.000000 4.277670 
# 
# 
# High freq. dielectric constant tensor:
#      x y z
#    x 1.925170 0.000000 -0.010440 
#    y 0.000000 1.920140 0.000000 
#    z -0.010440 0.000000 1.906880 
# 
# From -- ./inp_files/56713.got.cif
#   From: 2010.06.25/outbox.cif.g09.slc.cpg/sg13_29_cif.got.tgz:56713.got - 2010.06.28 04:50:58.
