data_PCOD8122024
_publ_section_title
;
Structure prediction by ZEFSAII (Michael W. Deem and Ramdas Pophale) SiO2 
 PCOD8122024
Probable space group: P 2/C
;
_chemical_formula_sum "Si O2"
_cell_formula_units_Z 28
_cell_length_a 15.503996
_cell_length_b 11.150728
_cell_length_c 8.721790
_cell_angle_alpha 90.000000
_cell_angle_beta 113.820437
_cell_angle_gamma 90.000000
_cell_volume 1379.386876
_symmetry_space_group_name_H-M "P 2/C"
_symmetry_group_IT_number 13
_symmetry_cell_setting 'monoclinic'
loop_
_space_group_symop_operation_xyz
x,y,z
-x,y,1/2-z
-x,-y,-z
x,-y,1/2+z
loop_
_atom_site_type_symbol
_atom_site_label
_atom_site_fract_x
_atom_site_fract_y
_atom_site_fract_z
Si Si1 0.329167 0.510527 0.339572
Si Si2 0.388336 0.113372 0.693384
Si Si3 0.909135 0.164892 0.117607
Si Si4 0.599753 0.668272 0.856878
Si Si5 0.300704 0.111106 0.961965
Si Si6 0.732706 0.669233 0.459783
Si Si7 0.091964 0.076843 0.723855
O O1 0.401272 0.594395 0.485102
O O2 0.385737 0.426669 0.266649
O O3 0.260782 0.599801 0.197010
O O4 0.267807 0.428188 0.406777
O O5 0.500000 0.092103 0.750000
O O6 0.358136 0.241895 0.599939
O O7 0.323582 0.011457 0.568160
O O8 0.364926 0.112990 0.856325
O O9 0.000000 0.235993 0.250000
O O10 0.892054 0.063841 0.234471
O O11 0.826096 0.256635 0.046363
O O12 0.926408 0.098740 0.968395
O O13 0.500000 0.729856 0.750000
O O14 0.674127 0.776396 0.911288
O O15 0.190973 0.135203 0.847008
O O16 0.000000 0.126530 0.750000
#
# Coordination Sequence:
#
# PCOD8122024 Si02
#       7
#     4   4   4   4   4   4   4
#     4  10  24  41  64  87 123 173 222 270 312 368
#     4  12  26  41  65  93 138 171 212 257 328 389
#     4  11  22  39  65  96 129 167 211 262 326 388
#     4  11  23  39  62  90 125 168 221 262 315 375
#     4  12  24  43  62  98 135 170 211 263 324 391
#     4  11  23  45  65  92 128 168 219 270 323 381
#     4  11  21  38  64  97 135 167 208 259 321 388
#
# _framework density 20.298874000000001
#
# number of rings (size 3 to 8) (size 9 to 14) (size 15 to 20)
#    0.000    0.857    4.286    3.000    4.000    4.571 
#    0.000    0.714    0.000    3.429    0.000    0.000 
#    0.000    0.000    0.000    0.000    0.000    0.000 
#
# Total GULP energy -347103.782193 kJ/mol
# GULP energy per Si atom -12396.563650 kJ/mol
# Density = 2.025267 g / cm^3
# Si number density = 20.298874 Si / 1000 Ang^3
#
#
#
# Elastic Constant Matrix: (Units=GPa)
#
#
# Indices 1 2 3 4 5 6 
#
# 1 97.0687 32.5927 56.2998 0.0000 23.0212 0.0000
# 2 32.5927 107.4943 61.0552 0.0000 7.0001 0.0000
# 3 56.2998 61.0552 140.3807 0.0000 11.9082 0.0000
# 4 0.0000 0.0000 0.0000 0.1652 0.0000 14.2610
# 5 23.0212 7.0001 11.9082 0.0000 25.9914 0.0000
# 6 0.0000 0.0000 0.0000 14.2610 0.0000 9.3517
#
#
#
# Elastic Compliance Matrix: (Units=1/GPa)
#
#
# Indices 1 2 3 4 5 6 
#
# 1 0.016503 -0.001384 -0.005003 0.000000 -0.011952 0.000000
# 2 -0.001384 0.012491 -0.004886 0.000000 0.000100 0.000000
# 3 -0.005003 -0.004886 0.011203 0.000000 0.000614 0.000000
# 4 0.000000 0.000000 0.000000 -0.046334 0.000000 0.070658
# 5 -0.011952 0.000100 0.000614 0.000000 0.048752 0.000000
# 6 0.000000 0.000000 0.000000 0.070658 0.000000 -0.000819
#
#
# Mechanical properties :
#
#
# Convention : Reuss Voigt Hill
#
# Bulk Modulus (GPa) = 56.65334 71.64878 64.15106
# Shear Modulus (GPa) = 71.19888 20.10140 45.65014
#
# Velocity S-wave (km/s) = 5.92886 3.15027 4.74740
# Velocity P-wave (km/s) = 8.65094 6.97179 7.85635
#
# Compressibility (1/GPa) = 0.01765121
#
# Stress axis : x y z
#
# Youngs Moduli (GPa) = 60.59562 80.05625 89.26291
#
# Poissons Ratio (x) = 0.11079 0.44656
# Poissons Ratio (y) = 0.08386 0.43616
# Poissons Ratio (z) = 0.30314 0.39117
#
# Static dielectric constant tensor:
#      x y z
#    x 3.638960 0.000000 0.000840 
#    y 0.000000 3.791770 0.000000 
#    z 0.000840 0.000000 4.240010 
# 
# 
# High freq. dielectric constant tensor:
#      x y z
#    x 1.776770 0.000000 0.002600 
#    y 0.000000 1.790850 0.000000 
#    z 0.002600 0.000000 1.821380 
# 
# From -- ./inp_files/19125.got.cif
#   From: 2010.06.25/outbox.cif.g09.slc.cpg/sg13_10_cif.got.tgz:19125.got - 2010.06.28 04:50:58.
