data_PCOD8122385
_publ_section_title
;
Structure prediction by ZEFSAII (Michael W. Deem and Ramdas Pophale) SiO2 
 PCOD8122385
Probable space group: P 2/C
;
_chemical_formula_sum "Si O2"
_cell_formula_units_Z 24
_cell_length_a 22.035239
_cell_length_b 10.803210
_cell_length_c 22.505506
_cell_angle_alpha 90.000000
_cell_angle_beta 12.613248
_cell_angle_gamma 90.000000
_cell_volume 1169.903737
_symmetry_space_group_name_H-M "P 2/C"
_symmetry_group_IT_number 13
_symmetry_cell_setting 'monoclinic'
loop_
_space_group_symop_operation_xyz
x,y,z
-x,y,1/2-z
-x,-y,-z
x,-y,1/2+z
loop_
_atom_site_type_symbol
_atom_site_label
_atom_site_fract_x
_atom_site_fract_y
_atom_site_fract_z
Si Si1 0.898930 0.683740 0.535736
Si Si2 0.939049 0.033814 0.990299
Si Si3 0.859338 0.669872 0.821616
Si Si4 0.666900 0.452282 0.705830
Si Si5 0.476881 0.321793 0.536016
Si Si6 0.585905 0.890437 0.015218
O O1 0.837912 0.825562 0.578012
O O2 0.774560 0.594096 0.603273
O O3 0.229001 0.666896 0.225412
O O4 0.761051 0.643971 0.730493
O O5 0.701797 0.948090 0.187516
O O6 0.000000 0.000000 0.000000
O O7 0.211409 0.004960 0.691647
O O8 0.710988 0.797395 0.944398
O O9 0.000000 0.690352 0.750000
O O10 0.086738 0.633949 0.554768
O O11 0.617693 0.565030 0.059925
O O12 0.580676 0.413380 0.854818
O O13 0.513416 0.181628 0.523490
#
# Coordination Sequence:
#
# PCOD8122385 Si02
#       6
#     4   4   4   4   4   4
#     4  12  22  33  56  85 129 163 184 219 291 357
#     4  12  21  35  56  86 128 164 189 219 278 363
#     4  11  24  44  67  82 107 150 205 268 304 325
#     4  11  23  38  58  90 116 148 201 242 297 348
#     4  11  19  34  54  84 125 159 187 229 275 355
#     4  11  21  37  57  88 116 154 203 238 277 340
#
# _framework density 20.514507999999999
#
# number of rings (size 3 to 8) (size 9 to 14) (size 15 to 20)
#    0.000    0.667    3.333    8.000    0.000    0.000 
#    0.000    0.000    0.000    6.000    0.000    0.000 
#    0.000    0.000    0.000    0.000    0.000    0.000 
#
# Total GULP energy -297574.937886 kJ/mol
# GULP energy per Si atom -12398.955745 kJ/mol
# Density = 2.046782 g / cm^3
# Si number density = 20.514508 Si / 1000 Ang^3
#
#
#
# Elastic Constant Matrix: (Units=GPa)
#
#
# Indices 1 2 3 4 5 6 
#
# 1 73.0811 43.4568 19.8073 0.0000 -26.7202 0.0000
# 2 43.4568 124.5633 32.3094 0.0000 -12.8232 0.0000
# 3 19.8073 32.3094 94.7744 0.0000 -21.6714 0.0000
# 4 0.0000 0.0000 0.0000 21.3889 0.0000 -5.8461
# 5 -26.7202 -12.8232 -21.6714 0.0000 30.8443 0.0000
# 6 0.0000 0.0000 0.0000 -5.8461 0.0000 15.7453
#
#
#
# Elastic Compliance Matrix: (Units=1/GPa)
#
#
# Indices 1 2 3 4 5 6 
#
# 1 0.024519 -0.006990 0.001729 0.000000 0.019549 0.000000
# 2 -0.006990 0.010889 -0.003099 0.000000 -0.003705 0.000000
# 3 0.001729 -0.003099 0.013456 0.000000 0.009664 0.000000
# 4 0.000000 0.000000 0.000000 0.052034 0.000000 0.019320
# 5 0.019549 -0.003705 0.009664 0.000000 0.054606 0.000000
# 6 0.000000 0.000000 0.000000 0.019320 0.000000 0.070684
#
#
# Mechanical properties :
#
#
# Convention : Reuss Voigt Hill
#
# Bulk Modulus (GPa) = 31.10933 53.72953 42.41943
# Shear Modulus (GPa) = 19.71435 26.71870 23.21653
#
# Velocity S-wave (km/s) = 3.10336 3.61283 3.36774
# Velocity P-wave (km/s) = 5.29514 6.60691 5.98706
#
# Compressibility (1/GPa) = 0.03214470
#
# Stress axis : x y z
#
# Youngs Moduli (GPa) = 40.78462 91.83663 74.31554
#
# Poissons Ratio (x) = 0.64193 -0.12848
# Poissons Ratio (y) = 0.28508 0.23027
# Poissons Ratio (z) = -0.07051 0.28456
#
# Static dielectric constant tensor:
#      x y z
#    x 3.253670 0.000000 -0.226070 
#    y 0.000000 3.829390 0.000000 
#    z -0.226070 0.000000 4.140250 
# 
# 
# High freq. dielectric constant tensor:
#      x y z
#    x 1.741070 0.000000 -0.016130 
#    y 0.000000 1.804460 0.000000 
#    z -0.016130 0.000000 1.832660 
# 
# From -- ./inp_files/89045.got.cif
#   From: 2010.06.25/outbox.cif.g09.slc.cpg/sg13_45_cif.got.tgz:89045.got - 2010.06.28 04:50:58.
