data_PCOD8122445
_publ_section_title
;
Structure prediction by ZEFSAII (Michael W. Deem and Ramdas Pophale) SiO2 
 PCOD8122445
Probable space group: P 2/C
;
_chemical_formula_sum "Si O2"
_cell_formula_units_Z 26
_cell_length_a 26.347033
_cell_length_b 6.350808
_cell_length_c 22.798981
_cell_angle_alpha 90.000000
_cell_angle_beta 159.075918
_cell_angle_gamma 90.000000
_cell_volume 1362.395584
_symmetry_space_group_name_H-M "P 2/C"
_symmetry_group_IT_number 13
_symmetry_cell_setting 'monoclinic'
loop_
_space_group_symop_operation_xyz
x,y,z
-x,y,1/2-z
-x,-y,-z
x,-y,1/2+z
loop_
_atom_site_type_symbol
_atom_site_label
_atom_site_fract_x
_atom_site_fract_y
_atom_site_fract_z
Si Si1 0.815356 0.501179 0.241007
Si Si2 0.565706 0.305338 0.537001
Si Si3 0.686187 0.000560 0.261126
Si Si4 0.613479 0.878193 0.305977
Si Si5 0.334348 0.364509 0.527476
Si Si6 0.063405 0.194001 0.033178
Si Si7 0.500000 0.257029 0.250000
O O1 0.666830 0.617242 0.093900
O O2 0.845062 0.335288 0.324062
O O3 0.940791 0.669952 0.370139
O O4 0.797058 0.375350 0.159800
O O5 0.500000 0.500000 0.500000
O O6 0.443294 0.164497 0.376160
O O7 0.662725 0.171978 0.685832
O O8 0.834254 0.116805 0.408322
O O9 0.699531 0.882671 0.338047
O O10 0.707304 0.767774 0.458864
O O11 0.468834 0.746017 0.141348
O O12 0.573991 0.115717 0.280308
O O13 0.375343 0.602218 0.588052
O O14 0.000000 0.000000 0.000000
#
# Coordination Sequence:
#
# PCOD8122445 Si02
#       7
#     4   4   4   4   4   4   2
#     4  11  22  39  60  85 119 159 199 239 300 356
#     4  11  21  34  59  93 120 149 193 250 297 348
#     4  11  22  36  58  92 121 154 194 246 301 348
#     4   9  19  33  56  88 119 148 191 248 300 346
#     4   9  19  35  56  87 117 148 196 246 298 350
#     4  11  24  40  56  85 120 163 195 239 297 360
#     4   8  16  34  56  86 112 154 184 240 310 344
#
# _framework density 19.084032000000001
#
# number of rings (size 3 to 8) (size 9 to 14) (size 15 to 20)
#    0.000    2.154    3.077    1.846    2.154    3.692 
#    0.000    0.000    0.000    5.538    0.000    2.154 
#    0.000    0.000    0.000    0.000    0.000    0.000 
#
# Total GULP energy -322421.029529 kJ/mol
# GULP energy per Si atom -12400.808828 kJ/mol
# Density = 1.904060 g / cm^3
# Si number density = 19.084032 Si / 1000 Ang^3
#
#
#
# Elastic Constant Matrix: (Units=GPa)
#
#
# Indices 1 2 3 4 5 6 
#
# 1 124.8924 35.9825 56.9108 0.0000 -4.9229 0.0000
# 2 35.9825 98.9253 31.4141 0.0000 0.5676 0.0000
# 3 56.9108 31.4141 89.0607 0.0000 -3.0261 0.0000
# 4 0.0000 0.0000 0.0000 21.0718 0.0000 4.6640
# 5 -4.9229 0.5676 -3.0261 0.0000 28.3531 0.0000
# 6 0.0000 0.0000 0.0000 4.6640 0.0000 28.4827
#
#
#
# Elastic Compliance Matrix: (Units=1/GPa)
#
#
# Indices 1 2 3 4 5 6 
#
# 1 0.011729 -0.002149 -0.006690 0.000000 0.001365 0.000000
# 2 -0.002149 0.011790 -0.002816 0.000000 -0.000910 0.000000
# 3 -0.006690 -0.002816 0.016519 0.000000 0.000658 0.000000
# 4 0.000000 0.000000 0.000000 0.049242 0.000000 -0.008063
# 5 0.001365 -0.000910 0.000658 0.000000 0.035595 0.000000
# 6 0.000000 0.000000 0.000000 -0.008063 0.000000 0.036429
#
#
# Mechanical properties :
#
#
# Convention : Reuss Voigt Hill
#
# Bulk Modulus (GPa) = 59.78606 62.38815 61.08710
# Shear Modulus (GPa) = 26.28951 28.15292 27.22122
#
# Velocity S-wave (km/s) = 3.71558 3.84501 3.78085
# Velocity P-wave (km/s) = 7.05714 7.24392 7.15114
#
# Compressibility (1/GPa) = 0.01672631
#
# Stress axis : x y z
#
# Youngs Moduli (GPa) = 85.26225 84.81825 60.53637
#
# Poissons Ratio (x) = 0.18231 0.40499
# Poissons Ratio (y) = 0.18326 0.17047
# Poissons Ratio (z) = 0.57041 0.23885
#
# Static dielectric constant tensor:
#      x y z
#    x 3.364820 0.000000 -0.079780 
#    y 0.000000 3.757540 0.000000 
#    z -0.079780 0.000000 3.328360 
# 
# 
# High freq. dielectric constant tensor:
#      x y z
#    x 1.733050 0.000000 -0.010570 
#    y 0.000000 1.762250 0.000000 
#    z -0.010570 0.000000 1.716010 
# 
# From -- ./inp_files/89444.got.cif
#   From: 2010.06.25/outbox.cif.g09.slc.cpg/sg13_45_cif.got.tgz:89444.got - 2010.06.28 04:50:58.
