data_PCOD8122020
_publ_section_title
;
Structure prediction by ZEFSAII (Michael W. Deem and Ramdas Pophale) SiO2 
 PCOD8122020
Probable space group: P 2/C
;
_chemical_formula_sum "Si O2"
_cell_formula_units_Z 28
_cell_length_a 14.201576
_cell_length_b 8.905965
_cell_length_c 19.277895
_cell_angle_alpha 90.000000
_cell_angle_beta 32.378009
_cell_angle_gamma 90.000000
_cell_volume 1305.686137
_symmetry_space_group_name_H-M "P 2/C"
_symmetry_group_IT_number 13
_symmetry_cell_setting 'monoclinic'
loop_
_space_group_symop_operation_xyz
x,y,z
-x,y,1/2-z
-x,-y,-z
x,-y,1/2+z
loop_
_atom_site_type_symbol
_atom_site_label
_atom_site_fract_x
_atom_site_fract_y
_atom_site_fract_z
Si Si1 0.207227 0.647119 0.204195
Si Si2 0.871535 0.759587 0.474479
Si Si3 0.009627 0.835349 0.527120
Si Si4 0.264593 0.685934 0.708443
Si Si5 0.618244 0.409253 0.047927
Si Si6 0.671530 0.067823 0.599631
Si Si7 0.437760 0.261491 0.956778
O O1 0.182038 0.479277 0.250425
O O2 0.258745 0.638255 0.092319
O O3 0.356358 0.739530 0.152927
O O4 0.026202 0.736861 0.322572
O O5 0.955289 0.724121 0.498163
O O6 0.711842 0.643772 0.560382
O O7 0.796175 0.925554 0.511359
O O8 0.873076 0.804667 0.674502
O O9 0.207514 0.810298 0.433844
O O10 0.000000 0.000000 0.500000
O O11 0.431146 0.673043 0.656211
O O12 0.322466 0.750087 0.597956
O O13 0.601423 0.587322 0.061173
O O14 0.500000 0.025698 0.750000
O O15 0.611379 0.123289 0.561688
#
# Coordination Sequence:
#
# PCOD8122020 Si02
#       7
#     4   4   4   4   4   4   4
#     4   9  19  41  66  97 128 157 209 267 315 380
#     4  11  23  39  64  89 130 168 206 262 317 367
#     4  10  24  41  59  89 131 169 212 258 308 379
#     4   9  20  41  69  94 127 167 208 260 323 375
#     4   9  20  39  68  98 125 159 207 265 320 373
#     4  11  25  44  62  89 128 170 216 261 313 377
#     4   9  20  44  69  95 125 164 211 262 317 382
#
# _framework density 21.444664
#
# number of rings (size 3 to 8) (size 9 to 14) (size 15 to 20)
#    0.000    2.286    0.000    3.000    6.000    1.143 
#   15.429    1.429    0.000    0.000    0.000    0.000 
#    0.000    0.000    0.000    0.000    0.000    0.000 
#
# Total GULP energy -347115.814480 kJ/mol
# GULP energy per Si atom -12396.993374 kJ/mol
# Density = 2.139586 g / cm^3
# Si number density = 21.444664 Si / 1000 Ang^3
#
#
#
# Elastic Constant Matrix: (Units=GPa)
#
#
# Indices 1 2 3 4 5 6 
#
# 1 87.6767 30.3827 21.5247 0.0000 -16.3524 0.0000
# 2 30.3827 63.8571 51.8147 0.0000 -3.8974 0.0000
# 3 21.5247 51.8147 122.0724 0.0000 -16.6497 0.0000
# 4 0.0000 0.0000 0.0000 40.5751 0.0000 -1.6357
# 5 -16.3524 -3.8974 -16.6497 0.0000 26.7953 0.0000
# 6 0.0000 0.0000 0.0000 -1.6357 0.0000 29.1334
#
#
#
# Elastic Compliance Matrix: (Units=1/GPa)
#
#
# Indices 1 2 3 4 5 6 
#
# 1 0.015673 -0.008689 0.002247 0.000000 0.009698 0.000000
# 2 -0.008689 0.028940 -0.011910 0.000000 -0.008494 0.000000
# 3 0.002247 -0.011910 0.013987 0.000000 0.008330 0.000000
# 4 0.000000 0.000000 0.000000 0.024702 0.000000 0.001387
# 5 0.009698 -0.008494 0.008330 0.000000 0.047179 0.000000
# 6 0.000000 0.000000 0.000000 0.001387 0.000000 0.034403
#
#
# Mechanical properties :
#
#
# Convention : Reuss Voigt Hill
#
# Bulk Modulus (GPa) = 45.66905 53.45005 49.55955
# Shear Modulus (GPa) = 23.93652 30.62638 27.28145
#
# Velocity S-wave (km/s) = 3.34458 3.78320 3.57063
# Velocity P-wave (km/s) = 6.02141 6.63794 6.33718
#
# Compressibility (1/GPa) = 0.02189667
#
# Stress axis : x y z
#
# Youngs Moduli (GPa) = 63.80205 34.55466 71.49407
#
# Poissons Ratio (x) = 0.30024 -0.16065
# Poissons Ratio (y) = 0.55436 0.85150
# Poissons Ratio (z) = -0.14336 0.41155
#
# Static dielectric constant tensor:
#      x y z
#    x 4.398960 0.000000 -0.228190 
#    y 0.000000 3.601120 0.000000 
#    z -0.228190 0.000000 3.779430 
# 
# 
# High freq. dielectric constant tensor:
#      x y z
#    x 1.856450 0.000000 -0.012440 
#    y 0.000000 1.817040 0.000000 
#    z -0.012440 0.000000 1.841880 
# 
# From -- ./inp_files/79959.got.cif
#   From: 2010.06.25/outbox.cif.g09.slc.cpg/sg13_40_cif.got.tgz:79959.got - 2010.06.28 04:50:58.
