data_PCOD8122635
_publ_section_title
;
Structure prediction by ZEFSAII (Michael W. Deem and Ramdas Pophale) SiO2 
 PCOD8122635
Probable space group: P 2/C
;
_chemical_formula_sum "Si O2"
_cell_formula_units_Z 22
_cell_length_a 22.085085
_cell_length_b 9.013873
_cell_length_c 13.920143
_cell_angle_alpha 90.000000
_cell_angle_beta 158.902764
_cell_angle_gamma 90.000000
_cell_volume 997.467049
_symmetry_space_group_name_H-M "P 2/C"
_symmetry_group_IT_number 13
_symmetry_cell_setting 'monoclinic'
loop_
_space_group_symop_operation_xyz
x,y,z
-x,y,1/2-z
-x,-y,-z
x,-y,1/2+z
loop_
_atom_site_type_symbol
_atom_site_label
_atom_site_fract_x
_atom_site_fract_y
_atom_site_fract_z
Si Si1 0.844387 0.108657 0.250663
Si Si2 0.755139 0.406002 0.409295
Si Si3 0.486860 0.840024 0.530317
Si Si4 0.500000 0.049114 0.250000
Si Si5 0.038370 0.388113 0.968450
Si Si6 0.184518 0.277092 0.487237
O O1 0.868699 0.247876 0.353319
O O2 0.830334 0.157482 0.119507
O O3 0.665310 0.045172 0.018843
O O4 0.000000 0.000000 0.500000
O O5 0.602922 0.293440 0.160631
O O6 0.837653 0.453812 0.429071
O O7 0.718300 0.570219 0.400320
O O8 0.874450 0.331163 0.666778
O O9 0.500000 0.000000 0.500000
O O10 0.537977 0.846294 0.716495
O O11 0.292024 0.796722 0.231225
O O12 0.000000 0.500000 0.000000
O O13 0.000000 0.318393 0.250000
#
# Coordination Sequence:
#
# PCOD8122635 Si02
#       6
#     4   4   4   2   4   4
#     4  12  25  45  72 102 143 191 239 299 369 435
#     4  11  24  45  70 104 143 185 236 300 358 430
#     4  12  26  47  70 104 147 187 242 299 363 442
#     4  12  26  48  70 106 144 186 246 294 374 436
#     4  11  22  43  73 104 141 183 241 293 359 437
#     4  12  24  47  71 103 143 186 241 303 362 433
#
# _framework density 22.055865000000001
#
# number of rings (size 3 to 8) (size 9 to 14) (size 15 to 20)
#    0.000    0.364    5.455    3.818    0.000    1.455 
#    0.000    0.000    0.000    0.000    0.000    0.000 
#    0.000    0.000    0.000    0.000    0.000    0.000 
#
# Total GULP energy -272592.585867 kJ/mol
# GULP energy per Si atom -12390.572085 kJ/mol
# Density = 2.200567 g / cm^3
# Si number density = 22.055865 Si / 1000 Ang^3
#
#
#
# Elastic Constant Matrix: (Units=GPa)
#
#
# Indices 1 2 3 4 5 6 
#
# 1 110.9085 32.6291 41.6318 0.0000 -13.9635 0.0000
# 2 32.6291 120.0769 69.5736 0.0000 6.8974 0.0000
# 3 41.6318 69.5736 153.5985 0.0000 0.1576 0.0000
# 4 0.0000 0.0000 0.0000 56.5275 0.0000 -8.4179
# 5 -13.9635 6.8974 0.1576 0.0000 39.3562 0.0000
# 6 0.0000 0.0000 0.0000 -8.4179 0.0000 31.1296
#
#
#
# Elastic Compliance Matrix: (Units=1/GPa)
#
#
# Indices 1 2 3 4 5 6 
#
# 1 0.010913 -0.002023 -0.002046 0.000000 0.004235 0.000000
# 2 -0.002023 0.011820 -0.004802 0.000000 -0.002770 0.000000
# 3 -0.002046 -0.004802 0.009240 0.000000 0.000079 0.000000
# 4 0.000000 0.000000 0.000000 0.018433 0.000000 0.004984
# 5 0.004235 -0.002770 0.000079 0.000000 0.027397 0.000000
# 6 0.000000 0.000000 0.000000 0.004984 0.000000 0.033472
#
#
# Mechanical properties :
#
#
# Convention : Reuss Voigt Hill
#
# Bulk Modulus (GPa) = 70.27678 74.69475 72.48576
# Shear Modulus (GPa) = 37.38049 41.45262 39.41656
#
# Velocity S-wave (km/s) = 4.12127 4.33995 4.23202
# Velocity P-wave (km/s) = 7.38774 7.68461 7.53764
#
# Compressibility (1/GPa) = 0.01422945
#
# Stress axis : x y z
#
# Youngs Moduli (GPa) = 91.63605 84.60572 108.22279
#
# Poissons Ratio (x) = 0.17118 0.22139
# Poissons Ratio (y) = 0.18541 0.51974
# Poissons Ratio (z) = 0.18746 0.40632
#
# Static dielectric constant tensor:
#      x y z
#    x 4.043830 0.000000 -0.168910 
#    y 0.000000 5.114650 0.000000 
#    z -0.168910 0.000000 4.151740 
# 
# 
# High freq. dielectric constant tensor:
#      x y z
#    x 1.856980 0.000000 -0.019080 
#    y 0.000000 1.880590 0.000000 
#    z -0.019080 0.000000 1.885870 
# 
# From -- ./inp_files/58762.got.cif
#   From: 2010.06.25/outbox.cif.g09.slc.cpg/sg13_30_cif.got.tgz:58762.got - 2010.06.28 04:50:58.
