data_PCOD8122276
_publ_section_title
;
Structure prediction by ZEFSAII (Michael W. Deem and Ramdas Pophale) SiO2 
 PCOD8122276
Probable space group: P 2/C
;
_chemical_formula_sum "Si O2"
_cell_formula_units_Z 20
_cell_length_a 10.033885
_cell_length_b 5.105200
_cell_length_c 17.198781
_cell_angle_alpha 90.000000
_cell_angle_beta 88.362886
_cell_angle_gamma 90.000000
_cell_volume 880.647769
_symmetry_space_group_name_H-M "P 2/C"
_symmetry_group_IT_number 13
_symmetry_cell_setting 'monoclinic'
loop_
_space_group_symop_operation_xyz
x,y,z
-x,y,1/2-z
-x,-y,-z
x,-y,1/2+z
loop_
_atom_site_type_symbol
_atom_site_label
_atom_site_fract_x
_atom_site_fract_y
_atom_site_fract_z
Si Si1 0.795861 0.847373 0.621994
Si Si2 0.936193 0.678888 0.171255
Si Si3 0.495229 0.058488 0.157787
Si Si4 0.598815 0.462282 0.926498
Si Si5 0.113964 0.683381 0.031143
O O1 0.843632 0.556160 0.642855
O O2 0.637932 0.862020 0.620816
O O3 0.855095 0.909673 0.533994
O O4 0.844130 0.064760 0.682832
O O5 0.000000 0.586276 0.250000
O O6 0.057241 0.780224 0.114382
O O7 0.500000 0.020495 0.250000
O O8 0.402104 0.301015 0.135527
O O9 0.437697 0.800925 0.118641
O O10 0.747655 0.466451 0.957474
O O11 0.500000 0.500000 0.000000
O O12 0.000000 0.500000 0.000000
#
# Coordination Sequence:
#
# PCOD8122276 Si02
#       5
#     4   4   4   4   4
#     4  11  24  45  67  97 142 181 231 292 349 414
#     4  11  25  42  69 100 136 184 234 290 349 415
#     4  12  28  45  74 104 146 185 238 301 358 420
#     4  12  26  48  75 104 139 192 240 289 356 433
#     4  10  25  45  72 101 140 182 237 285 350 416
#
# _framework density 22.710556
#
# number of rings (size 3 to 8) (size 9 to 14) (size 15 to 20)
#    0.000    0.800    2.000    3.600    8.400    3.200 
#    0.000    0.000    0.000    0.000    0.000    0.000 
#    0.000    0.000    0.000    0.000    0.000    0.000 
#
# Total GULP energy -247949.795117 kJ/mol
# GULP energy per Si atom -12397.489756 kJ/mol
# Density = 2.265887 g / cm^3
# Si number density = 22.710556 Si / 1000 Ang^3
#
#
#
# Elastic Constant Matrix: (Units=GPa)
#
#
# Indices 1 2 3 4 5 6 
#
# 1 141.3589 48.2076 47.6625 0.0000 19.4482 0.0000
# 2 48.2076 150.2991 37.6753 0.0000 15.3355 0.0000
# 3 47.6625 37.6753 120.3344 0.0000 11.8130 0.0000
# 4 0.0000 0.0000 0.0000 34.9774 0.0000 10.5810
# 5 19.4482 15.3355 11.8130 0.0000 33.7646 0.0000
# 6 0.0000 0.0000 0.0000 10.5810 0.0000 21.7600
#
#
#
# Elastic Compliance Matrix: (Units=1/GPa)
#
#
# Indices 1 2 3 4 5 6 
#
# 1 0.009095 -0.001896 -0.002671 0.000000 -0.003443 0.000000
# 2 -0.001896 0.007839 -0.001513 0.000000 -0.001939 0.000000
# 3 -0.002671 -0.001513 0.009965 0.000000 -0.001261 0.000000
# 4 0.000000 0.000000 0.000000 0.033521 0.000000 -0.016300
# 5 -0.003443 -0.001939 -0.001261 0.000000 0.032922 0.000000
# 6 0.000000 0.000000 0.000000 -0.016300 0.000000 0.053882
#
#
# Mechanical properties :
#
#
# Convention : Reuss Voigt Hill
#
# Bulk Modulus (GPa) = 67.84501 75.45370 71.64936
# Shear Modulus (GPa) = 30.43277 36.66352 33.54815
#
# Velocity S-wave (km/s) = 3.66461 4.02230 3.84761
# Velocity P-wave (km/s) = 6.91697 7.40729 7.16633
#
# Compressibility (1/GPa) = 0.01473948
#
# Stress axis : x y z
#
# Youngs Moduli (GPa) = 109.94916 127.57259 100.34703
#
# Poissons Ratio (x) = 0.24194 0.26799
# Poissons Ratio (y) = 0.20851 0.15180
# Poissons Ratio (z) = 0.29364 0.19298
#
# Static dielectric constant tensor:
#      x y z
#    x 4.421670 0.000000 -0.165730 
#    y 0.000000 3.928350 0.000000 
#    z -0.165730 0.000000 4.616610 
# 
# 
# High freq. dielectric constant tensor:
#      x y z
#    x 1.913800 0.000000 0.005070 
#    y 0.000000 1.891640 0.000000 
#    z 0.005070 0.000000 1.907280 
# 
# From -- ./inp_files/62411.got.cif
#   From: 2010.06.25/outbox.cif.g09.slc.cpg/sg13_32_cif.got.tgz:62411.got - 2010.06.28 04:50:58.
