data_PCOD8122236
_publ_section_title
;
Structure prediction by ZEFSAII (Michael W. Deem and Ramdas Pophale) SiO2 
 PCOD8122236
Probable space group: P 2/C
;
_chemical_formula_sum "Si O2"
_cell_formula_units_Z 22
_cell_length_a 12.133708
_cell_length_b 11.307463
_cell_length_c 16.251864
_cell_angle_alpha 90.000000
_cell_angle_beta 153.315865
_cell_angle_gamma 90.000000
_cell_volume 1001.330614
_symmetry_space_group_name_H-M "P 2/C"
_symmetry_group_IT_number 13
_symmetry_cell_setting 'monoclinic'
loop_
_space_group_symop_operation_xyz
x,y,z
-x,y,1/2-z
-x,-y,-z
x,-y,1/2+z
loop_
_atom_site_type_symbol
_atom_site_label
_atom_site_fract_x
_atom_site_fract_y
_atom_site_fract_z
Si Si1 0.718216 0.545290 0.541180
Si Si2 0.091013 0.953647 0.438134
Si Si3 0.390103 0.667258 0.864678
Si Si4 0.500000 0.688872 0.250000
Si Si5 0.356114 0.914252 0.463882
Si Si6 0.973503 0.192541 0.016994
O O1 0.630727 0.631053 0.554759
O O2 0.547796 0.429589 0.420898
O O3 0.676528 0.612613 0.427393
O O4 0.000000 0.510103 0.750000
O O5 0.340866 0.961513 0.549333
O O6 0.905319 0.895568 0.250918
O O7 0.096430 0.861641 0.517105
O O8 0.010592 0.086446 0.406601
O O9 0.124947 0.690740 0.645748
O O10 0.521676 0.789767 0.948416
O O11 0.687000 0.768300 0.319223
O O12 0.500000 0.000000 0.500000
#
# Coordination Sequence:
#
# PCOD8122236 Si02
#       6
#     4   4   4   2   4   4
#     4  11  26  48  71 104 137 189 244 300 355 425
#     4  10  25  40  65 106 145 178 237 287 363 436
#     4  11  25  46  72 100 146 182 241 299 357 428
#     4  12  26  44  78 100 140 196 240 296 364 438
#     4  11  23  42  69 101 137 193 226 290 364 430
#     4  11  24  44  68 106 141 189 232 301 357 434
#
# _framework density 21.970766000000001
#
# number of rings (size 3 to 8) (size 9 to 14) (size 15 to 20)
#    0.000    1.091    3.636    1.091    7.636    2.909 
#    0.000    0.000    0.000    0.000    0.000    0.000 
#    0.000    0.000    0.000    0.000    0.000    0.000 
#
# Total GULP energy -272614.406222 kJ/mol
# GULP energy per Si atom -12391.563919 kJ/mol
# Density = 2.192076 g / cm^3
# Si number density = 21.970766 Si / 1000 Ang^3
#
#
#
# Elastic Constant Matrix: (Units=GPa)
#
#
# Indices 1 2 3 4 5 6 
#
# 1 168.8201 53.4934 32.0512 0.0000 5.6892 0.0000
# 2 53.4934 59.0902 35.2500 0.0000 3.5485 0.0000
# 3 32.0512 35.2500 95.6081 0.0000 11.1913 0.0000
# 4 0.0000 0.0000 0.0000 40.2446 0.0000 15.9147
# 5 5.6892 3.5485 11.1913 0.0000 24.6179 0.0000
# 6 0.0000 0.0000 0.0000 15.9147 0.0000 13.9812
#
#
#
# Elastic Compliance Matrix: (Units=1/GPa)
#
#
# Indices 1 2 3 4 5 6 
#
# 1 0.008324 -0.007537 0.000091 0.000000 -0.000879 0.000000
# 2 -0.007537 0.028527 -0.008147 0.000000 0.001333 0.000000
# 3 0.000091 -0.008147 0.014045 0.000000 -0.005232 0.000000
# 4 0.000000 0.000000 0.000000 0.045190 0.000000 -0.051439
# 5 -0.000879 0.001333 -0.005232 0.000000 0.043010 0.000000
# 6 0.000000 0.000000 0.000000 -0.051439 0.000000 0.130077
#
#
# Mechanical properties :
#
#
# Convention : Reuss Voigt Hill
#
# Bulk Modulus (GPa) = 50.73646 62.78973 56.76309
# Shear Modulus (GPa) = 16.29046 29.28366 22.78706
#
# Velocity S-wave (km/s) = 2.72593 3.65478 3.22398
# Velocity P-wave (km/s) = 5.74895 6.81547 6.30480
#
# Compressibility (1/GPa) = 0.01970969
#
# Stress axis : x y z
#
# Youngs Moduli (GPa) = 120.13350 35.05502 71.20067
#
# Poissons Ratio (x) = 0.26422 -0.00650
# Poissons Ratio (y) = 0.90549 0.58006
# Poissons Ratio (z) = -0.01097 0.28559
#
# Static dielectric constant tensor:
#      x y z
#    x 4.729720 0.000000 0.139660 
#    y 0.000000 3.205030 0.000000 
#    z 0.139660 0.000000 4.294500 
# 
# 
# High freq. dielectric constant tensor:
#      x y z
#    x 1.883000 0.000000 0.008510 
#    y 0.000000 1.858390 0.000000 
#    z 0.008510 0.000000 1.866340 
# 
# From -- ./inp_files/51246.got.cif
#   From: 2010.06.25/outbox.cif.g09.slc.cpg/sg13_26_cif.got.tgz:51246.got - 2010.06.28 04:50:58.
