data_PCOD8122100
_publ_section_title
;
Structure prediction by ZEFSAII (Michael W. Deem and Ramdas Pophale) SiO2 
 PCOD8122100
Probable space group: P 2/C
;
_chemical_formula_sum "Si O2"
_cell_formula_units_Z 28
_cell_length_a 5.278822
_cell_length_b 8.214962
_cell_length_c 29.739588
_cell_angle_alpha 90.000000
_cell_angle_beta 114.229932
_cell_angle_gamma 90.000000
_cell_volume 1176.054703
_symmetry_space_group_name_H-M "P 2/C"
_symmetry_group_IT_number 13
_symmetry_cell_setting 'monoclinic'
loop_
_space_group_symop_operation_xyz
x,y,z
-x,y,1/2-z
-x,-y,-z
x,-y,1/2+z
loop_
_atom_site_type_symbol
_atom_site_label
_atom_site_fract_x
_atom_site_fract_y
_atom_site_fract_z
Si Si1 0.000000 0.376636 0.750000
Si Si2 0.248177 0.623938 0.561984
Si Si3 0.902199 0.979366 0.087576
Si Si4 0.500000 0.403259 0.250000
Si Si5 0.738400 0.254446 0.930373
Si Si6 0.629912 0.760434 0.518548
Si Si7 0.306957 0.862974 0.338639
Si Si8 0.408005 0.811499 0.655993
O O1 0.234043 0.486947 0.743523
O O2 0.136342 0.252726 0.794342
O O3 0.160553 0.438359 0.562247
O O4 0.425370 0.634568 0.528544
O O5 0.450110 0.687779 0.616955
O O6 0.955931 0.714178 0.536978
O O7 0.837651 0.861153 0.123789
O O8 0.007107 0.873935 0.052199
O O9 0.631444 0.075171 0.048716
O O10 0.112390 0.109463 0.124927
O O11 0.588739 0.289013 0.297695
O O12 0.599741 0.221566 0.871392
O O13 0.539284 0.217119 0.959551
O O14 0.353958 0.047652 0.323670
#
# Coordination Sequence:
#
# PCOD8122100 Si02
#       8
#     2   4   4   2   4   4   4   4
#     4  12  32  48  76 110 144 176 244 300 364 428
#     4  11  24  43  67 102 141 186 238 293 355 421
#     4  10  24  43  68 103 139 192 234 292 352 430
#     4  12  30  50  80 112 138 188 236 306 366 432
#     4  11  25  41  69 102 140 191 234 302 350 414
#     4  11  24  44  67 101 143 188 244 285 353 429
#     4  11  26  46  72 101 144 188 234 294 360 429
#     4  10  25  46  71 101 141 185 239 284 364 432
#
# _framework density 23.808413999999999
#
# number of rings (size 3 to 8) (size 9 to 14) (size 15 to 20)
#    0.000    1.143    1.429    2.143   14.000    1.714 
#    0.000    0.000    0.000    0.000    0.000    0.000 
#    0.000    0.000    0.000    0.000    0.000    0.000 
#
# Total GULP energy -347013.179467 kJ/mol
# GULP energy per Si atom -12393.327838 kJ/mol
# Density = 2.375422 g / cm^3
# Si number density = 23.808414 Si / 1000 Ang^3
#
#
#
# Elastic Constant Matrix: (Units=GPa)
#
#
# Indices 1 2 3 4 5 6 
#
# 1 105.0224 36.7907 31.4932 0.0000 -13.0463 0.0000
# 2 36.7907 137.3992 67.5947 0.0000 -4.7037 0.0000
# 3 31.4932 67.5947 143.7691 0.0000 -21.0852 0.0000
# 4 0.0000 0.0000 0.0000 37.3697 0.0000 -14.4329
# 5 -13.0463 -4.7037 -21.0852 0.0000 27.7898 0.0000
# 6 0.0000 0.0000 0.0000 -14.4329 0.0000 34.7344
#
#
#
# Elastic Compliance Matrix: (Units=1/GPa)
#
#
# Indices 1 2 3 4 5 6 
#
# 1 0.011130 -0.002530 -0.000613 0.000000 0.004332 0.000000
# 2 -0.002530 0.010143 -0.004655 0.000000 -0.003003 0.000000
# 3 -0.000613 -0.004655 0.010263 0.000000 0.006711 0.000000
# 4 0.000000 0.000000 0.000000 0.031875 0.000000 0.013245
# 5 0.004332 -0.003003 0.006711 0.000000 0.042602 0.000000
# 6 0.000000 0.000000 0.000000 0.013245 0.000000 0.034293
#
#
# Mechanical properties :
#
#
# Convention : Reuss Voigt Hill
#
# Bulk Modulus (GPa) = 62.73958 73.10532 67.92245
# Shear Modulus (GPa) = 31.01437 36.66624 33.84031
#
# Velocity S-wave (km/s) = 3.61316 3.92861 3.77418
# Velocity P-wave (km/s) = 6.61934 7.16596 6.89806
#
# Compressibility (1/GPa) = 0.01593890
#
# Stress axis : x y z
#
# Youngs Moduli (GPa) = 89.84603 98.59194 97.44023
#
# Poissons Ratio (x) = 0.24947 0.05975
# Poissons Ratio (y) = 0.22734 0.45358
# Poissons Ratio (z) = 0.05509 0.45894
#
# Static dielectric constant tensor:
#      x y z
#    x 4.316010 0.000000 -0.026150 
#    y 0.000000 4.470830 0.000000 
#    z -0.026150 0.000000 4.466820 
# 
# 
# High freq. dielectric constant tensor:
#      x y z
#    x 1.942880 0.000000 -0.000560 
#    y 0.000000 1.960220 0.000000 
#    z -0.000560 0.000000 1.951080 
# 
# From -- ./inp_files/95142.got.cif
#   From: 2010.06.25/outbox.cif.g09.slc.cpg/sg13_48_cif.got.tgz:95142.got - 2010.06.28 04:50:58.
