data_PCOD8122971
_publ_section_title
;
Structure prediction by ZEFSAII (Michael W. Deem and Ramdas Pophale) SiO2 
 PCOD8122971
Probable space group: P 2/C
;
_chemical_formula_sum "Si O2"
_cell_formula_units_Z 16
_cell_length_a 7.703744
_cell_length_b 8.917470
_cell_length_c 11.097577
_cell_angle_alpha 90.000000
_cell_angle_beta 60.209471
_cell_angle_gamma 90.000000
_cell_volume 661.629909
_symmetry_space_group_name_H-M "P 2/C"
_symmetry_group_IT_number 13
_symmetry_cell_setting 'monoclinic'
loop_
_space_group_symop_operation_xyz
x,y,z
-x,y,1/2-z
-x,-y,-z
x,-y,1/2+z
loop_
_atom_site_type_symbol
_atom_site_label
_atom_site_fract_x
_atom_site_fract_y
_atom_site_fract_z
Si Si1 0.678655 0.958633 0.023268
Si Si2 0.000000 0.084797 0.750000
Si Si3 0.500000 0.812183 0.750000
Si Si4 0.836262 0.705230 0.110888
Si Si5 0.848373 0.619109 0.689341
O O1 0.673627 0.790414 0.081421
O O2 0.666441 0.085067 0.129491
O O3 0.500000 0.000000 0.000000
O O4 0.882826 0.973619 0.878809
O O5 0.858625 0.189394 0.719228
O O6 0.644033 0.712301 0.787862
O O7 0.763823 0.545484 0.184561
O O8 0.043038 0.685125 0.966283
O O9 0.000000 0.613505 0.750000
#
# Coordination Sequence:
#
# PCOD8122971 Si02
#       5
#     4   2   2   4   4
#     4  12  27  45  73 110 152 197 257 308 382 450
#     4  12  24  46  74 106 152 198 238 320 376 446
#     4  12  26  46  74 116 146 194 262 308 370 466
#     4  11  25  48  72 107 149 197 252 306 382 452
#     4  11  25  48  76 108 153 201 250 312 380 449
#
# _framework density 24.182704000000001
#
# number of rings (size 3 to 8) (size 9 to 14) (size 15 to 20)
#    0.000    0.500    3.750    3.750    5.250    3.000 
#    0.000    5.000    0.000    0.000    0.000    0.000 
#    0.000    0.000    0.000    0.000    0.000    0.000 
#
# Total GULP energy -198310.349647 kJ/mol
# GULP energy per Si atom -12394.396853 kJ/mol
# Density = 2.412766 g / cm^3
# Si number density = 24.182704 Si / 1000 Ang^3
#
#
#
# Elastic Constant Matrix: (Units=GPa)
#
#
# Indices 1 2 3 4 5 6 
#
# 1 127.2231 66.8092 13.1265 0.0000 10.9293 0.0000
# 2 66.8092 154.4529 34.0725 0.0000 5.1271 0.0000
# 3 13.1265 34.0725 96.9447 0.0000 4.1489 0.0000
# 4 0.0000 0.0000 0.0000 10.8410 0.0000 8.8676
# 5 10.9293 5.1271 4.1489 0.0000 35.9426 0.0000
# 6 0.0000 0.0000 0.0000 8.8676 0.0000 41.5718
#
#
#
# Elastic Compliance Matrix: (Units=1/GPa)
#
#
# Indices 1 2 3 4 5 6 
#
# 1 0.010401 -0.004475 0.000274 0.000000 -0.002556 0.000000
# 2 -0.004475 0.008962 -0.002560 0.000000 0.000378 0.000000
# 3 0.000274 -0.002560 0.011221 0.000000 -0.001013 0.000000
# 4 0.000000 0.000000 0.000000 0.111739 0.000000 -0.023835
# 5 -0.002556 0.000378 -0.001013 0.000000 0.028662 0.000000
# 6 0.000000 0.000000 0.000000 -0.023835 0.000000 0.029139
#
#
# Mechanical properties :
#
#
# Convention : Reuss Voigt Hill
#
# Bulk Modulus (GPa) = 58.60779 67.40411 63.00595
# Shear Modulus (GPa) = 22.79616 35.31192 29.05404
#
# Velocity S-wave (km/s) = 3.07361 3.82542 3.46994
# Velocity P-wave (km/s) = 6.07323 6.88804 6.49343
#
# Compressibility (1/GPa) = 0.01706258
#
# Stress axis : x y z
#
# Youngs Moduli (GPa) = 96.14132 111.57917 89.11647
#
# Poissons Ratio (x) = 0.49928 -0.02439
# Poissons Ratio (y) = 0.43020 0.22815
# Poissons Ratio (z) = -0.02632 0.28566
#
# Static dielectric constant tensor:
#      x y z
#    x 4.564550 0.000000 0.749830 
#    y 0.000000 4.451620 0.000000 
#    z 0.749830 0.000000 3.851900 
# 
# 
# High freq. dielectric constant tensor:
#      x y z
#    x 1.953690 0.000000 0.012360 
#    y 0.000000 1.977840 0.000000 
#    z 0.012360 0.000000 1.954520 
# 
# From -- ./inp_files/27587.got.cif
#   From: 2010.06.25/outbox.cif.g09.slc.cpg/sg13_14_cif.got.tgz:27587.got - 2010.06.28 04:50:58.
