data_PCOD8122722
_publ_section_title
;
Structure prediction by ZEFSAII (Michael W. Deem and Ramdas Pophale) SiO2 
 PCOD8122722
Probable space group: P 2/C
;
_chemical_formula_sum "Si O2"
_cell_formula_units_Z 20
_cell_length_a 8.001848
_cell_length_b 11.589023
_cell_length_c 11.229556
_cell_angle_alpha 90.000000
_cell_angle_beta 126.427132
_cell_angle_gamma 90.000000
_cell_volume 837.889194
_symmetry_space_group_name_H-M "P 2/C"
_symmetry_group_IT_number 13
_symmetry_cell_setting 'monoclinic'
loop_
_space_group_symop_operation_xyz
x,y,z
-x,y,1/2-z
-x,-y,-z
x,-y,1/2+z
loop_
_atom_site_type_symbol
_atom_site_label
_atom_site_fract_x
_atom_site_fract_y
_atom_site_fract_z
Si Si1 0.280519 0.257954 0.685163
Si Si2 0.757163 0.573630 0.128388
Si Si3 0.779017 0.681955 0.597768
Si Si4 0.959461 0.930112 0.104950
Si Si5 0.583313 0.229108 0.417286
O O1 0.500000 0.195159 0.750000
O O2 0.340126 0.364875 0.796451
O O3 0.172047 0.302107 0.519906
O O4 0.124438 0.173365 0.685862
O O5 0.670428 0.443213 0.075986
O O6 0.000000 0.559220 0.250000
O O7 0.715649 0.653752 0.995449
O O8 0.615190 0.776231 0.577758
O O9 0.000000 0.699352 0.750000
O O10 0.000000 0.997486 0.250000
O O11 0.724632 0.883248 0.999673
O O12 0.000000 0.000000 0.000000
O O13 0.500000 0.230634 0.250000
#
# Coordination Sequence:
#
# PCOD8122722 Si02
#       5
#     4   4   4   4   4
#     4  12  23  45  71  99 148 188 241 298 358 433
#     4  11  23  42  68 100 151 197 233 283 355 431
#     4  11  26  38  68 111 146 196 240 281 354 437
#     4  12  27  53  79 103 141 191 248 312 377 424
#     4  12  24  44  71 104 148 182 237 305 356 428
#
# _framework density 23.869502000000001
#
# number of rings (size 3 to 8) (size 9 to 14) (size 15 to 20)
#    0.000    0.400    6.000    1.800    2.800    4.800 
#    0.000    3.000    0.000    0.000    0.000    0.000 
#    0.000    0.000    0.000    0.000    0.000    0.000 
#
# Total GULP energy -247986.839494 kJ/mol
# GULP energy per Si atom -12399.341975 kJ/mol
# Density = 2.381517 g / cm^3
# Si number density = 23.869502 Si / 1000 Ang^3
#
#
#
# Elastic Constant Matrix: (Units=GPa)
#
#
# Indices 1 2 3 4 5 6 
#
# 1 104.2709 34.4191 40.7468 0.0000 -7.8580 0.0000
# 2 34.4191 68.6757 41.9660 0.0000 -4.0012 0.0000
# 3 40.7468 41.9660 188.4268 0.0000 -35.6672 0.0000
# 4 0.0000 0.0000 0.0000 32.8360 0.0000 -3.6144
# 5 -7.8580 -4.0012 -35.6672 0.0000 52.0609 0.0000
# 6 0.0000 0.0000 0.0000 -3.6144 0.0000 35.6767
#
#
#
# Elastic Compliance Matrix: (Units=1/GPa)
#
#
# Indices 1 2 3 4 5 6 
#
# 1 0.011826 -0.005084 -0.001334 0.000000 0.000480 0.000000
# 2 -0.005084 0.019139 -0.003481 0.000000 -0.001682 0.000000
# 3 -0.001334 -0.003481 0.007218 0.000000 0.004476 0.000000
# 4 0.000000 0.000000 0.000000 0.030798 0.000000 0.003120
# 5 0.000480 -0.001682 0.004476 0.000000 0.022218 0.000000
# 6 0.000000 0.000000 0.000000 0.003120 0.000000 0.028346
#
#
# Mechanical properties :
#
#
# Convention : Reuss Voigt Hill
#
# Bulk Modulus (GPa) = 54.39477 66.18189 60.28833
# Shear Modulus (GPa) = 34.37099 40.39750 37.38425
#
# Velocity S-wave (km/s) = 3.79879 4.11838 3.96181
# Velocity P-wave (km/s) = 6.48683 7.09940 6.80002
#
# Compressibility (1/GPa) = 0.01838412
#
# Stress axis : x y z
#
# Youngs Moduli (GPa) = 84.55887 52.25058 138.53613
#
# Poissons Ratio (x) = 0.26563 0.18484
# Poissons Ratio (y) = 0.42988 0.48231
# Poissons Ratio (z) = 0.11282 0.18191
#
# Static dielectric constant tensor:
#      x y z
#    x 4.383880 0.000000 0.056360 
#    y 0.000000 4.118130 0.000000 
#    z 0.056360 0.000000 4.680570 
# 
# 
# High freq. dielectric constant tensor:
#      x y z
#    x 1.960450 0.000000 0.011420 
#    y 0.000000 1.908690 0.000000 
#    z 0.011420 0.000000 1.984350 
# 
# From -- ./inp_files/29640.got.cif
#   From: 2010.06.25/outbox.cif.g09.slc.cpg/sg13_15_cif.got.tgz:29640.got - 2010.06.28 04:50:58.
