data_PCOD8122767
_publ_section_title
;
Structure prediction by ZEFSAII (Michael W. Deem and Ramdas Pophale) SiO2 
 PCOD8122767
Probable space group: P 2/C
;
_chemical_formula_sum "Si O2"
_cell_formula_units_Z 28
_cell_length_a 9.426688
_cell_length_b 13.651778
_cell_length_c 11.077956
_cell_angle_alpha 90.000000
_cell_angle_beta 115.932277
_cell_angle_gamma 90.000000
_cell_volume 1282.088978
_symmetry_space_group_name_H-M "P 2/C"
_symmetry_group_IT_number 13
_symmetry_cell_setting 'monoclinic'
loop_
_space_group_symop_operation_xyz
x,y,z
-x,y,1/2-z
-x,-y,-z
x,-y,1/2+z
loop_
_atom_site_type_symbol
_atom_site_label
_atom_site_fract_x
_atom_site_fract_y
_atom_site_fract_z
Si Si1 0.142968 0.365686 0.116320
Si Si2 0.833506 0.154119 0.749359
Si Si3 0.409817 0.013360 0.339112
Si Si4 0.650354 0.234096 0.143772
Si Si5 0.660451 0.548066 0.258881
Si Si6 0.330531 0.322184 0.958484
Si Si7 0.809853 0.284835 0.961362
O O1 0.222944 0.282666 0.224022
O O2 0.193559 0.472874 0.182362
O O3 0.956124 0.350859 0.061241
O O4 0.190373 0.353731 0.994751
O O5 0.721751 0.227752 0.635434
O O6 0.000000 0.137901 0.750000
O O7 0.749705 0.049334 0.720464
O O8 0.865707 0.197790 0.894158
O O9 0.500000 0.980476 0.250000
O O10 0.368648 0.126463 0.310800
O O11 0.500000 0.000000 0.500000
O O12 0.715964 0.231859 0.032792
O O13 0.487860 0.294979 0.090502
O O14 0.500000 0.497367 0.250000
O O15 0.637953 0.583352 0.113343
O O16 0.688829 0.642698 0.351734
#
# Coordination Sequence:
#
# PCOD8122767 Si02
#       7
#     4   4   4   4   4   4   4
#     4  12  26  43  66 102 143 181 230 294 349 412
#     4  11  24  45  73 101 139 188 229 288 352 425
#     4  12  26  46  77 111 139 185 241 294 354 426
#     4  12  25  45  71 100 141 181 229 296 350 415
#     4  11  24  42  73  99 131 189 238 288 341 421
#     4  11  23  44  70  98 138 181 238 285 348 420
#     4  11  25  47  67 101 142 185 232 285 355 421
#
# _framework density 21.839357
#
# number of rings (size 3 to 8) (size 9 to 14) (size 15 to 20)
#    0.000    0.571    4.286    3.857    2.000    2.286 
#    2.571    2.143    0.000    0.000    0.000    0.000 
#    0.000    0.000    0.000    0.000    0.000    0.000 
#
# Total GULP energy -347359.957809 kJ/mol
# GULP energy per Si atom -12405.712779 kJ/mol
# Density = 2.178965 g / cm^3
# Si number density = 21.839357 Si / 1000 Ang^3
#
#
#
# Elastic Constant Matrix: (Units=GPa)
#
#
# Indices 1 2 3 4 5 6 
#
# 1 93.8583 10.5060 8.8637 0.0000 1.2513 0.0000
# 2 10.5060 91.2618 20.2910 0.0000 -3.5705 0.0000
# 3 8.8637 20.2910 76.4209 0.0000 -1.6469 0.0000
# 4 0.0000 0.0000 0.0000 42.1848 0.0000 5.7380
# 5 1.2513 -3.5705 -1.6469 0.0000 38.7032 0.0000
# 6 0.0000 0.0000 0.0000 5.7380 0.0000 36.4661
#
#
#
# Elastic Compliance Matrix: (Units=1/GPa)
#
#
# Indices 1 2 3 4 5 6 
#
# 1 0.010872 -0.001050 -0.000993 0.000000 -0.000491 0.000000
# 2 -0.001050 0.011781 -0.002985 0.000000 0.000994 0.000000
# 3 -0.000993 -0.002985 0.014001 0.000000 0.000353 0.000000
# 4 0.000000 0.000000 0.000000 0.024224 0.000000 -0.003812
# 5 -0.000491 0.000994 0.000353 0.000000 0.025960 0.000000
# 6 0.000000 0.000000 0.000000 -0.003812 0.000000 0.028023
#
#
# Mechanical properties :
#
#
# Convention : Reuss Voigt Hill
#
# Bulk Modulus (GPa) = 37.59616 37.87360 37.73488
# Shear Modulus (GPa) = 37.37434 38.26284 37.81859
#
# Velocity S-wave (km/s) = 4.14131 4.19025 4.16585
# Velocity P-wave (km/s) = 6.33400 6.38674 6.36042
#
# Compressibility (1/GPa) = 0.02659846
#
# Stress axis : x y z
#
# Youngs Moduli (GPa) = 91.97780 84.88327 71.42508
#
# Poissons Ratio (x) = 0.08913 0.07091
# Poissons Ratio (y) = 0.09658 0.21319
# Poissons Ratio (z) = 0.09131 0.25336
#
# Static dielectric constant tensor:
#      x y z
#    x 4.055160 0.000000 -0.142030 
#    y 0.000000 3.930210 0.000000 
#    z -0.142030 0.000000 4.034550 
# 
# 
# High freq. dielectric constant tensor:
#      x y z
#    x 1.866800 0.000000 -0.006550 
#    y 0.000000 1.859960 0.000000 
#    z -0.006550 0.000000 1.868440 
# 
# From -- ./inp_files/30489.got.cif
#   From: 2010.06.25/outbox.cif.g09.slc.cpg/sg13_16_cif.got.tgz:30489.got - 2010.06.28 04:50:58.
