data_PCOD8122673
_publ_section_title
;
Structure prediction by ZEFSAII (Michael W. Deem and Ramdas Pophale) SiO2 
 PCOD8122673
Probable space group: P 2/C
;
_chemical_formula_sum "Si O2"
_cell_formula_units_Z 22
_cell_length_a 18.409285
_cell_length_b 8.105205
_cell_length_c 18.112626
_cell_angle_alpha 90.000000
_cell_angle_beta 22.584073
_cell_angle_gamma 90.000000
_cell_volume 1037.904291
_symmetry_space_group_name_H-M "P 2/C"
_symmetry_group_IT_number 13
_symmetry_cell_setting 'monoclinic'
loop_
_space_group_symop_operation_xyz
x,y,z
-x,y,1/2-z
-x,-y,-z
x,-y,1/2+z
loop_
_atom_site_type_symbol
_atom_site_label
_atom_site_fract_x
_atom_site_fract_y
_atom_site_fract_z
Si Si1 0.343985 0.483506 0.011956
Si Si2 0.732812 0.573825 0.194189
Si Si3 0.124115 0.908036 0.066219
Si Si4 0.046526 0.673920 0.385162
Si Si5 0.184978 0.287992 0.040177
Si Si6 0.500000 0.264933 0.250000
O O1 0.508285 0.449100 0.918450
O O2 0.403155 0.634196 0.905263
O O3 0.154087 0.538553 0.232824
O O4 0.329341 0.318244 0.973455
O O5 0.818095 0.711216 0.170691
O O6 0.750065 0.612056 0.091498
O O7 0.850394 0.406072 0.097796
O O8 0.000000 0.838070 0.250000
O O9 0.007959 0.846196 0.103050
O O10 0.140966 0.103818 0.055794
O O11 0.337823 0.844656 0.864750
O O12 0.000000 0.370894 0.250000
#
# Coordination Sequence:
#
# PCOD8122673 Si02
#       6
#     4   4   4   4   4   2
#     4  12  21  39  65  92 118 160 207 256 291 360
#     4  11  23  39  63  91 121 167 197 250 310 357
#     4  11  24  40  61  91 123 162 200 256 301 360
#     4  11  23  41  61  89 129 156 207 249 301 366
#     4  11  23  40  65  89 124 159 206 250 305 358
#     4  12  22  34  68  90 114 156 210 250 302 344
#
# _framework density 21.196560000000002
#
# number of rings (size 3 to 8) (size 9 to 14) (size 15 to 20)
#    0.000    0.727    7.273    0.545    2.545    0.727 
#    0.000    0.000    0.000    3.273    0.000    0.000 
#    0.000    0.000    0.000    0.000    0.000    0.000 
#
# Total GULP energy -272584.066401 kJ/mol
# GULP energy per Si atom -12390.184836 kJ/mol
# Density = 2.114832 g / cm^3
# Si number density = 21.196560 Si / 1000 Ang^3
#
#
#
# Elastic Constant Matrix: (Units=GPa)
#
#
# Indices 1 2 3 4 5 6 
#
# 1 118.8505 17.0849 16.3407 0.0000 -23.3571 0.0000
# 2 17.0849 51.9813 9.3923 0.0000 -9.8396 0.0000
# 3 16.3407 9.3923 56.7975 0.0000 -18.4893 0.0000
# 4 0.0000 0.0000 0.0000 22.1456 0.0000 -6.9069
# 5 -23.3571 -9.8396 -18.4893 0.0000 37.5487 0.0000
# 6 0.0000 0.0000 0.0000 -6.9069 0.0000 23.7486
#
#
#
# Elastic Compliance Matrix: (Units=1/GPa)
#
#
# Indices 1 2 3 4 5 6 
#
# 1 0.009845 -0.002111 -0.000798 0.000000 0.005178 0.000000
# 2 -0.002111 0.020874 -0.001776 0.000000 0.003282 0.000000
# 3 -0.000798 -0.001776 0.021218 0.000000 0.009486 0.000000
# 4 0.000000 0.000000 0.000000 0.049660 0.000000 0.014443
# 5 0.005178 0.003282 0.009486 0.000000 0.035384 0.000000
# 6 0.000000 0.000000 0.000000 0.014443 0.000000 0.046308
#
#
# Mechanical properties :
#
#
# Convention : Reuss Voigt Hill
#
# Bulk Modulus (GPa) = 23.49287 34.80724 29.15005
# Shear Modulus (GPa) = 24.17241 29.00933 26.59087
#
# Velocity S-wave (km/s) = 3.38063 3.70345 3.54572
# Velocity P-wave (km/s) = 5.13280 5.89443 5.52675
#
# Compressibility (1/GPa) = 0.04256611
#
# Stress axis : x y z
#
# Youngs Moduli (GPa) = 101.57752 47.90690 47.13061
#
# Poissons Ratio (x) = 0.10115 0.03759
# Poissons Ratio (y) = 0.21448 0.08370
# Poissons Ratio (z) = 0.08102 0.08508
#
# Static dielectric constant tensor:
#      x y z
#    x 4.190960 0.000000 -0.233900 
#    y 0.000000 3.386440 0.000000 
#    z -0.233900 0.000000 4.355940 
# 
# 
# High freq. dielectric constant tensor:
#      x y z
#    x 1.841520 0.000000 -0.009820 
#    y 0.000000 1.788300 0.000000 
#    z -0.009820 0.000000 1.851430 
# 
# From -- ./inp_files/81623.got.cif
#   From: 2010.06.25/outbox.cif.g09.slc.cpg/sg13_41_cif.got.tgz:81623.got - 2010.06.28 04:50:58.
