data_PCOD8122663
_publ_section_title
;
Structure prediction by ZEFSAII (Michael W. Deem and Ramdas Pophale) SiO2 
 PCOD8122663
Probable space group: P 2/C
;
_chemical_formula_sum "Si O2"
_cell_formula_units_Z 32
_cell_length_a 8.910390
_cell_length_b 25.768592
_cell_length_c 14.417136
_cell_angle_alpha 90.000000
_cell_angle_beta 31.243303
_cell_angle_gamma 90.000000
_cell_volume 1716.960539
_symmetry_space_group_name_H-M "P 2/C"
_symmetry_group_IT_number 13
_symmetry_cell_setting 'monoclinic'
loop_
_space_group_symop_operation_xyz
x,y,z
-x,y,1/2-z
-x,-y,-z
x,-y,1/2+z
loop_
_atom_site_type_symbol
_atom_site_label
_atom_site_fract_x
_atom_site_fract_y
_atom_site_fract_z
Si Si1 0.340971 0.669062 0.062837
Si Si2 0.344580 0.784687 0.070769
Si Si3 0.387504 0.390367 0.717023
Si Si4 0.669961 0.865968 0.567610
Si Si5 0.734104 0.587050 0.547506
Si Si6 0.652461 0.861561 0.271345
Si Si7 0.271442 0.518498 0.548672
Si Si8 0.666188 0.053337 0.914640
O O1 0.473210 0.726904 0.987344
O O2 0.470993 0.644889 0.086609
O O3 0.000000 0.672788 0.250000
O O4 0.417653 0.630453 0.937869
O O5 0.448387 0.811565 0.112987
O O6 0.000000 0.785330 0.250000
O O7 0.449089 0.816408 0.925959
O O8 0.500000 0.362508 0.750000
O O9 0.573560 0.443125 0.605684
O O10 0.045159 0.394031 0.917163
O O11 0.500000 0.873029 0.750000
O O12 0.589080 0.915031 0.547468
O O13 0.003133 0.859843 0.420564
O O14 0.500000 0.576029 0.750000
O O15 0.827174 0.533454 0.450814
O O16 0.500000 0.861247 0.250000
O O17 0.582357 0.913965 0.366354
O O18 0.500000 0.500000 0.500000
O O19 0.000000 0.542713 0.750000
O O20 0.000000 0.040104 0.750000
O O21 0.500000 0.000000 0.000000
#
# Coordination Sequence:
#
# PCOD8122663 Si02
#       8
#     4   4   4   4   4   4   4   4
#     4   9  18  37  56  77 107 139 174 214 261 315
#     4   8  16  33  57  75 101 141 175 212 262 314
#     4  11  24  37  56  83 108 137 174 216 263 312
#     4   9  18  33  53  78 104 136 178 219 260 311
#     4  11  23  38  56  80 108 140 176 212 258 318
#     4   9  18  33  53  78 104 137 177 219 263 310
#     4  12  22  39  61  79 106 142 176 215 262 314
#     4   9  19  34  50  73 107 143 179 214 260 313
#
# _framework density 18.637585000000001
#
# number of rings (size 3 to 8) (size 9 to 14) (size 15 to 20)
#    0.000    2.250    2.500    2.250    1.750    3.500 
#    0.000    4.375    0.000    3.000    0.000    0.000 
#    0.000    0.000    0.000    0.000    0.000    0.000 
#
# Total GULP energy -396452.847145 kJ/mol
# GULP energy per Si atom -12389.151473 kJ/mol
# Density = 1.859516 g / cm^3
# Si number density = 18.637585 Si / 1000 Ang^3
#
#
#
# Elastic Constant Matrix: (Units=GPa)
#
#
# Indices 1 2 3 4 5 6 
#
# 1 149.1321 50.2175 31.9952 0.0000 13.7639 0.0000
# 2 50.2175 128.9663 27.6483 0.0000 7.4146 0.0000
# 3 31.9952 27.6483 88.1508 0.0000 18.2020 0.0000
# 4 0.0000 0.0000 0.0000 16.4416 0.0000 -4.4009
# 5 13.7639 7.4146 18.2020 0.0000 22.8636 0.0000
# 6 0.0000 0.0000 0.0000 -4.4009 0.0000 9.0633
#
#
#
# Elastic Compliance Matrix: (Units=1/GPa)
#
#
# Indices 1 2 3 4 5 6 
#
# 1 0.008209 -0.002702 -0.001547 0.000000 -0.002834 0.000000
# 2 -0.002702 0.009213 -0.001948 0.000000 0.000190 0.000000
# 3 -0.001547 -0.001948 0.014593 0.000000 -0.010055 0.000000
# 4 0.000000 0.000000 0.000000 0.069908 0.000000 0.033945
# 5 -0.002834 0.000190 -0.010055 0.000000 0.053387 0.000000
# 6 0.000000 0.000000 0.000000 0.033945 0.000000 0.126818
#
#
# Mechanical properties :
#
#
# Convention : Reuss Voigt Hill
#
# Bulk Modulus (GPa) = 50.96633 65.10791 58.03712
# Shear Modulus (GPa) = 16.60797 26.76625 21.68711
#
# Velocity S-wave (km/s) = 2.98837 3.79376 3.41489
# Velocity P-wave (km/s) = 6.26997 7.36204 6.83784
#
# Compressibility (1/GPa) = 0.01962079
#
# Stress axis : x y z
#
# Youngs Moduli (GPa) = 121.82270 108.54553 68.52699
#
# Poissons Ratio (x) = 0.29327 0.10600
# Poissons Ratio (y) = 0.32914 0.13350
# Poissons Ratio (z) = 0.18844 0.21146
#
# Static dielectric constant tensor:
#      x y z
#    x 3.541850 0.000000 0.174450 
#    y 0.000000 3.288100 0.000000 
#    z 0.174450 0.000000 3.234250 
# 
# 
# High freq. dielectric constant tensor:
#      x y z
#    x 1.728470 0.000000 0.010040 
#    y 0.000000 1.719710 0.000000 
#    z 0.010040 0.000000 1.706400 
# 
# From -- ./inp_files/48294.got.cif
#   From: 2010.06.25/outbox.cif.g09.slc.cpg/sg13_25_cif.got.tgz:48294.got - 2010.06.28 04:50:58.
