data_PCOD8122243
_publ_section_title
;
Structure prediction by ZEFSAII (Michael W. Deem and Ramdas Pophale) SiO2 
 PCOD8122243
Probable space group: P 2/C
;
_chemical_formula_sum "Si O2"
_cell_formula_units_Z 30
_cell_length_a 9.330164
_cell_length_b 11.590828
_cell_length_c 14.596619
_cell_angle_alpha 90.000000
_cell_angle_beta 59.742136
_cell_angle_gamma 90.000000
_cell_volume 1363.491056
_symmetry_space_group_name_H-M "P 2/C"
_symmetry_group_IT_number 13
_symmetry_cell_setting 'monoclinic'
loop_
_space_group_symop_operation_xyz
x,y,z
-x,y,1/2-z
-x,-y,-z
x,-y,1/2+z
loop_
_atom_site_type_symbol
_atom_site_label
_atom_site_fract_x
_atom_site_fract_y
_atom_site_fract_z
Si Si1 0.778404 0.277503 0.011782
Si Si2 0.631307 0.197405 0.583156
Si Si3 0.066073 0.418336 0.820812
Si Si4 0.144486 0.010067 0.526541
Si Si5 0.447301 0.629940 0.543485
Si Si6 0.259767 0.207148 0.753096
Si Si7 0.000000 0.038926 0.750000
Si Si8 0.681953 0.601142 0.719125
O O1 0.617319 0.303313 0.004211
O O2 0.735505 0.294824 0.133789
O O3 0.812113 0.144507 0.980698
O O4 0.929723 0.359218 0.930724
O O5 0.655656 0.301317 0.501993
O O6 0.438160 0.174773 0.658482
O O7 0.731171 0.234237 0.641258
O O8 0.697380 0.069590 0.540396
O O9 0.188426 0.324636 0.734010
O O10 0.177053 0.505713 0.843964
O O11 0.000000 0.482214 0.750000
O O12 0.088954 0.962920 0.644439
O O13 0.000000 0.000000 0.500000
O O14 0.500000 0.500000 0.500000
O O15 0.328305 0.636521 0.671034
O O16 0.131895 0.108787 0.768316
O O17 0.500000 0.551760 0.750000
#
# Coordination Sequence:
#
# PCOD8122243 Si02
#       8
#     4   4   4   4   4   4   2   4
#     4  11  24  44  72  99 145 185 240 300 364 424
#     4  11  25  43  72 105 137 188 246 288 361 439
#     4  12  21  41  68 101 140 185 239 296 356 435
#     4  12  25  48  69 105 144 188 242 305 361 434
#     4  11  24  46  70 108 147 187 240 300 366 442
#     4  11  23  41  68 105 133 186 243 290 351 423
#     4  12  22  44  70  96 148 180 242 306 352 418
#     4  10  25  43  65 104 141 187 232 298 370 427
#
# _framework density 22.002344999999998
#
# number of rings (size 3 to 8) (size 9 to 14) (size 15 to 20)
#    0.000    0.800    3.333    3.600    5.600    3.200 
#   14.400    0.000    0.000    0.000    0.000    0.000 
#    0.000    0.000    0.000    0.000    0.000    0.000 
#
# Total GULP energy -371773.780199 kJ/mol
# GULP energy per Si atom -12392.459340 kJ/mol
# Density = 2.195227 g / cm^3
# Si number density = 22.002345 Si / 1000 Ang^3
#
#
#
# Elastic Constant Matrix: (Units=GPa)
#
#
# Indices 1 2 3 4 5 6 
#
# 1 108.5169 28.2596 52.3158 0.0000 0.1703 0.0000
# 2 28.2596 72.8354 37.4455 0.0000 -1.4248 0.0000
# 3 52.3158 37.4455 149.5166 0.0000 14.6764 0.0000
# 4 0.0000 0.0000 0.0000 30.7001 0.0000 -0.3324
# 5 0.1703 -1.4248 14.6764 0.0000 36.0298 0.0000
# 6 0.0000 0.0000 0.0000 -0.3324 0.0000 41.9194
#
#
#
# Elastic Compliance Matrix: (Units=1/GPa)
#
#
# Indices 1 2 3 4 5 6 
#
# 1 0.011604 -0.002669 -0.003516 0.000000 0.001272 0.000000
# 2 -0.002669 0.016562 -0.003416 0.000000 0.002059 0.000000
# 3 -0.003516 -0.003416 0.009152 0.000000 -0.003846 0.000000
# 4 0.000000 0.000000 0.000000 0.032576 0.000000 0.000258
# 5 0.001272 0.002059 -0.003846 0.000000 0.029397 0.000000
# 6 0.000000 0.000000 0.000000 0.000258 0.000000 0.023857
#
#
# Mechanical properties :
#
#
# Convention : Reuss Voigt Hill
#
# Bulk Modulus (GPa) = 55.20718 62.99009 59.09863
# Shear Modulus (GPa) = 33.69534 35.91971 34.80753
#
# Velocity S-wave (km/s) = 3.91761 4.04485 3.98174
# Velocity P-wave (km/s) = 6.75348 7.10672 6.93235
#
# Compressibility (1/GPa) = 0.01811359
#
# Stress axis : x y z
#
# Youngs Moduli (GPa) = 86.18042 60.38021 109.27007
#
# Poissons Ratio (x) = 0.16118 0.38424
# Poissons Ratio (y) = 0.23005 0.37325
# Poissons Ratio (z) = 0.30305 0.20625
#
# Static dielectric constant tensor:
#      x y z
#    x 3.955200 0.000000 0.165850 
#    y 0.000000 3.133140 0.000000 
#    z 0.165850 0.000000 4.395490 
# 
# 
# High freq. dielectric constant tensor:
#      x y z
#    x 1.885160 0.000000 0.004870 
#    y 0.000000 1.839920 0.000000 
#    z 0.004870 0.000000 1.883630 
# 
# From -- ./inp_files/47152.got.cif
#   From: 2010.06.25/outbox.cif.g09.slc.cpg/sg13_24_cif.got.tgz:47152.got - 2010.06.28 04:50:58.
