data_PCOD8122140
_publ_section_title
;
Structure prediction by ZEFSAII (Michael W. Deem and Ramdas Pophale) SiO2 
 PCOD8122140
Probable space group: P 2/C
;
_chemical_formula_sum "Si O2"
_cell_formula_units_Z 18
_cell_length_a 9.617265
_cell_length_b 11.448523
_cell_length_c 7.816941
_cell_angle_alpha 90.000000
_cell_angle_beta 66.795932
_cell_angle_gamma 90.000000
_cell_volume 791.050347
_symmetry_space_group_name_H-M "P 2/C"
_symmetry_group_IT_number 13
_symmetry_cell_setting 'monoclinic'
loop_
_space_group_symop_operation_xyz
x,y,z
-x,y,1/2-z
-x,-y,-z
x,-y,1/2+z
loop_
_atom_site_type_symbol
_atom_site_label
_atom_site_fract_x
_atom_site_fract_y
_atom_site_fract_z
Si Si1 0.710255 0.572365 0.503829
Si Si2 0.406049 0.103691 0.955345
Si Si3 0.070238 0.116172 0.033109
Si Si4 0.000000 0.286488 0.750000
Si Si5 0.606343 0.645918 0.920998
O O1 0.675183 0.613087 0.707831
O O2 0.568072 0.612836 0.455979
O O3 0.712765 0.429205 0.499537
O O4 0.862644 0.628459 0.361066
O O5 0.500000 0.149372 0.750000
O O6 0.240680 0.068273 0.973563
O O7 0.377963 0.215144 0.087759
O O8 0.500000 0.000000 0.000000
O O9 0.000000 0.158508 0.250000
O O10 0.047698 0.212378 0.894926
O O11 0.000000 0.000000 0.000000
#
# Coordination Sequence:
#
# PCOD8122140 Si02
#       5
#     4   4   4   2   4
#     4  10  24  44  72 102 143 190 239 301 369 439
#     4  12  28  46  76 107 143 192 253 302 368 447
#     4  12  26  47  73 106 153 195 243 308 377 440
#     4  12  26  46  74 108 150 194 252 304 380 446
#     4  10  24  46  72 100 145 188 244 302 368 437
#
# _framework density 22.754557999999999
#
# number of rings (size 3 to 8) (size 9 to 14) (size 15 to 20)
#    0.000    0.889    1.111    4.000   15.556    0.889 
#    2.000    0.000    0.000    0.000    0.000    0.000 
#    0.000    0.000    0.000    0.000    0.000    0.000 
#
# Total GULP energy -222999.276569 kJ/mol
# GULP energy per Si atom -12388.848698 kJ/mol
# Density = 2.270277 g / cm^3
# Si number density = 22.754558 Si / 1000 Ang^3
#
#
#
# Elastic Constant Matrix: (Units=GPa)
#
#
# Indices 1 2 3 4 5 6 
#
# 1 162.4657 81.7405 71.4829 0.0000 -23.5508 0.0000
# 2 81.7405 198.1387 65.3153 0.0000 2.6515 0.0000
# 3 71.4829 65.3153 155.9574 0.0000 -11.3935 0.0000
# 4 0.0000 0.0000 0.0000 28.3644 0.0000 -6.5204
# 5 -23.5508 2.6515 -11.3935 0.0000 45.5415 0.0000
# 6 0.0000 0.0000 0.0000 -6.5204 0.0000 43.7449
#
#
#
# Elastic Compliance Matrix: (Units=1/GPa)
#
#
# Indices 1 2 3 4 5 6 
#
# 1 0.009574 -0.003097 -0.002767 0.000000 0.004439 0.000000
# 2 -0.003097 0.006900 -0.001647 0.000000 -0.002415 0.000000
# 3 -0.002767 -0.001647 0.008426 0.000000 0.000773 0.000000
# 4 0.000000 0.000000 0.000000 0.036506 0.000000 0.005441
# 5 0.004439 -0.002415 0.000773 0.000000 0.024588 0.000000
# 6 0.000000 0.000000 0.000000 0.005441 0.000000 0.023671
#
#
# Mechanical properties :
#
#
# Convention : Reuss Voigt Hill
#
# Bulk Modulus (GPa) = 101.22346 105.95989 103.59168
# Shear Modulus (GPa) = 39.06877 43.39837 41.23357
#
# Velocity S-wave (km/s) = 4.14812 4.37193 4.26150
# Velocity P-wave (km/s) = 8.21730 8.49427 8.35693
#
# Compressibility (1/GPa) = 0.00987913
#
# Stress axis : x y z
#
# Youngs Moduli (GPa) = 104.44613 144.93314 118.67602
#
# Poissons Ratio (x) = 0.44887 0.32838
# Poissons Ratio (y) = 0.32348 0.19540
# Poissons Ratio (z) = 0.28900 0.23864
#
# Static dielectric constant tensor:
#      x y z
#    x 4.059940 0.000000 -0.311840 
#    y 0.000000 4.374790 0.000000 
#    z -0.311840 0.000000 4.418870 
# 
# 
# High freq. dielectric constant tensor:
#      x y z
#    x 1.901880 0.000000 -0.004500 
#    y 0.000000 1.907840 0.000000 
#    z -0.004500 0.000000 1.916110 
# 
# From -- ./inp_files/11624.got.cif
#   From: 2010.06.25/outbox.cif.g09.slc.cpg/sg13_6_cif.got.tgz:11624.got - 2010.06.28 04:50:58.
