data_PCOD8122139
_publ_section_title
;
Structure prediction by ZEFSAII (Michael W. Deem and Ramdas Pophale) SiO2 
 PCOD8122139
Probable space group: P 2/C
;
_chemical_formula_sum "Si O2"
_cell_formula_units_Z 22
_cell_length_a 19.059971
_cell_length_b 8.246853
_cell_length_c 9.196030
_cell_angle_alpha 90.000000
_cell_angle_beta 140.274297
_cell_angle_gamma 90.000000
_cell_volume 923.822333
_symmetry_space_group_name_H-M "P 2/C"
_symmetry_group_IT_number 13
_symmetry_cell_setting 'monoclinic'
loop_
_space_group_symop_operation_xyz
x,y,z
-x,y,1/2-z
-x,-y,-z
x,-y,1/2+z
loop_
_atom_site_type_symbol
_atom_site_label
_atom_site_fract_x
_atom_site_fract_y
_atom_site_fract_z
Si Si1 0.000000 0.786092 0.750000
Si Si2 0.185159 0.786126 0.247478
Si Si3 0.669770 0.325159 0.742632
Si Si4 0.240448 0.682429 0.635864
Si Si5 0.471274 0.836753 0.036315
Si Si6 0.170356 0.148203 0.292186
O O1 0.060438 0.878838 0.713652
O O2 0.902577 0.696139 0.503869
O O3 0.305629 0.729455 0.384574
O O4 0.164329 0.732715 0.378779
O O5 0.184066 0.979986 0.228645
O O6 0.715177 0.505373 0.828771
O O7 0.541109 0.311579 0.575311
O O8 0.729267 0.196075 0.943911
O O9 0.165503 0.708312 0.661050
O O10 0.343083 0.803008 0.814147
O O11 0.500000 0.853097 0.250000
O O12 0.500000 0.000000 0.000000
#
# Coordination Sequence:
#
# PCOD8122139 Si02
#       6
#     2   4   4   4   4   4
#     4  10  24  44  72 102 134 172 236 296 340 408
#     4  11  24  43  72  99 136 181 231 288 341 403
#     4  11  25  45  66 103 145 181 226 276 348 405
#     4  12  25  43  71 101 142 185 224 284 340 413
#     4  12  26  45  72 106 141 182 233 277 333 406
#     4  11  22  45  68 101 134 179 233 285 340 407
#
# _framework density 23.814105000000001
#
# number of rings (size 3 to 8) (size 9 to 14) (size 15 to 20)
#    0.000    0.727    1.818    6.545    2.545    0.727 
#    0.000   14.545    0.000    2.182    0.000    0.000 
#    0.000    0.000    0.000    0.000    0.000    0.000 
#
# Total GULP energy -272543.033049 kJ/mol
# GULP energy per Si atom -12388.319684 kJ/mol
# Density = 2.375990 g / cm^3
# Si number density = 23.814105 Si / 1000 Ang^3
#
#
#
# Elastic Constant Matrix: (Units=GPa)
#
#
# Indices 1 2 3 4 5 6 
#
# 1 152.2357 34.2777 44.5067 0.0000 -16.7948 0.0000
# 2 34.2777 100.8717 21.1921 0.0000 -1.2657 0.0000
# 3 44.5067 21.1921 101.8088 0.0000 -19.0970 0.0000
# 4 0.0000 0.0000 0.0000 20.8254 0.0000 -8.7060
# 5 -16.7948 -1.2657 -19.0970 0.0000 34.7223 0.0000
# 6 0.0000 0.0000 0.0000 -8.7060 0.0000 20.2009
#
#
#
# Elastic Compliance Matrix: (Units=1/GPa)
#
#
# Indices 1 2 3 4 5 6 
#
# 1 0.008091 -0.002165 -0.002639 0.000000 0.002383 0.000000
# 2 -0.002165 0.010972 -0.001627 0.000000 -0.001542 0.000000
# 3 -0.002639 -0.001627 0.012337 0.000000 0.005449 0.000000
# 4 0.000000 0.000000 0.000000 0.058571 0.000000 0.025242
# 5 0.002383 -0.001542 0.005449 0.000000 0.032893 0.000000
# 6 0.000000 0.000000 0.000000 0.025242 0.000000 0.060381
#
#
# Mechanical properties :
#
#
# Convention : Reuss Voigt Hill
#
# Bulk Modulus (GPa) = 53.94458 61.65211 57.79835
# Shear Modulus (GPa) = 24.71749 32.14570 28.43159
#
# Velocity S-wave (km/s) = 3.22519 3.67803 3.45903
# Velocity P-wave (km/s) = 6.04737 6.63192 6.34638
#
# Compressibility (1/GPa) = 0.01853754
#
# Stress axis : x y z
#
# Youngs Moduli (GPa) = 123.59838 91.14397 81.05770
#
# Poissons Ratio (x) = 0.19732 0.21394
# Poissons Ratio (y) = 0.26758 0.13185
# Poissons Ratio (z) = 0.32622 0.14825
#
# Static dielectric constant tensor:
#      x y z
#    x 5.037120 0.000000 0.061780 
#    y 0.000000 4.053210 0.000000 
#    z 0.061780 0.000000 4.394960 
# 
# 
# High freq. dielectric constant tensor:
#      x y z
#    x 1.971630 0.000000 -0.014460 
#    y 0.000000 1.920390 0.000000 
#    z -0.014460 0.000000 1.938130 
# 
# From -- ./inp_files/21247.got.cif
#   From: 2010.06.25/outbox.cif.g09.slc.cpg/sg13_11_cif.got.tgz:21247.got - 2010.06.28 04:50:58.
