data_PCOD8122064
_publ_section_title
;
Structure prediction by ZEFSAII (Michael W. Deem and Ramdas Pophale) SiO2 
 PCOD8122064
Probable space group: P 2/C
;
_chemical_formula_sum "Si O2"
_cell_formula_units_Z 22
_cell_length_a 21.825021
_cell_length_b 5.127568
_cell_length_c 8.845327
_cell_angle_alpha 90.000000
_cell_angle_beta 101.231204
_cell_angle_gamma 90.000000
_cell_volume 970.917314
_symmetry_space_group_name_H-M "P 2/C"
_symmetry_group_IT_number 13
_symmetry_cell_setting 'monoclinic'
loop_
_space_group_symop_operation_xyz
x,y,z
-x,y,1/2-z
-x,-y,-z
x,-y,1/2+z
loop_
_atom_site_type_symbol
_atom_site_label
_atom_site_fract_x
_atom_site_fract_y
_atom_site_fract_z
Si Si1 0.000000 0.521023 0.250000
Si Si2 0.942269 0.188877 0.471458
Si Si3 0.428734 0.775963 0.687747
Si Si4 0.383188 0.286793 0.500349
Si Si5 0.197040 0.822963 0.638751
Si Si6 0.241148 0.691714 0.991439
O O1 0.046932 0.373290 0.164212
O O2 0.053353 0.675563 0.364633
O O3 0.873505 0.069832 0.421262
O O4 0.000000 0.000000 0.500000
O O5 0.500000 0.855516 0.750000
O O6 0.427737 0.510414 0.589880
O O7 0.396456 0.008218 0.580774
O O8 0.392474 0.732809 0.826008
O O9 0.312805 0.378890 0.495653
O O10 0.207527 0.768232 0.819752
O O11 0.208497 0.560506 0.548643
O O12 0.240136 0.061413 0.604508
#
# Coordination Sequence:
#
# PCOD8122064 Si02
#       6
#     2   4   4   4   4   4
#     4  10  24  42  66  94 130 166 218 262 364 398
#     4  11  25  42  69  95 132 171 219 283 351 402
#     4  12  25  44  72 107 141 184 231 285 342 406
#     4  12  24  44  71  99 146 182 232 283 344 405
#     4  12  28  45  73 100 140 176 243 282 345 419
#     4  12  26  47  69 103 135 190 229 286 341 408
#
# _framework density 22.658985999999999
#
# number of rings (size 3 to 8) (size 9 to 14) (size 15 to 20)
#    0.000    0.364    0.000    8.727   10.182    0.000 
#    0.000    0.000    0.000    0.000    0.000    0.000 
#    0.000    0.000    0.000    0.000    0.000    0.000 
#
# Total GULP energy -272844.841280 kJ/mol
# GULP energy per Si atom -12402.038240 kJ/mol
# Density = 2.260741 g / cm^3
# Si number density = 22.658986 Si / 1000 Ang^3
#
#
#
# Elastic Constant Matrix: (Units=GPa)
#
#
# Indices 1 2 3 4 5 6 
#
# 1 78.1300 10.8274 4.8293 0.0000 16.9651 0.0000
# 2 10.8274 122.7076 35.6970 0.0000 -11.9300 0.0000
# 3 4.8293 35.6970 104.6685 0.0000 -13.6033 0.0000
# 4 0.0000 0.0000 0.0000 52.3242 0.0000 -10.0724
# 5 16.9651 -11.9300 -13.6033 0.0000 34.1311 0.0000
# 6 0.0000 0.0000 0.0000 -10.0724 0.0000 35.6203
#
#
#
# Elastic Compliance Matrix: (Units=1/GPa)
#
#
# Indices 1 2 3 4 5 6 
#
# 1 0.014980 -0.001808 -0.001186 0.000000 -0.008550 0.000000
# 2 -0.001808 0.009402 -0.002720 0.000000 0.003101 0.000000
# 3 -0.001186 -0.002720 0.011062 0.000000 0.004048 0.000000
# 4 0.000000 0.000000 0.000000 0.020212 0.000000 0.005715
# 5 -0.008550 0.003101 0.004048 0.000000 0.036246 0.000000
# 6 0.000000 0.000000 0.000000 0.005715 0.000000 0.029690
#
#
# Mechanical properties :
#
#
# Convention : Reuss Voigt Hill
#
# Bulk Modulus (GPa) = 41.63880 45.35706 43.49793
# Shear Modulus (GPa) = 35.45481 41.35862 38.40671
#
# Velocity S-wave (km/s) = 3.95994 4.27694 4.12149
# Velocity P-wave (km/s) = 6.27091 6.66711 6.47204
#
# Compressibility (1/GPa) = 0.02401606
#
# Stress axis : x y z
#
# Youngs Moduli (GPa) = 66.75722 106.36303 90.39629
#
# Poissons Ratio (x) = 0.19232 0.10719
# Poissons Ratio (y) = 0.12070 0.24588
# Poissons Ratio (z) = 0.07916 0.28931
#
# Static dielectric constant tensor:
#      x y z
#    x 4.101170 0.000000 -0.098350 
#    y 0.000000 3.824000 0.000000 
#    z -0.098350 0.000000 4.397890 
# 
# 
# High freq. dielectric constant tensor:
#      x y z
#    x 1.905320 0.000000 -0.003470 
#    y 0.000000 1.899840 0.000000 
#    z -0.003470 0.000000 1.918440 
# 
# From -- ./inp_files/22224.got.cif
#   From: 2010.06.25/outbox.cif.g09.slc.cpg/sg13_12_cif.got.tgz:22224.got - 2010.06.28 04:50:58.
