data_PCOD8122080
_publ_section_title
;
Structure prediction by ZEFSAII (Michael W. Deem and Ramdas Pophale) SiO2 
 PCOD8122080
Probable space group: P 2/C
;
_chemical_formula_sum "Si O2"
_cell_formula_units_Z 30
_cell_length_a 28.288508
_cell_length_b 5.282422
_cell_length_c 8.929896
_cell_angle_alpha 90.000000
_cell_angle_beta 78.639844
_cell_angle_gamma 90.000000
_cell_volume 1308.267509
_symmetry_space_group_name_H-M "P 2/C"
_symmetry_group_IT_number 13
_symmetry_cell_setting 'monoclinic'
loop_
_space_group_symop_operation_xyz
x,y,z
-x,y,1/2-z
-x,-y,-z
x,-y,1/2+z
loop_
_atom_site_type_symbol
_atom_site_label
_atom_site_fract_x
_atom_site_fract_y
_atom_site_fract_z
Si Si1 0.870301 0.789023 0.457613
Si Si2 0.500000 0.001132 0.250000
Si Si3 0.210327 0.818558 0.490135
Si Si4 0.651898 0.667639 0.405856
Si Si5 0.543508 0.309071 0.972581
Si Si6 0.981787 0.245749 0.929429
Si Si7 0.682928 0.166045 0.553171
Si Si8 0.176433 0.516686 0.253961
O O1 0.925066 0.809489 0.471614
O O2 0.870177 0.622094 0.306511
O O3 0.840871 0.682669 0.614972
O O4 0.839516 0.038075 0.435324
O O5 0.462092 0.152735 0.372735
O O6 0.462040 0.849107 0.174628
O O7 0.262249 0.948163 0.474531
O O8 0.206136 0.734488 0.320003
O O9 0.212703 0.589082 0.606983
O O10 0.596489 0.570579 0.437720
O O11 0.679872 0.418269 0.449918
O O12 0.667832 0.747378 0.229065
O O13 0.654361 0.920838 0.508757
O O14 0.500000 0.500000 0.000000
O O15 0.000000 0.258029 0.750000
O O16 0.000000 0.500000 0.000000
O O17 0.000000 0.000000 0.000000
#
# Coordination Sequence:
#
# PCOD8122080 Si02
#       8
#     4   2   4   4   4   4   4   4
#     4  11  25  43  74 101 143 186 246 292 359 430
#     4  10  24  42  70 104 138 182 244 298 354 424
#     4  11  25  43  74 102 142 188 245 296 361 432
#     4  12  29  49  76 108 152 196 244 306 377 443
#     4  11  25  43  74 101 143 185 246 292 364 433
#     4  12  29  49  76 108 153 195 245 304 377 437
#     4  12  29  49  76 108 154 194 247 303 379 440
#     4  10  24  42  71 102 139 180 247 293 354 418
#
# _framework density 22.931092
#
# number of rings (size 3 to 8) (size 9 to 14) (size 15 to 20)
#    0.000    0.800    0.000    4.800   22.400    0.000 
#    0.000    0.000    0.000    0.000    0.000    0.000 
#    0.000    0.000    0.000    0.000    0.000    0.000 
#
# Total GULP energy -371691.576029 kJ/mol
# GULP energy per Si atom -12389.719201 kJ/mol
# Density = 2.287890 g / cm^3
# Si number density = 22.931092 Si / 1000 Ang^3
#
#
#
# Elastic Constant Matrix: (Units=GPa)
#
#
# Indices 1 2 3 4 5 6 
#
# 1 161.9765 41.3236 34.8866 0.0000 -13.8576 0.0000
# 2 41.3236 120.6193 37.3634 0.0000 9.3046 0.0000
# 3 34.8866 37.3634 130.8854 0.0000 23.7856 0.0000
# 4 0.0000 0.0000 0.0000 29.0852 0.0000 5.7739
# 5 -13.8576 9.3046 23.7856 0.0000 29.6241 0.0000
# 6 0.0000 0.0000 0.0000 5.7739 0.0000 33.5541
#
#
#
# Elastic Compliance Matrix: (Units=1/GPa)
#
#
# Indices 1 2 3 4 5 6 
#
# 1 0.007911 -0.002407 -0.002613 0.000000 0.006554 0.000000
# 2 -0.002407 0.009848 -0.001643 0.000000 -0.002900 0.000000
# 3 -0.002613 -0.001643 0.010460 0.000000 -0.009105 0.000000
# 4 0.000000 0.000000 0.000000 0.035598 0.000000 -0.006126
# 5 0.006554 -0.002900 -0.009105 0.000000 0.045044 0.000000
# 6 0.000000 0.000000 0.000000 -0.006126 0.000000 0.030857
#
#
# Mechanical properties :
#
#
# Convention : Reuss Voigt Hill
#
# Bulk Modulus (GPa) = 67.13743 71.18092 69.15917
# Shear Modulus (GPa) = 31.64426 38.44651 35.04538
#
# Velocity S-wave (km/s) = 3.71883 4.09909 3.91358
# Velocity P-wave (km/s) = 6.91238 7.31519 7.11663
#
# Compressibility (1/GPa) = 0.01489482
#
# Stress axis : x y z
#
# Youngs Moduli (GPa) = 126.40278 101.54782 95.59976
#
# Poissons Ratio (x) = 0.24439 0.24978
# Poissons Ratio (y) = 0.30420 0.15704
# Poissons Ratio (z) = 0.33027 0.16681
#
# Static dielectric constant tensor:
#      x y z
#    x 4.285260 0.000000 0.280020 
#    y 0.000000 0.723630 0.000000 
#    z 0.280020 0.000000 4.331470 
# 
# 
# High freq. dielectric constant tensor:
#      x y z
#    x 1.916380 0.000000 0.014920 
#    y 0.000000 1.903330 0.000000 
#    z 0.014920 0.000000 1.929250 
# 
# From -- ./inp_files/24772.got.cif
#   From: 2010.06.25/outbox.cif.g09.slc.cpg/sg13_13_cif.got.tgz:24772.got - 2010.06.28 04:50:58.
