data_PCOD8122083
_publ_section_title
;
Structure prediction by ZEFSAII (Michael W. Deem and Ramdas Pophale) SiO2 
 PCOD8122083
Probable space group: P 2/C
;
_chemical_formula_sum "Si O2"
_cell_formula_units_Z 22
_cell_length_a 15.588749
_cell_length_b 15.871184
_cell_length_c 5.006784
_cell_angle_alpha 90.000000
_cell_angle_beta 58.269593
_cell_angle_gamma 90.000000
_cell_volume 1053.586425
_symmetry_space_group_name_H-M "P 2/C"
_symmetry_group_IT_number 13
_symmetry_cell_setting 'monoclinic'
loop_
_space_group_symop_operation_xyz
x,y,z
-x,y,1/2-z
-x,-y,-z
x,-y,1/2+z
loop_
_atom_site_type_symbol
_atom_site_label
_atom_site_fract_x
_atom_site_fract_y
_atom_site_fract_z
Si Si1 0.877374 0.555212 0.648494
Si Si2 0.500000 0.855138 0.750000
Si Si3 0.290008 0.055138 0.529597
Si Si4 0.284248 0.682215 0.568166
Si Si5 0.000000 0.310210 0.250000
Si Si6 0.196690 0.769730 0.217683
Si Si7 0.500000 0.263083 0.750000
O O1 0.898245 0.523335 0.313299
O O2 0.761729 0.587550 0.856797
O O3 0.949179 0.632936 0.603592
O O4 0.595465 0.914185 0.638143
O O5 0.519284 0.796595 0.467027
O O6 0.211825 0.130408 0.711362
O O7 0.269773 0.019836 0.268717
O O8 0.271905 0.722572 0.296651
O O9 0.402335 0.677495 0.449096
O O10 0.223650 0.739612 0.876893
O O11 0.918945 0.251193 0.527939
#
# Coordination Sequence:
#
# PCOD8122083 Si02
#       7
#     4   2   4   4   2   4   2
#     4  11  23  40  64  97 125 152 198 261 319 357
#     4  12  22  37  64  91 124 158 216 252 302 361
#     4  12  23  39  59  92 130 158 200 264 311 354
#     4  11  22  40  63  89 127 165 203 250 299 375
#     4  10  24  42  70  90 120 164 210 258 300 372
#     4  11  23  42  61  91 121 165 212 250 307 366
#     4  12  20  39  64  91 120 168 212 244 290 371
#
# _framework density 20.881059
#
# number of rings (size 3 to 8) (size 9 to 14) (size 15 to 20)
#    0.000    0.727    3.636    5.455    0.000    5.818 
#    0.000    1.818    0.000    0.000    0.000    0.000 
#    0.000    0.000    0.000    0.000    0.000    0.000 
#
# Total GULP energy -272914.481439 kJ/mol
# GULP energy per Si atom -12405.203702 kJ/mol
# Density = 2.083353 g / cm^3
# Si number density = 20.881059 Si / 1000 Ang^3
#
#
#
# Elastic Constant Matrix: (Units=GPa)
#
#
# Indices 1 2 3 4 5 6 
#
# 1 76.9922 37.3655 33.1822 0.0000 -22.5727 0.0000
# 2 37.3655 81.6152 25.6763 0.0000 -20.2903 0.0000
# 3 33.1822 25.6763 86.0459 0.0000 -7.6831 0.0000
# 4 0.0000 0.0000 0.0000 40.5249 0.0000 -12.3923
# 5 -22.5727 -20.2903 -7.6831 0.0000 51.9657 0.0000
# 6 0.0000 0.0000 0.0000 -12.3923 0.0000 34.6763
#
#
#
# Elastic Compliance Matrix: (Units=1/GPa)
#
#
# Indices 1 2 3 4 5 6 
#
# 1 0.019828 -0.006033 -0.005358 0.000000 0.005465 0.000000
# 2 -0.006033 0.016621 -0.002318 0.000000 0.003526 0.000000
# 3 -0.005358 -0.002318 0.014280 0.000000 -0.001121 0.000000
# 4 0.000000 0.000000 0.000000 0.027704 0.000000 0.009900
# 5 0.005465 0.003526 -0.001121 0.000000 0.022828 0.000000
# 6 0.000000 0.000000 0.000000 0.009900 0.000000 0.032376
#
#
# Mechanical properties :
#
#
# Convention : Reuss Voigt Hill
#
# Bulk Modulus (GPa) = 42.90168 48.56682 45.73425
# Shear Modulus (GPa) = 29.61647 35.32869 32.47258
#
# Velocity S-wave (km/s) = 3.77017 4.11773 3.94778
# Velocity P-wave (km/s) = 6.28829 6.77620 6.53680
#
# Compressibility (1/GPa) = 0.02330911
#
# Stress axis : x y z
#
# Youngs Moduli (GPa) = 50.43431 60.16552 70.03036
#
# Poissons Ratio (x) = 0.36301 0.37522
# Poissons Ratio (y) = 0.30429 0.16234
# Poissons Ratio (z) = 0.27022 0.13947
#
# Static dielectric constant tensor:
#      x y z
#    x 4.055240 0.000000 -0.025960 
#    y 0.000000 3.742630 0.000000 
#    z -0.025960 0.000000 3.884090 
# 
# 
# High freq. dielectric constant tensor:
#      x y z
#    x 1.823320 0.000000 0.009880 
#    y 0.000000 1.803210 0.000000 
#    z 0.009880 0.000000 1.832240 
# 
# From -- ./inp_files/3329.got.cif
#   From: 2010.06.25/outbox.cif.g09.slc.cpg/sg13_2_cif.got.tgz:3329.got - 2010.06.28 04:50:58.
