data_PCOD8122327
_publ_section_title
;
Structure prediction by ZEFSAII (Michael W. Deem and Ramdas Pophale) SiO2 
 PCOD8122327
Probable space group: P 2/C
;
_chemical_formula_sum "Si O2"
_cell_formula_units_Z 28
_cell_length_a 13.415599
_cell_length_b 5.780545
_cell_length_c 19.333777
_cell_angle_alpha 90.000000
_cell_angle_beta 52.582273
_cell_angle_gamma 90.000000
_cell_volume 1190.803282
_symmetry_space_group_name_H-M "P 2/C"
_symmetry_group_IT_number 13
_symmetry_cell_setting 'monoclinic'
loop_
_space_group_symop_operation_xyz
x,y,z
-x,y,1/2-z
-x,-y,-z
x,-y,1/2+z
loop_
_atom_site_type_symbol
_atom_site_label
_atom_site_fract_x
_atom_site_fract_y
_atom_site_fract_z
Si Si1 0.817379 0.238737 0.474560
Si Si2 0.488810 0.749493 0.544749
Si Si3 0.500000 0.299369 0.750000
Si Si4 0.654567 0.616945 0.595563
Si Si5 0.784220 0.726649 0.837258
Si Si6 0.000000 0.642032 0.250000
Si Si7 0.267307 0.991216 0.354029
Si Si8 0.057913 0.001723 0.832232
O O1 0.783366 0.495634 0.515467
O O2 0.750119 0.195618 0.429694
O O3 0.766893 0.060810 0.551967
O O4 0.965911 0.200748 0.398313
O O5 0.500000 0.500000 0.500000
O O6 0.595396 0.768462 0.558870
O O7 0.352843 0.718364 0.639928
O O8 0.500000 0.000000 0.500000
O O9 0.546602 0.436458 0.663071
O O10 0.616578 0.146041 0.727456
O O11 0.690094 0.744136 0.653112
O O12 0.862281 0.922452 0.766783
O O13 0.869118 0.496808 0.800624
O O14 0.013877 0.779731 0.170877
O O15 0.147135 0.937413 0.358346
#
# Coordination Sequence:
#
# PCOD8122327 Si02
#       8
#     4   4   2   4   4   2   4   4
#     4  11  23  49  67 109 144 192 257 313 393 460
#     4  12  29  48  80 120 154 206 260 325 400 477
#     4  10  26  48  64 110 146 198 258 316 392 472
#     4  11  26  46  75 103 157 196 257 328 390 480
#     4  12  26  46  73 109 152 198 260 319 400 462
#     4  12  26  46  76 104 154 202 264 328 386 476
#     4  11  27  45  76 103 151 203 254 327 398 476
#     4  12  27  47  74 108 148 203 260 329 395 480
#
# _framework density 23.513539999999999
#
# number of rings (size 3 to 8) (size 9 to 14) (size 15 to 20)
#    0.000    0.571    4.286    1.714   12.000    1.714 
#    0.000    0.000    0.000    0.000    0.000    0.000 
#    0.000    0.000    0.000    0.000    0.000    0.000 
#
# Total GULP energy -346870.585599 kJ/mol
# GULP energy per Si atom -12388.235200 kJ/mol
# Density = 2.346002 g / cm^3
# Si number density = 23.513540 Si / 1000 Ang^3
#
#
#
# Elastic Constant Matrix: (Units=GPa)
#
#
# Indices 1 2 3 4 5 6 
#
# 1 128.6429 48.1569 24.8013 0.0000 -5.4991 0.0000
# 2 48.1569 112.3807 41.2079 0.0000 -4.4732 0.0000
# 3 24.8013 41.2079 109.1789 0.0000 -8.0570 0.0000
# 4 0.0000 0.0000 0.0000 22.1158 0.0000 -1.7495
# 5 -5.4991 -4.4732 -8.0570 0.0000 44.5849 0.0000
# 6 0.0000 0.0000 0.0000 -1.7495 0.0000 28.8132
#
#
#
# Elastic Compliance Matrix: (Units=1/GPa)
#
#
# Indices 1 2 3 4 5 6 
#
# 1 0.009324 -0.003726 -0.000663 0.000000 0.000656 0.000000
# 2 -0.003726 0.011822 -0.003610 0.000000 0.000074 0.000000
# 3 -0.000663 -0.003610 0.010784 0.000000 0.001505 0.000000
# 4 0.000000 0.000000 0.000000 0.045435 0.000000 0.002759
# 5 0.000656 0.000074 0.001505 0.000000 0.022789 0.000000
# 6 0.000000 0.000000 0.000000 0.002759 0.000000 0.034874
#
#
# Mechanical properties :
#
#
# Convention : Reuss Voigt Hill
#
# Bulk Modulus (GPa) = 62.77264 64.28161 63.52713
# Shear Modulus (GPa) = 31.98223 34.83855 33.41039
#
# Velocity S-wave (km/s) = 3.69204 3.85338 3.77357
# Velocity P-wave (km/s) = 6.70293 6.86990 6.78693
#
# Compressibility (1/GPa) = 0.01593051
#
# Stress axis : x y z
#
# Youngs Moduli (GPa) = 107.24664 84.58974 92.73400
#
# Poissons Ratio (x) = 0.31520 0.06151
# Poissons Ratio (y) = 0.39963 0.33477
# Poissons Ratio (z) = 0.07113 0.30537
#
# Static dielectric constant tensor:
#      x y z
#    x 4.752430 0.000000 -0.178430 
#    y 0.000000 4.349220 0.000000 
#    z -0.178430 0.000000 4.289460 
# 
# 
# High freq. dielectric constant tensor:
#      x y z
#    x 1.930780 0.000000 -0.009430 
#    y 0.000000 1.931580 0.000000 
#    z -0.009430 0.000000 1.941720 
# 
# From -- ./inp_files/79296.got.cif
#   From: 2010.06.25/outbox.cif.g09.slc.cpg/sg13_40_cif.got.tgz:79296.got - 2010.06.28 04:50:58.
