data_PCOD8122846
_publ_section_title
;
Structure prediction by ZEFSAII (Michael W. Deem and Ramdas Pophale) SiO2 
 PCOD8122846
Probable space group: P 2/C
;
_chemical_formula_sum "Si O2"
_cell_formula_units_Z 28
_cell_length_a 25.726803
_cell_length_b 9.486194
_cell_length_c 8.942894
_cell_angle_alpha 90.000000
_cell_angle_beta 141.736247
_cell_angle_gamma 90.000000
_cell_volume 1351.589061
_symmetry_space_group_name_H-M "P 2/C"
_symmetry_group_IT_number 13
_symmetry_cell_setting 'monoclinic'
loop_
_space_group_symop_operation_xyz
x,y,z
-x,y,1/2-z
-x,-y,-z
x,-y,1/2+z
loop_
_atom_site_type_symbol
_atom_site_label
_atom_site_fract_x
_atom_site_fract_y
_atom_site_fract_z
Si Si1 0.063314 0.019502 0.515531
Si Si2 0.643948 0.163762 0.401526
Si Si3 0.935369 0.477598 0.485357
Si Si4 0.170711 0.776530 0.832430
Si Si5 0.498972 0.656563 0.428204
Si Si6 0.357650 0.146359 0.747956
Si Si7 0.170122 0.750352 0.170870
O O1 0.131304 0.140468 0.701895
O O2 0.000000 0.073097 0.250000
O O3 0.115237 0.877394 0.601557
O O4 0.000000 0.000000 0.500000
O O5 0.623053 0.143363 0.530415
O O6 0.730524 0.251217 0.573721
O O7 0.639782 0.011434 0.312710
O O8 0.579390 0.263609 0.172435
O O9 0.858783 0.380101 0.265659
O O10 0.882919 0.608895 0.430331
O O11 0.000000 0.500000 0.500000
O O12 0.000000 0.412099 0.750000
O O13 0.267327 0.788888 0.007724
O O14 0.156470 0.813662 0.974105
O O15 0.500000 0.647630 0.250000
O O16 0.500000 0.500000 0.500000
O O17 0.419919 0.748104 0.304067
#
# Coordination Sequence:
#
# PCOD8122846 Si02
#       7
#     4   4   4   4   4   4   4
#     4  12  22  39  67  93 133 178 228 281 334 390
#     4  11  24  46  74 105 141 183 224 286 341 412
#     4  12  24  45  65  91 135 186 234 285 346 400
#     4  11  24  43  65 100 134 179 229 282 338 402
#     4  12  27  50  77 108 141 179 222 273 342 416
#     4  11  24  46  73 106 142 179 231 279 345 410
#     4  11  24  44  64  98 140 174 228 286 339 396
#
# _framework density 20.716356000000001
#
# number of rings (size 3 to 8) (size 9 to 14) (size 15 to 20)
#    0.000    0.571    4.286    4.286    2.000    0.000 
#    7.714    0.000    0.000    0.000    0.000    0.000 
#    0.000    0.000    0.000    0.000    0.000    0.000 
#
# Total GULP energy -346892.734433 kJ/mol
# GULP energy per Si atom -12389.026230 kJ/mol
# Density = 2.066920 g / cm^3
# Si number density = 20.716356 Si / 1000 Ang^3
#
#
#
# Elastic Constant Matrix: (Units=GPa)
#
#
# Indices 1 2 3 4 5 6 
#
# 1 129.8338 53.6248 77.5653 0.0000 14.0560 0.0000
# 2 53.6248 125.3164 59.7755 0.0000 18.9474 0.0000
# 3 77.5653 59.7755 133.8971 0.0000 13.7930 0.0000
# 4 0.0000 0.0000 0.0000 44.1066 0.0000 6.3293
# 5 14.0560 18.9474 13.7930 0.0000 42.9049 0.0000
# 6 0.0000 0.0000 0.0000 6.3293 0.0000 40.8968
#
#
#
# Elastic Compliance Matrix: (Units=1/GPa)
#
#
# Indices 1 2 3 4 5 6 
#
# 1 0.012358 -0.002235 -0.006046 0.000000 -0.001118 0.000000
# 2 -0.002235 0.010965 -0.003286 0.000000 -0.003054 0.000000
# 3 -0.006046 -0.003286 0.012498 0.000000 -0.000586 0.000000
# 4 0.000000 0.000000 0.000000 0.023187 0.000000 -0.003588
# 5 -0.001118 -0.003054 -0.000586 0.000000 0.025211 0.000000
# 6 0.000000 0.000000 0.000000 -0.003588 0.000000 0.025007
#
#
# Mechanical properties :
#
#
# Convention : Reuss Voigt Hill
#
# Bulk Modulus (GPa) = 78.81745 85.66428 82.24086
# Shear Modulus (GPa) = 36.60576 38.78711 37.69644
#
# Velocity S-wave (km/s) = 4.20813 4.33170 4.27036
# Velocity P-wave (km/s) = 7.85746 8.15223 8.00621
#
# Compressibility (1/GPa) = 0.01268755
#
# Stress axis : x y z
#
# Youngs Moduli (GPa) = 80.91602 91.19609 80.01251
#
# Poissons Ratio (x) = 0.20386 0.48376
# Poissons Ratio (y) = 0.18088 0.26290
# Poissons Ratio (z) = 0.48922 0.29964
#
# Static dielectric constant tensor:
#      x y z
#    x 3.968820 0.000000 0.042770 
#    y 0.000000 3.759260 0.000000 
#    z 0.042770 0.000000 3.916130 
# 
# 
# High freq. dielectric constant tensor:
#      x y z
#    x 1.827840 0.000000 0.009780 
#    y 0.000000 1.815380 0.000000 
#    z 0.009780 0.000000 1.827310 
# 
# From -- ./inp_files/24583.got.cif
#   From: 2010.06.25/outbox.cif.g09.slc.cpg/sg13_13_cif.got.tgz:24583.got - 2010.06.28 04:50:58.
