data_PCOD8122115
_publ_section_title
;
Structure prediction by ZEFSAII (Michael W. Deem and Ramdas Pophale) SiO2 
 PCOD8122115
Probable space group: P 2/C
;
_chemical_formula_sum "Si O2"
_cell_formula_units_Z 30
_cell_length_a 29.190761
_cell_length_b 5.503360
_cell_length_c 9.056659
_cell_angle_alpha 90.000000
_cell_angle_beta 116.541137
_cell_angle_gamma 90.000000
_cell_volume 1301.598189
_symmetry_space_group_name_H-M "P 2/C"
_symmetry_group_IT_number 13
_symmetry_cell_setting 'monoclinic'
loop_
_space_group_symop_operation_xyz
x,y,z
-x,y,1/2-z
-x,-y,-z
x,-y,1/2+z
loop_
_atom_site_type_symbol
_atom_site_label
_atom_site_fract_x
_atom_site_fract_y
_atom_site_fract_z
Si Si1 0.758731 0.398522 0.286545
Si Si2 0.559794 0.727226 0.837249
Si Si3 0.000000 0.016219 0.750000
Si Si4 0.405535 0.774669 0.272811
Si Si5 0.154791 0.704172 0.169551
Si Si6 0.288698 0.242542 0.560966
Si Si7 0.044070 0.693505 0.062804
Si Si8 0.188296 0.013926 0.973679
O O1 0.792483 0.562318 0.220959
O O2 0.726690 0.519359 0.370115
O O3 0.807757 0.246705 0.415394
O O4 0.715862 0.275669 0.122263
O O5 0.500000 0.675634 0.750000
O O6 0.584310 0.483852 0.796568
O O7 0.569200 0.984253 0.765273
O O8 0.577992 0.750696 0.032847
O O9 0.959202 0.171676 0.784999
O O10 0.964117 0.867146 0.588340
O O11 0.345577 0.835353 0.183096
O O12 0.100437 0.573256 0.124444
O O13 0.157898 0.940176 0.279634
O O14 0.157817 0.791387 0.003974
O O15 0.249213 0.031569 0.544476
O O16 0.000000 0.500000 0.000000
#
# Coordination Sequence:
#
# PCOD8122115 Si02
#       8
#     4   4   2   4   4   4   4   4
#     4  11  23  41  63  94 132 173 213 279 330 422
#     4  12  26  49  73 111 151 201 258 312 375 442
#     4  10  24  44  64  96 120 168 206 280 330 388
#     4  12  27  44  78 107 148 204 248 319 375 441
#     4  11  24  41  66  93 122 176 211 265 345 403
#     4  11  25  41  66  98 137 172 233 274 350 411
#     4  11  24  44  67  94 130 164 220 278 331 406
#     4  11  23  41  63  93 129 168 214 274 323 418
#
# _framework density 23.048586
#
# number of rings (size 3 to 8) (size 9 to 14) (size 15 to 20)
#    0.000    0.800    2.667    4.000    3.733    4.267 
#    0.000    0.000    0.000    0.000    0.000    0.000 
#    0.000    0.000    0.000    0.000    0.000    0.000 
#
# Total GULP energy -371682.492126 kJ/mol
# GULP energy per Si atom -12389.416404 kJ/mol
# Density = 2.299613 g / cm^3
# Si number density = 23.048586 Si / 1000 Ang^3
#
#
#
# Elastic Constant Matrix: (Units=GPa)
#
#
# Indices 1 2 3 4 5 6 
#
# 1 119.1605 20.3560 24.8196 0.0000 13.1326 0.0000
# 2 20.3560 86.4320 15.0447 0.0000 -11.3016 0.0000
# 3 24.8196 15.0447 103.8949 0.0000 -20.4708 0.0000
# 4 0.0000 0.0000 0.0000 19.8345 0.0000 5.0819
# 5 13.1326 -11.3016 -20.4708 0.0000 38.6571 0.0000
# 6 0.0000 0.0000 0.0000 5.0819 0.0000 29.8821
#
#
#
# Elastic Compliance Matrix: (Units=1/GPa)
#
#
# Indices 1 2 3 4 5 6 
#
# 1 0.010159 -0.002606 -0.003215 0.000000 -0.005916 0.000000
# 2 -0.002606 0.012827 -0.000359 0.000000 0.004446 0.000000
# 3 -0.003215 -0.000359 0.011879 0.000000 0.007278 0.000000
# 4 0.000000 0.000000 0.000000 0.052714 0.000000 -0.008965
# 5 -0.005916 0.004446 0.007278 0.000000 0.033032 0.000000
# 6 0.000000 0.000000 0.000000 -0.008965 0.000000 0.034990
#
#
# Mechanical properties :
#
#
# Convention : Reuss Voigt Hill
#
# Bulk Modulus (GPa) = 44.43534 47.76977 46.10256
# Shear Modulus (GPa) = 28.49598 34.29254 31.39426
#
# Velocity S-wave (km/s) = 3.51998 3.86143 3.69465
# Velocity P-wave (km/s) = 5.98675 6.37586 6.18437
#
# Compressibility (1/GPa) = 0.02250461
#
# Stress axis : x y z
#
# Youngs Moduli (GPa) = 98.43562 77.95802 84.18139
#
# Poissons Ratio (x) = 0.20320 0.27065
# Poissons Ratio (y) = 0.25657 0.03021
# Poissons Ratio (z) = 0.31647 0.02798
#
# Static dielectric constant tensor:
#      x y z
#    x 4.182150 0.000000 -0.173110 
#    y 0.000000 4.030190 0.000000 
#    z -0.173110 0.000000 4.278540 
# 
# 
# High freq. dielectric constant tensor:
#      x y z
#    x 1.916470 0.000000 -0.011070 
#    y 0.000000 1.909460 0.000000 
#    z -0.011070 0.000000 1.927820 
# 
# From -- ./inp_files/24788.got.cif
#   From: 2010.06.25/outbox.cif.g09.slc.cpg/sg13_13_cif.got.tgz:24788.got - 2010.06.28 04:50:58.
