data_PCOD8122919
_publ_section_title
;
Structure prediction by ZEFSAII (Michael W. Deem and Ramdas Pophale) SiO2 
 PCOD8122919
Probable space group: P 2/C
;
_chemical_formula_sum "Si O2"
_cell_formula_units_Z 20
_cell_length_a 10.537552
_cell_length_b 12.287005
_cell_length_c 10.025241
_cell_angle_alpha 90.000000
_cell_angle_beta 45.553520
_cell_angle_gamma 90.000000
_cell_volume 926.661083
_symmetry_space_group_name_H-M "P 2/C"
_symmetry_group_IT_number 13
_symmetry_cell_setting 'monoclinic'
loop_
_space_group_symop_operation_xyz
x,y,z
-x,y,1/2-z
-x,-y,-z
x,-y,1/2+z
loop_
_atom_site_type_symbol
_atom_site_label
_atom_site_fract_x
_atom_site_fract_y
_atom_site_fract_z
Si Si1 0.841288 0.679696 0.965751
Si Si2 0.711900 0.086981 0.571451
Si Si3 0.162902 0.710951 0.220973
Si Si4 0.385449 0.519606 0.953295
Si Si5 0.686406 0.064583 0.871680
O O1 0.000000 0.646940 0.750000
O O2 0.770255 0.796898 0.972412
O O3 0.894505 0.684053 0.083625
O O4 0.687222 0.592779 0.054108
O O5 0.500000 0.088180 0.750000
O O6 0.795272 0.054254 0.653247
O O7 0.788528 0.996067 0.415081
O O8 0.318187 0.804295 0.099159
O O9 0.000000 0.752928 0.250000
O O10 0.227870 0.600812 0.104966
O O11 0.500000 0.573386 0.750000
O O12 0.500000 0.500000 0.000000
O O13 0.500000 0.000000 0.000000
#
# Coordination Sequence:
#
# PCOD8122919 Si02
#       5
#     4   4   4   4   4
#     4  11  25  43  65  94 136 181 216 278 344 396
#     4   9  19  38  64  91 125 167 217 270 322 394
#     4  11  26  45  66 101 140 174 226 283 338 402
#     4  12  26  44  71  98 130 176 232 275 335 407
#     4   9  20  38  65  93 128 169 217 270 325 396
#
# _framework density 21.582864000000001
#
# number of rings (size 3 to 8) (size 9 to 14) (size 15 to 20)
#    0.000    1.600    2.000    1.200    8.400    6.400 
#    0.000    4.000    0.000    0.000    0.000    0.000 
#    0.000    0.000    0.000    0.000    0.000    0.000 
#
# Total GULP energy -247810.662780 kJ/mol
# GULP energy per Si atom -12390.533139 kJ/mol
# Density = 2.153374 g / cm^3
# Si number density = 21.582864 Si / 1000 Ang^3
#
#
#
# Elastic Constant Matrix: (Units=GPa)
#
#
# Indices 1 2 3 4 5 6 
#
# 1 116.9140 43.1376 42.4007 0.0000 28.9218 0.0000
# 2 43.1376 126.1687 43.3996 0.0000 21.4868 0.0000
# 3 42.4007 43.3996 103.0895 0.0000 22.6411 0.0000
# 4 0.0000 0.0000 0.0000 39.9422 0.0000 5.1580
# 5 28.9218 21.4868 22.6411 0.0000 37.1110 0.0000
# 6 0.0000 0.0000 0.0000 5.1580 0.0000 31.8536
#
#
#
# Elastic Compliance Matrix: (Units=1/GPa)
#
#
# Indices 1 2 3 4 5 6 
#
# 1 0.011851 -0.002061 -0.002587 0.000000 -0.006464 0.000000
# 2 -0.002061 0.010025 -0.002830 0.000000 -0.002472 0.000000
# 3 -0.002587 -0.002830 0.012879 0.000000 -0.004203 0.000000
# 4 0.000000 0.000000 0.000000 0.025571 0.000000 -0.004141
# 5 -0.006464 -0.002472 -0.004203 0.000000 0.035979 0.000000
# 6 0.000000 0.000000 0.000000 -0.004141 0.000000 0.032064
#
#
# Mechanical properties :
#
#
# Convention : Reuss Voigt Hill
#
# Bulk Modulus (GPa) = 50.50799 67.11645 58.81222
# Shear Modulus (GPa) = 33.35021 36.26365 34.80693
#
# Velocity S-wave (km/s) = 3.93519 4.10348 4.02021
# Velocity P-wave (km/s) = 6.64081 7.32229 6.98986
#
# Compressibility (1/GPa) = 0.01979885
#
# Stress axis : x y z
#
# Youngs Moduli (GPa) = 84.38034 99.75122 77.64801
#
# Poissons Ratio (x) = 0.20561 0.20087
# Poissons Ratio (y) = 0.17393 0.21973
# Poissons Ratio (z) = 0.21828 0.28228
#
# Static dielectric constant tensor:
#      x y z
#    x 4.850740 0.000000 0.833160 
#    y 0.000000 4.083550 0.000000 
#    z 0.833160 0.000000 4.165980 
# 
# 
# High freq. dielectric constant tensor:
#      x y z
#    x 1.854040 0.000000 0.028260 
#    y 0.000000 1.856280 0.000000 
#    z 0.028260 0.000000 1.839320 
# 
# From -- ./inp_files/33584.got.cif
#   From: 2010.06.25/outbox.cif.g09.slc.cpg/sg13_17_cif.got.tgz:33584.got - 2010.06.28 04:50:58.
