data_PCOD8122328
_publ_section_title
;
Structure prediction by ZEFSAII (Michael W. Deem and Ramdas Pophale) SiO2 
 PCOD8122328
Probable space group: P 2/C
;
_chemical_formula_sum "Si O2"
_cell_formula_units_Z 18
_cell_length_a 10.335848
_cell_length_b 4.742665
_cell_length_c 16.482950
_cell_angle_alpha 90.000000
_cell_angle_beta 60.193333
_cell_angle_gamma 90.000000
_cell_volume 701.095073
_symmetry_space_group_name_H-M "P 2/C"
_symmetry_group_IT_number 13
_symmetry_cell_setting 'monoclinic'
loop_
_space_group_symop_operation_xyz
x,y,z
-x,y,1/2-z
-x,-y,-z
x,-y,1/2+z
loop_
_atom_site_type_symbol
_atom_site_label
_atom_site_fract_x
_atom_site_fract_y
_atom_site_fract_z
Si Si1 0.288340 0.859642 0.443455
Si Si2 0.230466 0.377751 0.566180
Si Si3 0.252008 0.969186 0.779708
Si Si4 0.000000 0.920584 0.250000
Si Si5 0.407548 0.526683 0.161227
O O1 0.179751 0.630181 0.520729
O O2 0.434397 0.676544 0.375884
O O3 0.316830 0.122036 0.494173
O O4 0.216596 0.005515 0.386222
O O5 0.085894 0.273883 0.658460
O O6 0.360053 0.510864 0.582471
O O7 0.394869 0.771988 0.713007
O O8 0.108924 0.876777 0.769458
O O9 0.282273 0.285922 0.742687
#
# Coordination Sequence:
#
# PCOD8122328 Si02
#       5
#     4   4   4   2   4
#     4  12  24  41  69 107 132 173 235 288 338 393
#     4  11  24  42  69  97 140 182 226 286 332 410
#     4  11  25  43  71  99 140 183 221 281 336 413
#     4  10  26  48  66  96 140 194 232 264 350 406
#     4  11  23  44  68 100 140 180 220 276 355 409
#
# _framework density 25.674121
#
# number of rings (size 3 to 8) (size 9 to 14) (size 15 to 20)
#    0.000    0.889    0.000    7.333    0.000   11.556 
#    0.000    0.000    0.000    0.000    0.000    0.000 
#    0.000    0.000    0.000    0.000    0.000    0.000 
#
# Total GULP energy -223111.419310 kJ/mol
# GULP energy per Si atom -12395.078851 kJ/mol
# Density = 2.561569 g / cm^3
# Si number density = 25.674121 Si / 1000 Ang^3
#
#
#
# Elastic Constant Matrix: (Units=GPa)
#
#
# Indices 1 2 3 4 5 6 
#
# 1 109.3161 26.8033 54.5859 0.0000 20.6448 0.0000
# 2 26.8033 134.0511 53.8289 0.0000 31.4931 0.0000
# 3 54.5859 53.8289 133.0189 0.0000 30.5634 0.0000
# 4 0.0000 0.0000 0.0000 55.5453 0.0000 6.9446
# 5 20.6448 31.4931 30.5634 0.0000 28.6070 0.0000
# 6 0.0000 0.0000 0.0000 6.9446 0.0000 22.3655
#
#
#
# Elastic Compliance Matrix: (Units=1/GPa)
#
#
# Indices 1 2 3 4 5 6 
#
# 1 0.011932 0.000309 -0.003929 0.000000 -0.004753 0.000000
# 2 0.000309 0.010499 -0.002211 0.000000 -0.009418 0.000000
# 3 -0.003929 -0.002211 0.011682 0.000000 -0.007211 0.000000
# 4 0.000000 0.000000 0.000000 0.018730 0.000000 -0.005816
# 5 -0.004753 -0.009418 -0.007211 0.000000 0.056459 0.000000
# 6 0.000000 0.000000 0.000000 -0.005816 0.000000 0.046518
#
#
# Mechanical properties :
#
#
# Convention : Reuss Voigt Hill
#
# Bulk Modulus (GPa) = 44.54628 71.86912 58.20770
# Shear Modulus (GPa) = 28.57714 37.38144 32.97929
#
# Velocity S-wave (km/s) = 3.33989 3.81989 3.58793
# Velocity P-wave (km/s) = 5.67992 6.89268 6.31548
#
# Compressibility (1/GPa) = 0.02244857
#
# Stress axis : x y z
#
# Youngs Moduli (GPa) = 83.81066 95.24986 85.60388
#
# Poissons Ratio (x) = -0.02940 0.33636
# Poissons Ratio (y) = -0.02586 0.18928
# Poissons Ratio (z) = 0.32931 0.21061
#
# Static dielectric constant tensor:
#      x y z
#    x 4.687700 0.000000 0.318280 
#    y 0.000000 4.697570 0.000000 
#    z 0.318280 0.000000 4.866350 
# 
# 
# High freq. dielectric constant tensor:
#      x y z
#    x 1.999980 0.000000 0.018600 
#    y 0.000000 2.034510 0.000000 
#    z 0.018600 0.000000 2.040750 
# 
# From -- ./inp_files/65013.got.cif
#   From: 2010.06.25/outbox.cif.g09.slc.cpg/sg13_33_cif.got.tgz:65013.got - 2010.06.28 04:50:58.
