data_PCOD8122616
_publ_section_title
;
Structure prediction by ZEFSAII (Michael W. Deem and Ramdas Pophale) SiO2 
 PCOD8122616
Probable space group: P 2/C
;
_chemical_formula_sum "Si O2"
_cell_formula_units_Z 18
_cell_length_a 8.823077
_cell_length_b 10.650832
_cell_length_c 7.819251
_cell_angle_alpha 90.000000
_cell_angle_beta 104.280318
_cell_angle_gamma 90.000000
_cell_volume 712.094425
_symmetry_space_group_name_H-M "P 2/C"
_symmetry_group_IT_number 13
_symmetry_cell_setting 'monoclinic'
loop_
_space_group_symop_operation_xyz
x,y,z
-x,y,1/2-z
-x,-y,-z
x,-y,1/2+z
loop_
_atom_site_type_symbol
_atom_site_label
_atom_site_fract_x
_atom_site_fract_y
_atom_site_fract_z
Si Si1 0.715374 0.334856 0.999772
Si Si2 0.533650 0.860167 0.956702
Si Si3 0.000000 0.199905 0.250000
Si Si4 0.833701 0.571155 0.177747
Si Si5 0.111436 0.172283 0.932734
O O1 0.559107 0.249263 0.965191
O O2 0.698710 0.477399 0.070702
O O3 0.846270 0.274691 0.154623
O O4 0.767884 0.348683 0.818645
O O5 0.500000 0.833577 0.750000
O O6 0.712960 0.862742 0.058002
O O7 0.500000 0.000000 0.000000
O O8 0.950585 0.117206 0.402521
O O9 0.886194 0.674961 0.051466
O O10 0.000000 0.497256 0.250000
O O11 0.000000 0.122614 0.750000
#
# Coordination Sequence:
#
# PCOD8122616 Si02
#       5
#     4   4   2   4   4
#     4  12  24  44  77 115 159 200 256 320 403 465
#     4  12  31  54  77 110 159 209 272 335 385 456
#     4  12  20  44  76 116 152 202 252 316 384 484
#     4  11  22  41  76 118 162 199 246 325 402 482
#     4  11  25  49  80 114 155 208 261 317 402 475
#
# _framework density 25.277545
#
# number of rings (size 3 to 8) (size 9 to 14) (size 15 to 20)
#    0.000    0.444    7.778    2.000    3.111    0.889 
#    2.000    2.222    2.444    0.000    0.000    0.000 
#    0.000    0.000    0.000    0.000    0.000    0.000 
#
# Total GULP energy -222992.485834 kJ/mol
# GULP energy per Si atom -12388.471435 kJ/mol
# Density = 2.522001 g / cm^3
# Si number density = 25.277545 Si / 1000 Ang^3
#
#
#
# Elastic Constant Matrix: (Units=GPa)
#
#
# Indices 1 2 3 4 5 6 
#
# 1 192.6696 47.4370 80.3235 0.0000 4.3922 0.0000
# 2 47.4370 83.7141 36.1588 0.0000 -8.1409 0.0000
# 3 80.3235 36.1588 129.8449 0.0000 -13.8282 0.0000
# 4 0.0000 0.0000 0.0000 28.7116 0.0000 -2.5427
# 5 4.3922 -8.1409 -13.8282 0.0000 50.8450 0.0000
# 6 0.0000 0.0000 0.0000 -2.5427 0.0000 1.0757
#
#
#
# Elastic Compliance Matrix: (Units=1/GPa)
#
#
# Indices 1 2 3 4 5 6 
#
# 1 0.007679 -0.002745 -0.004226 0.000000 -0.002252 0.000000
# 2 -0.002745 0.014629 -0.002164 0.000000 0.001991 0.000000
# 3 -0.004226 -0.002164 0.011246 0.000000 0.003077 0.000000
# 4 0.000000 0.000000 0.000000 0.044050 0.000000 0.104125
# 5 -0.002252 0.001991 0.003077 0.000000 0.021018 0.000000
# 6 0.000000 0.000000 0.000000 0.104125 0.000000 1.175774
#
#
# Mechanical properties :
#
#
# Convention : Reuss Voigt Hill
#
# Bulk Modulus (GPa) = 65.42395 81.56303 73.49349
# Shear Modulus (GPa) = 3.85279 32.28040 18.06660
#
# Velocity S-wave (km/s) = 1.23592 3.57744 2.67634
# Velocity P-wave (km/s) = 5.28915 7.02860 6.21998
#
# Compressibility (1/GPa) = 0.01528492
#
# Stress axis : x y z
#
# Youngs Moduli (GPa) = 130.22188 68.35659 88.92155
#
# Poissons Ratio (x) = 0.18765 0.37577
# Poissons Ratio (y) = 0.35749 0.19239
# Poissons Ratio (z) = 0.55029 0.14790
#
# Static dielectric constant tensor:
#      x y z
#    x 4.597780 0.000000 0.638510 
#    y 0.000000 4.701690 0.000000 
#    z 0.638510 0.000000 7.271310 
# 
# 
# High freq. dielectric constant tensor:
#      x y z
#    x 2.010940 0.000000 -0.002050 
#    y 0.000000 1.999650 0.000000 
#    z -0.002050 0.000000 2.019550 
# 
# From -- ./inp_files/11843.got.cif
#   From: 2010.06.25/outbox.cif.g09.slc.cpg/sg13_6_cif.got.tgz:11843.got - 2010.06.28 04:50:58.
