data_PCOD8122383
_publ_section_title
;
Structure prediction by ZEFSAII (Michael W. Deem and Ramdas Pophale) SiO2 
 PCOD8122383
Probable space group: P 2/C
;
_chemical_formula_sum "Si O2"
_cell_formula_units_Z 26
_cell_length_a 9.901257
_cell_length_b 9.134906
_cell_length_c 27.689582
_cell_angle_alpha 90.000000
_cell_angle_beta 146.381294
_cell_angle_gamma 90.000000
_cell_volume 1386.617486
_symmetry_space_group_name_H-M "P 2/C"
_symmetry_group_IT_number 13
_symmetry_cell_setting 'monoclinic'
loop_
_space_group_symop_operation_xyz
x,y,z
-x,y,1/2-z
-x,-y,-z
x,-y,1/2+z
loop_
_atom_site_type_symbol
_atom_site_label
_atom_site_fract_x
_atom_site_fract_y
_atom_site_fract_z
Si Si1 0.986534 0.440090 0.106699
Si Si2 0.493965 0.344503 0.921486
Si Si3 0.790856 0.636057 0.650796
Si Si4 0.582733 0.157524 0.508258
Si Si5 0.496921 0.262577 0.816590
Si Si6 0.500000 0.531862 0.750000
Si Si7 0.912740 0.777757 0.374483
O O1 0.254808 0.369211 0.175916
O O2 0.999774 0.610403 0.098757
O O3 0.925273 0.419192 0.143729
O O4 0.784045 0.364104 0.013486
O O5 0.366357 0.500766 0.875924
O O6 0.380508 0.261802 0.933961
O O7 0.461075 0.250478 0.863209
O O8 0.613225 0.772468 0.586788
O O9 0.000000 0.687224 0.750000
O O10 0.838661 0.130395 0.556484
O O11 0.500000 0.000000 0.500000
O O12 0.493213 0.429641 0.795846
O O13 0.263954 0.182688 0.723235
O O14 0.755349 0.189646 0.876412
#
# Coordination Sequence:
#
# PCOD8122383 Si02
#       7
#     4   4   4   4   4   2   4
#     4   9  16  31  50  78 113 142 172 227 280 329
#     4  11  19  33  59  84 106 143 189 226 284 330
#     4  11  20  35  57  82 114 138 188 234 282 323
#     4  11  23  39  55  77 116 155 184 229 274 331
#     4   8  18  29  54  86 104 137 181 231 267 340
#     4   8  16  28  46  78 122 130 172 220 288 318
#     4   9  16  36  51  79 115 137 179 225 282 315
#
# _framework density 18.750665999999999
#
# number of rings (size 3 to 8) (size 9 to 14) (size 15 to 20)
#    0.000    2.769    3.077    2.769    0.000    2.462 
#    5.538    0.769    0.000    7.385    0.000    0.000 
#    0.000    0.000    0.000    0.000    0.000    0.000 
#
# Total GULP energy -322160.932383 kJ/mol
# GULP energy per Si atom -12390.805092 kJ/mol
# Density = 1.870799 g / cm^3
# Si number density = 18.750666 Si / 1000 Ang^3
#
#
#
# Elastic Constant Matrix: (Units=GPa)
#
#
# Indices 1 2 3 4 5 6 
#
# 1 77.6625 11.4038 54.8071 0.0000 14.2867 0.0000
# 2 11.4038 55.3358 24.0286 0.0000 10.3652 0.0000
# 3 54.8071 24.0286 114.1807 0.0000 12.6164 0.0000
# 4 0.0000 0.0000 0.0000 4.6475 0.0000 2.0164
# 5 14.2867 10.3652 12.6164 0.0000 47.4899 0.0000
# 6 0.0000 0.0000 0.0000 2.0164 0.0000 12.6609
#
#
#
# Elastic Compliance Matrix: (Units=1/GPa)
#
#
# Indices 1 2 3 4 5 6 
#
# 1 0.020065 0.000617 -0.009354 0.000000 -0.003686 0.000000
# 2 0.000617 0.020432 -0.004206 0.000000 -0.003528 0.000000
# 3 -0.009354 -0.004206 0.014136 0.000000 -0.000023 0.000000
# 4 0.000000 0.000000 0.000000 0.231141 0.000000 -0.036811
# 5 -0.003686 -0.003528 -0.000023 0.000000 0.022942 0.000000
# 6 0.000000 0.000000 0.000000 -0.036811 0.000000 0.084846
#
#
# Mechanical properties :
#
#
# Convention : Reuss Voigt Hill
#
# Bulk Modulus (GPa) = 34.78702 47.51758 41.15230
# Shear Modulus (GPa) = 11.65425 23.42230 17.53827
#
# Velocity S-wave (km/s) = 2.49577 3.53816 3.06165
# Velocity P-wave (km/s) = 5.18631 6.48755 5.87308
#
# Compressibility (1/GPa) = 0.02874635
#
# Stress axis : x y z
#
# Youngs Moduli (GPa) = 49.83887 48.94400 70.74343
#
# Poissons Ratio (x) = -0.03020 0.66171
# Poissons Ratio (y) = -0.03076 0.29755
# Poissons Ratio (z) = 0.46618 0.20586
#
# Static dielectric constant tensor:
#      x y z
#    x 3.712540 0.000000 0.425580 
#    y 0.000000 2.865290 0.000000 
#    z 0.425580 0.000000 3.827850 
# 
# 
# High freq. dielectric constant tensor:
#      x y z
#    x 1.735980 0.000000 0.020580 
#    y 0.000000 1.661390 0.000000 
#    z 0.020580 0.000000 1.738090 
# 
# From -- ./inp_files/91329.got.cif
#   From: 2010.06.25/outbox.cif.g09.slc.cpg/sg13_46_cif.got.tgz:91329.got - 2010.06.28 04:50:58.
