data_PCOD8122256
_publ_section_title
;
Structure prediction by ZEFSAII (Michael W. Deem and Ramdas Pophale) SiO2 
 PCOD8122256
Probable space group: P 2/C
;
_chemical_formula_sum "Si O2"
_cell_formula_units_Z 26
_cell_length_a 13.341260
_cell_length_b 9.023387
_cell_length_c 12.034240
_cell_angle_alpha 90.000000
_cell_angle_beta 58.434105
_cell_angle_gamma 90.000000
_cell_volume 1234.367313
_symmetry_space_group_name_H-M "P 2/C"
_symmetry_group_IT_number 13
_symmetry_cell_setting 'monoclinic'
loop_
_space_group_symop_operation_xyz
x,y,z
-x,y,1/2-z
-x,-y,-z
x,-y,1/2+z
loop_
_atom_site_type_symbol
_atom_site_label
_atom_site_fract_x
_atom_site_fract_y
_atom_site_fract_z
Si Si1 0.548681 0.646120 0.914616
Si Si2 0.116222 0.245922 0.536380
Si Si3 0.729454 0.993442 0.150637
Si Si4 0.500000 0.173923 0.250000
Si Si5 0.612729 0.260747 0.607649
Si Si6 0.846060 0.764632 0.228535
Si Si7 0.258636 0.504163 0.843751
O O1 0.457570 0.725708 0.881059
O O2 0.662191 0.616198 0.773134
O O3 0.500000 0.500000 0.000000
O O4 0.579329 0.755082 0.997992
O O5 0.170041 0.104984 0.444156
O O6 0.159086 0.248675 0.637265
O O7 0.153882 0.400902 0.458349
O O8 0.977446 0.225942 0.605357
O O9 0.605921 0.077105 0.237823
O O10 0.711620 0.864003 0.069785
O O11 0.772128 0.911401 0.238293
O O12 0.500000 0.229882 0.750000
O O13 0.664668 0.423716 0.604772
O O14 0.788608 0.617502 0.213269
#
# Coordination Sequence:
#
# PCOD8122256 Si02
#       7
#     4   4   4   2   4   4   4
#     4  12  24  39  65  97 135 171 218 267 331 396
#     4  11  23  44  70  94 129 175 232 269 342 387
#     4  11  25  42  63  96 134 172 219 269 330 398
#     4  12  26  40  64 100 132 178 216 264 336 406
#     4  11  23  40  59  94 134 175 211 264 328 395
#     4  10  25  44  67  96 130 177 219 289 326 392
#     4  11  22  41  66  97 130 169 223 279 328 392
#
# _framework density 21.063421999999999
#
# number of rings (size 3 to 8) (size 9 to 14) (size 15 to 20)
#    0.000    0.923    3.846    2.769    4.308    0.615 
#    0.000    0.000    0.000    7.385    0.000    0.000 
#    0.000    0.000    0.000    0.000    0.000    0.000 
#
# Total GULP energy -322411.424783 kJ/mol
# GULP energy per Si atom -12400.439415 kJ/mol
# Density = 2.101548 g / cm^3
# Si number density = 21.063422 Si / 1000 Ang^3
#
#
#
# Elastic Constant Matrix: (Units=GPa)
#
#
# Indices 1 2 3 4 5 6 
#
# 1 84.1372 22.8629 21.2327 0.0000 9.4712 0.0000
# 2 22.8629 96.3967 20.5192 0.0000 2.9942 0.0000
# 3 21.2327 20.5192 67.2416 0.0000 10.6469 0.0000
# 4 0.0000 0.0000 0.0000 20.8929 0.0000 -10.4319
# 5 9.4712 2.9942 10.6469 0.0000 38.9156 0.0000
# 6 0.0000 0.0000 0.0000 -10.4319 0.0000 30.2299
#
#
#
# Elastic Compliance Matrix: (Units=1/GPa)
#
#
# Indices 1 2 3 4 5 6 
#
# 1 0.013617 -0.002482 -0.003186 0.000000 -0.002251 0.000000
# 2 -0.002482 0.011547 -0.002817 0.000000 0.000486 0.000000
# 3 -0.003186 -0.002817 0.017331 0.000000 -0.003749 0.000000
# 4 0.000000 0.000000 0.000000 0.057827 0.000000 0.019955
# 5 -0.002251 0.000486 -0.003749 0.000000 0.027233 0.000000
# 6 0.000000 0.000000 0.000000 0.019955 0.000000 0.039966
#
#
# Mechanical properties :
#
#
# Convention : Reuss Voigt Hill
#
# Bulk Modulus (GPa) = 39.17590 41.88946 40.53268
# Shear Modulus (GPa) = 25.90686 30.21839 28.06263
#
# Velocity S-wave (km/s) = 3.51086 3.79177 3.65402
# Velocity P-wave (km/s) = 5.92235 6.25304 6.08994
#
# Compressibility (1/GPa) = 0.02552590
#
# Stress axis : x y z
#
# Youngs Moduli (GPa) = 73.43683 86.60345 57.69962
#
# Poissons Ratio (x) = 0.21491 0.18384
# Poissons Ratio (y) = 0.18223 0.16254
# Poissons Ratio (z) = 0.23398 0.24396
#
# Static dielectric constant tensor:
#      x y z
#    x 4.608850 0.000000 0.710100 
#    y 0.000000 4.062750 0.000000 
#    z 0.710100 0.000000 4.324690 
# 
# 
# High freq. dielectric constant tensor:
#      x y z
#    x 1.832490 0.000000 0.009480 
#    y 0.000000 1.843120 0.000000 
#    z 0.009480 0.000000 1.815740 
# 
# From -- ./inp_files/36097.got.cif
#   From: 2010.06.25/outbox.cif.g09.slc.cpg/sg13_19_cif.got.tgz:36097.got - 2010.06.28 04:50:58.
