data_PCOD8122011
_publ_section_title
;
Structure prediction by ZEFSAII (Michael W. Deem and Ramdas Pophale) SiO2 
 PCOD8122011
Probable space group: P 2/C
;
_chemical_formula_sum "Si O2"
_cell_formula_units_Z 26
_cell_length_a 14.408397
_cell_length_b 5.013722
_cell_length_c 19.597993
_cell_angle_alpha 90.000000
_cell_angle_beta 56.572221
_cell_angle_gamma 90.000000
_cell_volume 1181.560438
_symmetry_space_group_name_H-M "P 2/C"
_symmetry_group_IT_number 13
_symmetry_cell_setting 'monoclinic'
loop_
_space_group_symop_operation_xyz
x,y,z
-x,y,1/2-z
-x,-y,-z
x,-y,1/2+z
loop_
_atom_site_type_symbol
_atom_site_label
_atom_site_fract_x
_atom_site_fract_y
_atom_site_fract_z
Si Si1 0.707684 0.434378 0.588533
Si Si2 0.389711 0.107871 0.581189
Si Si3 0.003529 0.035429 0.417826
Si Si4 0.754276 0.059438 0.987445
Si Si5 0.640410 0.387592 0.317282
Si Si6 0.858771 0.550396 0.152031
Si Si7 0.500000 0.524423 0.750000
O O1 0.705653 0.738227 0.563591
O O2 0.816414 0.412522 0.591532
O O3 0.598275 0.351950 0.676059
O O4 0.711440 0.235231 0.523415
O O5 0.292446 0.155570 0.565919
O O6 0.412995 0.382804 0.612694
O O7 0.500000 0.000000 0.500000
O O8 0.343215 0.886819 0.650760
O O9 0.886821 0.957808 0.431046
O O10 0.091102 0.834492 0.347478
O O11 0.000000 0.000000 0.500000
O O12 0.042805 0.333138 0.384132
O O13 0.760280 0.481767 0.243331
O O14 0.558504 0.311053 0.287461
#
# Coordination Sequence:
#
# PCOD8122011 Si02
#       7
#     4   4   4   4   4   4   2
#     4  11  21  38  60  95 122 158 204 263 311 370
#     4  12  25  45  65  91 129 170 209 253 306 382
#     4  12  21  39  63  96 128 160 212 259 312 364
#     4  12  24  38  65  91 125 163 214 248 312 366
#     4  11  25  44  65  93 129 163 210 258 318 365
#     4  11  22  39  63  94 128 160 201 273 314 359
#     4  10  24  40  68  92 122 160 206 258 326 364
#
# _framework density 22.004798000000001
#
# number of rings (size 3 to 8) (size 9 to 14) (size 15 to 20)
#    0.000    0.615    3.077    5.538    0.000    4.923 
#    0.000    4.615    0.000    0.000    0.000    0.000 
#    0.000    0.000    0.000    0.000    0.000    0.000 
#
# Total GULP energy -322410.850191 kJ/mol
# GULP energy per Si atom -12400.417315 kJ/mol
# Density = 2.195471 g / cm^3
# Si number density = 22.004798 Si / 1000 Ang^3
#
#
#
# Elastic Constant Matrix: (Units=GPa)
#
#
# Indices 1 2 3 4 5 6 
#
# 1 138.6683 17.7225 41.2232 0.0000 -2.0719 0.0000
# 2 17.7225 92.2048 13.6304 0.0000 -1.0599 0.0000
# 3 41.2232 13.6304 77.1410 0.0000 -6.3547 0.0000
# 4 0.0000 0.0000 0.0000 32.9244 0.0000 -1.1208
# 5 -2.0719 -1.0599 -6.3547 0.0000 34.5979 0.0000
# 6 0.0000 0.0000 0.0000 -1.1208 0.0000 25.2650
#
#
#
# Elastic Compliance Matrix: (Units=1/GPa)
#
#
# Indices 1 2 3 4 5 6 
#
# 1 0.008667 -0.001007 -0.004481 0.000000 -0.000335 0.000000
# 2 -0.001007 0.011253 -0.001449 0.000000 0.000018 0.000000
# 3 -0.004481 -0.001449 0.015828 0.000000 0.002594 0.000000
# 4 0.000000 0.000000 0.000000 0.030419 0.000000 0.001349
# 5 -0.000335 0.000018 0.002594 0.000000 0.029360 0.000000
# 6 0.000000 0.000000 0.000000 0.001349 0.000000 0.039640
#
#
# Mechanical properties :
#
#
# Convention : Reuss Voigt Hill
#
# Bulk Modulus (GPa) = 45.71642 50.35180 48.03411
# Shear Modulus (GPa) = 31.98286 34.25334 33.11810
#
# Velocity S-wave (km/s) = 3.81655 3.94970 3.88369
# Velocity P-wave (km/s) = 6.34367 6.61302 6.47974
#
# Compressibility (1/GPa) = 0.02187398
#
# Stress axis : x y z
#
# Youngs Moduli (GPa) = 115.37470 88.86210 63.18019
#
# Poissons Ratio (x) = 0.08951 0.28313
# Poissons Ratio (y) = 0.11622 0.09152
# Poissons Ratio (z) = 0.51704 0.12873
#
# Static dielectric constant tensor:
#      x y z
#    x 4.134030 0.000000 -0.073630 
#    y 0.000000 3.957610 0.000000 
#    z -0.073630 0.000000 3.956830 
# 
# 
# High freq. dielectric constant tensor:
#      x y z
#    x 1.869540 0.000000 -0.013520 
#    y 0.000000 1.866180 0.000000 
#    z -0.013520 0.000000 1.865000 
# 
# From -- ./inp_files/79004.got.cif
#   From: 2010.06.25/outbox.cif.g09.slc.cpg/sg13_40_cif.got.tgz:79004.got - 2010.06.28 04:50:58.
