data_PCOD8122112
_publ_section_title
;
Structure prediction by ZEFSAII (Michael W. Deem and Ramdas Pophale) SiO2 
 PCOD8122112
Probable space group: P 2/C
;
_chemical_formula_sum "Si O2"
_cell_formula_units_Z 26
_cell_length_a 15.697008
_cell_length_b 8.818811
_cell_length_c 22.807450
_cell_angle_alpha 90.000000
_cell_angle_beta 157.259737
_cell_angle_gamma 90.000000
_cell_volume 1220.433391
_symmetry_space_group_name_H-M "P 2/C"
_symmetry_group_IT_number 13
_symmetry_cell_setting 'monoclinic'
loop_
_space_group_symop_operation_xyz
x,y,z
-x,y,1/2-z
-x,-y,-z
x,-y,1/2+z
loop_
_atom_site_type_symbol
_atom_site_label
_atom_site_fract_x
_atom_site_fract_y
_atom_site_fract_z
Si Si1 0.000000 0.722707 0.250000
Si Si2 0.763349 0.480194 0.174574
Si Si3 0.246644 0.022045 0.968023
Si Si4 0.500000 0.702235 0.250000
Si Si5 0.000000 0.235898 0.250000
Si Si6 0.130347 0.151349 0.014407
Si Si7 0.921968 0.493063 0.517875
Si Si8 0.682324 0.065494 0.773108
O O1 0.115269 0.627349 0.272946
O O2 0.184866 0.827335 0.395058
O O3 0.823349 0.335943 0.172904
O O4 0.865380 0.466211 0.305475
O O5 0.500000 0.500000 0.000000
O O6 0.226170 0.047163 0.024356
O O7 0.112322 0.871447 0.868834
O O8 0.501013 0.996645 0.112914
O O9 0.718689 0.604392 0.403876
O O10 0.436585 0.805398 0.264523
O O11 0.866692 0.141223 0.850092
O O12 0.184111 0.327347 0.038694
O O13 0.230132 0.082199 0.136957
O O14 0.000000 0.500000 0.500000
#
# Coordination Sequence:
#
# PCOD8122112 Si02
#       8
#     2   4   4   2   2   4   4   4
#     4  10  24  44  64 100 126 184 230 286 336 418
#     4  11  26  46  68  98 146 182 234 286 348 419
#     4  11  22  43  70  95 135 176 234 284 345 408
#     4  12  24  42  68 100 144 184 226 290 352 422
#     4  10  26  42  72 100 130 190 236 278 350 416
#     4  11  24  42  66 100 139 174 232 284 348 419
#     4  12  27  44  72 107 143 185 237 288 359 421
#     4  11  24  42  68 100 139 179 225 292 356 410
#
# _framework density 21.303906999999999
#
# number of rings (size 3 to 8) (size 9 to 14) (size 15 to 20)
#    0.000    0.923    4.615    0.923    4.308    4.923 
#    0.000    3.077    0.000    0.000    0.000    0.000 
#    0.000    0.000    0.000    0.000    0.000    0.000 
#
# Total GULP energy -322317.221186 kJ/mol
# GULP energy per Si atom -12396.816199 kJ/mol
# Density = 2.125542 g / cm^3
# Si number density = 21.303907 Si / 1000 Ang^3
#
#
#
# Elastic Constant Matrix: (Units=GPa)
#
#
# Indices 1 2 3 4 5 6 
#
# 1 62.7858 16.7500 25.8114 0.0000 8.6537 0.0000
# 2 16.7500 123.4361 39.4216 0.0000 9.4859 0.0000
# 3 25.8114 39.4216 145.9305 0.0000 19.1102 0.0000
# 4 0.0000 0.0000 0.0000 -7.5966 0.0000 17.6136
# 5 8.6537 9.4859 19.1102 0.0000 33.0655 0.0000
# 6 0.0000 0.0000 0.0000 17.6136 0.0000 12.8590
#
#
#
# Elastic Compliance Matrix: (Units=1/GPa)
#
#
# Indices 1 2 3 4 5 6 
#
# 1 0.017673 -0.001423 -0.002369 0.000000 -0.002848 0.000000
# 2 -0.001423 0.009029 -0.002052 0.000000 -0.001032 0.000000
# 3 -0.002369 -0.002052 0.008295 0.000000 -0.003586 0.000000
# 4 0.000000 0.000000 0.000000 -0.031523 0.000000 0.043179
# 5 -0.002848 -0.001032 -0.003586 0.000000 0.033357 0.000000
# 6 0.000000 0.000000 0.000000 0.043179 0.000000 0.018623
#
#
# Mechanical properties :
#
#
# Convention : Reuss Voigt Hill
#
# Bulk Modulus (GPa) = 42.89976 55.12427 49.01201
# Shear Modulus (GPa) = 66.74522 24.34354 45.54438
#
# Velocity S-wave (km/s) = 5.60340 3.38402 4.62870
# Velocity P-wave (km/s) = 7.87685 6.41874 7.18488
#
# Compressibility (1/GPa) = 0.02331015
#
# Stress axis : x y z
#
# Youngs Moduli (GPa) = 56.58335 110.75196 120.54731
#
# Poissons Ratio (x) = 0.15759 0.28552
# Poissons Ratio (y) = 0.08051 0.24741
# Poissons Ratio (z) = 0.13402 0.22730
#
# Static dielectric constant tensor:
#      x y z
#    x 4.169860 0.000000 0.362870 
#    y 0.000000 4.018200 0.000000 
#    z 0.362870 0.000000 4.415380 
# 
# 
# High freq. dielectric constant tensor:
#      x y z
#    x 1.825070 0.000000 0.003520 
#    y 0.000000 1.856780 0.000000 
#    z 0.003520 0.000000 1.847930 
# 
# From -- ./inp_files/88090.got.cif
#   From: 2010.06.25/outbox.cif.g09.slc.cpg/sg13_45_cif.got.tgz:88090.got - 2010.06.28 04:50:58.
