data_PCOD8122523
_publ_section_title
;
Structure prediction by ZEFSAII (Michael W. Deem and Ramdas Pophale) SiO2 
 PCOD8122523
Probable space group: P 2/C
;
_chemical_formula_sum "Si O2"
_cell_formula_units_Z 20
_cell_length_a 11.544283
_cell_length_b 10.036274
_cell_length_c 9.404855
_cell_angle_alpha 90.000000
_cell_angle_beta 124.681473
_cell_angle_gamma 90.000000
_cell_volume 896.059189
_symmetry_space_group_name_H-M "P 2/C"
_symmetry_group_IT_number 13
_symmetry_cell_setting 'monoclinic'
loop_
_space_group_symop_operation_xyz
x,y,z
-x,y,1/2-z
-x,-y,-z
x,-y,1/2+z
loop_
_atom_site_type_symbol
_atom_site_label
_atom_site_fract_x
_atom_site_fract_y
_atom_site_fract_z
Si Si1 0.000000 0.272375 0.250000
Si Si2 0.609901 0.593179 0.213254
Si Si3 0.102457 0.879082 0.077575
Si Si4 0.000000 0.311770 0.750000
Si Si5 0.576490 0.899145 0.159745
Si Si6 0.778994 0.531357 0.590730
O O1 0.095504 0.184182 0.418061
O O2 0.115053 0.368393 0.252262
O O3 0.500000 0.528860 0.250000
O O4 0.561355 0.738863 0.121404
O O5 0.745051 0.600650 0.413492
O O6 0.643481 0.498095 0.100019
O O7 0.045169 0.775820 0.150114
O O8 0.258285 0.932387 0.221265
O O9 0.000000 0.000000 0.000000
O O10 0.861051 0.395568 0.613498
O O11 0.500000 0.935911 0.250000
O O12 0.500000 0.000000 0.000000
#
# Coordination Sequence:
#
# PCOD8122523 Si02
#       6
#     2   4   4   2   4   4
#     4  11  23  42  70 108 139 181 236 310 356 403
#     4  11  23  42  67 102 142 186 233 289 362 436
#     4  12  26  43  72 101 144 189 248 294 352 430
#     4  11  23  42  68 102 137 183 242 300 358 415
#     4  11  27  49  70 100 148 194 241 296 362 428
#     4  11  21  42  72 101 143 177 235 304 358 417
#
# _framework density 22.319953000000002
#
# number of rings (size 3 to 8) (size 9 to 14) (size 15 to 20)
#    0.000    0.800    4.000    2.400    5.600    3.200 
#    0.000    7.000    0.000    0.000    0.000    0.000 
#    0.000    0.000    0.000    0.000    0.000    0.000 
#
# Total GULP energy -247791.642736 kJ/mol
# GULP energy per Si atom -12389.582137 kJ/mol
# Density = 2.226915 g / cm^3
# Si number density = 22.319953 Si / 1000 Ang^3
#
#
#
# Elastic Constant Matrix: (Units=GPa)
#
#
# Indices 1 2 3 4 5 6 
#
# 1 136.2580 49.7687 30.4464 0.0000 0.5975 0.0000
# 2 49.7687 122.9815 60.8751 0.0000 -3.0001 0.0000
# 3 30.4464 60.8751 103.0442 0.0000 -12.2614 0.0000
# 4 0.0000 0.0000 0.0000 45.2860 0.0000 5.8089
# 5 0.5975 -3.0001 -12.2614 0.0000 34.5878 0.0000
# 6 0.0000 0.0000 0.0000 5.8089 0.0000 33.9715
#
#
#
# Elastic Compliance Matrix: (Units=1/GPa)
#
#
# Indices 1 2 3 4 5 6 
#
# 1 0.008663 -0.003130 -0.000794 0.000000 -0.000703 0.000000
# 2 -0.003130 0.012695 -0.006721 0.000000 -0.001227 0.000000
# 3 -0.000794 -0.006721 0.014452 0.000000 0.004554 0.000000
# 4 0.000000 0.000000 0.000000 0.022577 0.000000 -0.003861
# 5 -0.000703 -0.001227 0.004554 0.000000 0.030432 0.000000
# 6 0.000000 0.000000 0.000000 -0.003861 0.000000 0.030097
#
#
# Mechanical properties :
#
#
# Convention : Reuss Voigt Hill
#
# Bulk Modulus (GPa) = 68.87383 71.60712 70.24047
# Shear Modulus (GPa) = 34.47225 37.51528 35.99377
#
# Velocity S-wave (km/s) = 3.93422 4.10420 4.02011
# Velocity P-wave (km/s) = 7.18067 7.38993 7.28605
#
# Compressibility (1/GPa) = 0.01451930
#
# Stress axis : x y z
#
# Youngs Moduli (GPa) = 115.43760 78.77305 69.19624
#
# Poissons Ratio (x) = 0.24653 0.05496
# Poissons Ratio (y) = 0.36128 0.46506
# Poissons Ratio (z) = 0.09169 0.52943
#
# Static dielectric constant tensor:
#      x y z
#    x 4.197450 0.000000 0.084500 
#    y 0.000000 1.050410 0.000000 
#    z 0.084500 0.000000 3.760750 
# 
# 
# High freq. dielectric constant tensor:
#      x y z
#    x 1.896310 0.000000 0.014160 
#    y 0.000000 1.879000 0.000000 
#    z 0.014160 0.000000 1.879750 
# 
# From -- ./inp_files/14894.got.cif
#   From: 2010.06.25/outbox.cif.g09.slc.cpg/sg13_8_cif.got.tgz:14894.got - 2010.06.28 04:50:58.
