data_PCOD8122442
_publ_section_title
;
Structure prediction by ZEFSAII (Michael W. Deem and Ramdas Pophale) SiO2 
 PCOD8122442
Probable space group: P 2/C
;
_chemical_formula_sum "Si O2"
_cell_formula_units_Z 24
_cell_length_a 20.105753
_cell_length_b 9.645665
_cell_length_c 8.486824
_cell_angle_alpha 90.000000
_cell_angle_beta 50.776378
_cell_angle_gamma 90.000000
_cell_volume 1275.035318
_symmetry_space_group_name_H-M "P 2/C"
_symmetry_group_IT_number 13
_symmetry_cell_setting 'monoclinic'
loop_
_space_group_symop_operation_xyz
x,y,z
-x,y,1/2-z
-x,-y,-z
x,-y,1/2+z
loop_
_atom_site_type_symbol
_atom_site_label
_atom_site_fract_x
_atom_site_fract_y
_atom_site_fract_z
Si Si1 0.766144 0.638548 0.032950
Si Si2 0.092388 0.870742 0.181946
Si Si3 0.408692 0.658230 0.694872
Si Si4 0.908061 0.166638 0.448348
Si Si5 0.235176 0.670070 0.833286
Si Si6 0.405749 0.352963 0.567334
O O1 0.767626 0.477632 0.076030
O O2 0.675462 0.711108 0.218061
O O3 0.840999 0.712975 0.015662
O O4 0.780891 0.654404 0.826591
O O5 0.086417 0.862379 0.376587
O O6 0.000000 0.831993 0.250000
O O7 0.120312 0.026217 0.096508
O O8 0.161858 0.765561 0.012295
O O9 0.329660 0.738195 0.727544
O O10 0.415855 0.510251 0.603292
O O11 0.503868 0.727806 0.531070
O O12 0.385431 0.647034 0.913006
O O13 0.000000 0.218821 0.250000
#
# Coordination Sequence:
#
# PCOD8122442 Si02
#       6
#     4   4   4   4   4   4
#     4  11  21  34  53  80 110 141 177 219 265 309
#     4  11  22  39  59  80 105 137 176 215 260 315
#     4   9  16  27  45  71 103 138 174 213 258 308
#     4  11  22  39  59  80 105 137 176 215 260 315
#     4  11  21  34  53  80 110 141 177 219 265 309
#     4   9  16  27  45  71 103 138 174 213 258 308
#
# _framework density 18.823008999999999
#
# number of rings (size 3 to 8) (size 9 to 14) (size 15 to 20)
#    0.000    1.667    0.000   10.000    0.000    2.667 
#    0.000    3.333    0.000    1.000    0.000    0.000 
#    0.000    0.000    0.000    0.000    0.000    0.000 
#
# Total GULP energy -297460.839898 kJ/mol
# GULP energy per Si atom -12394.201662 kJ/mol
# Density = 1.878017 g / cm^3
# Si number density = 18.823009 Si / 1000 Ang^3
#
#
#
# Elastic Constant Matrix: (Units=GPa)
#
#
# Indices 1 2 3 4 5 6 
#
# 1 95.6126 16.6468 18.3672 0.0000 -14.4361 0.0000
# 2 16.6468 30.2525 8.6877 0.0000 -23.8632 0.0000
# 3 18.3672 8.6877 92.6517 0.0000 -13.9418 0.0000
# 4 0.0000 0.0000 0.0000 15.3252 0.0000 14.4622
# 5 -14.4361 -23.8632 -13.9418 0.0000 47.8018 0.0000
# 6 0.0000 0.0000 0.0000 14.4622 0.0000 11.4744
#
#
#
# Elastic Compliance Matrix: (Units=1/GPa)
#
#
# Indices 1 2 3 4 5 6 
#
# 1 0.011848 -0.005931 -0.001778 0.000000 0.000099 0.000000
# 2 -0.005931 0.057596 -0.000176 0.000000 0.026910 0.000000
# 3 -0.001778 -0.000176 0.011576 0.000000 0.002752 0.000000
# 4 0.000000 0.000000 0.000000 -0.344499 0.000000 0.434201
# 5 0.000099 0.026910 0.002752 0.000000 0.035186 0.000000
# 6 0.000000 0.000000 0.000000 0.434201 0.000000 -0.460111
#
#
# Mechanical properties :
#
#
# Convention : Reuss Voigt Hill
#
# Bulk Modulus (GPa) = 15.32536 33.99114 24.65825
# Shear Modulus (GPa) = -7.68185 26.57461 9.44638
#
# Velocity S-wave (km/s) = -2.02236 3.76149 2.24264
# Velocity P-wave (km/s) = 1.64506 6.07968 4.45358
#
# Compressibility (1/GPa) = 0.06525133
#
# Stress axis : x y z
#
# Youngs Moduli (GPa) = 84.40306 17.36233 86.38514
#
# Poissons Ratio (x) = 0.10298 0.15357
# Poissons Ratio (y) = 0.50060 0.01516
# Poissons Ratio (z) = 0.15005 0.00305
#
# Static dielectric constant tensor:
#      x y z
#    x 4.178080 0.000000 -0.299780 
#    y 0.000000 2.630330 0.000000 
#    z -0.299780 0.000000 3.896380 
# 
# 
# High freq. dielectric constant tensor:
#      x y z
#    x 1.759070 0.000000 -0.001940 
#    y 0.000000 1.672460 0.000000 
#    z -0.001940 0.000000 1.757580 
# 
# From -- ./inp_files/18612.got.cif
#   From: 2010.06.25/outbox.cif.g09.slc.cpg/sg13_10_cif.got.tgz:18612.got - 2010.06.28 04:50:58.
