data_PCOD8122631
_publ_section_title
;
Structure prediction by ZEFSAII (Michael W. Deem and Ramdas Pophale) SiO2 
 PCOD8122631
Probable space group: P 2/C
;
_chemical_formula_sum "Si O2"
_cell_formula_units_Z 26
_cell_length_a 19.238321
_cell_length_b 6.863479
_cell_length_c 27.656266
_cell_angle_alpha 90.000000
_cell_angle_beta 19.245706
_cell_angle_gamma 90.000000
_cell_volume 1203.700470
_symmetry_space_group_name_H-M "P 2/C"
_symmetry_group_IT_number 13
_symmetry_cell_setting 'monoclinic'
loop_
_space_group_symop_operation_xyz
x,y,z
-x,y,1/2-z
-x,-y,-z
x,-y,1/2+z
loop_
_atom_site_type_symbol
_atom_site_label
_atom_site_fract_x
_atom_site_fract_y
_atom_site_fract_z
Si Si1 0.505746 0.490390 0.622018
Si Si2 0.382749 0.816042 0.527337
Si Si3 0.042914 0.988407 0.550956
Si Si4 0.279408 0.830901 0.980260
Si Si5 0.000000 0.960755 0.250000
Si Si6 0.318574 0.120702 0.785072
Si Si7 0.336546 0.814278 0.663740
O O1 0.631039 0.362917 0.500426
O O2 0.646909 0.606000 0.568247
O O3 0.361794 0.348455 0.748186
O O4 0.381071 0.658230 0.675735
O O5 0.153425 0.909908 0.681765
O O6 0.427512 0.740995 0.552501
O O7 0.557551 0.972753 0.394817
O O8 0.232985 0.894214 0.395956
O O9 0.918286 0.836659 0.667527
O O10 0.145208 0.147919 0.519443
O O11 0.865704 0.068127 0.631160
O O12 0.470297 0.988228 0.858313
O O13 0.138020 0.837728 0.121706
#
# Coordination Sequence:
#
# PCOD8122631 Si02
#       7
#     4   4   4   4   2   4   4
#     4  12  22  44  69 103 141 175 231 305 338 402
#     4  11  23  41  65 100 142 183 224 284 350 415
#     4  11  23  48  76  93 137 195 230 277 362 417
#     4  12  25  46  70 104 142 182 232 290 352 418
#     4  12  20  42  66  90 140 186 214 276 360 414
#     4  11  25  49  69 101 142 179 234 301 342 411
#     4  11  22  43  69  97 141 184 228 286 350 417
#
# _framework density 21.600057
#
# number of rings (size 3 to 8) (size 9 to 14) (size 15 to 20)
#    0.000    0.615    7.692    0.923    0.000    1.231 
#    8.308    1.538    0.000    0.000    0.000    0.000 
#    0.000    0.000    0.000    0.000    0.000    0.000 
#
# Total GULP energy -322166.262626 kJ/mol
# GULP energy per Si atom -12391.010101 kJ/mol
# Density = 2.155089 g / cm^3
# Si number density = 21.600057 Si / 1000 Ang^3
#
#
#
# Elastic Constant Matrix: (Units=GPa)
#
#
# Indices 1 2 3 4 5 6 
#
# 1 86.0645 25.4996 32.1273 0.0000 9.8115 0.0000
# 2 25.4996 110.8913 44.7321 0.0000 12.4175 0.0000
# 3 32.1273 44.7321 133.3765 0.0000 21.0507 0.0000
# 4 0.0000 0.0000 0.0000 28.4590 0.0000 2.5253
# 5 9.8115 12.4175 21.0507 0.0000 38.3415 0.0000
# 6 0.0000 0.0000 0.0000 2.5253 0.0000 26.5251
#
#
#
# Elastic Compliance Matrix: (Units=1/GPa)
#
#
# Indices 1 2 3 4 5 6 
#
# 1 0.013224 -0.001947 -0.002297 0.000000 -0.001492 0.000000
# 2 -0.001947 0.010805 -0.002936 0.000000 -0.001389 0.000000
# 3 -0.002297 -0.002936 0.009627 0.000000 -0.003747 0.000000
# 4 0.000000 0.000000 0.000000 0.035438 0.000000 -0.003374
# 5 -0.001492 -0.001389 -0.003747 0.000000 0.028970 0.000000
# 6 0.000000 0.000000 0.000000 -0.003374 0.000000 0.038021
#
#
# Mechanical properties :
#
#
# Convention : Reuss Voigt Hill
#
# Bulk Modulus (GPa) = 51.82232 59.45004 55.63618
# Shear Modulus (GPa) = 31.87224 33.86333 32.86779
#
# Velocity S-wave (km/s) = 3.84547 3.96377 3.90507
# Velocity P-wave (km/s) = 6.61519 6.96645 6.79309
#
# Compressibility (1/GPa) = 0.01929670
#
# Stress axis : x y z
#
# Youngs Moduli (GPa) = 75.62251 92.54647 103.87769
#
# Poissons Ratio (x) = 0.18021 0.23857
# Poissons Ratio (y) = 0.14725 0.30494
# Poissons Ratio (z) = 0.17368 0.27168
#
# Static dielectric constant tensor:
#      x y z
#    x 4.034500 0.000000 0.067120 
#    y 0.000000 3.746890 0.000000 
#    z 0.067120 0.000000 4.213220 
# 
# 
# High freq. dielectric constant tensor:
#      x y z
#    x 1.864000 0.000000 0.010270 
#    y 0.000000 1.822420 0.000000 
#    z 0.010270 0.000000 1.858910 
# 
# From -- ./inp_files/97441.got.cif
#   From: 2010.06.25/outbox.cif.g09.slc.cpg/sg13_49_cif.got.tgz:97441.got - 2010.06.28 04:50:58.
