data_PCOD8122479
_publ_section_title
;
Structure prediction by ZEFSAII (Michael W. Deem and Ramdas Pophale) SiO2 
 PCOD8122479
Probable space group: P 2/C
;
_chemical_formula_sum "Si O2"
_cell_formula_units_Z 28
_cell_length_a 25.784625
_cell_length_b 9.479965
_cell_length_c 8.937549
_cell_angle_alpha 90.000000
_cell_angle_beta 143.892337
_cell_angle_gamma 90.000000
_cell_volume 1287.436107
_symmetry_space_group_name_H-M "P 2/C"
_symmetry_group_IT_number 13
_symmetry_cell_setting 'monoclinic'
loop_
_space_group_symop_operation_xyz
x,y,z
-x,y,1/2-z
-x,-y,-z
x,-y,1/2+z
loop_
_atom_site_type_symbol
_atom_site_label
_atom_site_fract_x
_atom_site_fract_y
_atom_site_fract_z
Si Si1 0.238305 0.384867 0.507332
Si Si2 0.231114 0.905591 0.165924
Si Si3 0.491046 0.852333 0.053597
Si Si4 0.940501 0.909449 0.252123
Si Si5 0.181741 0.345868 0.035430
Si Si6 0.555798 0.393158 0.531204
Si Si7 0.699198 0.854398 0.852929
O O1 0.224865 0.240824 0.565341
O O2 0.197232 0.364361 0.248104
O O3 0.177163 0.501438 0.446312
O O4 0.341548 0.433822 0.753235
O O5 0.241747 0.881042 0.365731
O O6 0.306155 0.002358 0.261006
O O7 0.142208 0.991938 0.961624
O O8 0.500000 0.860847 0.250000
O O9 0.560997 0.750748 0.138312
O O10 0.392515 0.799988 0.794358
O O11 0.500000 0.000000 0.000000
O O12 0.000000 0.881668 0.250000
O O13 0.903378 0.751834 0.207152
O O14 0.000000 0.000000 0.500000
O O15 0.268004 0.271434 0.173073
O O16 0.500000 0.500000 0.500000
O O17 0.500000 0.371645 0.250000
#
# Coordination Sequence:
#
# PCOD8122479 Si02
#       7
#     4   4   4   4   4   4   4
#     4  12  23  42  63  95 132 172 221 264 314 383
#     4  11  22  39  66  91 123 166 207 262 321 384
#     4  12  23  37  57  87 124 167 216 274 320 359
#     4  11  23  44  69  96 123 154 201 257 322 397
#     4  11  24  41  65  92 126 168 207 259 320 386
#     4  12  24  40  61  90 129 179 226 274 317 360
#     4  11  21  39  59  89 123 168 219 260 313 381
#
# _framework density 21.748652
#
# number of rings (size 3 to 8) (size 9 to 14) (size 15 to 20)
#    0.000    0.571    0.000   11.143    0.000    0.000 
#    0.000    3.571    0.000    0.000    0.000    0.000 
#    0.000    0.000    0.000    0.000    0.000    0.000 
#
# Total GULP energy -346977.647802 kJ/mol
# GULP energy per Si atom -12392.058850 kJ/mol
# Density = 2.169915 g / cm^3
# Si number density = 21.748652 Si / 1000 Ang^3
#
#
#
# Elastic Constant Matrix: (Units=GPa)
#
#
# Indices 1 2 3 4 5 6 
#
# 1 103.7006 41.8530 18.5719 0.0000 -5.1451 0.0000
# 2 41.8530 123.7206 7.9309 0.0000 -16.1939 0.0000
# 3 18.5719 7.9309 84.9180 0.0000 -16.0249 0.0000
# 4 0.0000 0.0000 0.0000 42.3103 0.0000 -28.3073
# 5 -5.1451 -16.1939 -16.0249 0.0000 52.5799 0.0000
# 6 0.0000 0.0000 0.0000 -28.3073 0.0000 100.7349
#
#
#
# Elastic Compliance Matrix: (Units=1/GPa)
#
#
# Indices 1 2 3 4 5 6 
#
# 1 0.011582 -0.003870 -0.002316 0.000000 -0.000764 0.000000
# 2 -0.003870 0.009723 0.000458 0.000000 0.002756 0.000000
# 3 -0.002316 0.000458 0.012970 0.000000 0.003867 0.000000
# 4 0.000000 0.000000 0.000000 0.029107 0.000000 0.008179
# 5 -0.000764 0.002756 0.003867 0.000000 0.020971 0.000000
# 6 0.000000 0.000000 0.000000 0.008179 0.000000 0.012226
#
#
# Mechanical properties :
#
#
# Convention : Reuss Voigt Hill
#
# Bulk Modulus (GPa) = 43.82106 49.89452 46.85779
# Shear Modulus (GPa) = 43.23797 55.39057 49.31427
#
# Velocity S-wave (km/s) = 4.46362 5.05211 4.76695
# Velocity P-wave (km/s) = 6.83797 7.55136 7.20350
#
# Compressibility (1/GPa) = 0.02282008
#
# Stress axis : x y z
#
# Youngs Moduli (GPa) = 86.34329 102.84846 77.10377
#
# Poissons Ratio (x) = 0.39797 0.17856
# Poissons Ratio (y) = 0.33411 -0.03533
# Poissons Ratio (z) = 0.19995 -0.04713
#
# Static dielectric constant tensor:
#      x y z
#    x 4.276240 0.000000 0.005120 
#    y 0.000000 4.153820 0.000000 
#    z 0.005120 0.000000 4.138020 
# 
# 
# High freq. dielectric constant tensor:
#      x y z
#    x 1.875330 0.000000 -0.009490 
#    y 0.000000 1.869290 0.000000 
#    z -0.009490 0.000000 1.847230 
# 
# From -- ./inp_files/24614.got.cif
#   From: 2010.06.25/outbox.cif.g09.slc.cpg/sg13_13_cif.got.tgz:24614.got - 2010.06.28 04:50:58.
