data_PCOD8122623
_publ_section_title
;
Structure prediction by ZEFSAII (Michael W. Deem and Ramdas Pophale) SiO2 
 PCOD8122623
Probable space group: P 2/C
;
_chemical_formula_sum "Si O2"
_cell_formula_units_Z 16
_cell_length_a 9.417395
_cell_length_b 11.066650
_cell_length_c 9.562867
_cell_angle_alpha 90.000000
_cell_angle_beta 45.492579
_cell_angle_gamma 90.000000
_cell_volume 710.758148
_symmetry_space_group_name_H-M "P 2/C"
_symmetry_group_IT_number 13
_symmetry_cell_setting 'monoclinic'
loop_
_space_group_symop_operation_xyz
x,y,z
-x,y,1/2-z
-x,-y,-z
x,-y,1/2+z
loop_
_atom_site_type_symbol
_atom_site_label
_atom_site_fract_x
_atom_site_fract_y
_atom_site_fract_z
Si Si1 0.427096 0.757011 0.146213
Si Si2 0.136337 0.968628 0.275334
Si Si3 0.958298 0.620199 0.114886
Si Si4 0.834692 0.760455 0.754615
O O1 0.500000 0.783925 0.250000
O O2 0.322834 0.881111 0.168388
O O3 0.272856 0.647570 0.246194
O O4 0.613548 0.706604 0.926651
O O5 0.000000 0.907625 0.250000
O O6 0.212079 0.099993 0.175604
O O7 0.000000 0.000000 0.500000
O O8 0.000000 0.604849 0.250000
O O9 0.000000 0.500000 0.000000
O O10 0.088067 0.730071 0.955829
O O11 0.000000 0.709351 0.750000
#
# Coordination Sequence:
#
# PCOD8122623 Si02
#       4
#     4   4   4   4
#     4  12  24  45  76 107 144 192 234 289 361 421
#     4  11  22  42  71 106 152 188 231 288 348 424
#     4  12  28  51  75 102 139 184 244 303 355 425
#     4  11  23  45  72 107 150 188 232 292 348 423
#
# _framework density 22.511175000000001
#
# number of rings (size 3 to 8) (size 9 to 14) (size 15 to 20)
#    0.000    0.500    5.000    3.750    0.000    2.000 
#    0.000    0.000    0.000    0.000    0.000    0.000 
#    0.000    0.000    0.000    0.000    0.000    0.000 
#
# Total GULP energy -198325.557087 kJ/mol
# GULP energy per Si atom -12395.347318 kJ/mol
# Density = 2.245994 g / cm^3
# Si number density = 22.511175 Si / 1000 Ang^3
#
#
#
# Elastic Constant Matrix: (Units=GPa)
#
#
# Indices 1 2 3 4 5 6 
#
# 1 186.9211 64.4884 96.6973 0.0000 0.7288 0.0000
# 2 64.4884 93.6687 22.8277 0.0000 -5.7191 0.0000
# 3 96.6973 22.8277 169.5347 0.0000 -16.5794 0.0000
# 4 0.0000 0.0000 0.0000 32.4517 0.0000 0.1893
# 5 0.7288 -5.7191 -16.5794 0.0000 59.9345 0.0000
# 6 0.0000 0.0000 0.0000 0.1893 0.0000 28.9600
#
#
#
# Elastic Compliance Matrix: (Units=1/GPa)
#
#
# Indices 1 2 3 4 5 6 
#
# 1 0.010002 -0.005763 -0.005133 0.000000 -0.002091 0.000000
# 2 -0.005763 0.014384 0.001533 0.000000 0.001867 0.000000
# 3 -0.005133 0.001533 0.008881 0.000000 0.002665 0.000000
# 4 0.000000 0.000000 0.000000 0.030816 0.000000 -0.000201
# 5 -0.002091 0.001867 0.002665 0.000000 0.017626 0.000000
# 6 0.000000 0.000000 0.000000 -0.000201 0.000000 0.034532
#
#
# Mechanical properties :
#
#
# Convention : Reuss Voigt Hill
#
# Bulk Modulus (GPa) = 68.77783 90.90567 79.84175
# Shear Modulus (GPa) = 35.76219 42.00999 38.88609
#
# Velocity S-wave (km/s) = 3.99010 4.32462 4.16072
# Velocity P-wave (km/s) = 7.20048 8.08743 7.65681
#
# Compressibility (1/GPa) = 0.01453957
#
# Stress axis : x y z
#
# Youngs Moduli (GPa) = 99.98407 69.52288 112.60487
#
# Poissons Ratio (x) = 0.40063 0.57802
# Poissons Ratio (y) = 0.57616 -0.17257
# Poissons Ratio (z) = 0.51324 -0.10655
#
# Static dielectric constant tensor:
#      x y z
#    x 4.709350 0.000000 -0.415240 
#    y 0.000000 4.391370 0.000000 
#    z -0.415240 0.000000 4.385660 
# 
# 
# High freq. dielectric constant tensor:
#      x y z
#    x 1.890190 0.000000 -0.003360 
#    y 0.000000 1.882770 0.000000 
#    z -0.003360 0.000000 1.901990 
# 
# From -- ./inp_files/11478.got.cif
#   From: 2010.06.25/outbox.cif.g09.slc.cpg/sg13_6_cif.got.tgz:11478.got - 2010.06.28 04:50:58.
