data_PCOD8122714
_publ_section_title
;
Structure prediction by ZEFSAII (Michael W. Deem and Ramdas Pophale) SiO2 
 PCOD8122714
Probable space group: P 2/C
;
_chemical_formula_sum "Si O2"
_cell_formula_units_Z 16
_cell_length_a 4.842739
_cell_length_b 8.335017
_cell_length_c 18.946674
_cell_angle_alpha 90.000000
_cell_angle_beta 66.990041
_cell_angle_gamma 90.000000
_cell_volume 703.922048
_symmetry_space_group_name_H-M "P 2/C"
_symmetry_group_IT_number 13
_symmetry_cell_setting 'monoclinic'
loop_
_space_group_symop_operation_xyz
x,y,z
-x,y,1/2-z
-x,-y,-z
x,-y,1/2+z
loop_
_atom_site_type_symbol
_atom_site_label
_atom_site_fract_x
_atom_site_fract_y
_atom_site_fract_z
Si Si1 0.313573 0.642125 0.199309
Si Si2 0.324092 0.445643 0.449200
Si Si3 0.784337 0.988665 0.332829
Si Si4 0.849945 0.094696 0.078087
O O1 0.500000 0.695653 0.250000
O O2 0.527902 0.526705 0.133611
O O3 0.195890 0.794712 0.164843
O O4 0.000000 0.550410 0.250000
O O5 0.500000 0.500000 0.500000
O O6 0.287034 0.259273 0.436551
O O7 0.000000 0.500000 0.500000
O O8 0.000000 0.054909 0.250000
O O9 0.430259 0.010527 0.355683
O O10 0.883870 0.092073 0.391104
O O11 0.000000 0.000000 0.000000
#
# Coordination Sequence:
#
# PCOD8122714 Si02
#       4
#     4   4   4   4
#     4  11  23  42  67  96 132 177 222 274 336 403
#     4  12  25  43  65  95 133 174 220 275 332 397
#     4  11  23  42  65  94 128 169 217 271 329 392
#     4  12  24  41  66  95 129 172 220 274 327 390
#
# _framework density 22.729787000000002
#
# number of rings (size 3 to 8) (size 9 to 14) (size 15 to 20)
#    0.000    0.500    0.000   10.500    0.000    3.000 
#    0.000    0.000    0.000    0.000    0.000    0.000 
#    0.000    0.000    0.000    0.000    0.000    0.000 
#
# Total GULP energy -198220.938996 kJ/mol
# GULP energy per Si atom -12388.808687 kJ/mol
# Density = 2.267805 g / cm^3
# Si number density = 22.729787 Si / 1000 Ang^3
#
#
#
# Elastic Constant Matrix: (Units=GPa)
#
#
# Indices 1 2 3 4 5 6 
#
# 1 150.0219 38.5107 57.5217 0.0000 -12.2098 0.0000
# 2 38.5107 126.5675 62.2892 0.0000 5.2897 0.0000
# 3 57.5217 62.2892 139.7983 0.0000 -23.6113 0.0000
# 4 0.0000 0.0000 0.0000 34.0470 0.0000 -5.1603
# 5 -12.2098 5.2897 -23.6113 0.0000 69.7662 0.0000
# 6 0.0000 0.0000 0.0000 -5.1603 0.0000 41.8812
#
#
#
# Elastic Compliance Matrix: (Units=1/GPa)
#
#
# Indices 1 2 3 4 5 6 
#
# 1 0.008042 -0.001141 -0.002703 0.000000 0.000579 0.000000
# 2 -0.001141 0.010687 -0.004733 0.000000 -0.002612 0.000000
# 3 -0.002703 -0.004733 0.010983 0.000000 0.003603 0.000000
# 4 0.000000 0.000000 0.000000 0.029930 0.000000 0.003688
# 5 0.000579 -0.002612 0.003603 0.000000 0.015852 0.000000
# 6 0.000000 0.000000 0.000000 0.003688 0.000000 0.024331
#
#
# Mechanical properties :
#
#
# Convention : Reuss Voigt Hill
#
# Bulk Modulus (GPa) = 79.63454 81.44788 80.54121
# Shear Modulus (GPa) = 41.26596 46.34326 43.80461
#
# Velocity S-wave (km/s) = 4.26549 4.52029 4.39474
# Velocity P-wave (km/s) = 7.70523 7.94701 7.82705
#
# Compressibility (1/GPa) = 0.01255737
#
# Stress axis : x y z
#
# Youngs Moduli (GPa) = 124.34661 93.57427 91.05206
#
# Poissons Ratio (x) = 0.10677 0.24609
# Poissons Ratio (y) = 0.14188 0.43097
# Poissons Ratio (z) = 0.33608 0.44291
#
# Static dielectric constant tensor:
#      x y z
#    x 4.516980 0.000000 -0.057280 
#    y 0.000000 3.892190 0.000000 
#    z -0.057280 0.000000 4.251330 
# 
# 
# High freq. dielectric constant tensor:
#      x y z
#    x 1.924780 0.000000 -0.020530 
#    y 0.000000 1.881130 0.000000 
#    z -0.020530 0.000000 1.916910 
# 
# From -- ./inp_files/60301.got.cif
#   From: 2010.06.25/outbox.cif.g09.slc.cpg/sg13_31_cif.got.tgz:60301.got - 2010.06.28 04:50:58.
