data_PCOD8122851
_publ_section_title
;
Structure prediction by ZEFSAII (Michael W. Deem and Ramdas Pophale) SiO2 
 PCOD8122851
Probable space group: P 2/C
;
_chemical_formula_sum "Si O2"
_cell_formula_units_Z 24
_cell_length_a 6.985562
_cell_length_b 14.035041
_cell_length_c 14.012186
_cell_angle_alpha 90.000000
_cell_angle_beta 54.462832
_cell_angle_gamma 90.000000
_cell_volume 1117.907503
_symmetry_space_group_name_H-M "P 2/C"
_symmetry_group_IT_number 13
_symmetry_cell_setting 'monoclinic'
loop_
_space_group_symop_operation_xyz
x,y,z
-x,y,1/2-z
-x,-y,-z
x,-y,1/2+z
loop_
_atom_site_type_symbol
_atom_site_label
_atom_site_fract_x
_atom_site_fract_y
_atom_site_fract_z
Si Si1 0.447378 0.664251 0.545731
Si Si2 0.047034 0.575429 0.067027
Si Si3 0.256348 0.146458 0.165483
Si Si4 0.793396 0.933723 0.019577
Si Si5 0.500000 0.961326 0.750000
Si Si6 0.000000 0.449086 0.250000
Si Si7 0.693131 0.729710 0.114423
O O1 0.451513 0.772583 0.585874
O O2 0.224155 0.613217 0.656714
O O3 0.424726 0.670729 0.437885
O O4 0.678003 0.603352 0.503915
O O5 0.930243 0.521372 0.188121
O O6 0.906804 0.672312 0.096810
O O7 0.000000 0.500000 0.000000
O O8 0.300355 0.103834 0.258682
O O9 0.000000 0.194643 0.250000
O O10 0.247050 0.065313 0.083777
O O11 0.823130 0.824174 0.040071
O O12 0.569163 0.975090 0.139327
O O13 0.000000 0.000000 0.000000
O O14 0.500000 0.753353 0.250000
#
# Coordination Sequence:
#
# PCOD8122851 Si02
#       7
#     4   4   4   4   2   2   4
#     4  11  26  46  68 105 138 180 238 290 347 418
#     4  12  27  43  71 100 136 187 227 286 356 412
#     4  11  24  43  71 101 139 185 231 292 349 417
#     4  11  24  45  70 103 141 181 236 288 351 422
#     4  12  24  44  70 100 138 186 230 288 352 416
#     4  12  24  46  70 100 140 172 234 290 344 422
#     4  11  25  48  70 100 143 186 232 288 355 421
#
# _framework density 21.468679000000002
#
# number of rings (size 3 to 8) (size 9 to 14) (size 15 to 20)
#    0.000    0.667    5.000    2.000    4.667    1.333 
#    0.000    1.667    0.000    0.000    0.000    0.000 
#    0.000    0.000    0.000    0.000    0.000    0.000 
#
# Total GULP energy -297439.951366 kJ/mol
# GULP energy per Si atom -12393.331307 kJ/mol
# Density = 2.141982 g / cm^3
# Si number density = 21.468679 Si / 1000 Ang^3
#
#
#
# Elastic Constant Matrix: (Units=GPa)
#
#
# Indices 1 2 3 4 5 6 
#
# 1 121.9763 61.1569 50.3120 0.0000 10.9470 0.0000
# 2 61.1569 101.9321 32.2407 0.0000 7.4077 0.0000
# 3 50.3120 32.2407 114.3613 0.0000 16.9329 0.0000
# 4 0.0000 0.0000 0.0000 45.3595 0.0000 -8.1056
# 5 10.9470 7.4077 16.9329 0.0000 43.0304 0.0000
# 6 0.0000 0.0000 0.0000 -8.1056 0.0000 31.7836
#
#
#
# Elastic Compliance Matrix: (Units=1/GPa)
#
#
# Indices 1 2 3 4 5 6 
#
# 1 0.013165 -0.006641 -0.003815 0.000000 -0.000705 0.000000
# 2 -0.006641 0.014140 -0.001014 0.000000 -0.000346 0.000000
# 3 -0.003815 -0.001014 0.011191 0.000000 -0.003259 0.000000
# 4 0.000000 0.000000 0.000000 0.023099 0.000000 0.005891
# 5 -0.000705 -0.000346 -0.003259 0.000000 0.024761 0.000000
# 6 0.000000 0.000000 0.000000 0.005891 0.000000 0.032965
#
#
# Mechanical properties :
#
#
# Convention : Reuss Voigt Hill
#
# Bulk Modulus (GPa) = 64.28004 69.52100 66.90052
# Shear Modulus (GPa) = 33.91090 37.00538 35.45814
#
# Velocity S-wave (km/s) = 3.97867 4.15624 4.06842
# Velocity P-wave (km/s) = 7.14932 7.44884 7.30062
#
# Compressibility (1/GPa) = 0.01555693
#
# Stress axis : x y z
#
# Youngs Moduli (GPa) = 75.96075 70.71919 89.35770
#
# Poissons Ratio (x) = 0.46962 0.34092
# Poissons Ratio (y) = 0.50442 0.09059
# Poissons Ratio (z) = 0.28981 0.07170
#
# Static dielectric constant tensor:
#      x y z
#    x 4.016920 0.000000 0.230730 
#    y 0.000000 4.006710 0.000000 
#    z 0.230730 0.000000 4.264180 
# 
# 
# High freq. dielectric constant tensor:
#      x y z
#    x 1.837440 0.000000 0.009120 
#    y 0.000000 1.853480 0.000000 
#    z 0.009120 0.000000 1.859590 
# 
# From -- ./inp_files/43923.got.cif
#   From: 2010.06.25/outbox.cif.g09.slc.cpg/sg13_22_cif.got.tgz:43923.got - 2010.06.28 04:50:58.
