data_PCOD8122491
_publ_section_title
;
Structure prediction by ZEFSAII (Michael W. Deem and Ramdas Pophale) SiO2 
 PCOD8122491
Probable space group: P 2/C
;
_chemical_formula_sum "Si O2"
_cell_formula_units_Z 32
_cell_length_a 24.099590
_cell_length_b 8.806918
_cell_length_c 23.980703
_cell_angle_alpha 90.000000
_cell_angle_beta 17.801992
_cell_angle_gamma 90.000000
_cell_volume 1556.077816
_symmetry_space_group_name_H-M "P 2/C"
_symmetry_group_IT_number 13
_symmetry_cell_setting 'monoclinic'
loop_
_space_group_symop_operation_xyz
x,y,z
-x,y,1/2-z
-x,-y,-z
x,-y,1/2+z
loop_
_atom_site_type_symbol
_atom_site_label
_atom_site_fract_x
_atom_site_fract_y
_atom_site_fract_z
Si Si1 0.195876 0.766523 0.764091
Si Si2 0.615060 0.751288 0.803153
Si Si3 0.483953 0.079774 0.922229
Si Si4 0.424015 0.697269 0.381904
Si Si5 0.737781 0.424924 0.837998
Si Si6 0.798236 0.272782 0.667280
Si Si7 0.926574 0.512123 0.762607
Si Si8 0.269257 0.488233 0.865860
O O1 0.251871 0.784683 0.773978
O O2 0.292606 0.899983 0.636711
O O3 0.251701 0.604958 0.683940
O O4 0.981975 0.797798 0.966467
O O5 0.730123 0.671949 0.642928
O O6 0.517632 0.904170 0.876344
O O7 0.469488 0.625100 0.961573
O O8 0.474465 0.162143 0.872428
O O9 0.640591 0.147035 0.813010
O O10 0.500000 0.750385 0.250000
O O11 0.211166 0.649582 0.588739
O O12 0.537853 0.550295 0.291349
O O13 0.832546 0.328571 0.697951
O O14 0.833842 0.396403 0.806679
O O15 0.746142 0.419453 0.681237
O O16 0.000000 0.433868 0.750000
O O17 0.106249 0.575500 0.559858
#
# Coordination Sequence:
#
# PCOD8122491 Si02
#       8
#     4   4   4   4   4   4   4   4
#     4  12  21  39  64  92 131 169 211 259 308 374
#     4  12  24  39  61  98 137 169 199 253 323 382
#     4  11  25  42  59  93 135 172 207 251 312 389
#     4  11  22  42  68  92 117 164 212 264 310 367
#     4  12  21  39  64  95 128 162 210 267 315 366
#     4  11  22  39  65  95 125 170 214 256 316 367
#     4  12  23  39  67  98 117 152 216 274 310 361
#     4  11  21  39  66  95 126 156 212 266 310 368
#
# _framework density 20.564525
#
# number of rings (size 3 to 8) (size 9 to 14) (size 15 to 20)
#    0.000    0.500    7.500    2.625    0.000    0.500 
#    2.250    1.875    0.000    0.750    0.000    0.000 
#    0.000    0.000    0.000    0.000    0.000    0.000 
#
# Total GULP energy -396677.803089 kJ/mol
# GULP energy per Si atom -12396.181347 kJ/mol
# Density = 2.051772 g / cm^3
# Si number density = 20.564525 Si / 1000 Ang^3
#
#
#
# Elastic Constant Matrix: (Units=GPa)
#
#
# Indices 1 2 3 4 5 6 
#
# 1 119.7946 14.0945 21.1624 0.0000 2.6913 0.0000
# 2 14.0945 62.0656 33.7330 0.0000 0.3984 0.0000
# 3 21.1624 33.7330 121.3083 0.0000 1.0366 0.0000
# 4 0.0000 0.0000 0.0000 14.9507 0.0000 3.4346
# 5 2.6913 0.3984 1.0366 0.0000 27.1235 0.0000
# 6 0.0000 0.0000 0.0000 3.4346 0.0000 9.0919
#
#
#
# Elastic Compliance Matrix: (Units=1/GPa)
#
#
# Indices 1 2 3 4 5 6 
#
# 1 0.008726 -0.001358 -0.001138 0.000000 -0.000802 0.000000
# 2 -0.001358 0.019192 -0.005100 0.000000 0.000048 0.000000
# 3 -0.001138 -0.005100 0.009862 0.000000 -0.000189 0.000000
# 4 0.000000 0.000000 0.000000 0.073242 0.000000 -0.027668
# 5 -0.000802 0.000048 -0.000189 0.000000 0.036955 0.000000
# 6 0.000000 0.000000 0.000000 -0.027668 0.000000 0.120440
#
#
# Mechanical properties :
#
#
# Convention : Reuss Voigt Hill
#
# Bulk Modulus (GPa) = 44.27161 49.01649 46.64405
# Shear Modulus (GPa) = 17.17389 25.84512 21.50951
#
# Velocity S-wave (km/s) = 2.89298 3.54896 3.23763
# Velocity P-wave (km/s) = 5.72136 6.37814 6.05866
#
# Compressibility (1/GPa) = 0.02258784
#
# Stress axis : x y z
#
# Youngs Moduli (GPa) = 114.59427 52.10451 101.40068
#
# Poissons Ratio (x) = 0.07076 0.11538
# Poissons Ratio (y) = 0.15563 0.51718
# Poissons Ratio (z) = 0.13039 0.26575
#
# Static dielectric constant tensor:
#      x y z
#    x 3.945150 0.000000 0.008220 
#    y 0.000000 3.403210 0.000000 
#    z 0.008220 0.000000 3.991850 
# 
# 
# High freq. dielectric constant tensor:
#      x y z
#    x 1.804900 0.000000 -0.001360 
#    y 0.000000 1.760000 0.000000 
#    z -0.001360 0.000000 1.824480 
# 
# From -- ./inp_files/88922.got.cif
#   From: 2010.06.25/outbox.cif.g09.slc.cpg/sg13_45_cif.got.tgz:88922.got - 2010.06.28 04:50:58.
