data_PCOD8122899
_publ_section_title
;
Structure prediction by ZEFSAII (Michael W. Deem and Ramdas Pophale) SiO2 
 PCOD8122899
Probable space group: P 2/C
;
_chemical_formula_sum "Si O2"
_cell_formula_units_Z 20
_cell_length_a 11.935572
_cell_length_b 8.220093
_cell_length_c 12.177164
_cell_angle_alpha 90.000000
_cell_angle_beta 132.534254
_cell_angle_gamma 90.000000
_cell_volume 880.357255
_symmetry_space_group_name_H-M "P 2/C"
_symmetry_group_IT_number 13
_symmetry_cell_setting 'monoclinic'
loop_
_space_group_symop_operation_xyz
x,y,z
-x,y,1/2-z
-x,-y,-z
x,-y,1/2+z
loop_
_atom_site_type_symbol
_atom_site_label
_atom_site_fract_x
_atom_site_fract_y
_atom_site_fract_z
Si Si1 0.172748 0.341537 0.389341
Si Si2 0.880215 0.782919 0.426242
Si Si3 0.277710 0.305142 0.899137
Si Si4 0.803255 0.140117 0.429779
Si Si5 0.584959 0.165888 0.088204
O O1 0.188542 0.347697 0.532731
O O2 0.211132 0.515509 0.364361
O O3 0.285360 0.206225 0.414424
O O4 0.000000 0.290078 0.250000
O O5 0.791128 0.780062 0.253548
O O6 0.059120 0.747673 0.525036
O O7 0.860744 0.955977 0.472583
O O8 0.235015 0.193482 0.973162
O O9 0.460081 0.310141 0.007468
O O10 0.655554 0.156404 0.256102
O O11 0.500000 0.000000 0.000000
#
# Coordination Sequence:
#
# PCOD8122899 Si02
#       5
#     4   4   4   4   4
#     4  12  27  47  75 105 153 193 240 299 372 437
#     4  11  25  45  77 107 142 193 250 294 356 441
#     4  12  27  46  73 110 147 189 245 303 369 429
#     4  11  24  46  75 104 146 192 244 301 359 429
#     4  12  25  50  74 107 144 194 244 305 365 427
#
# _framework density 22.718050999999999
#
# number of rings (size 3 to 8) (size 9 to 14) (size 15 to 20)
#    0.000    0.400    4.000    4.200    2.800    2.400 
#    3.600    0.000    0.000    0.000    0.000    0.000 
#    0.000    0.000    0.000    0.000    0.000    0.000 
#
# Total GULP energy -248097.366583 kJ/mol
# GULP energy per Si atom -12404.868329 kJ/mol
# Density = 2.266634 g / cm^3
# Si number density = 22.718051 Si / 1000 Ang^3
#
#
#
# Elastic Constant Matrix: (Units=GPa)
#
#
# Indices 1 2 3 4 5 6 
#
# 1 173.1516 52.3678 77.7780 0.0000 4.4916 0.0000
# 2 52.3678 73.0410 32.3483 0.0000 0.2299 0.0000
# 3 77.7780 32.3483 151.1725 0.0000 -5.6203 0.0000
# 4 0.0000 0.0000 0.0000 24.9676 0.0000 0.9304
# 5 4.4916 0.2299 -5.6203 0.0000 56.0203 0.0000
# 6 0.0000 0.0000 0.0000 0.9304 0.0000 44.0377
#
#
#
# Elastic Compliance Matrix: (Units=1/GPa)
#
#
# Indices 1 2 3 4 5 6 
#
# 1 0.008846 -0.004757 -0.003572 0.000000 -0.001048 0.000000
# 2 -0.004757 0.017691 -0.001332 0.000000 0.000175 0.000000
# 3 -0.003572 -0.001332 0.008781 0.000000 0.001173 0.000000
# 4 0.000000 0.000000 0.000000 0.040083 0.000000 -0.000847
# 5 -0.001048 0.000175 0.001173 0.000000 0.018052 0.000000
# 6 0.000000 0.000000 0.000000 -0.000847 0.000000 0.022726
#
#
# Mechanical properties :
#
#
# Convention : Reuss Voigt Hill
#
# Bulk Modulus (GPa) = 62.51352 80.26148 71.38750
# Shear Modulus (GPa) = 35.50336 40.66317 38.08326
#
# Velocity S-wave (km/s) = 3.95749 4.23532 4.09876
# Velocity P-wave (km/s) = 6.96126 7.70216 7.34107
#
# Compressibility (1/GPa) = 0.01599654
#
# Stress axis : x y z
#
# Youngs Moduli (GPa) = 113.04945 56.52738 113.87694
#
# Poissons Ratio (x) = 0.26888 0.40679
# Poissons Ratio (y) = 0.53774 0.15164
# Poissons Ratio (z) = 0.40384 0.07527
#
# Static dielectric constant tensor:
#      x y z
#    x 4.560220 0.000000 0.124680 
#    y 0.000000 3.889130 0.000000 
#    z 0.124680 0.000000 4.093990 
# 
# 
# High freq. dielectric constant tensor:
#      x y z
#    x 1.919040 0.000000 -0.000280 
#    y 0.000000 1.887110 0.000000 
#    z -0.000280 0.000000 1.905470 
# 
# From -- ./inp_files/32770.got.cif
#   From: 2010.06.25/outbox.cif.g09.slc.cpg/sg13_17_cif.got.tgz:32770.got - 2010.06.28 04:50:58.
