data_PCOD8122636
_publ_section_title
;
Structure prediction by ZEFSAII (Michael W. Deem and Ramdas Pophale) SiO2 
 PCOD8122636
Probable space group: P 2/C
;
_chemical_formula_sum "Si O2"
_cell_formula_units_Z 32
_cell_length_a 9.517002
_cell_length_b 13.251518
_cell_length_c 26.446891
_cell_angle_alpha 90.000000
_cell_angle_beta 27.856683
_cell_angle_gamma 90.000000
_cell_volume 1558.477173
_symmetry_space_group_name_H-M "P 2/C"
_symmetry_group_IT_number 13
_symmetry_cell_setting 'monoclinic'
loop_
_space_group_symop_operation_xyz
x,y,z
-x,y,1/2-z
-x,-y,-z
x,-y,1/2+z
loop_
_atom_site_type_symbol
_atom_site_label
_atom_site_fract_x
_atom_site_fract_y
_atom_site_fract_z
Si Si1 0.360752 0.091670 0.514225
Si Si2 0.171972 0.852876 0.248729
Si Si3 0.771396 0.632305 0.278051
Si Si4 0.151202 0.218636 0.363536
Si Si5 0.093191 0.582020 0.514149
Si Si6 0.869020 0.746016 0.846497
Si Si7 0.839264 0.468397 0.395351
Si Si8 0.774968 0.041128 0.531114
O O1 0.558399 0.193615 0.454278
O O2 0.034133 0.108100 0.640991
O O3 0.500000 0.000000 0.500000
O O4 0.322342 0.057364 0.469137
O O5 0.262517 0.740457 0.237328
O O6 0.474822 0.916972 0.152147
O O7 0.000000 0.860911 0.250000
O O8 0.446301 0.598293 0.398879
O O9 0.000000 0.651169 0.250000
O O10 0.913560 0.548601 0.198284
O O11 0.500000 0.189788 0.250000
O O12 0.087635 0.310311 0.424716
O O13 0.082792 0.238167 0.326514
O O14 0.939897 0.125641 0.445527
O O15 0.039605 0.541090 0.586738
O O16 0.000000 0.500000 0.500000
O O17 0.830002 0.625964 0.859999
O O18 0.000000 0.779163 0.750000
O O19 0.500000 0.500000 0.500000
O O20 0.000000 0.000000 0.500000
#
# Coordination Sequence:
#
# PCOD8122636 Si02
#       8
#     4   4   4   4   4   4   4   4
#     4  12  25  43  72 101 135 181 238 285 345 423
#     4  11  23  45  73  99 136 180 234 290 349 415
#     4  11  22  43  73  98 135 182 226 293 351 408
#     4  11  26  48  68  97 143 184 233 289 352 431
#     4  11  26  44  68 100 139 184 230 278 356 420
#     4  11  26  43  70 108 136 178 239 288 350 421
#     4  11  23  42  69 104 139 172 229 287 343 414
#     4  12  28  46  69 102 142 186 231 293 361 412
#
# _framework density 20.532865999999999
#
# number of rings (size 3 to 8) (size 9 to 14) (size 15 to 20)
#    0.000    0.750    5.000    1.125   12.250    0.000 
#    2.250    1.250    0.000    0.000    0.000    0.000 
#    0.000    0.000    0.000    0.000    0.000    0.000 
#
# Total GULP energy -396449.444261 kJ/mol
# GULP energy per Si atom -12389.045133 kJ/mol
# Density = 2.048613 g / cm^3
# Si number density = 20.532866 Si / 1000 Ang^3
#
#
#
# Elastic Constant Matrix: (Units=GPa)
#
#
# Indices 1 2 3 4 5 6 
#
# 1 89.6514 44.1056 30.0409 0.0000 -2.7501 0.0000
# 2 44.1056 107.9309 53.9312 0.0000 6.4606 0.0000
# 3 30.0409 53.9312 160.9284 0.0000 -9.3451 0.0000
# 4 0.0000 0.0000 0.0000-1618.8873 0.0000 291.3932
# 5 -2.7501 6.4606 -9.3451 0.0000 34.5364 0.0000
# 6 0.0000 0.0000 0.0000 291.3932 0.0000 -34.0437
#
#
#
# Elastic Compliance Matrix: (Units=1/GPa)
#
#
# Indices 1 2 3 4 5 6 
#
# 1 0.014185 -0.005586 -0.000660 0.000000 0.001996 0.000000
# 2 -0.005586 0.013674 -0.003774 0.000000 -0.004024 0.000000
# 3 -0.000660 -0.003774 0.007762 0.000000 0.002754 0.000000
# 4 0.000000 0.000000 0.000000 0.001143 0.000000 0.009779
# 5 0.001996 -0.004024 0.002754 0.000000 0.030612 0.000000
# 6 0.000000 0.000000 0.000000 0.009779 0.000000 0.054330
#
#
# Mechanical properties :
#
#
# Convention : Reuss Voigt Hill
#
# Bulk Modulus (GPa) = 64.17866 68.29622 66.23744
# Shear Modulus (GPa) = 34.02768 -308.31673 -137.14452
#
# Velocity S-wave (km/s) = 4.07533 -12.26718 -8.18155
# Velocity P-wave (km/s) = 7.31223 12.93487 7.54460
#
# Compressibility (1/GPa) = 0.01558150
#
# Stress axis : x y z
#
# Youngs Moduli (GPa) = 70.49705 73.12900 128.83893
#
# Poissons Ratio (x) = 0.40853 0.08502
# Poissons Ratio (y) = 0.39382 0.48618
# Poissons Ratio (z) = 0.04652 0.27595
#
# Static dielectric constant tensor:
#      x y z
#    x 3.650450 0.000000 -0.005860 
#    y 0.000000 3.296610 0.000000 
#    z -0.005860 0.000000 3.874610 
# 
# 
# High freq. dielectric constant tensor:
#      x y z
#    x 1.793910 0.000000 -0.002580 
#    y 0.000000 1.819720 0.000000 
#    z -0.002580 0.000000 1.820490 
# 
# From -- ./inp_files/85316.got.cif
#   From: 2010.06.25/outbox.cif.g09.slc.cpg/sg13_43_cif.got.tgz:85316.got - 2010.06.28 04:50:58.
