data_PCOD8122659
_publ_section_title
;
Structure prediction by ZEFSAII (Michael W. Deem and Ramdas Pophale) SiO2 
 PCOD8122659
Probable space group: P 2/C
;
_chemical_formula_sum "Si O2"
_cell_formula_units_Z 16
_cell_length_a 21.072227
_cell_length_b 6.924194
_cell_length_c 26.401757
_cell_angle_alpha 90.000000
_cell_angle_beta 11.385929
_cell_angle_gamma 90.000000
_cell_volume 760.494624
_symmetry_space_group_name_H-M "P 2/C"
_symmetry_group_IT_number 13
_symmetry_cell_setting 'monoclinic'
loop_
_space_group_symop_operation_xyz
x,y,z
-x,y,1/2-z
-x,-y,-z
x,-y,1/2+z
loop_
_atom_site_type_symbol
_atom_site_label
_atom_site_fract_x
_atom_site_fract_y
_atom_site_fract_z
Si Si1 0.143386 0.366124 0.513760
Si Si2 0.697694 0.097850 0.916462
Si Si3 0.120274 0.221724 0.298111
Si Si4 0.761508 0.948593 0.641504
O O1 0.500000 0.426143 0.250000
O O2 0.131896 0.247793 0.470062
O O3 0.002652 0.238001 0.670124
O O4 0.929656 0.554754 0.673522
O O5 0.777363 0.884030 0.833800
O O6 0.405807 0.197133 0.114688
O O7 0.597585 0.074473 0.054069
O O8 0.791384 0.123648 0.577545
O O9 0.000000 0.000000 0.500000
#
# Coordination Sequence:
#
# PCOD8122659 Si02
#       4
#     4   4   4   4
#     4  11  23  36  54  85 121 151 187 241 296 341
#     4   9  19  37  59  81 110 149 193 235 281 342
#     4   9  19  36  59  85 111 146 191 238 286 340
#     4   9  20  38  60  84 109 146 194 237 279 340
#
# _framework density 21.038938999999999
#
# number of rings (size 3 to 8) (size 9 to 14) (size 15 to 20)
#    0.000    2.500    0.000    2.250    0.000   11.000 
#    0.000    0.000    0.000    0.000    0.000    0.000 
#    0.000    0.000    0.000    0.000    0.000    0.000 
#
# Total GULP energy -198323.040248 kJ/mol
# GULP energy per Si atom -12395.190015 kJ/mol
# Density = 2.099105 g / cm^3
# Si number density = 21.038939 Si / 1000 Ang^3
#
#
#
# Elastic Constant Matrix: (Units=GPa)
#
#
# Indices 1 2 3 4 5 6 
#
# 1 56.4839 34.9679 28.1489 0.0000 24.0549 0.0000
# 2 34.9679 120.4730 25.6039 0.0000 10.1470 0.0000
# 3 28.1489 25.6039 92.7887 0.0000 36.7447 0.0000
# 4 0.0000 0.0000 0.0000 26.2377 0.0000 3.6499
# 5 24.0549 10.1470 36.7447 0.0000 42.0692 0.0000
# 6 0.0000 0.0000 0.0000 3.6499 0.0000 9.3586
#
#
#
# Elastic Compliance Matrix: (Units=1/GPa)
#
#
# Indices 1 2 3 4 5 6 
#
# 1 0.028274 -0.006781 -0.001455 0.000000 -0.013261 0.000000
# 2 -0.006781 0.010444 -0.002083 0.000000 0.003178 0.000000
# 3 -0.001455 -0.002083 0.017222 0.000000 -0.013708 0.000000
# 4 0.000000 0.000000 0.000000 0.040299 0.000000 -0.015717
# 5 -0.013261 0.003178 -0.013708 0.000000 0.042559 0.000000
# 6 0.000000 0.000000 0.000000 -0.015717 0.000000 0.112983
#
#
# Mechanical properties :
#
#
# Convention : Reuss Voigt Hill
#
# Bulk Modulus (GPa) = 28.32703 49.68745 39.00724
# Shear Modulus (GPa) = 17.59406 27.60142 22.59774
#
# Velocity S-wave (km/s) = 2.89496 3.62597 3.28089
# Velocity P-wave (km/s) = 4.96666 6.41860 5.73873
#
# Compressibility (1/GPa) = 0.03530197
#
# Stress axis : x y z
#
# Youngs Moduli (GPa) = 35.36761 95.75026 58.06630
#
# Poissons Ratio (x) = 0.64925 0.08450
# Poissons Ratio (y) = 0.23982 0.12096
# Poissons Ratio (z) = 0.05147 0.19947
#
# Static dielectric constant tensor:
#      x y z
#    x 3.736680 0.000000 0.695100 
#    y 0.000000 3.666010 0.000000 
#    z 0.695100 0.000000 4.457990 
# 
# 
# High freq. dielectric constant tensor:
#      x y z
#    x 1.803030 0.000000 0.024170 
#    y 0.000000 1.817010 0.000000 
#    z 0.024170 0.000000 1.835270 
# 
# From -- ./inp_files/61943.got.cif
#   From: 2010.06.25/outbox.cif.g09.slc.cpg/sg13_31_cif.got.tgz:61943.got - 2010.06.28 04:50:58.
