data_PCOD8122849
_publ_section_title
;
Structure prediction by ZEFSAII (Michael W. Deem and Ramdas Pophale) SiO2 
 PCOD8122849
Probable space group: P 2/C
;
_chemical_formula_sum "Si O2"
_cell_formula_units_Z 32
_cell_length_a 9.198360
_cell_length_b 22.640335
_cell_length_c 15.214122
_cell_angle_alpha 90.000000
_cell_angle_beta 150.932545
_cell_angle_gamma 90.000000
_cell_volume 1539.332738
_symmetry_space_group_name_H-M "P 2/C"
_symmetry_group_IT_number 13
_symmetry_cell_setting 'monoclinic'
loop_
_space_group_symop_operation_xyz
x,y,z
-x,y,1/2-z
-x,-y,-z
x,-y,1/2+z
loop_
_atom_site_type_symbol
_atom_site_label
_atom_site_fract_x
_atom_site_fract_y
_atom_site_fract_z
Si Si1 0.810751 0.765744 0.237155
Si Si2 0.181951 0.371307 0.759032
Si Si3 0.541796 0.966898 0.375561
Si Si4 0.202038 0.158079 0.442500
Si Si5 0.950904 0.071243 0.626947
Si Si6 0.695461 0.457616 0.047305
Si Si7 0.187960 0.544990 0.543985
Si Si8 0.143497 0.824200 0.557373
O O1 0.734078 0.697154 0.194119
O O2 0.000000 0.784653 0.250000
O O3 0.017083 0.770459 0.433037
O O4 0.508363 0.804657 0.090619
O O5 0.000000 0.389764 0.750000
O O6 0.985403 0.394370 0.572596
O O7 0.506283 0.400552 0.921434
O O8 0.500000 0.961267 0.250000
O O9 0.723506 0.910959 0.508662
O O10 0.223231 0.972121 0.252593
O O11 0.664100 0.030090 0.469855
O O12 0.000000 0.168510 0.250000
O O13 0.012971 0.176819 0.429465
O O14 0.000000 0.100080 0.750000
O O15 0.946324 0.118906 0.547346
O O16 0.000000 0.432849 0.250000
O O17 0.500000 0.500000 0.000000
O O18 0.770352 0.502136 0.012646
O O19 0.500000 0.566115 0.750000
O O20 0.000000 0.500000 0.500000
O O21 0.500000 0.819065 0.750000
#
# Coordination Sequence:
#
# PCOD8122849 Si02
#       8
#     4   4   4   4   4   4   4   4
#     4  11  25  50  73  98 138 186 241 293 352 416
#     4  11  24  43  70 100 133 181 228 278 338 419
#     4  12  24  44  67 104 145 182 226 290 351 416
#     4  12  26  47  74 102 138 185 236 288 353 423
#     4  12  26  42  70 105 146 180 228 287 353 422
#     4  12  20  39  67  93 136 182 216 268 336 407
#     4  12  22  37  61 101 139 174 218 274 338 393
#     4  12  26  46  74 101 140 185 231 292 355 418
#
# _framework density 20.788228
#
# number of rings (size 3 to 8) (size 9 to 14) (size 15 to 20)
#    0.000    0.250    6.250    3.000    3.500    1.000 
#    4.500    0.000    0.000    0.000    0.000    0.000 
#    0.000    0.000    0.000    0.000    0.000    0.000 
#
# Total GULP energy -396480.545873 kJ/mol
# GULP energy per Si atom -12390.017059 kJ/mol
# Density = 2.074091 g / cm^3
# Si number density = 20.788228 Si / 1000 Ang^3
#
#
#
# Elastic Constant Matrix: (Units=GPa)
#
#
# Indices 1 2 3 4 5 6 
#
# 1 103.9934 8.5766 39.4783 0.0000 -12.7372 0.0000
# 2 8.5766 79.9232 24.9463 0.0000 -4.6477 0.0000
# 3 39.4783 24.9463 154.6144 0.0000 -2.7109 0.0000
# 4 0.0000 0.0000 0.0000 11.1075 0.0000 -11.4291
# 5 -12.7372 -4.6477 -2.7109 0.0000 38.7197 0.0000
# 6 0.0000 0.0000 0.0000 -11.4291 0.0000 18.9974
#
#
#
# Elastic Compliance Matrix: (Units=1/GPa)
#
#
# Indices 1 2 3 4 5 6 
#
# 1 0.011092 -0.000132 -0.002751 0.000000 0.003441 0.000000
# 2 -0.000132 0.013257 -0.002081 0.000000 0.001402 0.000000
# 3 -0.002751 -0.002081 0.007495 0.000000 -0.000630 0.000000
# 4 0.000000 0.000000 0.000000 0.236318 0.000000 0.142173
# 5 0.003441 0.001402 -0.000630 0.000000 0.027083 0.000000
# 6 0.000000 0.000000 0.000000 0.142173 0.000000 0.138172
#
#
# Mechanical properties :
#
#
# Convention : Reuss Voigt Hill
#
# Bulk Modulus (GPa) = 45.62453 53.83706 49.73080
# Shear Modulus (GPa) = 11.09510 31.46693 21.28102
#
# Velocity S-wave (km/s) = 2.31275 3.89484 3.20301
# Velocity P-wave (km/s) = 5.39691 6.79562 6.13625
#
# Compressibility (1/GPa) = 0.02191803
#
# Stress axis : x y z
#
# Youngs Moduli (GPa) = 90.15108 75.43092 133.42708
#
# Poissons Ratio (x) = 0.00993 0.36702
# Poissons Ratio (y) = 0.01187 0.27763
# Poissons Ratio (z) = 0.24798 0.15695
#
# Static dielectric constant tensor:
#      x y z
#    x 4.035990 0.000000 -0.127260 
#    y 0.000000 3.787130 0.000000 
#    z -0.127260 0.000000 4.747420 
# 
# 
# High freq. dielectric constant tensor:
#      x y z
#    x 1.835420 0.000000 0.004110 
#    y 0.000000 1.806100 0.000000 
#    z 0.004110 0.000000 1.829230 
# 
# From -- ./inp_files/48312.got.cif
#   From: 2010.06.25/outbox.cif.g09.slc.cpg/sg13_25_cif.got.tgz:48312.got - 2010.06.28 04:50:58.
