data_PCOD8122132
_publ_section_title
;
Structure prediction by ZEFSAII (Michael W. Deem and Ramdas Pophale) SiO2 
 PCOD8122132
Probable space group: P 2/C
;
_chemical_formula_sum "Si O2"
_cell_formula_units_Z 24
_cell_length_a 23.141828
_cell_length_b 5.320897
_cell_length_c 23.845294
_cell_angle_alpha 90.000000
_cell_angle_beta 159.094733
_cell_angle_gamma 90.000000
_cell_volume 1047.705205
_symmetry_space_group_name_H-M "P 2/C"
_symmetry_group_IT_number 13
_symmetry_cell_setting 'monoclinic'
loop_
_space_group_symop_operation_xyz
x,y,z
-x,y,1/2-z
-x,-y,-z
x,-y,1/2+z
loop_
_atom_site_type_symbol
_atom_site_label
_atom_site_fract_x
_atom_site_fract_y
_atom_site_fract_z
Si Si1 0.361980 0.806195 0.266559
Si Si2 0.901821 0.657278 0.263500
Si Si3 0.085813 0.246100 0.598262
Si Si4 0.806831 0.295031 0.994252
Si Si5 0.545919 0.705524 0.911746
Si Si6 0.500000 0.619698 0.750000
Si Si7 0.000000 0.004599 0.750000
O O1 0.267185 0.769541 0.238710
O O2 0.429767 0.530264 0.315626
O O3 0.487832 0.037300 0.389822
O O4 0.245881 0.873341 0.107573
O O5 0.919010 0.779877 0.339583
O O6 0.024562 0.426413 0.370264
O O7 0.713650 0.590587 0.086112
O O8 0.938293 0.846735 0.247142
O O9 0.000000 0.500000 0.500000
O O10 0.000000 0.000000 0.500000
O O11 0.845838 0.147590 0.086894
O O12 0.659158 0.466539 0.878405
O O13 0.549142 0.783858 0.848641
#
# Coordination Sequence:
#
# PCOD8122132 Si02
#       7
#     4   4   4   4   4   2   2
#     4  11  26  47  74 105 148 196 252 299 376 440
#     4  12  28  46  75 112 148 199 252 313 377 447
#     4  12  26  49  79 110 147 199 250 310 370 449
#     4  11  25  45  71 106 147 200 248 313 373 461
#     4  11  27  44  72 109 149 196 244 313 368 445
#     4  10  24  44  70 104 150 194 248 296 386 440
#     4  12  26  42  72 110 152 184 258 310 384 438
#
# _framework density 22.907208000000001
#
# number of rings (size 3 to 8) (size 9 to 14) (size 15 to 20)
#    0.000    0.667    1.667    4.500   16.333    2.000 
#    0.000    0.000    0.000    0.000    0.000    0.000 
#    0.000    0.000    0.000    0.000    0.000    0.000 
#
# Total GULP energy -297413.640500 kJ/mol
# GULP energy per Si atom -12392.235021 kJ/mol
# Density = 2.285507 g / cm^3
# Si number density = 22.907208 Si / 1000 Ang^3
#
#
#
# Elastic Constant Matrix: (Units=GPa)
#
#
# Indices 1 2 3 4 5 6 
#
# 1 163.2734 41.2407 46.1032 0.0000 -7.0398 0.0000
# 2 41.2407 109.7704 31.1623 0.0000 5.0253 0.0000
# 3 46.1032 31.1623 110.4235 0.0000 4.7549 0.0000
# 4 0.0000 0.0000 0.0000 120.1981 0.0000 156.7447
# 5 -7.0398 5.0253 4.7549 0.0000 44.2375 0.0000
# 6 0.0000 0.0000 0.0000 156.7447 0.0000 296.6225
#
#
#
# Elastic Compliance Matrix: (Units=1/GPa)
#
#
# Indices 1 2 3 4 5 6 
#
# 1 0.007472 -0.002151 -0.002586 0.000000 0.001711 0.000000
# 2 -0.002151 0.010553 -0.002023 0.000000 -0.001324 0.000000
# 3 -0.002586 -0.002023 0.010764 0.000000 -0.001339 0.000000
# 4 0.000000 0.000000 0.000000 0.026760 0.000000 -0.014141
# 5 0.001711 -0.001324 -0.001339 0.000000 0.023172 0.000000
# 6 0.000000 0.000000 0.000000 -0.014141 0.000000 0.010844
#
#
# Mechanical properties :
#
#
# Convention : Reuss Voigt Hill
#
# Bulk Modulus (GPa) = 65.49471 68.94220 67.21846
# Shear Modulus (GPa) = 46.22101 109.87571 78.04836
#
# Velocity S-wave (km/s) = 4.49681 6.93323 5.84341
# Velocity P-wave (km/s) = 7.45755 9.70848 8.65649
#
# Compressibility (1/GPa) = 0.01526841
#
# Stress axis : x y z
#
# Youngs Moduli (GPa) = 133.82943 94.75897 92.89903
#
# Poissons Ratio (x) = 0.20387 0.24026
# Poissons Ratio (y) = 0.28793 0.18793
# Poissons Ratio (z) = 0.34612 0.19169
#
# Static dielectric constant tensor:
#      x y z
#    x 5.362150 0.000000 -0.775920 
#    y 0.000000 3.957410 0.000000 
#    z -0.775920 0.000000 5.692210 
# 
# 
# High freq. dielectric constant tensor:
#      x y z
#    x 1.922670 0.000000 0.003610 
#    y 0.000000 1.895180 0.000000 
#    z 0.003610 0.000000 1.916640 
# 
# From -- ./inp_files/84314.got.cif
#   From: 2010.06.25/outbox.cif.g09.slc.cpg/sg13_43_cif.got.tgz:84314.got - 2010.06.28 04:50:58.
