data_PCOD8122541
_publ_section_title
;
Structure prediction by ZEFSAII (Michael W. Deem and Ramdas Pophale) SiO2 
 PCOD8122541
Probable space group: P 2/C
;
_chemical_formula_sum "Si O2"
_cell_formula_units_Z 16
_cell_length_a 15.806329
_cell_length_b 8.992559
_cell_length_c 20.041302
_cell_angle_alpha 90.000000
_cell_angle_beta 18.481624
_cell_angle_gamma 90.000000
_cell_volume 903.025849
_symmetry_space_group_name_H-M "P 2/C"
_symmetry_group_IT_number 13
_symmetry_cell_setting 'monoclinic'
loop_
_space_group_symop_operation_xyz
x,y,z
-x,y,1/2-z
-x,-y,-z
x,-y,1/2+z
loop_
_atom_site_type_symbol
_atom_site_label
_atom_site_fract_x
_atom_site_fract_y
_atom_site_fract_z
Si Si1 0.935528 0.156687 0.924696
Si Si2 0.457046 0.672144 0.021508
Si Si3 0.494762 0.843322 0.645053
Si Si4 0.216245 0.098243 0.141878
O O1 0.152024 0.287538 0.767199
O O2 0.784178 0.142541 0.107935
O O3 0.734984 0.197818 0.015032
O O4 0.079218 0.000009 0.802316
O O5 0.500000 0.500000 0.000000
O O6 0.524665 0.712475 0.894516
O O7 0.656753 0.756537 0.921582
O O8 0.553123 0.999981 0.565344
O O9 0.000000 0.152450 0.250000
#
# Coordination Sequence:
#
# PCOD8122541 Si02
#       4
#     4   4   4   4
#     4   9  18  35  57  76  96 128 172 216 252 290
#     4  11  22  32  49  77 109 139 163 197 250 310
#     4   9  18  35  57  76  96 128 172 216 252 290
#     4   9  19  34  52  75  99 129 172 215 250 288
#
# _framework density 17.718209000000002
#
# number of rings (size 3 to 8) (size 9 to 14) (size 15 to 20)
#    0.000    2.500    0.000    5.250    0.000    7.000 
#    0.000    0.000    0.000    6.000    0.000    0.000 
#    0.000    0.000    0.000    0.000    0.000    0.000 
#
# Total GULP energy -198437.295894 kJ/mol
# GULP energy per Si atom -12402.330993 kJ/mol
# Density = 1.767788 g / cm^3
# Si number density = 17.718209 Si / 1000 Ang^3
#
#
#
# Elastic Constant Matrix: (Units=GPa)
#
#
# Indices 1 2 3 4 5 6 
#
# 1 101.1241 76.5873 63.6889 0.0000 8.4859 0.0000
# 2 76.5873 152.8166 68.8522 0.0000 -3.6440 0.0000
# 3 63.6889 68.8522 159.3375 0.0000 18.5516 0.0000
# 4 0.0000 0.0000 0.0000 7.7985 0.0000 -4.0107
# 5 8.4859 -3.6440 18.5516 0.0000 32.5508 0.0000
# 6 0.0000 0.0000 0.0000 -4.0107 0.0000 16.3900
#
#
#
# Elastic Compliance Matrix: (Units=1/GPa)
#
#
# Indices 1 2 3 4 5 6 
#
# 1 0.018186 -0.007587 -0.003577 0.000000 -0.003552 0.000000
# 2 -0.007587 0.011598 -0.002528 0.000000 0.004717 0.000000
# 3 -0.003577 -0.002528 0.009343 0.000000 -0.004675 0.000000
# 4 0.000000 0.000000 0.000000 0.146690 0.000000 0.035895
# 5 -0.003552 0.004717 -0.004675 0.000000 0.034840 0.000000
# 6 0.000000 0.000000 0.000000 0.035895 0.000000 0.069797
#
#
# Mechanical properties :
#
#
# Convention : Reuss Voigt Hill
#
# Bulk Modulus (GPa) = 85.16798 92.39278 88.78038
# Shear Modulus (GPa) = 15.53995 24.95785 20.24890
#
# Velocity S-wave (km/s) = 2.96473 3.75720 3.38424
# Velocity P-wave (km/s) = 7.73899 8.43095 8.09237
#
# Compressibility (1/GPa) = 0.01174150
#
# Stress axis : x y z
#
# Youngs Moduli (GPa) = 54.98691 86.22232 107.03772
#
# Poissons Ratio (x) = 0.65421 0.38287
# Poissons Ratio (y) = 0.41721 0.27060
# Poissons Ratio (z) = 0.19669 0.21798
#
# Static dielectric constant tensor:
#      x y z
#    x 3.456380 0.000000 0.046100 
#    y 0.000000 2.874510 0.000000 
#    z 0.046100 0.000000 3.553090 
# 
# 
# High freq. dielectric constant tensor:
#      x y z
#    x 1.703060 0.000000 -0.004190 
#    y 0.000000 1.650980 0.000000 
#    z -0.004190 0.000000 1.694000 
# 
# From -- ./inp_files/67879.got.cif
#   From: 2010.06.25/outbox.cif.g09.slc.cpg/sg13_34_cif.got.tgz:67879.got - 2010.06.28 04:50:58.
