data_PCOD8122086
_publ_section_title
;
Structure prediction by ZEFSAII (Michael W. Deem and Ramdas Pophale) SiO2 
 PCOD8122086
Probable space group: P 2/C
;
_chemical_formula_sum "Si O2"
_cell_formula_units_Z 24
_cell_length_a 10.195162
_cell_length_b 11.149409
_cell_length_c 11.766267
_cell_angle_alpha 90.000000
_cell_angle_beta 56.481319
_cell_angle_gamma 90.000000
_cell_volume 1115.058138
_symmetry_space_group_name_H-M "P 2/C"
_symmetry_group_IT_number 13
_symmetry_cell_setting 'monoclinic'
loop_
_space_group_symop_operation_xyz
x,y,z
-x,y,1/2-z
-x,-y,-z
x,-y,1/2+z
loop_
_atom_site_type_symbol
_atom_site_label
_atom_site_fract_x
_atom_site_fract_y
_atom_site_fract_z
Si Si1 0.325026 0.152771 0.872486
Si Si2 0.844117 0.074454 0.095706
Si Si3 0.336316 0.423573 0.269244
Si Si4 0.860167 0.679967 0.455070
Si Si5 0.788623 0.664686 0.245127
Si Si6 0.817661 0.769211 0.818797
O O1 0.500000 0.186237 0.750000
O O2 0.218795 0.219314 0.830772
O O3 0.300683 0.009733 0.873409
O O4 0.274133 0.199221 0.021304
O O5 0.823262 0.111838 0.237522
O O6 0.853199 0.191473 0.016114
O O7 0.000000 0.000000 0.000000
O O8 0.500000 0.386227 0.250000
O O9 0.211413 0.420316 0.429936
O O10 0.335172 0.560578 0.227666
O O11 0.285401 0.335078 0.191309
O O12 0.755726 0.696746 0.391747
O O13 0.030633 0.624925 0.349323
O O14 0.000000 0.727013 0.750000
#
# Coordination Sequence:
#
# PCOD8122086 Si02
#       6
#     4   4   4   4   4   4
#     4  12  27  42  70 107 141 179 237 291 355 414
#     4  11  22  45  69 100 138 182 232 286 351 416
#     4  11  26  44  69 100 141 180 227 292 356 411
#     4  10  24  42  70  98 132 183 238 283 339 423
#     4  11  24  43  69  98 138 181 232 287 345 423
#     4  11  25  45  75 101 139 192 237 285 347 427
#
# _framework density 21.523541000000002
#
# number of rings (size 3 to 8) (size 9 to 14) (size 15 to 20)
#    0.000    1.000    3.333    2.000    9.333    4.000 
#    0.000    0.000    0.000    0.000    0.000    0.000 
#    0.000    0.000    0.000    0.000    0.000    0.000 
#
# Total GULP energy -297506.588019 kJ/mol
# GULP energy per Si atom -12396.107834 kJ/mol
# Density = 2.147455 g / cm^3
# Si number density = 21.523541 Si / 1000 Ang^3
#
#
#
# Elastic Constant Matrix: (Units=GPa)
#
#
# Indices 1 2 3 4 5 6 
#
# 1 121.6004 36.8108 48.4193 0.0000 10.0905 0.0000
# 2 36.8108 69.8836 19.6563 0.0000 3.1429 0.0000
# 3 48.4193 19.6563 133.2328 0.0000 17.1755 0.0000
# 4 0.0000 0.0000 0.0000 16.6000 0.0000 -1.9628
# 5 10.0905 3.1429 17.1755 0.0000 39.9905 0.0000
# 6 0.0000 0.0000 0.0000 -1.9628 0.0000 35.3929
#
#
#
# Elastic Compliance Matrix: (Units=1/GPa)
#
#
# Indices 1 2 3 4 5 6 
#
# 1 0.011047 -0.004883 -0.003159 0.000000 -0.001047 0.000000
# 2 -0.004883 0.017090 -0.000775 0.000000 0.000222 0.000000
# 3 -0.003159 -0.000775 0.009165 0.000000 -0.003078 0.000000
# 4 0.000000 0.000000 0.000000 0.060639 0.000000 0.003363
# 5 -0.001047 0.000222 -0.003078 0.000000 0.026575 0.000000
# 6 0.000000 0.000000 0.000000 0.003363 0.000000 0.028441
#
#
# Mechanical properties :
#
#
# Convention : Reuss Voigt Hill
#
# Bulk Modulus (GPa) = 50.84884 59.38773 55.11828
# Shear Modulus (GPa) = 28.22530 33.05205 30.63867
#
# Velocity S-wave (km/s) = 3.62521 3.92295 3.77702
# Velocity P-wave (km/s) = 6.41864 6.94056 6.68469
#
# Compressibility (1/GPa) = 0.01966613
#
# Stress axis : x y z
#
# Youngs Moduli (GPa) = 90.52499 58.51463 109.11096
#
# Poissons Ratio (x) = 0.28573 0.34470
# Poissons Ratio (y) = 0.44204 0.08460
# Poissons Ratio (z) = 0.28599 0.04537
#
# Static dielectric constant tensor:
#      x y z
#    x 4.068690 0.000000 0.121060 
#    y 0.000000 4.120050 0.000000 
#    z 0.121060 0.000000 4.315280 
# 
# 
# High freq. dielectric constant tensor:
#      x y z
#    x 1.849080 0.000000 0.010600 
#    y 0.000000 1.842690 0.000000 
#    z 0.010600 0.000000 1.858760 
# 
# From -- ./inp_files/33725.got.cif
#   From: 2010.06.25/outbox.cif.g09.slc.cpg/sg13_17_cif.got.tgz:33725.got - 2010.06.28 04:50:58.
