data_PCOD8122192
_publ_section_title
;
Structure prediction by ZEFSAII (Michael W. Deem and Ramdas Pophale) SiO2 
 PCOD8122192
Probable space group: P 2/C
;
_chemical_formula_sum "Si O2"
_cell_formula_units_Z 24
_cell_length_a 10.503796
_cell_length_b 11.533771
_cell_length_c 9.486627
_cell_angle_alpha 90.000000
_cell_angle_beta 115.382820
_cell_angle_gamma 90.000000
_cell_volume 1038.341510
_symmetry_space_group_name_H-M "P 2/C"
_symmetry_group_IT_number 13
_symmetry_cell_setting 'monoclinic'
loop_
_space_group_symop_operation_xyz
x,y,z
-x,y,1/2-z
-x,-y,-z
x,-y,1/2+z
loop_
_atom_site_type_symbol
_atom_site_label
_atom_site_fract_x
_atom_site_fract_y
_atom_site_fract_z
Si Si1 0.000000 0.772257 0.250000
Si Si2 0.699723 0.701673 0.427259
Si Si3 0.645638 0.915270 0.879090
Si Si4 0.983853 0.634361 0.974894
Si Si5 0.307375 0.306735 0.270653
Si Si6 0.500000 0.499833 0.250000
Si Si7 0.731235 0.106160 0.731531
O O1 0.065877 0.690743 0.401212
O O2 0.115071 0.856742 0.241540
O O3 0.663974 0.754342 0.564590
O O4 0.617377 0.579967 0.379597
O O5 0.653116 0.789384 0.280335
O O6 0.868024 0.686539 0.502993
O O7 0.500000 0.966158 0.750000
O O8 0.662591 0.781385 0.842676
O O9 0.756881 0.997561 0.849963
O O10 0.647099 0.925894 0.048850
O O11 0.856770 0.655825 0.805656
O O12 0.000000 0.500000 0.000000
O O13 0.410894 0.417732 0.312233
#
# Coordination Sequence:
#
# PCOD8122192 Si02
#       7
#     2   4   4   4   4   2   4
#     4  10  24  46  70 102 140 182 234 296 344 410
#     4  11  27  43  71 103 142 185 233 290 353 416
#     4  12  26  46  74  99 142 182 236 292 349 419
#     4  11  23  43  70  99 141 188 235 283 346 417
#     4  12  25  46  69 107 139 190 235 287 353 416
#     4  12  26  42  72 104 150 182 232 288 350 424
#     4  11  26  49  71 105 137 185 236 291 356 412
#
# _framework density 23.113783000000002
#
# number of rings (size 3 to 8) (size 9 to 14) (size 15 to 20)
#    0.000    0.667    4.167    2.500    5.833    2.000 
#    3.000    0.000    0.000    0.000    0.000    0.000 
#    0.000    0.000    0.000    0.000    0.000    0.000 
#
# Total GULP energy -297527.265322 kJ/mol
# GULP energy per Si atom -12396.969388 kJ/mol
# Density = 2.306117 g / cm^3
# Si number density = 23.113783 Si / 1000 Ang^3
#
#
#
# Elastic Constant Matrix: (Units=GPa)
#
#
# Indices 1 2 3 4 5 6 
#
# 1 95.0443 31.4646 48.6556 0.0000 11.2571 0.0000
# 2 31.4646 115.0469 49.6411 0.0000 -4.8685 0.0000
# 3 48.6556 49.6411 171.7631 0.0000 -22.4448 0.0000
# 4 0.0000 0.0000 0.0000 33.0556 0.0000 -3.5279
# 5 11.2571 -4.8685 -22.4448 0.0000 27.8519 0.0000
# 6 0.0000 0.0000 0.0000 -3.5279 0.0000 37.6734
#
#
#
# Elastic Compliance Matrix: (Units=1/GPa)
#
#
# Indices 1 2 3 4 5 6 
#
# 1 0.015110 -0.002442 -0.004949 0.000000 -0.010523 0.000000
# 2 -0.002442 0.010336 -0.002157 0.000000 0.001055 0.000000
# 3 -0.004949 -0.002157 0.009008 0.000000 0.008883 0.000000
# 4 0.000000 0.000000 0.000000 0.030557 0.000000 0.002862
# 5 -0.010523 0.001055 0.008883 0.000000 0.047500 0.000000
# 6 0.000000 0.000000 0.000000 0.002862 0.000000 0.026812
#
#
# Mechanical properties :
#
#
# Convention : Reuss Voigt Hill
#
# Bulk Modulus (GPa) = 65.12204 71.26410 68.19307
# Shear Modulus (GPa) = 30.57366 36.52239 33.54802
#
# Velocity S-wave (km/s) = 3.64090 3.97938 3.81390
# Velocity P-wave (km/s) = 6.77574 7.21198 6.99726
#
# Compressibility (1/GPa) = 0.01535578
#
# Stress axis : x y z
#
# Youngs Moduli (GPa) = 66.18171 96.75338 111.00949
#
# Poissons Ratio (x) = 0.23629 0.54943
# Poissons Ratio (y) = 0.16163 0.23949
# Poissons Ratio (z) = 0.32756 0.20874
#
# Static dielectric constant tensor:
#      x y z
#    x 4.891150 0.000000 0.104400 
#    y 0.000000 4.111350 0.000000 
#    z 0.104400 0.000000 3.940720 
# 
# 
# High freq. dielectric constant tensor:
#      x y z
#    x 1.924370 0.000000 -0.005740 
#    y 0.000000 1.912170 0.000000 
#    z -0.005740 0.000000 1.917350 
# 
# From -- ./inp_files/15990.got.cif
#   From: 2010.06.25/outbox.cif.g09.slc.cpg/sg13_8_cif.got.tgz:15990.got - 2010.06.28 04:50:58.
