data_PCOD8122202
_publ_section_title
;
Structure prediction by ZEFSAII (Michael W. Deem and Ramdas Pophale) SiO2 
 PCOD8122202
Probable space group: P 2/C
;
_chemical_formula_sum "Si O2"
_cell_formula_units_Z 24
_cell_length_a 22.969990
_cell_length_b 8.351702
_cell_length_c 10.244020
_cell_angle_alpha 90.000000
_cell_angle_beta 32.914761
_cell_angle_gamma 90.000000
_cell_volume 1067.870153
_symmetry_space_group_name_H-M "P 2/C"
_symmetry_group_IT_number 13
_symmetry_cell_setting 'monoclinic'
loop_
_space_group_symop_operation_xyz
x,y,z
-x,y,1/2-z
-x,-y,-z
x,-y,1/2+z
loop_
_atom_site_type_symbol
_atom_site_label
_atom_site_fract_x
_atom_site_fract_y
_atom_site_fract_z
Si Si1 0.113876 0.180924 0.492241
Si Si2 0.958738 0.871733 0.972295
Si Si3 0.608020 0.844590 0.705283
Si Si4 0.203058 0.667966 0.062844
Si Si5 0.165118 0.299607 0.109432
Si Si6 0.368553 0.119316 0.633477
O O1 0.202619 0.230060 0.430153
O O2 0.152937 0.244242 0.280572
O O3 0.101226 0.985904 0.521412
O O4 0.000000 0.259666 0.750000
O O5 0.062432 0.770758 0.722036
O O6 0.878726 0.743364 0.180552
O O7 0.000000 0.000000 0.000000
O O8 0.678200 0.683667 0.597626
O O9 0.635430 0.925047 0.513089
O O10 0.643495 0.965518 0.752398
O O11 0.483327 0.797670 0.948715
O O12 0.166931 0.489882 0.100195
O O13 0.276021 0.244436 0.838731
#
# Coordination Sequence:
#
# PCOD8122202 Si02
#       6
#     4   4   4   4   4   4
#     4  11  26  43  66 100 136 186 233 275 338 418
#     4  11  25  42  67  96 134 184 232 275 341 413
#     4  10  24  46  73 103 134 183 233 291 334 416
#     4  12  27  42  69 104 139 179 229 289 350 409
#     4  12  26  42  69 100 141 182 225 289 349 412
#     4  10  24  47  73 101 138 181 236 282 346 405
#
# _framework density 22.474640000000001
#
# number of rings (size 3 to 8) (size 9 to 14) (size 15 to 20)
#    0.000    1.000    1.667    3.000   16.333    0.667 
#    0.000    0.000    0.000    0.000    0.000    0.000 
#    0.000    0.000    0.000    0.000    0.000    0.000 
#
# Total GULP energy -297515.705703 kJ/mol
# GULP energy per Si atom -12396.487738 kJ/mol
# Density = 2.242349 g / cm^3
# Si number density = 22.474640 Si / 1000 Ang^3
#
#
#
# Elastic Constant Matrix: (Units=GPa)
#
#
# Indices 1 2 3 4 5 6 
#
# 1 113.4362 56.8655 51.3595 0.0000 1.4959 0.0000
# 2 56.8655 147.0824 64.0514 0.0000 -15.9568 0.0000
# 3 51.3595 64.0514 146.1307 0.0000 -2.2509 0.0000
# 4 0.0000 0.0000 0.0000 31.0894 0.0000 -1.3851
# 5 1.4959 -15.9568 -2.2509 0.0000 43.4692 0.0000
# 6 0.0000 0.0000 0.0000 -1.3851 0.0000 25.3026
#
#
#
# Elastic Compliance Matrix: (Units=1/GPa)
#
#
# Indices 1 2 3 4 5 6 
#
# 1 0.011846 -0.003657 -0.002590 0.000000 -0.001884 0.000000
# 2 -0.003657 0.009912 -0.003004 0.000000 0.003609 0.000000
# 3 -0.002590 -0.003004 0.009062 0.000000 -0.000544 0.000000
# 4 0.000000 0.000000 0.000000 0.032244 0.000000 0.001765
# 5 -0.001884 0.003609 -0.000544 0.000000 0.024366 0.000000
# 6 0.000000 0.000000 0.000000 0.001765 0.000000 0.039618
#
#
# Mechanical properties :
#
#
# Convention : Reuss Voigt Hill
#
# Bulk Modulus (GPa) = 81.17251 83.46692 82.31972
# Shear Modulus (GPa) = 33.41010 35.59709 34.50359
#
# Velocity S-wave (km/s) = 3.85979 3.98411 3.92244
# Velocity P-wave (km/s) = 7.48730 7.64088 7.56448
#
# Compressibility (1/GPa) = 0.01231944
#
# Stress axis : x y z
#
# Youngs Moduli (GPa) = 84.41737 100.88449 110.35474
#
# Poissons Ratio (x) = 0.36889 0.28578
# Poissons Ratio (y) = 0.30868 0.33151
# Poissons Ratio (z) = 0.21862 0.30306
#
# Static dielectric constant tensor:
#      x y z
#    x 4.592300 0.000000 -0.067400 
#    y 0.000000 3.987710 0.000000 
#    z -0.067400 0.000000 4.458900 
# 
# 
# High freq. dielectric constant tensor:
#      x y z
#    x 1.910400 0.000000 0.007510 
#    y 0.000000 1.860240 0.000000 
#    z 0.007510 0.000000 1.900450 
# 
# From -- ./inp_files/42167.got.cif
#   From: 2010.06.25/outbox.cif.g09.slc.cpg/sg13_22_cif.got.tgz:42167.got - 2010.06.28 04:50:58.
