data_PCOD8122076
_publ_section_title
;
Structure prediction by ZEFSAII (Michael W. Deem and Ramdas Pophale) SiO2 
 PCOD8122076
Probable space group: P 2/C
;
_chemical_formula_sum "Si O2"
_cell_formula_units_Z 26
_cell_length_a 6.968582
_cell_length_b 11.285504
_cell_length_c 17.712953
_cell_angle_alpha 90.000000
_cell_angle_beta 121.922061
_cell_angle_gamma 90.000000
_cell_volume 1182.348274
_symmetry_space_group_name_H-M "P 2/C"
_symmetry_group_IT_number 13
_symmetry_cell_setting 'monoclinic'
loop_
_space_group_symop_operation_xyz
x,y,z
-x,y,1/2-z
-x,-y,-z
x,-y,1/2+z
loop_
_atom_site_type_symbol
_atom_site_label
_atom_site_fract_x
_atom_site_fract_y
_atom_site_fract_z
Si Si1 0.932959 0.460100 0.319469
Si Si2 0.187641 0.875104 0.615135
Si Si3 0.937668 0.896529 0.323700
Si Si4 0.616994 0.116301 0.498540
Si Si5 0.239446 0.719769 0.975286
Si Si6 0.500000 0.312209 0.250000
Si Si7 0.712195 0.672999 0.340719
O O1 0.125578 0.383213 0.401643
O O2 0.000000 0.500761 0.250000
O O3 0.698333 0.390815 0.255425
O O4 0.908712 0.576684 0.366472
O O5 0.289083 0.929886 0.561391
O O6 0.370881 0.772579 0.665658
O O7 0.941277 0.822658 0.547986
O O8 0.162453 0.974913 0.674105
O O9 0.755220 0.799378 0.310140
O O10 0.000000 0.903363 0.250000
O O11 0.166569 0.851542 0.408275
O O12 0.447457 0.228550 0.468931
O O13 0.500000 0.000000 0.500000
O O14 0.325138 0.678700 0.076284
O O15 0.500000 0.621338 0.250000
#
# Coordination Sequence:
#
# PCOD8122076 Si02
#       7
#     4   4   4   4   4   2   4
#     4  11  24  47  71 102 136 177 236 291 343 405
#     4  11  24  43  67  99 138 177 231 282 335 407
#     4  12  26  42  66 103 141 182 230 278 346 417
#     4  12  23  42  67  98 138 176 220 282 344 398
#     4  11  24  45  73 100 135 185 230 283 344 411
#     4  10  24  42  68  96 134 174 230 284 344 388
#     4  12  25  47  69 100 144 183 228 285 349 414
#
# _framework density 21.990137000000001
#
# number of rings (size 3 to 8) (size 9 to 14) (size 15 to 20)
#    0.000    0.615    3.846    4.154    3.231    2.462 
#    0.000    1.538    0.000    0.000    0.000    0.000 
#    0.000    0.000    0.000    0.000    0.000    0.000 
#
# Total GULP energy -322210.579686 kJ/mol
# GULP energy per Si atom -12392.714603 kJ/mol
# Density = 2.194009 g / cm^3
# Si number density = 21.990137 Si / 1000 Ang^3
#
#
#
# Elastic Constant Matrix: (Units=GPa)
#
#
# Indices 1 2 3 4 5 6 
#
# 1 89.7380 16.0219 36.4781 0.0000 -13.1232 0.0000
# 2 16.0219 92.4023 13.7651 0.0000 -2.7863 0.0000
# 3 36.4781 13.7651 84.2769 0.0000 -9.9975 0.0000
# 4 0.0000 0.0000 0.0000 22.7536 0.0000 -2.1514
# 5 -13.1232 -2.7863 -9.9975 0.0000 43.4699 0.0000
# 6 0.0000 0.0000 0.0000 -2.1514 0.0000 45.8964
#
#
#
# Elastic Compliance Matrix: (Units=1/GPa)
#
#
# Indices 1 2 3 4 5 6 
#
# 1 0.014075 -0.001534 -0.005499 0.000000 0.002886 0.000000
# 2 -0.001534 0.011263 -0.001177 0.000000 -0.000012 0.000000
# 3 -0.005499 -0.001177 0.014631 0.000000 0.001629 0.000000
# 4 0.000000 0.000000 0.000000 0.044145 0.000000 0.002069
# 5 0.002886 -0.000012 0.001629 0.000000 0.024250 0.000000
# 6 0.000000 0.000000 0.000000 0.002069 0.000000 0.021885
#
#
# Mechanical properties :
#
#
# Convention : Reuss Voigt Hill
#
# Bulk Modulus (GPa) = 42.46509 44.32748 43.39629
# Shear Modulus (GPa) = 32.35833 35.76743 34.06288
#
# Velocity S-wave (km/s) = 3.84017 4.03739 3.94001
# Velocity P-wave (km/s) = 6.24623 6.47578 6.36204
#
# Compressibility (1/GPa) = 0.02354876
#
# Stress axis : x y z
#
# Youngs Moduli (GPa) = 71.04827 88.78432 68.34608
#
# Poissons Ratio (x) = 0.13622 0.37585
# Poissons Ratio (y) = 0.10901 0.08044
# Poissons Ratio (z) = 0.39071 0.10450
#
# Static dielectric constant tensor:
#      x y z
#    x 4.232820 0.000000 0.201110 
#    y 0.000000 3.999310 0.000000 
#    z 0.201110 0.000000 4.113820 
# 
# 
# High freq. dielectric constant tensor:
#      x y z
#    x 1.878040 0.000000 0.004980 
#    y 0.000000 1.873250 0.000000 
#    z 0.004980 0.000000 1.867130 
# 
# From -- ./inp_files/73729.got.cif
#   From: 2010.06.25/outbox.cif.g09.slc.cpg/sg13_37_cif.got.tgz:73729.got - 2010.06.28 04:50:58.
