data_PCOD8122831
_publ_section_title
;
Structure prediction by ZEFSAII (Michael W. Deem and Ramdas Pophale) SiO2 
 PCOD8122831
Probable space group: P 2/C
;
_chemical_formula_sum "Si O2"
_cell_formula_units_Z 16
_cell_length_a 8.012935
_cell_length_b 18.218995
_cell_length_c 9.183740
_cell_angle_alpha 90.000000
_cell_angle_beta 146.579797
_cell_angle_gamma 90.000000
_cell_volume 738.430964
_symmetry_space_group_name_H-M "P 2/C"
_symmetry_group_IT_number 13
_symmetry_cell_setting 'monoclinic'
loop_
_space_group_symop_operation_xyz
x,y,z
-x,y,1/2-z
-x,-y,-z
x,-y,1/2+z
loop_
_atom_site_type_symbol
_atom_site_label
_atom_site_fract_x
_atom_site_fract_y
_atom_site_fract_z
Si Si1 0.201221 0.044653 0.257417
Si Si2 0.836068 0.560103 0.475931
Si Si3 0.144683 0.296190 0.703289
Si Si4 0.236407 0.790016 0.789647
O O1 0.304275 0.126551 0.289717
O O2 0.000000 0.053693 0.250000
O O3 0.500000 0.000000 0.500000
O O4 0.000000 0.000000 0.000000
O O5 0.500000 0.528584 0.250000
O O6 0.809615 0.635202 0.368461
O O7 0.000000 0.500000 0.500000
O O8 0.000000 0.573480 0.750000
O O9 0.000000 0.323045 0.750000
O O10 0.898511 0.243164 0.454684
O O11 0.459455 0.252857 0.946551
O O12 0.000000 0.783842 0.750000
#
# Coordination Sequence:
#
# PCOD8122831 Si02
#       4
#     4   4   4   4
#     4  11  24  41  64  93 128 169 216 268 326 388
#     4  12  26  46  71  99 134 174 216 269 325 388
#     4  12  25  42  66  98 130 168 217 268 323 385
#     4  11  24  43  65  92 129 173 216 265 326 389
#
# _framework density 21.667563999999999
#
# number of rings (size 3 to 8) (size 9 to 14) (size 15 to 20)
#    0.000    0.500    0.000    9.000    0.000   12.000 
#    0.000    0.000    0.000    0.000    0.000    0.000 
#    0.000    0.000    0.000    0.000    0.000    0.000 
#
# Total GULP energy -198412.853322 kJ/mol
# GULP energy per Si atom -12400.803333 kJ/mol
# Density = 2.161825 g / cm^3
# Si number density = 21.667564 Si / 1000 Ang^3
#
#
#
# Elastic Constant Matrix: (Units=GPa)
#
#
# Indices 1 2 3 4 5 6 
#
# 1 142.3329 37.3358 76.6122 0.0000 16.0934 0.0000
# 2 37.3358 199.3553 80.4661 0.0000 0.7493 0.0000
# 3 76.6122 80.4661 216.5500 0.0000 17.3039 0.0000
# 4 0.0000 0.0000 0.0000 38.5824 0.0000 11.4859
# 5 16.0934 0.7493 17.3039 0.0000 52.6651 0.0000
# 6 0.0000 0.0000 0.0000 11.4859 0.0000 27.7366
#
#
#
# Elastic Compliance Matrix: (Units=1/GPa)
#
#
# Indices 1 2 3 4 5 6 
#
# 1 0.008873 -0.000524 -0.002802 0.000000 -0.001783 0.000000
# 2 -0.000524 0.005954 -0.002088 0.000000 0.000761 0.000000
# 3 -0.002802 -0.002088 0.006484 0.000000 -0.001245 0.000000
# 4 0.000000 0.000000 0.000000 0.029563 0.000000 -0.012242
# 5 -0.001783 0.000761 -0.001245 0.000000 0.019931 0.000000
# 6 0.000000 0.000000 0.000000 -0.012242 0.000000 0.041123
#
#
# Mechanical properties :
#
#
# Convention : Reuss Voigt Hill
#
# Bulk Modulus (GPa) = 95.38482 105.22959 100.30720
# Shear Modulus (GPa) = 39.60357 48.05176 43.82767
#
# Velocity S-wave (km/s) = 4.27989 4.71434 4.50236
# Velocity P-wave (km/s) = 8.27894 8.84897 8.56869
#
# Compressibility (1/GPa) = 0.01048385
#
# Stress axis : x y z
#
# Youngs Moduli (GPa) = 112.70062 167.94847 154.21573
#
# Poissons Ratio (x) = 0.08803 0.43210
# Poissons Ratio (y) = 0.05907 0.32199
# Poissons Ratio (z) = 0.31578 0.35066
#
# Static dielectric constant tensor:
#      x y z
#    x 4.078140 0.000000 -0.076330 
#    y 0.000000 4.953090 0.000000 
#    z -0.076330 0.000000 3.819100 
# 
# 
# High freq. dielectric constant tensor:
#      x y z
#    x 1.866460 0.000000 0.002790 
#    y 0.000000 1.871570 0.000000 
#    z 0.002790 0.000000 1.872510 
# 
# From -- ./inp_files/9313.got.cif
#   From: 2010.06.25/outbox.cif.g09.slc.cpg/sg13_5_cif.got.tgz:9313.got - 2010.06.28 04:50:58.
