data_PCOD8122084
_publ_section_title
;
Structure prediction by ZEFSAII (Michael W. Deem and Ramdas Pophale) SiO2 
 PCOD8122084
Probable space group: P 2/C
;
_chemical_formula_sum "Si O2"
_cell_formula_units_Z 20
_cell_length_a 14.437608
_cell_length_b 6.380729
_cell_length_c 9.870921
_cell_angle_alpha 90.000000
_cell_angle_beta 77.560044
_cell_angle_gamma 90.000000
_cell_volume 887.984497
_symmetry_space_group_name_H-M "P 2/C"
_symmetry_group_IT_number 13
_symmetry_cell_setting 'monoclinic'
loop_
_space_group_symop_operation_xyz
x,y,z
-x,y,1/2-z
-x,-y,-z
x,-y,1/2+z
loop_
_atom_site_type_symbol
_atom_site_label
_atom_site_fract_x
_atom_site_fract_y
_atom_site_fract_z
Si Si1 0.913723 0.897967 0.605413
Si Si2 0.641004 0.826611 0.346088
Si Si3 0.500000 0.522621 0.250000
Si Si4 0.155996 0.214648 0.643812
Si Si5 0.000000 0.543320 0.750000
Si Si6 0.406702 0.118934 0.349711
O O1 0.832979 0.869279 0.514910
O O2 0.950255 0.676525 0.648739
O O3 0.880206 0.036367 0.742296
O O4 0.000000 0.000000 0.500000
O O5 0.558682 0.660430 0.337549
O O6 0.739532 0.705666 0.345857
O O7 0.608182 0.952557 0.491527
O O8 0.669339 0.003927 0.224416
O O9 0.418872 0.372498 0.343647
O O10 0.082735 0.404252 0.658937
O O11 0.500000 0.013505 0.250000
#
# Coordination Sequence:
#
# PCOD8122084 Si02
#       6
#     4   4   2   4   2   4
#     4  12  23  49  67  97 142 179 225 283 346 401
#     4  12  24  45  66 105 135 173 234 276 334 405
#     4  10  24  42  70  94 136 180 222 280 336 396
#     4  12  27  41  73 103 135 184 229 287 336 406
#     4  12  24  46  74  96 136 186 230 274 346 406
#     4  10  24  43  71  91 136 182 215 275 347 394
#
# _framework density 22.522914
#
# number of rings (size 3 to 8) (size 9 to 14) (size 15 to 20)
#    0.600    0.000    5.000    3.000    0.000    3.200 
#    0.000    0.000    0.000    0.000    0.000    0.000 
#    0.000    0.000    0.000    0.000    0.000    0.000 
#
# Total GULP energy -247769.590664 kJ/mol
# GULP energy per Si atom -12388.479533 kJ/mol
# Density = 2.247165 g / cm^3
# Si number density = 22.522914 Si / 1000 Ang^3
#
#
#
# Elastic Constant Matrix: (Units=GPa)
#
#
# Indices 1 2 3 4 5 6 
#
# 1 94.7100 33.3850 28.6097 0.0000 25.8900 0.0000
# 2 33.3850 110.9981 55.5573 0.0000 17.4215 0.0000
# 3 28.6097 55.5573 157.2207 0.0000 32.3651 0.0000
# 4 0.0000 0.0000 0.0000 32.0873 0.0000 10.4086
# 5 25.8900 17.4215 32.3651 0.0000 36.8862 0.0000
# 6 0.0000 0.0000 0.0000 10.4086 0.0000 24.9310
#
#
#
# Elastic Compliance Matrix: (Units=1/GPa)
#
#
# Indices 1 2 3 4 5 6 
#
# 1 0.013864 -0.002969 0.000294 0.000000 -0.008586 0.000000
# 2 -0.002969 0.011725 -0.003529 0.000000 -0.000357 0.000000
# 3 0.000294 -0.003529 0.008853 0.000000 -0.006307 0.000000
# 4 0.000000 0.000000 0.000000 0.036047 0.000000 -0.015049
# 5 -0.008586 -0.000357 -0.006307 0.000000 0.038839 0.000000
# 6 0.000000 0.000000 0.000000 -0.015049 0.000000 0.046394
#
#
# Mechanical properties :
#
#
# Convention : Reuss Voigt Hill
#
# Bulk Modulus (GPa) = 45.38971 66.44811 55.91891
# Shear Modulus (GPa) = 28.49430 35.13937 31.81684
#
# Velocity S-wave (km/s) = 3.56072 3.95417 3.76259
# Velocity P-wave (km/s) = 6.09109 7.10027 6.61495
#
# Compressibility (1/GPa) = 0.02203142
#
# Stress axis : x y z
#
# Youngs Moduli (GPa) = 72.13171 85.28933 112.96232
#
# Poissons Ratio (x) = 0.25325 -0.03321
# Poissons Ratio (y) = 0.21418 0.39870
# Poissons Ratio (z) = -0.02121 0.30102
#
# Static dielectric constant tensor:
#      x y z
#    x 56.482090 0.000000 41.225010 
#    y 0.000000 4.100530 0.000000 
#    z 41.225010 0.000000 36.450770 
# 
# 
# High freq. dielectric constant tensor:
#      x y z
#    x 1.891170 0.000000 0.014650 
#    y 0.000000 1.874530 0.000000 
#    z 0.014650 0.000000 1.901870 
# 
# From -- ./inp_files/20490.got.cif
#   From: 2010.06.25/outbox.cif.g09.slc.cpg/sg13_11_cif.got.tgz:20490.got - 2010.06.28 04:50:58.
