data_PCOD8122658
_publ_section_title
;
Structure prediction by ZEFSAII (Michael W. Deem and Ramdas Pophale) SiO2 
 PCOD8122658
Probable space group: P 2/C
;
_chemical_formula_sum "Si O2"
_cell_formula_units_Z 16
_cell_length_a 16.287978
_cell_length_b 7.102922
_cell_length_c 15.781330
_cell_angle_alpha 90.000000
_cell_angle_beta 24.783647
_cell_angle_gamma 90.000000
_cell_volume 765.353046
_symmetry_space_group_name_H-M "P 2/C"
_symmetry_group_IT_number 13
_symmetry_cell_setting 'monoclinic'
loop_
_space_group_symop_operation_xyz
x,y,z
-x,y,1/2-z
-x,-y,-z
x,-y,1/2+z
loop_
_atom_site_type_symbol
_atom_site_label
_atom_site_fract_x
_atom_site_fract_y
_atom_site_fract_z
Si Si1 0.084508 0.329332 0.758754
Si Si2 0.366590 0.354375 0.020121
Si Si3 0.697796 0.366108 0.221658
Si Si4 0.419719 0.052740 0.483447
O O1 0.206652 0.518573 0.621425
O O2 0.219902 0.172799 0.676651
O O3 0.000000 0.249343 0.750000
O O4 0.915571 0.379475 0.983145
O O5 0.297477 0.346730 0.181993
O O6 0.378827 0.141890 0.971005
O O7 0.581585 0.443749 0.807090
O O8 0.585475 0.185332 0.285020
O O9 0.500000 0.000000 0.500000
#
# Coordination Sequence:
#
# PCOD8122658 Si02
#       4
#     4   4   4   4
#     4  11  23  36  54  84 117 146 183 235 286 328
#     4   9  19  36  58  81 105 144 190 227 274 332
#     4   9  19  37  58  80 110 144 185 232 273 330
#     4   9  20  37  57  82 108 142 187 228 274 333
#
# _framework density 20.905384000000002
#
# number of rings (size 3 to 8) (size 9 to 14) (size 15 to 20)
#    0.000    2.500    0.000    2.250    0.000   11.000 
#    0.000    2.500    0.000    0.000    0.000    0.000 
#    0.000    0.000    0.000    0.000    0.000    0.000 
#
# Total GULP energy -198311.346154 kJ/mol
# GULP energy per Si atom -12394.459135 kJ/mol
# Density = 2.085780 g / cm^3
# Si number density = 20.905384 Si / 1000 Ang^3
#
#
#
# Elastic Constant Matrix: (Units=GPa)
#
#
# Indices 1 2 3 4 5 6 
#
# 1 58.8642 20.4209 30.8372 0.0000 -19.9304 0.0000
# 2 20.4209 158.9405 40.0552 0.0000 -17.6623 0.0000
# 3 30.8372 40.0552 95.6558 0.0000 -24.8019 0.0000
# 4 0.0000 0.0000 0.0000 17.2674 0.0000 -7.2337
# 5 -19.9304 -17.6623 -24.8019 0.0000 21.4964 0.0000
# 6 0.0000 0.0000 0.0000 -7.2337 0.0000 19.1350
#
#
#
# Elastic Compliance Matrix: (Units=1/GPa)
#
#
# Indices 1 2 3 4 5 6 
#
# 1 0.025351 -0.000319 -0.002872 0.000000 0.019929 0.000000
# 2 -0.000319 0.007216 -0.002081 0.000000 0.003233 0.000000
# 3 -0.002872 -0.002081 0.015863 0.000000 0.013930 0.000000
# 4 0.000000 0.000000 0.000000 0.068810 0.000000 0.026013
# 5 0.019929 0.003233 0.013930 0.000000 0.083725 0.000000
# 6 0.000000 0.000000 0.000000 0.026013 0.000000 0.062094
#
#
# Mechanical properties :
#
#
# Convention : Reuss Voigt Hill
#
# Bulk Modulus (GPa) = 26.39405 55.12080 40.75743
# Shear Modulus (GPa) = 17.46843 26.38956 21.92899
#
# Velocity S-wave (km/s) = 2.89380 3.55679 3.24228
# Velocity P-wave (km/s) = 4.88040 6.57964 5.79267
#
# Compressibility (1/GPa) = 0.03788732
#
# Stress axis : x y z
#
# Youngs Moduli (GPa) = 39.44643 138.57601 63.03932
#
# Poissons Ratio (x) = 0.04417 0.18104
# Poissons Ratio (y) = 0.01257 0.13117
# Poissons Ratio (z) = 0.11329 0.28834
#
# Static dielectric constant tensor:
#      x y z
#    x 3.476470 0.000000 -0.352340 
#    y 0.000000 4.655100 0.000000 
#    z -0.352340 0.000000 3.671290 
# 
# 
# High freq. dielectric constant tensor:
#      x y z
#    x 1.788850 0.000000 -0.024710 
#    y 0.000000 1.832020 0.000000 
#    z -0.024710 0.000000 1.812200 
# 
# From -- ./inp_files/69371.got.cif
#   From: 2010.06.25/outbox.cif.g09.slc.cpg/sg13_35_cif.got.tgz:69371.got - 2010.06.28 04:50:58.
