data_PCOD8122348
_publ_section_title
;
Structure prediction by ZEFSAII (Michael W. Deem and Ramdas Pophale) SiO2 
 PCOD8122348
Probable space group: P 2/C
;
_chemical_formula_sum "Si O2"
_cell_formula_units_Z 16
_cell_length_a 26.012934
_cell_length_b 6.279382
_cell_length_c 9.241067
_cell_angle_alpha 90.000000
_cell_angle_beta 28.319234
_cell_angle_gamma 90.000000
_cell_volume 716.074438
_symmetry_space_group_name_H-M "P 2/C"
_symmetry_group_IT_number 13
_symmetry_cell_setting 'monoclinic'
loop_
_space_group_symop_operation_xyz
x,y,z
-x,y,1/2-z
-x,-y,-z
x,-y,1/2+z
loop_
_atom_site_type_symbol
_atom_site_label
_atom_site_fract_x
_atom_site_fract_y
_atom_site_fract_z
Si Si1 0.420025 0.705152 0.698087
Si Si2 0.179441 0.353414 0.866336
Si Si3 0.000000 0.016336 0.250000
Si Si4 0.918952 0.643334 0.610910
Si Si5 0.500000 0.002918 0.750000
O O1 0.500000 0.500000 0.500000
O O2 0.429803 0.842665 0.526972
O O3 0.432402 0.851218 0.810297
O O4 0.296700 0.630173 0.004483
O O5 0.112800 0.555242 0.968242
O O6 0.187583 0.354432 0.020952
O O7 0.110186 0.146216 0.997684
O O8 0.973970 0.872370 0.454949
O O9 0.000000 0.500000 0.500000
#
# Coordination Sequence:
#
# PCOD8122348 Si02
#       5
#     4   4   2   4   2
#     4  11  27  48  74 103 144 187 238 303 353 419
#     4  12  28  42  74 101 141 187 231 286 355 419
#     4  12  24  44  70 102 142 180 232 288 340 426
#     4  12  24  46  65 107 144 180 231 279 351 421
#     4  10  26  50  70 106 136 186 252 284 362 428
#
# _framework density 22.344045000000001
#
# number of rings (size 3 to 8) (size 9 to 14) (size 15 to 20)
#    0.000    0.500    5.000    1.500   10.500    2.000 
#    0.000    0.000    0.000    0.000    0.000    0.000 
#    0.000    0.000    0.000    0.000    0.000    0.000 
#
# Total GULP energy -198247.438404 kJ/mol
# GULP energy per Si atom -12390.464900 kJ/mol
# Density = 2.229319 g / cm^3
# Si number density = 22.344045 Si / 1000 Ang^3
#
#
#
# Elastic Constant Matrix: (Units=GPa)
#
#
# Indices 1 2 3 4 5 6 
#
# 1 91.6243 43.4533 48.6491 0.0000 20.0049 0.0000
# 2 43.4533 129.9690 55.9821 0.0000 -0.8073 0.0000
# 3 48.6491 55.9821 148.5182 0.0000 -3.1579 0.0000
# 4 0.0000 0.0000 0.0000 40.0263 0.0000 13.8450
# 5 20.0049 -0.8073 -3.1579 0.0000 49.1825 0.0000
# 6 0.0000 0.0000 0.0000 13.8450 0.0000 30.1528
#
#
#
# Elastic Compliance Matrix: (Units=1/GPa)
#
#
# Indices 1 2 3 4 5 6 
#
# 1 0.016405 -0.003760 -0.004105 0.000000 -0.006998 0.000000
# 2 -0.003760 0.010048 -0.002523 0.000000 0.001532 0.000000
# 3 -0.004105 -0.002523 0.009076 0.000000 0.002211 0.000000
# 4 0.000000 0.000000 0.000000 0.029701 0.000000 -0.013637
# 5 -0.006998 0.001532 0.002211 0.000000 0.023346 0.000000
# 6 0.000000 0.000000 0.000000 -0.013637 0.000000 0.039426
#
#
# Mechanical properties :
#
#
# Convention : Reuss Voigt Hill
#
# Bulk Modulus (GPa) = 67.78771 74.03117 70.90944
# Shear Modulus (GPa) = 32.53198 38.67413 35.60306
#
# Velocity S-wave (km/s) = 3.81984 4.16486 3.99608
# Velocity P-wave (km/s) = 7.06109 7.50549 7.28668
#
# Compressibility (1/GPa) = 0.01475194
#
# Stress axis : x y z
#
# Youngs Moduli (GPa) = 60.95727 99.52689 110.18148
#
# Poissons Ratio (x) = 0.37422 0.45231
# Poissons Ratio (y) = 0.22920 0.27800
# Poissons Ratio (z) = 0.25024 0.25111
#
# Static dielectric constant tensor:
#      x y z
#    x 4.305590 0.000000 0.892640 
#    y 0.000000 4.270800 0.000000 
#    z 0.892640 0.000000 4.879870 
# 
# 
# High freq. dielectric constant tensor:
#      x y z
#    x 1.876680 0.000000 0.029550 
#    y 0.000000 1.892180 0.000000 
#    z 0.029550 0.000000 1.897460 
# 
# From -- ./inp_files/14161.got.cif
#   From: 2010.06.25/outbox.cif.g09.slc.cpg/sg13_8_cif.got.tgz:14161.got - 2010.06.28 04:50:58.
