data_PCOD8122874
_publ_section_title
;
Structure prediction by ZEFSAII (Michael W. Deem and Ramdas Pophale) SiO2 
 PCOD8122874
Probable space group: P 2/C
;
_chemical_formula_sum "Si O2"
_cell_formula_units_Z 22
_cell_length_a 13.761328
_cell_length_b 11.808113
_cell_length_c 16.805115
_cell_angle_alpha 90.000000
_cell_angle_beta 20.933229
_cell_angle_gamma 90.000000
_cell_volume 975.642523
_symmetry_space_group_name_H-M "P 2/C"
_symmetry_group_IT_number 13
_symmetry_cell_setting 'monoclinic'
loop_
_space_group_symop_operation_xyz
x,y,z
-x,y,1/2-z
-x,-y,-z
x,-y,1/2+z
loop_
_atom_site_type_symbol
_atom_site_label
_atom_site_fract_x
_atom_site_fract_y
_atom_site_fract_z
Si Si1 0.000000 0.081109 0.250000
Si Si2 0.591566 0.462506 0.266619
Si Si3 0.792901 0.846854 0.064459
Si Si4 0.717261 0.262195 0.924101
Si Si5 0.151403 0.335922 0.847405
Si Si6 0.474065 0.940342 0.681590
O O1 0.004400 0.153526 0.328708
O O2 0.733543 0.006587 0.452076
O O3 0.500000 0.504935 0.250000
O O4 0.360966 0.384567 0.481840
O O5 0.625633 0.571528 0.296892
O O6 0.870219 0.395409 0.042335
O O7 0.500000 0.820349 0.250000
O O8 0.894296 0.752555 0.046949
O O9 0.777589 0.969487 0.123092
O O10 0.745895 0.267959 0.807627
O O11 0.000000 0.223280 0.750000
O O12 0.468642 0.171920 0.130448
O O13 0.500000 0.889593 0.750000
#
# Coordination Sequence:
#
# PCOD8122874 Si02
#       6
#     2   4   4   4   4   4
#     4   8  16  36  62  92 130 170 208 248 320 372
#     4  11  24  45  66  92 128 169 216 273 328 381
#     4   9  20  39  65  95 134 171 209 264 315 379
#     4  12  23  40  68  94 128 173 217 266 323 383
#     4  11  25  42  66  99 128 165 221 270 321 389
#     4   9  19  35  65  94 129 172 212 256 315 381
#
# _framework density 22.549242
#
# number of rings (size 3 to 8) (size 9 to 14) (size 15 to 20)
#    0.000    2.182    2.727    1.636    0.000    3.636 
#    0.000    5.455    2.000    0.000    0.000    0.000 
#    0.000    0.000    0.000    0.000    0.000    0.000 
#
# Total GULP energy -272646.766558 kJ/mol
# GULP energy per Si atom -12393.034844 kJ/mol
# Density = 2.249792 g / cm^3
# Si number density = 22.549242 Si / 1000 Ang^3
#
#
#
# Elastic Constant Matrix: (Units=GPa)
#
#
# Indices 1 2 3 4 5 6 
#
# 1 123.1342 52.7079 37.3374 0.0000 21.5242 0.0000
# 2 52.7079 116.4625 26.6403 0.0000 21.7094 0.0000
# 3 37.3374 26.6403 78.3516 0.0000 33.6325 0.0000
# 4 0.0000 0.0000 0.0000 51.3005 0.0000 -14.2275
# 5 21.5242 21.7094 33.6325 0.0000 43.3587 0.0000
# 6 0.0000 0.0000 0.0000 -14.2275 0.0000 47.5428
#
#
#
# Elastic Compliance Matrix: (Units=1/GPa)
#
#
# Indices 1 2 3 4 5 6 
#
# 1 0.011070 -0.004061 -0.003611 0.000000 -0.000661 0.000000
# 2 -0.004061 0.011128 -0.000483 0.000000 -0.003181 0.000000
# 3 -0.003611 -0.000483 0.020650 0.000000 -0.013984 0.000000
# 4 0.000000 0.000000 0.000000 0.021257 0.000000 0.006361
# 5 -0.000661 -0.003181 -0.013984 0.000000 0.035832 0.000000
# 6 0.000000 0.000000 0.000000 0.006361 0.000000 0.022937
#
#
# Mechanical properties :
#
#
# Convention : Reuss Voigt Hill
#
# Bulk Modulus (GPa) = 37.67973 61.25772 49.46872
# Shear Modulus (GPa) = 33.77713 41.85791 37.81752
#
# Velocity S-wave (km/s) = 3.87451 4.31314 4.09969
# Velocity P-wave (km/s) = 6.06317 7.21314 6.66301
#
# Compressibility (1/GPa) = 0.02653947
#
# Stress axis : x y z
#
# Youngs Moduli (GPa) = 90.33524 89.86595 48.42524
#
# Poissons Ratio (x) = 0.36492 0.17484
# Poissons Ratio (y) = 0.36683 0.02339
# Poissons Ratio (z) = 0.32616 0.04340
#
# Static dielectric constant tensor:
#      x y z
#    x 4.268670 0.000000 0.529180 
#    y 0.000000 4.210850 0.000000 
#    z 0.529180 0.000000 4.376360 
# 
# 
# High freq. dielectric constant tensor:
#      x y z
#    x 1.882890 0.000000 0.017350 
#    y 0.000000 1.888650 0.000000 
#    z 0.017350 0.000000 1.889950 
# 
# From -- ./inp_files/51104.got.cif
#   From: 2010.06.25/outbox.cif.g09.slc.cpg/sg13_26_cif.got.tgz:51104.got - 2010.06.28 04:50:58.
