data_PCOD8122088
_publ_section_title
;
Structure prediction by ZEFSAII (Michael W. Deem and Ramdas Pophale) SiO2 
 PCOD8122088
Probable space group: P 2/C
;
_chemical_formula_sum "Si O2"
_cell_formula_units_Z 30
_cell_length_a 21.548431
_cell_length_b 5.043259
_cell_length_c 23.860223
_cell_angle_alpha 90.000000
_cell_angle_beta 150.811880
_cell_angle_gamma 90.000000
_cell_volume 1264.547564
_symmetry_space_group_name_H-M "P 2/C"
_symmetry_group_IT_number 13
_symmetry_cell_setting 'monoclinic'
loop_
_space_group_symop_operation_xyz
x,y,z
-x,y,1/2-z
-x,-y,-z
x,-y,1/2+z
loop_
_atom_site_type_symbol
_atom_site_label
_atom_site_fract_x
_atom_site_fract_y
_atom_site_fract_z
Si Si1 0.283338 0.742114 0.427835
Si Si2 0.411875 0.762401 0.982800
Si Si3 0.672050 0.513409 0.691642
Si Si4 0.925819 0.790804 0.552718
Si Si5 0.701584 0.482016 0.339317
Si Si6 0.261745 0.913670 0.532358
Si Si7 0.093819 0.281278 0.683465
Si Si8 0.500000 0.768725 0.250000
O O1 0.336139 0.449612 0.460147
O O2 0.245950 0.750004 0.463302
O O3 0.158767 0.804292 0.292975
O O4 0.391647 0.950225 0.494053
O O5 0.355973 0.748232 0.875091
O O6 0.561836 0.707594 0.100051
O O7 0.679179 0.637094 0.759688
O O8 0.803255 0.361572 0.781948
O O9 0.809067 0.712829 0.418846
O O10 0.008221 0.533798 0.630199
O O11 0.855782 0.880567 0.555401
O O12 0.011718 0.031407 0.595797
O O13 0.750707 0.264166 0.421674
O O14 0.566695 0.591655 0.255057
O O15 0.398095 0.054324 0.637036
#
# Coordination Sequence:
#
# PCOD8122088 Si02
#       8
#     4   4   4   4   4   4   4   2
#     4  11  25  44  75 101 141 179 235 290 356 410
#     4  10  24  46  70 111 137 180 228 293 348 425
#     4  10  24  44  74 102 144 181 236 283 355 413
#     4  11  25  48  66 100 140 179 247 276 351 404
#     4  11  24  47  69 107 138 187 224 295 348 427
#     4  11  25  45  70 107 141 185 231 290 355 427
#     4  11  24  48  66  99 135 190 234 292 334 409
#     4  10  24  42  72 104 146 176 224 282 372 426
#
# _framework density 23.7239
#
# number of rings (size 3 to 8) (size 9 to 14) (size 15 to 20)
#    0.000    1.333    1.333    2.800    7.467    7.467 
#   16.800    0.000    0.000    0.000    0.000    0.000 
#    0.000    0.000    0.000    0.000    0.000    0.000 
#
# Total GULP energy -372004.056542 kJ/mol
# GULP energy per Si atom -12400.135218 kJ/mol
# Density = 2.366990 g / cm^3
# Si number density = 23.723900 Si / 1000 Ang^3
#
#
#
# Elastic Constant Matrix: (Units=GPa)
#
#
# Indices 1 2 3 4 5 6 
#
# 1 132.6364 24.2919 64.9291 0.0000 -28.5142 0.0000
# 2 24.2919 82.0661 25.4895 0.0000 -2.3990 0.0000
# 3 64.9291 25.4895 87.7733 0.0000 13.3515 0.0000
# 4 0.0000 0.0000 0.0000 31.1039 0.0000 8.5524
# 5 -28.5142 -2.3990 13.3515 0.0000 52.9677 0.0000
# 6 0.0000 0.0000 0.0000 8.5524 0.0000 30.7655
#
#
#
# Elastic Compliance Matrix: (Units=1/GPa)
#
#
# Indices 1 2 3 4 5 6 
#
# 1 0.017965 -0.000172 -0.015296 0.000000 0.013519 0.000000
# 2 -0.000172 0.013535 -0.004038 0.000000 0.001538 0.000000
# 3 -0.015296 -0.004038 0.026164 0.000000 -0.015012 0.000000
# 4 0.000000 0.000000 0.000000 0.034811 0.000000 -0.009677
# 5 0.013519 0.001538 -0.015012 0.000000 0.030011 0.000000
# 6 0.000000 0.000000 0.000000 -0.009677 0.000000 0.035194
#
#
# Mechanical properties :
#
#
# Convention : Reuss Voigt Hill
#
# Bulk Modulus (GPa) = 53.60860 59.09964 56.35412
# Shear Modulus (GPa) = 24.64172 35.48512 30.06342
#
# Velocity S-wave (km/s) = 3.22636 3.87169 3.56367
# Velocity P-wave (km/s) = 6.04361 6.70464 6.38269
#
# Compressibility (1/GPa) = 0.01865372
#
# Stress axis : x y z
#
# Youngs Moduli (GPa) = 55.66434 73.88163 38.22059
#
# Poissons Ratio (x) = 0.01268 0.58461
# Poissons Ratio (y) = 0.00955 0.15432
# Poissons Ratio (z) = 0.85143 0.29831
#
# Static dielectric constant tensor:
#      x y z
#    x 4.248100 0.000000 0.265400 
#    y 0.000000 4.250530 0.000000 
#    z 0.265400 0.000000 4.434940 
# 
# 
# High freq. dielectric constant tensor:
#      x y z
#    x 1.937360 0.000000 0.020120 
#    y 0.000000 1.939070 0.000000 
#    z 0.020120 0.000000 1.943470 
# 
# From -- ./inp_files/88365.got.cif
#   From: 2010.06.25/outbox.cif.g09.slc.cpg/sg13_45_cif.got.tgz:88365.got - 2010.06.28 04:50:58.
