data_PCOD8122839
_publ_section_title
;
Structure prediction by ZEFSAII (Michael W. Deem and Ramdas Pophale) SiO2 
 PCOD8122839
Probable space group: P 2/C
;
_chemical_formula_sum "Si O2"
_cell_formula_units_Z 14
_cell_length_a 5.163271
_cell_length_b 23.263443
_cell_length_c 5.109557
_cell_angle_alpha 90.000000
_cell_angle_beta 98.654741
_cell_angle_gamma 90.000000
_cell_volume 606.748210
_symmetry_space_group_name_H-M "P 2/C"
_symmetry_group_IT_number 13
_symmetry_cell_setting 'monoclinic'
loop_
_space_group_symop_operation_xyz
x,y,z
-x,y,1/2-z
-x,-y,-z
x,-y,1/2+z
loop_
_atom_site_type_symbol
_atom_site_label
_atom_site_fract_x
_atom_site_fract_y
_atom_site_fract_z
Si Si1 0.500000 0.617650 0.750000
Si Si2 0.000000 0.460088 0.250000
Si Si3 0.000000 0.039915 0.750000
Si Si4 0.500000 0.305863 0.750000
Si Si5 0.341341 0.858672 0.464470
Si Si6 0.000000 0.766860 0.250000
O O1 0.744662 0.578954 0.709763
O O2 0.431128 0.656705 0.492355
O O3 0.000000 0.500000 0.500000
O O4 0.751242 0.080932 0.672493
O O5 0.000000 0.000000 0.500000
O O6 0.232639 0.270405 0.655652
O O7 0.500000 0.871679 0.750000
O O8 0.116620 0.810926 0.490567
O O9 0.500000 0.829288 0.250000
#
# Coordination Sequence:
#
# PCOD8122839 Si02
#       6
#     2   2   2   2   4   2
#     4  12  26  45  68 110 140 185 242 290 350 414
#     4  12  24  45  74 102 144 191 236 288 348 414
#     4  11  24  42  66 102 138 180 228 295 364 416
#     4  12  26  45  72 100 150 183 234 300 352 416
#     4  11  25  44  69  98 138 180 242 287 345 449
#     4  11  26  47  70 104 136 197 234 289 366 420
#
# _framework density 23.073823000000001
#
# number of rings (size 3 to 8) (size 9 to 14) (size 15 to 20)
#    0.000    0.571    1.429    6.000    2.000    9.143 
#    0.000    0.000    0.000    0.000    0.000    0.000 
#    0.000    0.000    0.000    0.000    0.000    0.000 
#
# Total GULP energy -173523.207966 kJ/mol
# GULP energy per Si atom -12394.514855 kJ/mol
# Density = 2.302131 g / cm^3
# Si number density = 23.073823 Si / 1000 Ang^3
#
#
#
# Elastic Constant Matrix: (Units=GPa)
#
#
# Indices 1 2 3 4 5 6 
#
# 1 161.0129 75.5284 52.9238 0.0000 8.6334 0.0000
# 2 75.5284 153.2517 71.5877 0.0000 3.9052 0.0000
# 3 52.9238 71.5877 190.2630 0.0000 6.8228 0.0000
# 4 0.0000 0.0000 0.0000 14.5245 0.0000 -31.8432
# 5 8.6334 3.9052 6.8228 0.0000 38.9702 0.0000
# 6 0.0000 0.0000 0.0000 -31.8432 0.0000 6.5680
#
#
#
# Elastic Compliance Matrix: (Units=1/GPa)
#
#
# Indices 1 2 3 4 5 6 
#
# 1 0.008276 -0.003630 -0.000889 0.000000 -0.001314 0.000000
# 2 -0.003630 0.009512 -0.002580 0.000000 0.000303 0.000000
# 3 -0.000889 -0.002580 0.006498 0.000000 -0.000682 0.000000
# 4 0.000000 0.000000 0.000000 -0.007150 0.000000 -0.034665
# 5 -0.001314 0.000303 -0.000682 0.000000 0.026041 0.000000
# 6 0.000000 0.000000 0.000000 -0.034665 0.000000 -0.015812
#
#
# Mechanical properties :
#
#
# Convention : Reuss Voigt Hill
#
# Bulk Modulus (GPa) = 99.12772 100.51193 99.81982
# Shear Modulus (GPa) = 111.29327 32.31170 71.80249
#
# Velocity S-wave (km/s) = 6.95257 3.74620 5.58446
# Velocity P-wave (km/s) = 10.36848 7.89732 9.21610
#
# Compressibility (1/GPa) = 0.01008800
#
# Stress axis : x y z
#
# Youngs Moduli (GPa) = 120.82887 105.13415 153.88374
#
# Poissons Ratio (x) = 0.38163 0.13683
# Poissons Ratio (y) = 0.43861 0.39701
# Poissons Ratio (z) = 0.10744 0.27124
#
# Static dielectric constant tensor:
#      x y z
#    x 4.421030 0.000000 0.292820 
#    y 0.000000 4.684040 0.000000 
#    z 0.292820 0.000000 3.758750 
# 
# 
# High freq. dielectric constant tensor:
#      x y z
#    x 1.929030 0.000000 0.009860 
#    y 0.000000 1.938510 0.000000 
#    z 0.009860 0.000000 1.906880 
# 
# From -- ./inp_files/302.got.cif
#   From: 2010.06.25/outbox.cif.g09.slc.cpg/sg13_1_cif.got.tgz:302.got - 2010.06.28 04:50:58.
