data_PCOD8122096
_publ_section_title
;
Structure prediction by ZEFSAII (Michael W. Deem and Ramdas Pophale) SiO2 
 PCOD8122096
Probable space group: P 2/C
;
_chemical_formula_sum "Si O2"
_cell_formula_units_Z 22
_cell_length_a 9.128927
_cell_length_b 9.067561
_cell_length_c 13.405188
_cell_angle_alpha 90.000000
_cell_angle_beta 117.773205
_cell_angle_gamma 90.000000
_cell_volume 981.810669
_symmetry_space_group_name_H-M "P 2/C"
_symmetry_group_IT_number 13
_symmetry_cell_setting 'monoclinic'
loop_
_space_group_symop_operation_xyz
x,y,z
-x,y,1/2-z
-x,-y,-z
x,-y,1/2+z
loop_
_atom_site_type_symbol
_atom_site_label
_atom_site_fract_x
_atom_site_fract_y
_atom_site_fract_z
Si Si1 0.400683 0.916604 0.884694
Si Si2 0.782523 0.519191 0.582369
Si Si3 0.116452 0.832037 0.935960
Si Si4 0.819829 0.946887 0.332061
Si Si5 0.493470 0.604804 0.862598
Si Si6 0.000000 0.281022 0.750000
O O1 0.221797 0.880482 0.874173
O O2 0.514098 0.778025 0.891386
O O3 0.358268 0.006709 0.770219
O O4 0.500000 0.000000 0.000000
O O5 0.895931 0.653735 0.576475
O O6 0.685791 0.556874 0.653469
O O7 0.645043 0.484074 0.456811
O O8 0.896796 0.379622 0.639935
O O9 0.209509 0.881585 0.067026
O O10 0.937017 0.908023 0.874937
O O11 0.887350 0.819415 0.283006
O O12 0.500000 0.566648 0.750000
#
# Coordination Sequence:
#
# PCOD8122096 Si02
#       6
#     4   4   4   4   4   2
#     4  11  23  41  66  95 133 165 217 271 317 385
#     4  10  25  45  64  97 131 170 215 269 321 389
#     4  10  24  44  66  93 133 171 217 269 323 380
#     4  11  24  42  68  99 129 173 218 268 324 388
#     4  10  24  43  67  93 129 172 214 260 326 389
#     4  12  24  40  70  96 132 168 220 268 326 384
#
# _framework density 22.407578000000001
#
# number of rings (size 3 to 8) (size 9 to 14) (size 15 to 20)
#    0.000    1.455    1.818    1.091   10.182    2.182 
#    0.000    0.000    0.000    0.000    0.000    0.000 
#    0.000    0.000    0.000    0.000    0.000    0.000 
#
# Total GULP energy -272807.722290 kJ/mol
# GULP energy per Si atom -12400.351013 kJ/mol
# Density = 2.235658 g / cm^3
# Si number density = 22.407578 Si / 1000 Ang^3
#
#
#
# Elastic Constant Matrix: (Units=GPa)
#
#
# Indices 1 2 3 4 5 6 
#
# 1 47.9835 29.6485 22.3988 0.0000 -9.7847 0.0000
# 2 29.6485 139.9482 39.6228 0.0000 0.7996 0.0000
# 3 22.3988 39.6228 123.2703 0.0000 -14.3557 0.0000
# 4 0.0000 0.0000 0.0000 34.5265 0.0000 -11.4599
# 5 -9.7847 0.7996 -14.3557 0.0000 36.8806 0.0000
# 6 0.0000 0.0000 0.0000 -11.4599 0.0000 3.0990
#
#
#
# Elastic Compliance Matrix: (Units=1/GPa)
#
#
# Indices 1 2 3 4 5 6 
#
# 1 0.026273 -0.004896 -0.002489 0.000000 0.006108 0.000000
# 2 -0.004896 0.008825 -0.002221 0.000000 -0.002355 0.000000
# 3 -0.002489 -0.002221 0.009644 0.000000 0.003142 0.000000
# 4 0.000000 0.000000 0.000000 -0.127365 0.000000 -0.470987
# 5 0.006108 -0.002355 0.003142 0.000000 0.030009 0.000000
# 6 0.000000 0.000000 0.000000 -0.470987 0.000000 -1.418991
#
#
# Mechanical properties :
#
#
# Convention : Reuss Voigt Hill
#
# Bulk Modulus (GPa) = 39.16979 54.94914 47.05947
# Shear Modulus (GPa) = -3.46289 29.53668 13.03690
#
# Velocity S-wave (km/s) = -1.24449 3.63458 2.41469
# Velocity P-wave (km/s) = 3.93110 6.49533 5.36856
#
# Compressibility (1/GPa) = 0.02552988
#
# Stress axis : x y z
#
# Youngs Moduli (GPa) = 38.06168 113.31262 103.68758
#
# Poissons Ratio (x) = 0.55481 0.25806
# Poissons Ratio (y) = 0.18636 0.23031
# Poissons Ratio (z) = 0.09473 0.25169
#
# Static dielectric constant tensor:
#      x y z
#    x 3.937890 0.000000 -0.159690 
#    y 0.000000 4.232500 0.000000 
#    z -0.159690 0.000000 4.091100 
# 
# 
# High freq. dielectric constant tensor:
#      x y z
#    x 1.869520 0.000000 -0.008930 
#    y 0.000000 1.891140 0.000000 
#    z -0.008930 0.000000 1.898690 
# 
# From -- ./inp_files/49854.got.cif
#   From: 2010.06.25/outbox.cif.g09.slc.cpg/sg13_25_cif.got.tgz:49854.got - 2010.06.28 04:50:58.
