data_PCOD8122893
_publ_section_title
;
Structure prediction by ZEFSAII (Michael W. Deem and Ramdas Pophale) SiO2 
 PCOD8122893
Probable space group: P 2/C
;
_chemical_formula_sum "Si O2"
_cell_formula_units_Z 26
_cell_length_a 16.712767
_cell_length_b 6.535933
_cell_length_c 21.783359
_cell_angle_alpha 90.000000
_cell_angle_beta 30.578236
_cell_angle_gamma 90.000000
_cell_volume 1210.472284
_symmetry_space_group_name_H-M "P 2/C"
_symmetry_group_IT_number 13
_symmetry_cell_setting 'monoclinic'
loop_
_space_group_symop_operation_xyz
x,y,z
-x,y,1/2-z
-x,-y,-z
x,-y,1/2+z
loop_
_atom_site_type_symbol
_atom_site_label
_atom_site_fract_x
_atom_site_fract_y
_atom_site_fract_z
Si Si1 0.383841 0.004755 0.471768
Si Si2 0.835275 0.032122 0.577067
Si Si3 0.357950 0.686608 0.205879
Si Si4 0.931229 0.889695 0.880099
Si Si5 0.582045 0.707428 0.757207
Si Si6 0.206338 0.782729 0.182037
Si Si7 0.000000 0.473750 0.250000
O O1 0.475318 0.791886 0.420436
O O2 0.201036 0.977234 0.577058
O O3 0.466112 0.128090 0.363253
O O4 0.368605 0.123543 0.546806
O O5 0.730792 0.188802 0.683509
O O6 0.861988 0.133572 0.493541
O O7 0.746827 0.814230 0.630422
O O8 0.000000 0.000000 0.500000
O O9 0.388385 0.462290 0.211290
O O10 0.250829 0.671481 0.216142
O O11 0.968084 0.662930 0.831242
O O12 0.080699 0.039225 0.780322
O O13 0.500000 0.617351 0.750000
O O14 0.145136 0.617328 0.173285
#
# Coordination Sequence:
#
# PCOD8122893 Si02
#       7
#     4   4   4   4   4   4   2
#     4  11  24  46  68  95 139 186 215 280 343 405
#     4  11  25  46  70  98 137 179 224 285 345 401
#     4  11  28  42  71 102 136 180 224 281 346 400
#     4  12  24  45  71  97 140 180 227 280 342 403
#     4  11  26  44  68 102 138 177 229 277 341 414
#     4  12  25  47  65 104 138 176 235 283 330 406
#     4  12  26  40  74 104 128 188 238 272 346 398
#
# _framework density 21.479217999999999
#
# number of rings (size 3 to 8) (size 9 to 14) (size 15 to 20)
#    0.000    0.615    6.154    0.462    6.462    2.462 
#    0.000    0.000    0.000    0.000    0.000    0.000 
#    0.000    0.000    0.000    0.000    0.000    0.000 
#
# Total GULP energy -322444.611640 kJ/mol
# GULP energy per Si atom -12401.715832 kJ/mol
# Density = 2.143033 g / cm^3
# Si number density = 21.479218 Si / 1000 Ang^3
#
#
#
# Elastic Constant Matrix: (Units=GPa)
#
#
# Indices 1 2 3 4 5 6 
#
# 1 120.8919 40.0741 33.3028 0.0000 2.7593 0.0000
# 2 40.0741 100.6420 29.3960 0.0000 -2.6577 0.0000
# 3 33.3028 29.3960 97.8019 0.0000 3.7731 0.0000
# 4 0.0000 0.0000 0.0000 25.3895 0.0000 6.3394
# 5 2.7593 -2.6577 3.7731 0.0000 38.2760 0.0000
# 6 0.0000 0.0000 0.0000 6.3394 0.0000 33.6332
#
#
#
# Elastic Compliance Matrix: (Units=1/GPa)
#
#
# Indices 1 2 3 4 5 6 
#
# 1 0.010049 -0.003320 -0.002396 0.000000 -0.000719 0.000000
# 2 -0.003320 0.012035 -0.002538 0.000000 0.001325 0.000000
# 3 -0.002396 -0.002538 0.011849 0.000000 -0.001171 0.000000
# 4 0.000000 0.000000 0.000000 0.041332 0.000000 -0.007790
# 5 -0.000719 0.001325 -0.001171 0.000000 0.026385 0.000000
# 6 0.000000 0.000000 0.000000 -0.007790 0.000000 0.031201
#
#
# Mechanical properties :
#
#
# Convention : Reuss Voigt Hill
#
# Bulk Modulus (GPa) = 57.39288 58.32018 57.85653
# Shear Modulus (GPa) = 32.22349 33.89726 33.06038
#
# Velocity S-wave (km/s) = 3.87747 3.97689 3.92749
# Velocity P-wave (km/s) = 6.84284 6.94971 6.89648
#
# Compressibility (1/GPa) = 0.01742377
#
# Stress axis : x y z
#
# Youngs Moduli (GPa) = 99.51224 83.09391 84.39839
#
# Poissons Ratio (x) = 0.27591 0.20222
# Poissons Ratio (y) = 0.33043 0.21417
# Poissons Ratio (z) = 0.23844 0.21086
#
# Static dielectric constant tensor:
#      x y z
#    x 3.984430 0.000000 -0.039340 
#    y 0.000000 3.711410 0.000000 
#    z -0.039340 0.000000 3.808360 
# 
# 
# High freq. dielectric constant tensor:
#      x y z
#    x 1.855500 0.000000 0.006230 
#    y 0.000000 1.836460 0.000000 
#    z 0.006230 0.000000 1.857650 
# 
# From -- ./inp_files/87709.got.cif
#   From: 2010.06.25/outbox.cif.g09.slc.cpg/sg13_44_cif.got.tgz:87709.got - 2010.06.28 04:50:58.
