data_PCOD8122001
_publ_section_title
;
Structure prediction by ZEFSAII (Michael W. Deem and Ramdas Pophale) SiO2 
 PCOD8122001
Probable space group: P 2/C
;
_chemical_formula_sum "Si O2"
_cell_formula_units_Z 28
_cell_length_a 8.882125
_cell_length_b 14.694269
_cell_length_c 13.373921
_cell_angle_alpha 90.000000
_cell_angle_beta 48.331265
_cell_angle_gamma 90.000000
_cell_volume 1303.901682
_symmetry_space_group_name_H-M "P 2/C"
_symmetry_group_IT_number 13
_symmetry_cell_setting 'monoclinic'
loop_
_space_group_symop_operation_xyz
x,y,z
-x,y,1/2-z
-x,-y,-z
x,-y,1/2+z
loop_
_atom_site_type_symbol
_atom_site_label
_atom_site_fract_x
_atom_site_fract_y
_atom_site_fract_z
Si Si1 0.256666 0.993617 0.988171
Si Si2 0.148585 0.623327 0.276485
Si Si3 0.831695 0.417249 0.244183
Si Si4 0.454386 0.872564 0.530274
Si Si5 0.043378 0.283510 0.023510
Si Si6 0.858307 0.910090 0.657600
Si Si7 0.426960 0.672880 0.490716
O O1 0.335602 0.917856 0.030634
O O2 0.285525 0.953768 0.863851
O O3 0.387856 0.085452 0.951872
O O4 0.022593 0.013514 0.113117
O O5 0.139123 0.517766 0.313738
O O6 0.081947 0.693287 0.391120
O O7 0.383141 0.634305 0.150622
O O8 0.000000 0.641763 0.250000
O O9 0.624356 0.397602 0.396178
O O10 0.000000 0.393310 0.250000
O O11 0.857232 0.346352 0.142122
O O12 0.272872 0.890198 0.687837
O O13 0.495989 0.766805 0.509086
O O14 0.244213 0.308115 0.995908
O O15 0.977054 0.179036 0.065149
#
# Coordination Sequence:
#
# PCOD8122001 Si02
#       7
#     4   4   4   4   4   4   4
#     4  10  24  40  62  98 124 164 210 274 316 378
#     4  11  25  43  61 100 141 167 214 274 331 381
#     4   9  20  41  73  96 125 175 224 266 321 387
#     4  11  22  44  67  95 129 168 221 261 325 382
#     4  11  22  42  70  97 129 177 219 267 320 393
#     4  11  22  44  67  95 129 168 221 261 325 382
#     4  11  22  42  70  97 129 177 219 267 320 393
#
# _framework density 21.474012999999999
#
# number of rings (size 3 to 8) (size 9 to 14) (size 15 to 20)
#    0.000    1.429    2.857    2.143    2.000    0.000 
#   15.429    2.143    0.000    0.000    0.000    0.000 
#    0.000    0.000    0.000    0.000    0.000    0.000 
#
# Total GULP energy -347096.099142 kJ/mol
# GULP energy per Si atom -12396.289255 kJ/mol
# Density = 2.142514 g / cm^3
# Si number density = 21.474013 Si / 1000 Ang^3
#
#
#
# Elastic Constant Matrix: (Units=GPa)
#
#
# Indices 1 2 3 4 5 6 
#
# 1 92.1491 35.4758 28.1473 0.0000 -0.4282 0.0000
# 2 35.4758 85.1036 36.0783 0.0000 1.6344 0.0000
# 3 28.1473 36.0783 104.3558 0.0000 -12.0265 0.0000
# 4 0.0000 0.0000 0.0000 33.5573 0.0000 -1.2994
# 5 -0.4282 1.6344 -12.0265 0.0000 16.7660 0.0000
# 6 0.0000 0.0000 0.0000 -1.2994 0.0000 23.7714
#
#
#
# Elastic Compliance Matrix: (Units=1/GPa)
#
#
# Indices 1 2 3 4 5 6 
#
# 1 0.013264 -0.004647 -0.002049 0.000000 -0.000678 0.000000
# 2 -0.004647 0.015823 -0.004806 0.000000 -0.005108 0.000000
# 3 -0.002049 -0.004806 0.012912 0.000000 0.009678 0.000000
# 4 0.000000 0.000000 0.000000 0.029863 0.000000 0.001632
# 5 -0.000678 -0.005108 0.009678 0.000000 0.067067 0.000000
# 6 0.000000 0.000000 0.000000 0.001632 0.000000 0.042157
#
#
# Mechanical properties :
#
#
# Convention : Reuss Voigt Hill
#
# Bulk Modulus (GPa) = 52.64567 53.44570 53.04569
# Shear Modulus (GPa) = 23.76182 26.94608 25.35395
#
# Velocity S-wave (km/s) = 3.33008 3.54619 3.43983
# Velocity P-wave (km/s) = 6.27336 6.45832 6.36651
#
# Compressibility (1/GPa) = 0.01899491
#
# Stress axis : x y z
#
# Youngs Moduli (GPa) = 75.39274 63.19905 77.44725
#
# Poissons Ratio (x) = 0.29371 0.15869
# Poissons Ratio (y) = 0.35038 0.37218
# Poissons Ratio (z) = 0.15448 0.30371
#
# Static dielectric constant tensor:
#      x y z
#    x 3.905990 0.000000 0.014220 
#    y 0.000000 4.105240 0.000000 
#    z 0.014220 0.000000 3.839980 
# 
# 
# High freq. dielectric constant tensor:
#      x y z
#    x 1.840560 0.000000 -0.003150 
#    y 0.000000 1.851130 0.000000 
#    z -0.003150 0.000000 1.835080 
# 
# From -- ./inp_files/30285.got.cif
#   From: 2010.06.25/outbox.cif.g09.slc.cpg/sg13_16_cif.got.tgz:30285.got - 2010.06.28 04:50:58.
