data_PCOD8122414
_publ_section_title
;
Structure prediction by ZEFSAII (Michael W. Deem and Ramdas Pophale) SiO2 
 PCOD8122414
Probable space group: P 2/C
;
_chemical_formula_sum "Si O2"
_cell_formula_units_Z 32
_cell_length_a 11.709122
_cell_length_b 9.907301
_cell_length_c 13.620642
_cell_angle_alpha 90.000000
_cell_angle_beta 88.836546
_cell_angle_gamma 90.000000
_cell_volume 1579.747668
_symmetry_space_group_name_H-M "P 2/C"
_symmetry_group_IT_number 13
_symmetry_cell_setting 'monoclinic'
loop_
_space_group_symop_operation_xyz
x,y,z
-x,y,1/2-z
-x,-y,-z
x,-y,1/2+z
loop_
_atom_site_type_symbol
_atom_site_label
_atom_site_fract_x
_atom_site_fract_y
_atom_site_fract_z
Si Si1 0.502754 0.239649 0.632911
Si Si2 0.866927 0.482500 0.234309
Si Si3 0.266327 0.611048 0.585197
Si Si4 0.740884 0.852259 0.051997
Si Si5 0.266526 0.123940 0.566362
Si Si6 0.748567 0.626569 0.554330
Si Si7 0.864959 0.207920 0.742148
Si Si8 0.491847 0.454014 0.365046
O O1 0.500000 0.239454 0.750000
O O2 0.614366 0.161438 0.596588
O O3 0.396307 0.159627 0.590830
O O4 0.504696 0.393543 0.590472
O O5 0.800965 0.385813 0.311247
O O6 0.844670 0.422331 0.127682
O O7 0.821009 0.636581 0.240613
O O8 0.000000 0.476798 0.250000
O O9 0.219947 0.723567 0.512262
O O10 0.243448 0.463865 0.542387
O O11 0.401625 0.633927 0.599048
O O12 0.827531 0.865770 0.142042
O O13 0.745945 0.976521 0.978041
O O14 0.221873 0.223493 0.481825
O O15 0.190132 0.131390 0.665056
O O16 0.623810 0.621310 0.605252
O O17 0.000000 0.199931 0.750000
O O18 0.500000 0.469048 0.250000
#
# Coordination Sequence:
#
# PCOD8122414 Si02
#       8
#     4   4   4   4   4   4   4   4
#     4  11  20  39  69  93 129 173 210 262 329 386
#     4  11  24  42  68 101 128 163 221 281 319 366
#     4  12  22  40  67  96 127 167 215 265 322 377
#     4  12  26  43  66  98 134 174 213 260 325 393
#     4  12  26  43  66  98 134 174 213 260 325 393
#     4  12  22  40  67  96 127 167 215 265 322 377
#     4  11  24  46  70  93 126 173 223 267 321 384
#     4  11  20  36  67  98 131 167 212 266 324 382
#
# _framework density 20.256399999999999
#
# number of rings (size 3 to 8) (size 9 to 14) (size 15 to 20)
#    0.000    0.500    7.500    1.500    0.000    3.000 
#    0.000    2.500    0.000    0.000    0.000    0.000 
#    0.000    0.000    0.000    0.000    0.000    0.000 
#
# Total GULP energy -396971.787350 kJ/mol
# GULP energy per Si atom -12405.368355 kJ/mol
# Density = 2.021030 g / cm^3
# Si number density = 20.256400 Si / 1000 Ang^3
#
#
#
# Elastic Constant Matrix: (Units=GPa)
#
#
# Indices 1 2 3 4 5 6 
#
# 1 77.2140 23.3808 32.3863 0.0000 16.2175 0.0000
# 2 23.3808 76.4417 29.4354 0.0000 -6.0727 0.0000
# 3 32.3863 29.4354 87.7387 0.0000 6.5152 0.0000
# 4 0.0000 0.0000 0.0000 36.3630 0.0000 2.5467
# 5 16.2175 -6.0727 6.5152 0.0000 23.9156 0.0000
# 6 0.0000 0.0000 0.0000 2.5467 0.0000 5.4165
#
#
#
# Elastic Compliance Matrix: (Units=1/GPa)
#
#
# Indices 1 2 3 4 5 6 
#
# 1 0.019095 -0.005215 -0.004327 0.000000 -0.013094 0.000000
# 2 -0.005215 0.017134 -0.004500 0.000000 0.009113 0.000000
# 3 -0.004327 -0.004500 0.014668 0.000000 -0.002205 0.000000
# 4 0.000000 0.000000 0.000000 0.028437 0.000000 -0.013371
# 5 -0.013094 0.009113 -0.002205 0.000000 0.053607 0.000000
# 6 0.000000 0.000000 0.000000 -0.013371 0.000000 0.190908
#
#
# Mechanical properties :
#
#
# Convention : Reuss Voigt Hill
#
# Bulk Modulus (GPa) = 43.83269 45.75549 44.79409
# Shear Modulus (GPa) = 13.90683 23.55182 18.72932
#
# Velocity S-wave (km/s) = 2.62303 3.41352 3.04404
# Velocity P-wave (km/s) = 5.55515 6.17846 5.87507
#
# Compressibility (1/GPa) = 0.02281402
#
# Stress axis : x y z
#
# Youngs Moduli (GPa) = 52.36994 58.36495 68.17601
#
# Poissons Ratio (x) = 0.30435 0.29497
# Poissons Ratio (y) = 0.27309 0.30679
# Poissons Ratio (z) = 0.22658 0.26264
#
# Static dielectric constant tensor:
#      x y z
#    x 3.389920 0.000000 0.118460 
#    y 0.000000 3.479680 0.000000 
#    z 0.118460 0.000000 3.869880 
# 
# 
# High freq. dielectric constant tensor:
#      x y z
#    x 1.789830 0.000000 0.002610 
#    y 0.000000 1.764020 0.000000 
#    z 0.002610 0.000000 1.817510 
# 
# From -- ./inp_files/50342.got.cif
#   From: 2010.06.25/outbox.cif.g09.slc.cpg/sg13_26_cif.got.tgz:50342.got - 2010.06.28 04:50:58.
