data_PCOD8122564
_publ_section_title
;
Structure prediction by ZEFSAII (Michael W. Deem and Ramdas Pophale) SiO2 
 PCOD8122564
Probable space group: P 2/C
;
_chemical_formula_sum "Si O2"
_cell_formula_units_Z 32
_cell_length_a 15.499691
_cell_length_b 20.766003
_cell_length_c 14.609526
_cell_angle_alpha 90.000000
_cell_angle_beta 160.902812
_cell_angle_gamma 90.000000
_cell_volume 1538.464829
_symmetry_space_group_name_H-M "P 2/C"
_symmetry_group_IT_number 13
_symmetry_cell_setting 'monoclinic'
loop_
_space_group_symop_operation_xyz
x,y,z
-x,y,1/2-z
-x,-y,-z
x,-y,1/2+z
loop_
_atom_site_type_symbol
_atom_site_label
_atom_site_fract_x
_atom_site_fract_y
_atom_site_fract_z
Si Si1 0.524815 0.365338 0.382163
Si Si2 0.528270 0.991513 0.135606
Si Si3 0.592089 0.507838 0.443278
Si Si4 0.499140 0.134939 0.353103
Si Si5 0.999526 0.174818 0.969221
Si Si6 0.993363 0.320278 0.539019
Si Si7 0.078874 0.557090 0.010992
Si Si8 0.029912 0.088484 0.177614
O O1 0.500000 0.363559 0.250000
O O2 0.608432 0.436215 0.504812
O O3 0.750191 0.316152 0.639195
O O4 0.247380 0.344799 0.143049
O O5 0.823497 0.969637 0.456646
O O6 0.459763 0.058600 0.115064
O O7 0.325319 0.938270 0.967688
O O8 0.500000 0.000000 0.000000
O O9 0.500000 0.494919 0.250000
O O10 0.380796 0.551118 0.284477
O O11 0.871140 0.544741 0.720306
O O12 0.500000 0.163607 0.250000
O O13 0.725942 0.166995 0.641369
O O14 0.223557 0.147037 0.127674
O O15 0.057666 0.249263 0.050799
O O16 0.985036 0.140936 0.053453
O O17 0.040213 0.369954 0.504005
O O18 0.000000 0.500000 0.000000
O O19 0.000000 0.118645 0.250000
#
# Coordination Sequence:
#
# PCOD8122564 Si02
#       8
#     4   4   4   4   4   4   4   4
#     4  11  22  38  60  90 121 156 202 252 313 385
#     4  12  22  43  70 100 131 162 212 269 317 365
#     4  11  22  38  61  91 122 150 193 258 322 373
#     4  12  25  42  67  97 134 170 208 258 321 378
#     4  12  26  44  61  92 133 174 218 258 308 386
#     4  12  25  39  62  88 121 168 209 253 308 376
#     4  12  21  39  63  90 118 155 203 256 316 362
#     4  12  24  43  69  95 129 173 214 266 316 366
#
# _framework density 20.799956000000002
#
# number of rings (size 3 to 8) (size 9 to 14) (size 15 to 20)
#    0.000    0.250    5.000    5.250    0.000    5.000 
#    0.000    1.250    0.000    0.000    0.000    0.000 
#    0.000    0.000    0.000    0.000    0.000    0.000 
#
# Total GULP energy -396872.103348 kJ/mol
# GULP energy per Si atom -12402.253230 kJ/mol
# Density = 2.075261 g / cm^3
# Si number density = 20.799956 Si / 1000 Ang^3
#
#
#
# Elastic Constant Matrix: (Units=GPa)
#
#
# Indices 1 2 3 4 5 6 
#
# 1 116.6467 23.9734 8.7208 0.0000 -3.3483 0.0000
# 2 23.9734 120.2217 5.4174 0.0000 -8.7415 0.0000
# 3 8.7208 5.4174 84.8189 0.0000 -0.6650 0.0000
# 4 0.0000 0.0000 0.0000 18.8947 0.0000 1.0029
# 5 -3.3483 -8.7415 -0.6650 0.0000 32.4731 0.0000
# 6 0.0000 0.0000 0.0000 1.0029 0.0000 17.2800
#
#
#
# Elastic Compliance Matrix: (Units=1/GPa)
#
#
# Indices 1 2 3 4 5 6 
#
# 1 0.009001 -0.001726 -0.000812 0.000000 0.000447 0.000000
# 2 -0.001726 0.008838 -0.000370 0.000000 0.002194 0.000000
# 3 -0.000812 -0.000370 0.011897 0.000000 0.000060 0.000000
# 4 0.000000 0.000000 0.000000 0.053088 0.000000 -0.003081
# 5 0.000447 0.002194 0.000060 0.000000 0.031433 0.000000
# 6 0.000000 0.000000 0.000000 -0.003081 0.000000 0.058049
#
#
# Mechanical properties :
#
#
# Convention : Reuss Voigt Hill
#
# Bulk Modulus (GPa) = 41.80267 44.21229 43.00748
# Shear Modulus (GPa) = 26.86788 32.63461 29.75125
#
# Velocity S-wave (km/s) = 3.59796 3.96533 3.78610
# Velocity P-wave (km/s) = 6.11568 6.50132 6.31145
#
# Compressibility (1/GPa) = 0.02392191
#
# Stress axis : x y z
#
# Youngs Moduli (GPa) = 111.09747 113.14410 84.05215
#
# Poissons Ratio (x) = 0.19527 0.06823
# Poissons Ratio (y) = 0.19174 0.03109
# Poissons Ratio (z) = 0.09018 0.04185
#
# Static dielectric constant tensor:
#      x y z
#    x 3.582290 0.000000 -0.111510 
#    y 0.000000 3.749190 0.000000 
#    z -0.111510 0.000000 4.233810 
# 
# 
# High freq. dielectric constant tensor:
#      x y z
#    x 1.816150 0.000000 0.000240 
#    y 0.000000 1.799810 0.000000 
#    z 0.000240 0.000000 1.838670 
# 
# From -- ./inp_files/54023.got.cif
#   From: 2010.06.25/outbox.cif.g09.slc.cpg/sg13_28_cif.got.tgz:54023.got - 2010.06.28 04:50:58.
