data_PCOD8122322
_publ_section_title
;
Structure prediction by ZEFSAII (Michael W. Deem and Ramdas Pophale) SiO2 
 PCOD8122322
Probable space group: P 2/C
;
_chemical_formula_sum "Si O2"
_cell_formula_units_Z 18
_cell_length_a 14.241984
_cell_length_b 4.893700
_cell_length_c 14.793547
_cell_angle_alpha 90.000000
_cell_angle_beta 137.610888
_cell_angle_gamma 90.000000
_cell_volume 695.095457
_symmetry_space_group_name_H-M "P 2/C"
_symmetry_group_IT_number 13
_symmetry_cell_setting 'monoclinic'
loop_
_space_group_symop_operation_xyz
x,y,z
-x,y,1/2-z
-x,-y,-z
x,-y,1/2+z
loop_
_atom_site_type_symbol
_atom_site_label
_atom_site_fract_x
_atom_site_fract_y
_atom_site_fract_z
Si Si1 0.500000 0.054528 0.250000
Si Si2 0.406470 0.640141 0.857654
Si Si3 0.753661 0.280777 0.886240
Si Si4 0.140415 0.931894 0.680869
Si Si5 0.987971 0.436763 0.640055
O O1 0.505729 0.238972 0.163966
O O2 0.364516 0.865086 0.138238
O O3 0.311192 0.399102 0.751348
O O4 0.303725 0.876652 0.825395
O O5 0.500000 0.500000 0.000000
O O6 0.862571 0.049057 0.925111
O O7 0.825798 0.524239 0.995415
O O8 0.055862 0.135403 0.686953
O O9 0.070056 0.635036 0.630139
O O10 0.000000 0.548253 0.750000
#
# Coordination Sequence:
#
# PCOD8122322 Si02
#       5
#     2   4   4   4   4
#     4  10  26  46  76 118 152 216 266 326 404 478
#     4  11  26  49  78 112 162 209 263 328 402 482
#     4  11  25  48  75 107 159 200 265 332 396 482
#     4  11  25  49  75 109 148 202 260 319 398 469
#     4  12  27  46  76 112 151 201 266 330 395 471
#
# _framework density 25.895724000000001
#
# number of rings (size 3 to 8) (size 9 to 14) (size 15 to 20)
#    0.000    0.889    2.222    2.667    6.222    8.889 
#    4.000    0.000    0.000    0.000    0.000    0.000 
#    0.000    0.000    0.000    0.000    0.000    0.000 
#
# Total GULP energy -223104.483074 kJ/mol
# GULP energy per Si atom -12394.693504 kJ/mol
# Density = 2.583678 g / cm^3
# Si number density = 25.895724 Si / 1000 Ang^3
#
#
#
# Elastic Constant Matrix: (Units=GPa)
#
#
# Indices 1 2 3 4 5 6 
#
# 1 120.9735 54.7924 50.8713 0.0000 11.2578 0.0000
# 2 54.7924 138.2921 58.9916 0.0000 8.3596 0.0000
# 3 50.8713 58.9916 176.9112 0.0000 -15.3395 0.0000
# 4 0.0000 0.0000 0.0000 48.1417 0.0000 10.2464
# 5 11.2578 8.3596 -15.3395 0.0000 22.7001 0.0000
# 6 0.0000 0.0000 0.0000 10.2464 0.0000 43.9013
#
#
#
# Elastic Compliance Matrix: (Units=1/GPa)
#
#
# Indices 1 2 3 4 5 6 
#
# 1 0.011394 -0.002892 -0.002878 0.000000 -0.006531 0.000000
# 2 -0.002892 0.009815 -0.002794 0.000000 -0.004068 0.000000
# 3 -0.002878 -0.002794 0.008099 0.000000 0.007930 0.000000
# 4 0.000000 0.000000 0.000000 0.021858 0.000000 -0.005102
# 5 -0.006531 -0.004068 0.007930 0.000000 0.054148 0.000000
# 6 0.000000 0.000000 0.000000 -0.005102 0.000000 0.023969
#
#
# Mechanical properties :
#
#
# Convention : Reuss Voigt Hill
#
# Bulk Modulus (GPa) = 82.10224 85.05417 83.57820
# Shear Modulus (GPa) = 33.22886 41.05005 37.13946
#
# Velocity S-wave (km/s) = 3.58604 3.98578 3.79118
# Velocity P-wave (km/s) = 6.99428 7.35514 7.17698
#
# Compressibility (1/GPa) = 0.01217994
#
# Stress axis : x y z
#
# Youngs Moduli (GPa) = 87.76338 101.88962 123.46542
#
# Poissons Ratio (x) = 0.29465 0.35539
# Poissons Ratio (y) = 0.25380 0.34495
# Poissons Ratio (z) = 0.25262 0.28467
#
# Static dielectric constant tensor:
#      x y z
#    x 4.834990 0.000000 0.496330 
#    y 0.000000 4.927940 0.000000 
#    z 0.496330 0.000000 4.442950 
# 
# 
# High freq. dielectric constant tensor:
#      x y z
#    x 2.042230 0.000000 0.027780 
#    y 0.000000 2.057400 0.000000 
#    z 0.027780 0.000000 2.016950 
# 
# From -- ./inp_files/52444.got.cif
#   From: 2010.06.25/outbox.cif.g09.slc.cpg/sg13_27_cif.got.tgz:52444.got - 2010.06.28 04:50:58.
