data_PCOD8122189
_publ_section_title
;
Structure prediction by ZEFSAII (Michael W. Deem and Ramdas Pophale) SiO2 
 PCOD8122189
Probable space group: P 2/C
;
_chemical_formula_sum "Si O2"
_cell_formula_units_Z 20
_cell_length_a 11.771360
_cell_length_b 6.377002
_cell_length_c 19.764867
_cell_angle_alpha 90.000000
_cell_angle_beta 37.703450
_cell_angle_gamma 90.000000
_cell_volume 907.374540
_symmetry_space_group_name_H-M "P 2/C"
_symmetry_group_IT_number 13
_symmetry_cell_setting 'monoclinic'
loop_
_space_group_symop_operation_xyz
x,y,z
-x,y,1/2-z
-x,-y,-z
x,-y,1/2+z
loop_
_atom_site_type_symbol
_atom_site_label
_atom_site_fract_x
_atom_site_fract_y
_atom_site_fract_z
Si Si1 0.015593 0.146694 0.668748
Si Si2 0.641248 0.883436 0.583012
Si Si3 0.000000 0.553188 0.750000
Si Si4 0.500000 0.774304 0.250000
Si Si5 0.249718 0.809116 0.724734
Si Si6 0.797438 0.434530 0.118735
O O1 0.188648 0.056144 0.545500
O O2 0.038051 0.399622 0.666675
O O3 0.000000 0.041629 0.750000
O O4 0.826415 0.048490 0.726636
O O5 0.472450 0.804374 0.615195
O O6 0.696153 0.703209 0.609546
O O7 0.572779 0.088632 0.653618
O O8 0.172919 0.695762 0.692566
O O9 0.673292 0.636629 0.193176
O O10 0.177283 0.691550 0.824848
O O11 0.000000 0.500000 0.000000
#
# Coordination Sequence:
#
# PCOD8122189 Si02
#       6
#     4   4   2   2   4   4
#     4  10  26  47  67 102 142 192 235 293 354 418
#     4  12  26  45  75 109 143 187 240 298 369 427
#     4  10  24  46  68  98 140 196 236 288 352 416
#     4  12  24  46  70 118 142 182 232 300 378 418
#     4  12  23  47  69 103 146 176 253 289 351 442
#     4  12  26  45  75 109 144 188 235 302 364 434
#
# _framework density 22.041612000000001
#
# number of rings (size 3 to 8) (size 9 to 14) (size 15 to 20)
#    0.600    0.000    5.000    2.400    5.600    3.200 
#    0.000    0.000    0.000    0.000    0.000    0.000 
#    0.000    0.000    0.000    0.000    0.000    0.000 
#
# Total GULP energy -247779.168101 kJ/mol
# GULP energy per Si atom -12388.958405 kJ/mol
# Density = 2.199144 g / cm^3
# Si number density = 22.041612 Si / 1000 Ang^3
#
#
#
# Elastic Constant Matrix: (Units=GPa)
#
#
# Indices 1 2 3 4 5 6 
#
# 1 112.9531 60.0308 15.9894 0.0000 -19.8907 0.0000
# 2 60.0308 113.6119 33.0707 0.0000 -8.9339 0.0000
# 3 15.9894 33.0707 106.5593 0.0000 -4.7687 0.0000
# 4 0.0000 0.0000 0.0000 0.5611 0.0000 -35.5509
# 5 -19.8907 -8.9339 -4.7687 0.0000 40.1060 0.0000
# 6 0.0000 0.0000 0.0000 -35.5509 0.0000 21.3458
#
#
#
# Elastic Compliance Matrix: (Units=1/GPa)
#
#
# Indices 1 2 3 4 5 6 
#
# 1 0.013274 -0.006703 0.000318 0.000000 0.005128 0.000000
# 2 -0.006703 0.013193 -0.003123 0.000000 -0.000757 0.000000
# 3 0.000318 -0.003123 0.010337 0.000000 0.000691 0.000000
# 4 0.000000 0.000000 0.000000 -0.017051 0.000000 -0.028398
# 5 0.005128 -0.000757 0.000691 0.000000 0.027391 0.000000
# 6 0.000000 0.000000 0.000000 -0.028398 0.000000 -0.000448
#
#
# Mechanical properties :
#
#
# Convention : Reuss Voigt Hill
#
# Bulk Modulus (GPa) = 56.21624 61.25622 58.73623
# Shear Modulus (GPa) = 69.79427 27.33816 48.56622
#
# Velocity S-wave (km/s) = 5.63325 3.52561 4.69912
# Velocity P-wave (km/s) = 8.23841 6.66519 7.49320
#
# Compressibility (1/GPa) = 0.01778845
#
# Stress axis : x y z
#
# Youngs Moduli (GPa) = 75.33776 75.79766 96.74228
#
# Poissons Ratio (x) = 0.50806 -0.03076
# Poissons Ratio (y) = 0.50498 0.30208
# Poissons Ratio (z) = -0.02396 0.23668
#
# Static dielectric constant tensor:
#      x y z
#    x 4.109170 0.000000 -0.091770 
#    y 0.000000 4.148870 0.000000 
#    z -0.091770 0.000000 3.568240 
# 
# 
# High freq. dielectric constant tensor:
#      x y z
#    x 1.879470 0.000000 -0.006010 
#    y 0.000000 1.880710 0.000000 
#    z -0.006010 0.000000 1.854750 
# 
# From -- ./inp_files/77122.got.cif
#   From: 2010.06.25/outbox.cif.g09.slc.cpg/sg13_39_cif.got.tgz:77122.got - 2010.06.28 04:50:58.
