data_PCOD8122625
_publ_section_title
;
Structure prediction by ZEFSAII (Michael W. Deem and Ramdas Pophale) SiO2 
 PCOD8122625
Probable space group: P 2/C
;
_chemical_formula_sum "Si O2"
_cell_formula_units_Z 28
_cell_length_a 8.185259
_cell_length_b 4.965870
_cell_length_c 28.236432
_cell_angle_alpha 90.000000
_cell_angle_beta 61.408932
_cell_angle_gamma 90.000000
_cell_volume 1007.768062
_symmetry_space_group_name_H-M "P 2/C"
_symmetry_group_IT_number 13
_symmetry_cell_setting 'monoclinic'
loop_
_space_group_symop_operation_xyz
x,y,z
-x,y,1/2-z
-x,-y,-z
x,-y,1/2+z
loop_
_atom_site_type_symbol
_atom_site_label
_atom_site_fract_x
_atom_site_fract_y
_atom_site_fract_z
Si Si1 0.674803 0.182502 0.370936
Si Si2 0.145579 0.681997 0.913410
Si Si3 0.259468 0.427552 0.043318
Si Si4 0.606541 0.822198 0.778139
Si Si5 0.280866 0.204228 0.843664
Si Si6 0.041310 0.876824 0.295095
Si Si7 0.330802 0.097281 0.473695
O O1 0.707792 0.416188 0.404762
O O2 0.496642 0.014083 0.415058
O O3 0.618337 0.317600 0.328282
O O4 0.848889 0.983251 0.343564
O O5 0.300970 0.458184 0.876493
O O6 0.165603 0.773370 0.965376
O O7 0.958107 0.509520 0.932837
O O8 0.162820 0.949822 0.879696
O O9 0.389442 0.663009 0.002526
O O10 0.274947 0.143921 0.014580
O O11 0.500000 0.656152 0.750000
O O12 0.487252 0.101659 0.800906
O O13 0.818510 0.873729 0.733837
O O14 0.155580 0.311020 0.815924
O O15 0.000000 0.730217 0.250000
#
# Coordination Sequence:
#
# PCOD8122625 Si02
#       7
#     4   4   4   4   4   4   4
#     4  11  22  42  73 105 150 189 231 304 364 428
#     4  12  24  45  74 101 141 193 234 300 348 428
#     4  12  26  46  71 111 146 190 246 295 362 432
#     4   9  20  43  76 106 141 184 246 296 359 436
#     4  11  22  45  74 102 139 185 240 286 367 418
#     4   9  20  43  75 104 141 184 239 300 367 426
#     4  12  26  46  71 111 145 193 245 293 360 436
#
# _framework density 27.784168999999999
#
# number of rings (size 3 to 8) (size 9 to 14) (size 15 to 20)
#    0.000    1.143    2.857    3.429    0.000    0.000 
#    0.000    7.143    0.000    0.000    0.000    0.000 
#    0.000    0.000    0.000    0.000    0.000    0.000 
#
# Total GULP energy -346926.279524 kJ/mol
# GULP energy per Si atom -12390.224269 kJ/mol
# Density = 2.772093 g / cm^3
# Si number density = 27.784169 Si / 1000 Ang^3
#
#
#
# Elastic Constant Matrix: (Units=GPa)
#
#
# Indices 1 2 3 4 5 6 
#
# 1 118.5470 4.6751 57.7448 0.0000 18.3607 0.0000
# 2 4.6751 86.3239 31.1817 0.0000 6.2795 0.0000
# 3 57.7448 31.1817 151.2120 0.0000 25.8778 0.0000
# 4 0.0000 0.0000 0.0000 -15.5283 0.0000 -8.1630
# 5 18.3607 6.2795 25.8778 0.0000 58.3007 0.0000
# 6 0.0000 0.0000 0.0000 -8.1630 0.0000 24.0532
#
#
#
# Elastic Compliance Matrix: (Units=1/GPa)
#
#
# Indices 1 2 3 4 5 6 
#
# 1 0.010584 0.000978 -0.003956 0.000000 -0.001683 0.000000
# 2 0.000978 0.012610 -0.002910 0.000000 -0.000375 0.000000
# 3 -0.003956 -0.002910 0.009152 0.000000 -0.002503 0.000000
# 4 0.000000 0.000000 0.000000 -0.054649 0.000000 -0.018546
# 5 -0.001683 -0.000375 -0.002503 0.000000 0.018834 0.000000
# 6 0.000000 0.000000 0.000000 -0.018546 0.000000 0.035280
#
#
# Mechanical properties :
#
#
# Convention : Reuss Voigt Hill
#
# Bulk Modulus (GPa) = 48.61042 60.36512 54.48777
# Shear Modulus (GPa) = 99.12176 30.86387 64.99281
#
# Velocity S-wave (km/s) = 5.97939 3.33655 4.84178
# Velocity P-wave (km/s) = 8.07493 6.05120 7.13518
#
# Compressibility (1/GPa) = 0.02057172
#
# Stress axis : x y z
#
# Youngs Moduli (GPa) = 94.47900 79.30483 109.26337
#
# Poissons Ratio (x) = -0.07756 0.43221
# Poissons Ratio (y) = -0.09240 0.31791
# Poissons Ratio (z) = 0.37372 0.23075
#
# Static dielectric constant tensor:
#      x y z
#    x 7.576580 0.000000 0.674500 
#    y 0.000000 4.178900 0.000000 
#    z 0.674500 0.000000 5.734450 
# 
# 
# High freq. dielectric constant tensor:
#      x y z
#    x 2.150920 0.000000 0.002680 
#    y 0.000000 2.067010 0.000000 
#    z 0.002680 0.000000 2.149250 
# 
# From -- ./inp_files/95593.got.cif
#   From: 2010.06.25/outbox.cif.g09.slc.cpg/sg13_48_cif.got.tgz:95593.got - 2010.06.28 04:50:58.
