data_PCOD8122259
_publ_section_title
;
Structure prediction by ZEFSAII (Michael W. Deem and Ramdas Pophale) SiO2 
 PCOD8122259
Probable space group: P 2/C
;
_chemical_formula_sum "Si O2"
_cell_formula_units_Z 28
_cell_length_a 12.959938
_cell_length_b 7.783713
_cell_length_c 15.184012
_cell_angle_alpha 90.000000
_cell_angle_beta 55.902949
_cell_angle_gamma 90.000000
_cell_volume 1268.391700
_symmetry_space_group_name_H-M "P 2/C"
_symmetry_group_IT_number 13
_symmetry_cell_setting 'monoclinic'
loop_
_space_group_symop_operation_xyz
x,y,z
-x,y,1/2-z
-x,-y,-z
x,-y,1/2+z
loop_
_atom_site_type_symbol
_atom_site_label
_atom_site_fract_x
_atom_site_fract_y
_atom_site_fract_z
Si Si1 0.672726 0.556245 0.519236
Si Si2 0.862216 0.061348 0.087668
Si Si3 0.858150 0.549831 0.576227
Si Si4 0.504014 0.741453 0.351864
Si Si5 0.866130 0.960981 0.280375
Si Si6 0.680985 0.964014 0.526646
Si Si7 0.240038 0.376155 0.706881
O O1 0.771298 0.472599 0.541002
O O2 0.549702 0.441121 0.588090
O O3 0.642501 0.760590 0.547654
O O4 0.727744 0.518665 0.396266
O O5 0.851616 0.252278 0.059859
O O6 0.831305 0.051289 0.205237
O O7 0.757801 0.970335 0.076542
O O8 0.000000 0.000000 0.000000
O O9 0.803120 0.506573 0.697743
O O10 0.000000 0.500000 0.500000
O O11 0.500000 0.747022 0.250000
O O12 0.645411 0.744210 0.317628
O O13 0.439340 0.913002 0.421845
O O14 0.763316 0.005519 0.401922
O O15 0.872254 0.756013 0.259837
O O16 0.000000 0.025110 0.250000
#
# Coordination Sequence:
#
# PCOD8122259 Si02
#       7
#     4   4   4   4   4   4   4
#     4  10  25  45  68 101 139 177 229 286 344 404
#     4  11  22  41  66  99 138 177 223 278 339 412
#     4  11  25  42  68  99 140 180 225 284 344 411
#     4  12  24  46  73  96 139 180 235 283 335 421
#     4  11  23  42  67  99 139 173 224 284 340 411
#     4  10  25  44  68 104 134 180 226 279 349 406
#     4  11  25  45  68 101 133 183 226 286 344 400
#
# _framework density 22.075199000000001
#
# number of rings (size 3 to 8) (size 9 to 14) (size 15 to 20)
#    0.000    1.143    2.857    2.143    8.000    2.857 
#    2.571    0.000    0.000    0.000    0.000    0.000 
#    0.000    0.000    0.000    0.000    0.000    0.000 
#
# Total GULP energy -347152.116390 kJ/mol
# GULP energy per Si atom -12398.289871 kJ/mol
# Density = 2.202496 g / cm^3
# Si number density = 22.075199 Si / 1000 Ang^3
#
#
#
# Elastic Constant Matrix: (Units=GPa)
#
#
# Indices 1 2 3 4 5 6 
#
# 1 64.1186 15.8702 32.6219 0.0000 9.3130 0.0000
# 2 15.8702 78.7052 33.9508 0.0000 -11.5993 0.0000
# 3 32.6219 33.9508 129.5783 0.0000 20.5060 0.0000
# 4 0.0000 0.0000 0.0000 34.8330 0.0000 -3.0815
# 5 9.3130 -11.5993 20.5060 0.0000 44.0950 0.0000
# 6 0.0000 0.0000 0.0000 -3.0815 0.0000 32.3128
#
#
#
# Elastic Compliance Matrix: (Units=1/GPa)
#
#
# Indices 1 2 3 4 5 6 
#
# 1 0.018457 -0.002661 -0.003478 0.000000 -0.002981 0.000000
# 2 -0.002661 0.016318 -0.004721 0.000000 0.007050 0.000000
# 3 -0.003478 -0.004721 0.010697 0.000000 -0.005482 0.000000
# 4 0.000000 0.000000 0.000000 0.028953 0.000000 0.002761
# 5 -0.002981 0.007050 -0.005482 0.000000 0.027712 0.000000
# 6 0.000000 0.000000 0.000000 0.002761 0.000000 0.031211
#
#
# Mechanical properties :
#
#
# Convention : Reuss Voigt Hill
#
# Bulk Modulus (GPa) = 42.10052 48.58754 45.34403
# Shear Modulus (GPa) = 30.67773 34.91210 32.79492
#
# Velocity S-wave (km/s) = 3.73190 3.98113 3.85853
# Velocity P-wave (km/s) = 6.13859 6.57194 6.35895
#
# Compressibility (1/GPa) = 0.02375268
#
# Stress axis : x y z
#
# Youngs Moduli (GPa) = 54.17988 61.28301 93.48027
#
# Poissons Ratio (x) = 0.16306 0.32510
# Poissons Ratio (y) = 0.14416 0.44134
# Poissons Ratio (z) = 0.18843 0.28933
#
# Static dielectric constant tensor:
#      x y z
#    x 3.986560 0.000000 0.121100 
#    y 0.000000 3.884120 0.000000 
#    z 0.121100 0.000000 4.127120 
# 
# 
# High freq. dielectric constant tensor:
#      x y z
#    x 1.881950 0.000000 0.013390 
#    y 0.000000 1.858250 0.000000 
#    z 0.013390 0.000000 1.879850 
# 
# From -- ./inp_files/50260.got.cif
#   From: 2010.06.25/outbox.cif.g09.slc.cpg/sg13_26_cif.got.tgz:50260.got - 2010.06.28 04:50:58.
