data_PCOD8122210
_publ_section_title
;
Structure prediction by ZEFSAII (Michael W. Deem and Ramdas Pophale) SiO2 
 PCOD8122210
Probable space group: P 2/C
;
_chemical_formula_sum "Si O2"
_cell_formula_units_Z 18
_cell_length_a 14.158846
_cell_length_b 7.099551
_cell_length_c 9.596483
_cell_angle_alpha 90.000000
_cell_angle_beta 44.949971
_cell_angle_gamma 90.000000
_cell_volume 681.516378
_symmetry_space_group_name_H-M "P 2/C"
_symmetry_group_IT_number 13
_symmetry_cell_setting 'monoclinic'
loop_
_space_group_symop_operation_xyz
x,y,z
-x,y,1/2-z
-x,-y,-z
x,-y,1/2+z
loop_
_atom_site_type_symbol
_atom_site_label
_atom_site_fract_x
_atom_site_fract_y
_atom_site_fract_z
Si Si1 0.828917 0.636381 0.659816
Si Si2 0.451969 0.644199 0.439526
Si Si3 0.795470 0.910145 0.452299
Si Si4 0.500000 0.992857 0.250000
Si Si5 0.890172 0.777976 0.063360
O O1 0.835876 0.728448 0.499725
O O2 0.805232 0.413090 0.663420
O O3 0.958122 0.702499 0.611808
O O4 0.704054 0.698957 0.884397
O O5 0.500000 0.537456 0.250000
O O6 0.500000 0.500000 0.500000
O O7 0.519723 0.853320 0.365212
O O8 0.871477 0.902680 0.224026
O O9 0.635254 0.887533 0.597997
O O10 0.843136 0.099961 0.480500
#
# Coordination Sequence:
#
# PCOD8122210 Si02
#       5
#     4   4   4   2   4
#     4  11  26  49  78 115 157 208 263 315 396 466
#     4  10  24  46  76 112 154 203 257 324 382 464
#     4  12  26  51  81 115 159 205 259 329 396 464
#     4  10  26  46  76 114 156 200 260 320 396 462
#     4  11  28  50  82 117 156 207 263 329 389 473
#
# _framework density 26.411691000000001
#
# number of rings (size 3 to 8) (size 9 to 14) (size 15 to 20)
#    0.667    0.444    0.000    4.000    3.111    8.889 
#    0.000    5.556    0.000    0.000    0.000    0.000 
#    0.000    0.000    0.000    0.000    0.000    0.000 
#
# Total GULP energy -223063.457588 kJ/mol
# GULP energy per Si atom -12392.414310 kJ/mol
# Density = 2.635158 g / cm^3
# Si number density = 26.411691 Si / 1000 Ang^3
#
#
#
# Elastic Constant Matrix: (Units=GPa)
#
#
# Indices 1 2 3 4 5 6 
#
# 1 86.0439 24.0585 27.4862 0.0000 -4.5838 0.0000
# 2 24.0585 111.4852 10.2196 0.0000 12.2841 0.0000
# 3 27.4862 10.2196 137.2078 0.0000 -5.6211 0.0000
# 4 0.0000 0.0000 0.0000 10.7299 0.0000 -13.8590
# 5 -4.5838 12.2841 -5.6211 0.0000 47.7778 0.0000
# 6 0.0000 0.0000 0.0000 -13.8590 0.0000 38.3584
#
#
#
# Elastic Compliance Matrix: (Units=1/GPa)
#
#
# Indices 1 2 3 4 5 6 
#
# 1 0.013265 -0.002835 -0.002376 0.000000 0.001722 0.000000
# 2 -0.002835 0.009923 -0.000288 0.000000 -0.002857 0.000000
# 3 -0.002376 -0.000288 0.007817 0.000000 0.000766 0.000000
# 4 0.000000 0.000000 0.000000 0.174744 0.000000 0.063135
# 5 0.001722 -0.002857 0.000766 0.000000 0.021920 0.000000
# 6 0.000000 0.000000 0.000000 0.063135 0.000000 0.048881
#
#
# Mechanical properties :
#
#
# Convention : Reuss Voigt Hill
#
# Bulk Modulus (GPa) = 49.98052 50.91839 50.44945
# Shear Modulus (GPa) = 16.99432 37.57140 27.28286
#
# Velocity S-wave (km/s) = 2.53936 3.77573 3.21749
# Velocity P-wave (km/s) = 5.25000 6.19103 5.73983
#
# Compressibility (1/GPa) = 0.02000780
#
# Stress axis : x y z
#
# Youngs Moduli (GPa) = 75.38538 100.77863 127.92682
#
# Poissons Ratio (x) = 0.28567 0.30391
# Poissons Ratio (y) = 0.21369 0.03688
# Poissons Ratio (z) = 0.17909 0.02905
#
# Static dielectric constant tensor:
#      x y z
#    x 4.730430 0.000000 -0.415890 
#    y 0.000000 4.860880 0.000000 
#    z -0.415890 0.000000 4.942910 
# 
# 
# High freq. dielectric constant tensor:
#      x y z
#    x 2.046790 0.000000 -0.015750 
#    y 0.000000 2.071750 0.000000 
#    z -0.015750 0.000000 2.074950 
# 
# From -- ./inp_files/14768.got.cif
#   From: 2010.06.25/outbox.cif.g09.slc.cpg/sg13_8_cif.got.tgz:14768.got - 2010.06.28 04:50:58.
