data_PCOD8122275
_publ_section_title
;
Structure prediction by ZEFSAII (Michael W. Deem and Ramdas Pophale) SiO2 
 PCOD8122275
Probable space group: P 2/C
;
_chemical_formula_sum "Si O2"
_cell_formula_units_Z 22
_cell_length_a 11.955941
_cell_length_b 10.705908
_cell_length_c 16.392295
_cell_angle_alpha 90.000000
_cell_angle_beta 149.097381
_cell_angle_gamma 90.000000
_cell_volume 1077.594919
_symmetry_space_group_name_H-M "P 2/C"
_symmetry_group_IT_number 13
_symmetry_cell_setting 'monoclinic'
loop_
_space_group_symop_operation_xyz
x,y,z
-x,y,1/2-z
-x,-y,-z
x,-y,1/2+z
loop_
_atom_site_type_symbol
_atom_site_label
_atom_site_fract_x
_atom_site_fract_y
_atom_site_fract_z
Si Si1 0.000000 0.793040 0.250000
Si Si2 0.596887 0.025056 0.472000
Si Si3 0.001548 0.328709 0.920747
Si Si4 0.123996 0.204009 0.407473
Si Si5 0.843157 0.888416 0.875511
Si Si6 0.739639 0.420710 0.899412
O O1 0.062974 0.708143 0.211575
O O2 0.210709 0.874455 0.402674
O O3 0.406570 0.069271 0.291741
O O4 0.500000 0.000000 0.500000
O O5 0.695282 0.900774 0.494709
O O6 0.790815 0.347741 0.846685
O O7 0.153943 0.221069 0.055085
O O8 0.110195 0.463032 0.987339
O O9 0.247085 0.323030 0.519058
O O10 0.000000 0.247455 0.250000
O O11 0.929941 0.158974 0.343888
O O12 0.000000 0.000000 0.000000
O O13 0.500000 0.476291 0.750000
#
# Coordination Sequence:
#
# PCOD8122275 Si02
#       6
#     2   4   4   4   4   4
#     4  12  26  42  68 102 138 174 224 284 350 404
#     4  12  23  40  66 101 140 174 222 277 340 414
#     4  10  25  47  64 101 134 175 230 283 331 412
#     4  11  23  41  63  98 130 175 227 274 331 406
#     4  11  24  41  68  97 139 176 218 275 351 399
#     4  10  25  45  71  91 134 180 233 274 332 406
#
# _framework density 20.415835999999999
#
# number of rings (size 3 to 8) (size 9 to 14) (size 15 to 20)
#    0.000    1.091    2.727    2.182   11.455    1.455 
#    0.000    0.909    0.000    0.000    0.000    0.000 
#    0.000    0.000    0.000    0.000    0.000    0.000 
#
# Total GULP energy -272815.676563 kJ/mol
# GULP energy per Si atom -12400.712571 kJ/mol
# Density = 2.036937 g / cm^3
# Si number density = 20.415836 Si / 1000 Ang^3
#
#
#
# Elastic Constant Matrix: (Units=GPa)
#
#
# Indices 1 2 3 4 5 6 
#
# 1 93.6142 42.0444 49.3231 0.0000 -18.5514 0.0000
# 2 42.0444 123.2101 43.9024 0.0000 -10.3679 0.0000
# 3 49.3231 43.9024 118.7316 0.0000 4.5319 0.0000
# 4 0.0000 0.0000 0.0000 21.1485 0.0000 -8.3142
# 5 -18.5514 -10.3679 4.5319 0.0000 40.2782 0.0000
# 6 0.0000 0.0000 0.0000 -8.3142 0.0000 37.4515
#
#
#
# Elastic Compliance Matrix: (Units=1/GPa)
#
#
# Indices 1 2 3 4 5 6 
#
# 1 0.016753 -0.002864 -0.006193 0.000000 0.007676 0.000000
# 2 -0.002864 0.010165 -0.002630 0.000000 0.001593 0.000000
# 3 -0.006193 -0.002630 0.012154 0.000000 -0.004897 0.000000
# 4 0.000000 0.000000 0.000000 0.051806 0.000000 0.011501
# 5 0.007676 0.001593 -0.004897 0.000000 0.029324 0.000000
# 6 0.000000 0.000000 0.000000 0.011501 0.000000 0.029254
#
#
# Mechanical properties :
#
#
# Convention : Reuss Voigt Hill
#
# Bulk Modulus (GPa) = 63.70280 67.34398 65.52339
# Shear Modulus (GPa) = 28.08012 33.12804 30.60408
#
# Velocity S-wave (km/s) = 3.71267 4.03260 3.87594
# Velocity P-wave (km/s) = 7.04620 7.39867 7.22458
#
# Compressibility (1/GPa) = 0.01569790
#
# Stress axis : x y z
#
# Youngs Moduli (GPa) = 59.69227 98.38115 82.27491
#
# Poissons Ratio (x) = 0.28176 0.50955
# Poissons Ratio (y) = 0.17096 0.21634
# Poissons Ratio (z) = 0.36969 0.25870
#
# Static dielectric constant tensor:
#      x y z
#    x 4.110820 0.000000 -0.119670 
#    y 0.000000 3.826540 0.000000 
#    z -0.119670 0.000000 3.599550 
# 
# 
# High freq. dielectric constant tensor:
#      x y z
#    x 1.816490 0.000000 -0.004080 
#    y 0.000000 1.804730 0.000000 
#    z -0.004080 0.000000 1.795950 
# 
# From -- ./inp_files/29354.got.cif
#   From: 2010.06.25/outbox.cif.g09.slc.cpg/sg13_15_cif.got.tgz:29354.got - 2010.06.28 04:50:58.
