data_PCOD8122514
_publ_section_title
;
Structure prediction by ZEFSAII (Michael W. Deem and Ramdas Pophale) SiO2 
 PCOD8122514
Probable space group: P 2/C
;
_chemical_formula_sum "Si O2"
_cell_formula_units_Z 26
_cell_length_a 20.261570
_cell_length_b 6.301416
_cell_length_c 16.911180
_cell_angle_alpha 90.000000
_cell_angle_beta 143.354641
_cell_angle_gamma 90.000000
_cell_volume 1288.717761
_symmetry_space_group_name_H-M "P 2/C"
_symmetry_group_IT_number 13
_symmetry_cell_setting 'monoclinic'
loop_
_space_group_symop_operation_xyz
x,y,z
-x,y,1/2-z
-x,-y,-z
x,-y,1/2+z
loop_
_atom_site_type_symbol
_atom_site_label
_atom_site_fract_x
_atom_site_fract_y
_atom_site_fract_z
Si Si1 0.599769 0.768717 0.261486
Si Si2 0.913606 0.900345 0.357443
Si Si3 0.500000 0.153463 0.250000
Si Si4 0.204188 0.587110 0.140783
Si Si5 0.991491 0.551748 0.148540
Si Si6 0.385385 0.537648 0.065394
Si Si7 0.807094 0.679550 0.730560
O O1 0.692304 0.734567 0.284051
O O2 0.486717 0.662063 0.121254
O O3 0.643491 0.644146 0.379453
O O4 0.576196 0.012271 0.264132
O O5 0.857084 0.712646 0.349833
O O6 0.979575 0.795771 0.346809
O O7 0.819312 0.064821 0.236162
O O8 0.000000 0.000000 0.500000
O O9 0.419820 0.294035 0.116774
O O10 0.231518 0.371845 0.216197
O O11 0.131764 0.518995 0.995689
O O12 0.071498 0.395607 0.178002
O O13 0.000000 0.522732 0.250000
O O14 0.278967 0.561583 0.909211
#
# Coordination Sequence:
#
# PCOD8122514 Si02
#       7
#     4   4   2   4   4   4   4
#     4   9  20  37  59  90 120 153 207 256 303 367
#     4  11  21  42  60  84 123 164 197 248 313 361
#     4   8  18  40  62  82 128 158 200 262 312 368
#     4  11  22  38  60  87 121 161 203 253 308 368
#     4  11  23  39  60  90 119 157 212 251 303 369
#     4   9  20  39  60  86 119 159 198 253 313 359
#     4  11  22  40  61  84 124 160 199 255 305 369
#
# _framework density 20.175090999999998
#
# number of rings (size 3 to 8) (size 9 to 14) (size 15 to 20)
#    0.000    2.154    3.077    1.846    0.000    8.615 
#    5.538    1.538    0.000    0.000    0.000    0.000 
#    0.000    0.000    0.000    0.000    0.000    0.000 
#
# Total GULP energy -322168.746009 kJ/mol
# GULP energy per Si atom -12391.105616 kJ/mol
# Density = 2.012917 g / cm^3
# Si number density = 20.175091 Si / 1000 Ang^3
#
#
#
# Elastic Constant Matrix: (Units=GPa)
#
#
# Indices 1 2 3 4 5 6 
#
# 1 73.6020 21.3051 8.6759 0.0000 0.8323 0.0000
# 2 21.3051 120.0000 19.7926 0.0000 2.7284 0.0000
# 3 8.6759 19.7926 54.7393 0.0000 7.7207 0.0000
# 4 0.0000 0.0000 0.0000 22.5234 0.0000 -0.4511
# 5 0.8323 2.7284 7.7207 0.0000 26.5768 0.0000
# 6 0.0000 0.0000 0.0000 -0.4511 0.0000 19.7722
#
#
#
# Elastic Compliance Matrix: (Units=1/GPa)
#
#
# Indices 1 2 3 4 5 6 
#
# 1 0.014431 -0.002323 -0.001478 0.000000 0.000216 0.000000
# 2 -0.002323 0.009236 -0.002969 0.000000 -0.000013 0.000000
# 3 -0.001478 -0.002969 0.020361 0.000000 -0.005564 0.000000
# 4 0.000000 0.000000 0.000000 0.044419 0.000000 0.001014
# 5 0.000216 -0.000013 -0.005564 0.000000 0.039238 0.000000
# 6 0.000000 0.000000 0.000000 0.001014 0.000000 0.050599
#
#
# Mechanical properties :
#
#
# Convention : Reuss Voigt Hill
#
# Bulk Modulus (GPa) = 32.80083 38.65430 35.72757
# Shear Modulus (GPa) = 24.75415 27.01232 25.88323
#
# Velocity S-wave (km/s) = 3.50661 3.66306 3.58569
# Velocity P-wave (km/s) = 5.71738 6.09029 5.90678
#
# Compressibility (1/GPa) = 0.03048703
#
# Stress axis : x y z
#
# Youngs Moduli (GPa) = 69.29610 108.27331 49.11334
#
# Poissons Ratio (x) = 0.25155 0.07257
# Poissons Ratio (y) = 0.16099 0.14584
# Poissons Ratio (z) = 0.10239 0.32152
#
# Static dielectric constant tensor:
#      x y z
#    x 3.485590 0.000000 0.742560 
#    y 0.000000 -7.351440 0.000000 
#    z 0.742560 0.000000 -5.682310 
# 
# 
# High freq. dielectric constant tensor:
#      x y z
#    x 1.776370 0.000000 0.002140 
#    y 0.000000 1.795750 0.000000 
#    z 0.002140 0.000000 1.780280 
# 
# From -- ./inp_files/70235.got.cif
#   From: 2010.06.25/outbox.cif.g09.slc.cpg/sg13_36_cif.got.tgz:70235.got - 2010.06.28 04:50:58.
