data_PCOD8122813
_publ_section_title
;
Structure prediction by ZEFSAII (Michael W. Deem and Ramdas Pophale) SiO2 
 PCOD8122813
Probable space group: P 2/C
;
_chemical_formula_sum "Si O2"
_cell_formula_units_Z 32
_cell_length_a 18.108677
_cell_length_b 11.092719
_cell_length_c 14.904679
_cell_angle_alpha 90.000000
_cell_angle_beta 27.894133
_cell_angle_gamma 90.000000
_cell_volume 1400.696607
_symmetry_space_group_name_H-M "P 2/C"
_symmetry_group_IT_number 13
_symmetry_cell_setting 'monoclinic'
loop_
_space_group_symop_operation_xyz
x,y,z
-x,y,1/2-z
-x,-y,-z
x,-y,1/2+z
loop_
_atom_site_type_symbol
_atom_site_label
_atom_site_fract_x
_atom_site_fract_y
_atom_site_fract_z
Si Si1 0.629343 0.636365 0.539218
Si Si2 0.358512 0.362670 0.999313
Si Si3 0.680494 0.007693 0.552543
Si Si4 0.680421 0.991636 0.842509
Si Si5 0.306804 0.744698 0.377229
Si Si6 0.826531 0.236922 0.953676
Si Si7 0.156174 0.743576 0.868341
Si Si8 0.203428 0.245374 0.800624
O O1 0.500000 0.689346 0.750000
O O2 0.584558 0.500573 0.561826
O O3 0.791463 0.657378 0.419384
O O4 0.655380 0.708851 0.417689
O O5 0.243041 0.344821 0.206633
O O6 0.504225 0.268410 0.847315
O O7 0.264862 0.340513 0.006841
O O8 0.500000 0.033507 0.750000
O O9 0.718932 0.881429 0.558090
O O10 0.720035 0.006297 0.405378
O O11 0.751794 0.120736 0.531875
O O12 0.773119 0.876764 0.707509
O O13 0.767493 0.106332 0.708202
O O14 0.500000 0.000000 0.000000
O O15 0.217065 0.694860 0.385069
O O16 0.000000 0.186650 0.750000
O O17 0.806860 0.300836 0.071037
O O18 0.969538 0.734662 0.052803
#
# Coordination Sequence:
#
# PCOD8122813 Si02
#       8
#     4   4   4   4   4   4   4   4
#     4  12  27  49  75 102 139 189 248 298 348 420
#     4  11  25  49  74 101 137 191 238 303 351 416
#     4  12  21  41  72 102 142 183 227 291 363 423
#     4  12  24  41  72 107 144 191 235 295 359 429
#     4  11  23  47  70 106 143 176 244 297 356 426
#     4  12  26  47  68 106 147 186 231 296 361 434
#     4  12  25  47  71 103 151 185 235 296 365 433
#     4  12  27  44  69 110 142 189 236 290 368 435
#
# _framework density 22.845776000000001
#
# number of rings (size 3 to 8) (size 9 to 14) (size 15 to 20)
#    0.000    0.250    6.250    3.750    3.500    3.500 
#    2.250    0.000    0.000    0.000    0.000    0.000 
#    0.000    0.000    0.000    0.000    0.000    0.000 
#
# Total GULP energy -396529.718194 kJ/mol
# GULP energy per Si atom -12391.553694 kJ/mol
# Density = 2.279378 g / cm^3
# Si number density = 22.845776 Si / 1000 Ang^3
#
#
#
# Elastic Constant Matrix: (Units=GPa)
#
#
# Indices 1 2 3 4 5 6 
#
# 1 157.6910 18.5675 25.7271 0.0000 29.8825 0.0000
# 2 18.5675 78.3802 15.3021 0.0000 -2.1631 0.0000
# 3 25.7271 15.3021 65.1538 0.0000 18.2998 0.0000
# 4 0.0000 0.0000 0.0000 25.0105 0.0000 8.2974
# 5 29.8825 -2.1631 18.2998 0.0000 37.2629 0.0000
# 6 0.0000 0.0000 0.0000 8.2974 0.0000 14.4672
#
#
#
# Elastic Compliance Matrix: (Units=1/GPa)
#
#
# Indices 1 2 3 4 5 6 
#
# 1 0.007838 -0.001822 -0.001011 0.000000 -0.005895 0.000000
# 2 -0.001822 0.014031 -0.003730 0.000000 0.004107 0.000000
# 3 -0.001011 -0.003730 0.019090 0.000000 -0.008780 0.000000
# 4 0.000000 0.000000 0.000000 0.049379 0.000000 -0.028320
# 5 -0.005895 0.004107 -0.008780 0.000000 0.036114 0.000000
# 6 0.000000 0.000000 0.000000 -0.028320 0.000000 0.085365
#
#
# Mechanical properties :
#
#
# Convention : Reuss Voigt Hill
#
# Bulk Modulus (GPa) = 35.92827 46.71314 41.32071
# Shear Modulus (GPa) = 21.34741 31.45666 26.40203
#
# Velocity S-wave (km/s) = 3.06013 3.71470 3.40319
# Velocity P-wave (km/s) = 5.31474 6.23621 5.79382
#
# Compressibility (1/GPa) = 0.02783324
#
# Stress axis : x y z
#
# Youngs Moduli (GPa) = 127.58155 71.26869 52.38411
#
# Poissons Ratio (x) = 0.12985 0.05298
# Poissons Ratio (y) = 0.23245 0.19537
# Poissons Ratio (z) = 0.12904 0.26580
#
# Static dielectric constant tensor:
#      x y z
#    x 4.384940 0.000000 0.191260 
#    y 0.000000 3.896910 0.000000 
#    z 0.191260 0.000000 4.060050 
# 
# 
# High freq. dielectric constant tensor:
#      x y z
#    x 1.921220 0.000000 0.023100 
#    y 0.000000 1.886990 0.000000 
#    z 0.023100 0.000000 1.894090 
# 
# From -- ./inp_files/55795.got.cif
#   From: 2010.06.25/outbox.cif.g09.slc.cpg/sg13_28_cif.got.tgz:55795.got - 2010.06.28 04:50:58.
