data_PCOD8122331
_publ_section_title
;
Structure prediction by ZEFSAII (Michael W. Deem and Ramdas Pophale) SiO2 
 PCOD8122331
Probable space group: P 2/C
;
_chemical_formula_sum "Si O2"
_cell_formula_units_Z 20
_cell_length_a 10.354945
_cell_length_b 6.466395
_cell_length_c 19.910488
_cell_angle_alpha 90.000000
_cell_angle_beta 142.597986
_cell_angle_gamma 90.000000
_cell_volume 809.784407
_symmetry_space_group_name_H-M "P 2/C"
_symmetry_group_IT_number 13
_symmetry_cell_setting 'monoclinic'
loop_
_space_group_symop_operation_xyz
x,y,z
-x,y,1/2-z
-x,-y,-z
x,-y,1/2+z
loop_
_atom_site_type_symbol
_atom_site_label
_atom_site_fract_x
_atom_site_fract_y
_atom_site_fract_z
Si Si1 0.781620 0.952418 0.863382
Si Si2 0.000000 0.877811 0.750000
Si Si3 0.500000 0.690681 0.250000
Si Si4 0.420704 0.970484 0.864860
Si Si5 0.170436 0.767963 0.957842
Si Si6 0.369021 0.390819 0.096253
O O1 0.627903 0.959727 0.734747
O O2 0.732448 0.760933 0.890558
O O3 0.031880 0.930997 0.947301
O O4 0.711567 0.179683 0.862544
O O5 0.789638 0.016029 0.678138
O O6 0.952148 0.744113 0.663885
O O7 0.544279 0.541790 0.204222
O O8 0.519459 0.740055 0.917812
O O9 0.593289 0.142175 0.955259
O O10 0.180662 0.533240 0.988324
#
# Coordination Sequence:
#
# PCOD8122331 Si02
#       6
#     4   2   2   4   4   4
#     4  11  22  41  65 107 140 170 219 272 346 414
#     4  10  26  48  68  92 138 180 240 280 318 388
#     4  12  20  40  68  98 140 176 208 270 346 412
#     4  11  22  45  66  99 134 179 228 279 333 397
#     4  11  25  43  71  98 136 183 223 278 333 394
#     4  12  22  40  69 102 140 171 219 276 340 411
#
# _framework density 24.697932999999999
#
# number of rings (size 3 to 8) (size 9 to 14) (size 15 to 20)
#    0.000    0.800    6.000    1.200    0.000    5.600 
#    0.000    2.000    0.000    0.000    0.000    0.000 
#    0.000    0.000    0.000    0.000    0.000    0.000 
#
# Total GULP energy -247765.833076 kJ/mol
# GULP energy per Si atom -12388.291654 kJ/mol
# Density = 2.464172 g / cm^3
# Si number density = 24.697933 Si / 1000 Ang^3
#
#
#
# Elastic Constant Matrix: (Units=GPa)
#
#
# Indices 1 2 3 4 5 6 
#
# 1 124.8343 37.0228 30.9568 0.0000 27.5145 0.0000
# 2 37.0228 110.4406 37.9451 0.0000 -2.8268 0.0000
# 3 30.9568 37.9451 101.5963 0.0000 24.3241 0.0000
# 4 0.0000 0.0000 0.0000 33.9720 0.0000 1.1586
# 5 27.5145 -2.8268 24.3241 0.0000 27.0196 0.0000
# 6 0.0000 0.0000 0.0000 1.1586 0.0000 14.3418
#
#
#
# Elastic Compliance Matrix: (Units=1/GPa)
#
#
# Indices 1 2 3 4 5 6 
#
# 1 0.012307 -0.005051 0.001610 0.000000 -0.014511 0.000000
# 2 -0.005051 0.013236 -0.006333 0.000000 0.012229 0.000000
# 3 0.001610 -0.006333 0.015639 0.000000 -0.016382 0.000000
# 4 0.000000 0.000000 0.000000 0.029517 0.000000 -0.002384
# 5 -0.014511 0.012229 -0.016382 0.000000 0.067814 0.000000
# 6 0.000000 0.000000 0.000000 -0.002384 0.000000 0.069919
#
#
# Mechanical properties :
#
#
# Convention : Reuss Voigt Hill
#
# Bulk Modulus (GPa) = 46.21497 60.96897 53.59197
# Shear Modulus (GPa) = 21.25930 30.46311 25.86120
#
# Velocity S-wave (km/s) = 2.93708 3.51583 3.23940
# Velocity P-wave (km/s) = 5.50042 6.42035 5.97810
#
# Compressibility (1/GPa) = 0.02163801
#
# Stress axis : x y z
#
# Youngs Moduli (GPa) = 81.25144 75.54904 63.94112
#
# Poissons Ratio (x) = 0.38156 -0.10297
# Poissons Ratio (y) = 0.41036 0.40491
# Poissons Ratio (z) = -0.13085 0.47842
#
# Static dielectric constant tensor:
#      x y z
#    x 4.544840 0.000000 -0.112890 
#    y 0.000000 4.629460 0.000000 
#    z -0.112890 0.000000 4.873310 
# 
# 
# High freq. dielectric constant tensor:
#      x y z
#    x 1.965390 0.000000 -0.003850 
#    y 0.000000 1.967820 0.000000 
#    z -0.003850 0.000000 2.011370 
# 
# From -- ./inp_files/85669.got.cif
#   From: 2010.06.25/outbox.cif.g09.slc.cpg/sg13_43_cif.got.tgz:85669.got - 2010.06.28 04:50:58.
