data_PCOD8122436
_publ_section_title
;
Structure prediction by ZEFSAII (Michael W. Deem and Ramdas Pophale) SiO2 
 PCOD8122436
Probable space group: P 2/C
;
_chemical_formula_sum "Si O2"
_cell_formula_units_Z 32
_cell_length_a 11.350646
_cell_length_b 13.767226
_cell_length_c 17.380001
_cell_angle_alpha 90.000000
_cell_angle_beta 148.182016
_cell_angle_gamma 90.000000
_cell_volume 1431.893713
_symmetry_space_group_name_H-M "P 2/C"
_symmetry_group_IT_number 13
_symmetry_cell_setting 'monoclinic'
loop_
_space_group_symop_operation_xyz
x,y,z
-x,y,1/2-z
-x,-y,-z
x,-y,1/2+z
loop_
_atom_site_type_symbol
_atom_site_label
_atom_site_fract_x
_atom_site_fract_y
_atom_site_fract_z
Si Si1 0.529899 0.157892 0.606322
Si Si2 0.058009 0.364013 0.200805
Si Si3 0.477381 0.461717 0.400121
Si Si4 0.999653 0.865774 0.069486
Si Si5 0.607296 0.274468 0.389521
Si Si6 0.123623 0.922071 0.975701
Si Si7 0.293949 0.830265 0.824123
Si Si8 0.586733 0.654999 0.381716
O O1 0.783543 0.122759 0.756118
O O2 0.359533 0.107945 0.571006
O O3 0.457889 0.128229 0.480495
O O4 0.526332 0.273976 0.618790
O O5 0.218233 0.434961 0.241866
O O6 0.190767 0.268442 0.300352
O O7 0.000000 0.416300 0.250000
O O8 0.854199 0.333935 0.033313
O O9 0.500000 0.500000 0.500000
O O10 0.625814 0.365987 0.459545
O O11 0.532363 0.544528 0.370437
O O12 0.086661 0.855096 0.030445
O O13 0.854081 0.963933 0.993878
O O14 0.851592 0.772804 0.012149
O O15 0.500000 0.311291 0.250000
O O16 0.440748 0.191208 0.329686
O O17 0.907337 0.905433 0.801689
O O18 0.500000 0.683447 0.250000
#
# Coordination Sequence:
#
# PCOD8122436 Si02
#       8
#     4   4   4   4   4   4   4   4
#     4  12  25  44  69 104 139 181 241 298 356 426
#     4  11  20  42  68  92 130 186 228 278 354 418
#     4  11  24  42  70 102 135 191 237 286 354 434
#     4  11  27  43  70 108 144 182 240 307 362 414
#     4  11  24  46  72 101 147 191 237 290 370 433
#     4  11  23  45  72  98 139 194 239 292 358 439
#     4  11  22  43  73  93 134 190 236 281 348 443
#     4  12  24  40  66 101 135 171 234 296 347 418
#
# _framework density 22.348027999999999
#
# number of rings (size 3 to 8) (size 9 to 14) (size 15 to 20)
#    0.000    0.750    5.000    2.625    1.750    2.500 
#    2.250    0.000    0.000    0.000    0.000    0.000 
#    0.000    0.000    0.000    0.000    0.000    0.000 
#
# Total GULP energy -396809.285573 kJ/mol
# GULP energy per Si atom -12400.290174 kJ/mol
# Density = 2.229716 g / cm^3
# Si number density = 22.348028 Si / 1000 Ang^3
#
#
#
# Elastic Constant Matrix: (Units=GPa)
#
#
# Indices 1 2 3 4 5 6 
#
# 1 98.4305 31.4146 35.9642 0.0000 -0.0583 0.0000
# 2 31.4146 85.5410 14.9261 0.0000 6.8274 0.0000
# 3 35.9642 14.9261 134.1861 0.0000 -3.7761 0.0000
# 4 0.0000 0.0000 0.0000 28.9944 0.0000 -1.0922
# 5 -0.0583 6.8274 -3.7761 0.0000 38.5802 0.0000
# 6 0.0000 0.0000 0.0000 -1.0922 0.0000 15.9238
#
#
#
# Elastic Compliance Matrix: (Units=1/GPa)
#
#
# Indices 1 2 3 4 5 6 
#
# 1 0.012535 -0.004137 -0.002886 0.000000 0.000469 0.000000
# 2 -0.004137 0.013484 -0.000460 0.000000 -0.002438 0.000000
# 3 -0.002886 -0.000460 0.008302 0.000000 0.000890 0.000000
# 4 0.000000 0.000000 0.000000 0.034579 0.000000 0.002372
# 5 0.000469 -0.002438 0.000890 0.000000 0.026439 0.000000
# 6 0.000000 0.000000 0.000000 0.002372 0.000000 0.062962
#
#
# Mechanical properties :
#
#
# Convention : Reuss Voigt Hill
#
# Bulk Modulus (GPa) = 51.66568 53.64083 52.65325
# Shear Modulus (GPa) = 27.82133 32.42319 30.12226
#
# Velocity S-wave (km/s) = 3.53216 3.81311 3.67532
# Velocity P-wave (km/s) = 6.30902 6.59098 6.45154
#
# Compressibility (1/GPa) = 0.01935521
#
# Stress axis : x y z
#
# Youngs Moduli (GPa) = 79.77897 74.15976 120.45234
#
# Poissons Ratio (x) = 0.30681 0.34764
# Poissons Ratio (y) = 0.33005 0.05537
# Poissons Ratio (z) = 0.23025 0.03409
#
# Static dielectric constant tensor:
#      x y z
#    x 4.063780 0.000000 0.090640 
#    y 0.000000 4.010080 0.000000 
#    z 0.090640 0.000000 4.060870 
# 
# 
# High freq. dielectric constant tensor:
#      x y z
#    x 1.882040 0.000000 0.002990 
#    y 0.000000 1.875400 0.000000 
#    z 0.002990 0.000000 1.878250 
# 
# From -- ./inp_files/66946.got.cif
#   From: 2010.06.25/outbox.cif.g09.slc.cpg/sg13_34_cif.got.tgz:66946.got - 2010.06.28 04:50:58.
