data_PCOD8122771
_publ_section_title
;
Structure prediction by ZEFSAII (Michael W. Deem and Ramdas Pophale) SiO2 
 PCOD8122771
Probable space group: P 2/C
;
_chemical_formula_sum "Si O2"
_cell_formula_units_Z 24
_cell_length_a 10.709496
_cell_length_b 11.830428
_cell_length_c 23.410946
_cell_angle_alpha 90.000000
_cell_angle_beta 22.508185
_cell_angle_gamma 90.000000
_cell_volume 1135.475751
_symmetry_space_group_name_H-M "P 2/C"
_symmetry_group_IT_number 13
_symmetry_cell_setting 'monoclinic'
loop_
_space_group_symop_operation_xyz
x,y,z
-x,y,1/2-z
-x,-y,-z
x,-y,1/2+z
loop_
_atom_site_type_symbol
_atom_site_label
_atom_site_fract_x
_atom_site_fract_y
_atom_site_fract_z
Si Si1 0.233977 0.813104 0.703500
Si Si2 0.744066 0.644531 0.498981
Si Si3 0.730947 0.261434 0.501017
Si Si4 0.341993 0.051216 0.624030
Si Si5 0.244054 0.551579 0.196956
Si Si6 0.157953 0.622106 0.425060
O O1 0.582489 0.757107 0.541152
O O2 0.000000 0.789386 0.750000
O O3 0.277992 0.946956 0.694541
O O4 0.082005 0.749952 0.822745
O O5 0.458229 0.552551 0.628502
O O6 0.033556 0.597177 0.338149
O O7 0.902715 0.684975 0.491498
O O8 0.560088 0.139349 0.566838
O O9 0.496042 0.352149 0.568688
O O10 0.794170 0.302271 0.538734
O O11 0.000000 0.108691 0.750000
O O12 0.500000 0.000000 0.500000
O O13 0.000000 0.513764 0.250000
O O14 0.500000 0.605404 0.250000
O O15 0.000000 0.500000 0.500000
#
# Coordination Sequence:
#
# PCOD8122771 Si02
#       6
#     4   4   4   4   4   4
#     4  11  24  43  69 106 141 177 228 293 364 423
#     4  12  24  43  64  97 142 181 231 291 351 424
#     4  12  24  42  72 101 138 189 238 285 357 423
#     4  11  23  44  72 104 145 181 227 298 364 419
#     4  12  24  39  67 102 137 178 230 296 363 427
#     4  12  26  47  69  99 139 194 239 287 342 423
#
# _framework density 21.136517000000001
#
# number of rings (size 3 to 8) (size 9 to 14) (size 15 to 20)
#    0.000    0.333    6.667    3.500    4.667    0.000 
#    0.000    0.833    0.000    0.000    0.000    0.000 
#    0.000    0.000    0.000    0.000    0.000    0.000 
#
# Total GULP energy -297520.586521 kJ/mol
# GULP energy per Si atom -12396.691105 kJ/mol
# Density = 2.108841 g / cm^3
# Si number density = 21.136517 Si / 1000 Ang^3
#
#
#
# Elastic Constant Matrix: (Units=GPa)
#
#
# Indices 1 2 3 4 5 6 
#
# 1 130.1464 55.2821 39.3794 0.0000 -11.7387 0.0000
# 2 55.2821 108.4004 41.2716 0.0000 -9.7479 0.0000
# 3 39.3794 41.2716 89.8944 0.0000 -2.5229 0.0000
# 4 0.0000 0.0000 0.0000 36.8869 0.0000 -3.2736
# 5 -11.7387 -9.7479 -2.5229 0.0000 39.5143 0.0000
# 6 0.0000 0.0000 0.0000 -3.2736 0.0000 32.8953
#
#
#
# Elastic Compliance Matrix: (Units=1/GPa)
#
#
# Indices 1 2 3 4 5 6 
#
# 1 0.010402 -0.004144 -0.002601 0.000000 0.001902 0.000000
# 2 -0.004144 0.013068 -0.004136 0.000000 0.001729 0.000000
# 3 -0.002601 -0.004136 0.014138 0.000000 -0.000890 0.000000
# 4 0.000000 0.000000 0.000000 0.027351 0.000000 0.002722
# 5 0.001902 0.001729 -0.000890 0.000000 0.026242 0.000000
# 6 0.000000 0.000000 0.000000 0.002722 0.000000 0.030670
#
#
# Mechanical properties :
#
#
# Convention : Reuss Voigt Hill
#
# Bulk Modulus (GPa) = 63.10528 66.70083 64.90306
# Shear Modulus (GPa) = 33.57594 34.69319 34.13456
#
# Velocity S-wave (km/s) = 3.98996 4.05580 4.02301
# Velocity P-wave (km/s) = 7.15173 7.31836 7.23552
#
# Compressibility (1/GPa) = 0.01584653
#
# Stress axis : x y z
#
# Youngs Moduli (GPa) = 96.13232 76.52003 70.73338
#
# Poissons Ratio (x) = 0.31707 0.18399
# Poissons Ratio (y) = 0.39834 0.29257
# Poissons Ratio (z) = 0.25005 0.31650
#
# Static dielectric constant tensor:
#      x y z
#    x 4.006250 0.000000 -0.193030 
#    y 0.000000 4.002980 0.000000 
#    z -0.193030 0.000000 4.727440 
# 
# 
# High freq. dielectric constant tensor:
#      x y z
#    x 1.814690 0.000000 -0.010150 
#    y 0.000000 1.824350 0.000000 
#    z -0.010150 0.000000 1.856200 
# 
# From -- ./inp_files/92397.got.cif
#   From: 2010.06.25/outbox.cif.g09.slc.cpg/sg13_47_cif.got.tgz:92397.got - 2010.06.28 04:50:58.
