data_PCOD8122063
_publ_section_title
;
Structure prediction by ZEFSAII (Michael W. Deem and Ramdas Pophale) SiO2 
 PCOD8122063
Probable space group: P 2/C
;
_chemical_formula_sum "Si O2"
_cell_formula_units_Z 22
_cell_length_a 6.246153
_cell_length_b 6.091714
_cell_length_c 26.031791
_cell_angle_alpha 90.000000
_cell_angle_beta 77.875190
_cell_angle_gamma 90.000000
_cell_volume 968.408073
_symmetry_space_group_name_H-M "P 2/C"
_symmetry_group_IT_number 13
_symmetry_cell_setting 'monoclinic'
loop_
_space_group_symop_operation_xyz
x,y,z
-x,y,1/2-z
-x,-y,-z
x,-y,1/2+z
loop_
_atom_site_type_symbol
_atom_site_label
_atom_site_fract_x
_atom_site_fract_y
_atom_site_fract_z
Si Si1 0.915979 0.697086 0.071889
Si Si2 0.207855 0.969636 0.610246
Si Si3 0.802355 0.688993 0.792734
Si Si4 0.500000 0.990597 0.250000
Si Si5 0.716254 0.633535 0.975080
Si Si6 0.506863 0.698775 0.155762
O O1 0.719430 0.601409 0.116639
O O2 0.999063 0.925031 0.092167
O O3 0.111630 0.523395 0.062155
O O4 0.826905 0.741789 0.019339
O O5 0.370879 0.155236 0.622555
O O6 0.117294 0.816359 0.660516
O O7 0.343849 0.826016 0.561859
O O8 0.635351 0.501193 0.816667
O O9 0.000000 0.581707 0.750000
O O10 0.698896 0.863111 0.759175
O O11 0.590600 0.840874 0.199417
O O12 0.500000 0.500000 0.000000
#
# Coordination Sequence:
#
# PCOD8122063 Si02
#       6
#     4   4   4   2   4   4
#     4  11  24  42  66  94 129 170 213 264 323 384
#     4  11  24  42  66  95 129 170 213 263 323 382
#     4  11  24  43  66  94 131 169 213 265 318 379
#     4  10  24  42  66  94 128 170 214 262 322 382
#     4  11  25  44  66  96 130 168 215 269 323 382
#     4  11  25  43  66  96 130 169 216 265 317 383
#
# _framework density 22.717694000000002
#
# number of rings (size 3 to 8) (size 9 to 14) (size 15 to 20)
#    0.000    1.091    0.000    5.455    0.000   17.455 
#    0.000    0.000    0.000    0.000    0.000    0.000 
#    0.000    0.000    0.000    0.000    0.000    0.000 
#
# Total GULP energy -272899.305455 kJ/mol
# GULP energy per Si atom -12404.513884 kJ/mol
# Density = 2.266599 g / cm^3
# Si number density = 22.717694 Si / 1000 Ang^3
#
#
#
# Elastic Constant Matrix: (Units=GPa)
#
#
# Indices 1 2 3 4 5 6 
#
# 1 115.4970 63.3415 85.5694 0.0000 -19.3151 0.0000
# 2 63.3415 126.7558 84.5802 0.0000 -3.5448 0.0000
# 3 85.5694 84.5802 163.9191 0.0000 -9.1260 0.0000
# 4 0.0000 0.0000 0.0000 45.4359 0.0000 -5.9506
# 5 -19.3151 -3.5448 -9.1260 0.0000 63.7191 0.0000
# 6 0.0000 0.0000 0.0000 -5.9506 0.0000 26.5522
#
#
#
# Elastic Compliance Matrix: (Units=1/GPa)
#
#
# Indices 1 2 3 4 5 6 
#
# 1 0.015893 -0.003721 -0.006169 0.000000 0.003727 0.000000
# 2 -0.003721 0.012906 -0.004778 0.000000 -0.001094 0.000000
# 3 -0.006169 -0.004778 0.011761 0.000000 -0.000451 0.000000
# 4 0.000000 0.000000 0.000000 0.022675 0.000000 0.005082
# 5 0.003727 -0.001094 -0.000451 0.000000 0.016698 0.000000
# 6 0.000000 0.000000 0.000000 0.005082 0.000000 0.038801
#
#
# Mechanical properties :
#
#
# Convention : Reuss Voigt Hill
#
# Bulk Modulus (GPa) = 89.09299 97.01714 93.05506
# Shear Modulus (GPa) = 32.93593 38.65348 35.79471
#
# Velocity S-wave (km/s) = 3.81174 4.12936 3.97373
# Velocity P-wave (km/s) = 7.65997 8.09529 7.88064
#
# Compressibility (1/GPa) = 0.01122423
#
# Stress axis : x y z
#
# Youngs Moduli (GPa) = 62.92220 77.48183 85.02780
#
# Poissons Ratio (x) = 0.28834 0.52450
# Poissons Ratio (y) = 0.23416 0.40624
# Poissons Ratio (z) = 0.38814 0.37019
#
# Static dielectric constant tensor:
#      x y z
#    x 3.980210 0.000000 0.204030 
#    y 0.000000 4.081870 0.000000 
#    z 0.204030 0.000000 4.473610 
# 
# 
# High freq. dielectric constant tensor:
#      x y z
#    x 1.891520 0.000000 0.009430 
#    y 0.000000 1.895020 0.000000 
#    z 0.009430 0.000000 1.924080 
# 
# From -- ./inp_files/94576.got.cif
#   From: 2010.06.25/outbox.cif.g09.slc.cpg/sg13_48_cif.got.tgz:94576.got - 2010.06.28 04:50:58.
