data_PCOD8122047
_publ_section_title
;
Structure prediction by ZEFSAII (Michael W. Deem and Ramdas Pophale) SiO2 
 PCOD8122047
Probable space group: P 2/C
;
_chemical_formula_sum "Si O2"
_cell_formula_units_Z 14
_cell_length_a 10.843270
_cell_length_b 11.248685
_cell_length_c 4.783332
_cell_angle_alpha 90.000000
_cell_angle_beta 77.258957
_cell_angle_gamma 90.000000
_cell_volume 569.069066
_symmetry_space_group_name_H-M "P 2/C"
_symmetry_group_IT_number 13
_symmetry_cell_setting 'monoclinic'
loop_
_space_group_symop_operation_xyz
x,y,z
-x,y,1/2-z
-x,-y,-z
x,-y,1/2+z
loop_
_atom_site_type_symbol
_atom_site_label
_atom_site_fract_x
_atom_site_fract_y
_atom_site_fract_z
Si Si1 0.794169 0.419102 0.076400
Si Si2 0.584011 0.750000 0.457997
Si Si3 0.794163 0.080899 0.629448
Si Si4 0.000000 0.749997 0.250000
O O1 0.799533 0.541270 0.896072
O O2 0.665678 0.352733 0.061686
O O3 0.913861 0.333644 0.984774
O O4 0.500000 0.693875 0.250000
O O5 0.665669 0.852737 0.272645
O O6 0.500000 0.806121 0.750000
O O7 0.913850 0.166363 0.601385
O O8 0.799531 0.041268 0.304413
#
# Coordination Sequence:
#
# PCOD8122047 Si02
#       4
#     4   4   4   2
#     4  11  24  41  64  91 122 161 201 249 304 357
#     4  11  24  41  62  91 124 159 204 250 296 359
#     4  11  24  41  64  91 122 161 201 249 304 357
#     4  10  24  42  64  92 124 156 204 252 300 362
#
# _framework density 24.601582000000001
#
# number of rings (size 3 to 8) (size 9 to 14) (size 15 to 20)
#    0.000    1.143    0.000    5.143    0.000   16.000 
#    0.000    0.000    0.000    0.000    0.000    0.000 
#    0.000    0.000    0.000    0.000    0.000    0.000 
#
# Total GULP energy -173694.701793 kJ/mol
# GULP energy per Si atom -12406.764414 kJ/mol
# Density = 2.454559 g / cm^3
# Si number density = 24.601582 Si / 1000 Ang^3
#
#
#
# Elastic Constant Matrix: (Units=GPa)
#
#
# Indices 1 2 3 4 5 6 
#
# 1 128.4718 31.1010 24.4946 0.0000 -21.0326 0.0000
# 2 31.1010 89.8569 -0.7794 0.0000 -8.2753 0.0000
# 3 24.4946 -0.7794 66.0367 0.0000 4.8228 0.0000
# 4 0.0000 0.0000 0.0000 22.2185 0.0000 1.2557
# 5 -21.0326 -8.2753 4.8228 0.0000 18.1863 0.0000
# 6 0.0000 0.0000 0.0000 1.2557 0.0000 17.3657
#
#
#
# Elastic Compliance Matrix: (Units=1/GPa)
#
#
# Indices 1 2 3 4 5 6 
#
# 1 0.011748 -0.002849 -0.005393 0.000000 0.013720 0.000000
# 2 -0.002849 0.012311 0.001054 0.000000 0.002027 0.000000
# 3 -0.005393 0.001054 0.017924 0.000000 -0.010511 0.000000
# 4 0.000000 0.000000 0.000000 0.045192 0.000000 -0.003268
# 5 0.013720 0.002027 -0.010511 0.000000 0.074564 0.000000
# 6 0.000000 0.000000 0.000000 -0.003268 0.000000 0.057821
#
#
# Mechanical properties :
#
#
# Convention : Reuss Voigt Hill
#
# Bulk Modulus (GPa) = 36.22460 43.77753 40.00106
# Shear Modulus (GPa) = 20.56438 26.85739 23.71089
#
# Velocity S-wave (km/s) = 2.89432 3.30766 3.10787
# Velocity P-wave (km/s) = 5.09175 5.69392 5.40124
#
# Compressibility (1/GPa) = 0.02760555
#
# Stress axis : x y z
#
# Youngs Moduli (GPa) = 85.11979 81.22921 55.79204
#
# Poissons Ratio (x) = 0.23146 0.30091
# Poissons Ratio (y) = 0.24254 -0.05882
# Poissons Ratio (z) = 0.45908 -0.08563
#
# Static dielectric constant tensor:
#      x y z
#    x 4.687400 0.000000 -0.090870 
#    y 0.000000 4.297820 0.000000 
#    z -0.090870 0.000000 4.337370 
# 
# 
# High freq. dielectric constant tensor:
#      x y z
#    x 1.996150 0.000000 -0.003260 
#    y 0.000000 1.977390 0.000000 
#    z -0.003260 0.000000 1.983610 
# 
# From -- ./inp_files/864.got.cif
#   From: 2010.06.25/outbox.cif.g09.slc.cpg/sg13_1_cif.got.tgz:864.got - 2010.06.28 04:50:58.
