data_PCOD8122284
_publ_section_title
;
Structure prediction by ZEFSAII (Michael W. Deem and Ramdas Pophale) SiO2 
 PCOD8122284
Probable space group: P 2/C
;
_chemical_formula_sum "Si O2"
_cell_formula_units_Z 28
_cell_length_a 8.498218
_cell_length_b 11.907529
_cell_length_c 18.246530
_cell_angle_alpha 90.000000
_cell_angle_beta 146.382533
_cell_angle_gamma 90.000000
_cell_volume 1022.260388
_symmetry_space_group_name_H-M "P 2/C"
_symmetry_group_IT_number 13
_symmetry_cell_setting 'monoclinic'
loop_
_space_group_symop_operation_xyz
x,y,z
-x,y,1/2-z
-x,-y,-z
x,-y,1/2+z
loop_
_atom_site_type_symbol
_atom_site_label
_atom_site_fract_x
_atom_site_fract_y
_atom_site_fract_z
Si Si1 0.724973 0.514131 0.680232
Si Si2 0.040687 0.788153 0.441038
Si Si3 0.087267 0.472101 0.952198
Si Si4 0.202536 0.781348 0.660888
Si Si5 0.285838 0.833592 0.318693
Si Si6 0.739102 0.274146 0.082447
Si Si7 0.399974 0.087607 0.367791
O O1 0.817956 0.515825 0.800975
O O2 0.393605 0.469289 0.545538
O O3 0.710418 0.634554 0.634591
O O4 0.000000 0.447070 0.750000
O O5 0.007685 0.814589 0.515156
O O6 0.280979 0.867128 0.499804
O O7 0.136180 0.660429 0.465458
O O8 0.753651 0.815120 0.284395
O O9 0.979028 0.698619 0.857274
O O10 0.000000 0.500000 0.000000
O O11 0.500000 0.723114 0.750000
O O12 0.283432 0.891237 0.739905
O O13 0.484569 0.733831 0.425438
O O14 0.000000 0.813612 0.250000
O O15 0.407851 0.955659 0.385766
O O16 0.777484 0.153737 0.138478
#
# Coordination Sequence:
#
# PCOD8122284 Si02
#       7
#     4   4   4   4   4   4   4
#     4  12  28  52  84 122 159 215 284 346 419 497
#     4  11  27  51  74 115 170 212 267 347 413 493
#     4  12  29  54  86 118 170 218 279 347 429 499
#     4  10  25  46  74 108 159 210 274 329 414 481
#     4  12  25  45  80 120 167 214 277 338 410 496
#     4  12  25  47  83 114 156 217 273 338 404 493
#     4  11  23  46  80 113 160 212 273 330 409 493
#
# _framework density 27.390281999999999
#
# number of rings (size 3 to 8) (size 9 to 14) (size 15 to 20)
#    0.000    0.571    2.857    3.429    8.000    5.143 
#    7.714    0.000    0.000    0.000    0.000    0.000 
#    0.000    0.000    0.000    0.000    0.000    0.000 
#
# Total GULP energy -346929.396900 kJ/mol
# GULP energy per Si atom -12390.335604 kJ/mol
# Density = 2.732794 g / cm^3
# Si number density = 27.390282 Si / 1000 Ang^3
#
#
#
# Elastic Constant Matrix: (Units=GPa)
#
#
# Indices 1 2 3 4 5 6 
#
# 1 134.5598 24.4690 41.0754 0.0000 3.9221 0.0000
# 2 24.4690 67.4219 10.5527 0.0000 12.3364 0.0000
# 3 41.0754 10.5527 216.4543 0.0000 -13.8148 0.0000
# 4 0.0000 0.0000 0.0000 38.7006 0.0000 -3.3034
# 5 3.9221 12.3364 -13.8148 0.0000 52.0125 0.0000
# 6 0.0000 0.0000 0.0000 -3.3034 0.0000 25.7115
#
#
#
# Elastic Compliance Matrix: (Units=1/GPa)
#
#
# Indices 1 2 3 4 5 6 
#
# 1 0.008395 -0.002746 -0.001483 0.000000 -0.000376 0.000000
# 2 -0.002746 0.016622 -0.000537 0.000000 -0.003878 0.000000
# 3 -0.001483 -0.000537 0.005028 0.000000 0.001575 0.000000
# 4 0.000000 0.000000 0.000000 0.026126 0.000000 0.003357
# 5 -0.000376 -0.003878 0.001575 0.000000 0.020592 0.000000
# 6 0.000000 0.000000 0.000000 0.003357 0.000000 0.039324
#
#
# Mechanical properties :
#
#
# Convention : Reuss Voigt Hill
#
# Bulk Modulus (GPa) = 48.74877 63.40336 56.07606
# Shear Modulus (GPa) = 37.74820 46.10750 41.92785
#
# Velocity S-wave (km/s) = 3.71639 4.10732 3.91673
# Velocity P-wave (km/s) = 6.02095 6.75957 6.40092
#
# Compressibility (1/GPa) = 0.02051334
#
# Stress axis : x y z
#
# Youngs Moduli (GPa) = 119.12385 60.16104 198.88510
#
# Poissons Ratio (x) = 0.16519 0.29497
# Poissons Ratio (y) = 0.32708 0.10677
# Poissons Ratio (z) = 0.17668 0.03230
#
# Static dielectric constant tensor:
#      x y z
#    x 5.197290 0.000000 -0.057200 
#    y 0.000000 7.948670 0.000000 
#    z -0.057200 0.000000 5.877600 
# 
# 
# High freq. dielectric constant tensor:
#      x y z
#    x 2.102650 0.000000 -0.012830 
#    y 0.000000 2.083740 0.000000 
#    z -0.012830 0.000000 2.137810 
# 
# From -- ./inp_files/78585.got.cif
#   From: 2010.06.25/outbox.cif.g09.slc.cpg/sg13_40_cif.got.tgz:78585.got - 2010.06.28 04:50:58.
