data_PCOD8122131
_publ_section_title
;
Structure prediction by ZEFSAII (Michael W. Deem and Ramdas Pophale) SiO2 
 PCOD8122131
Probable space group: P 2/C
;
_chemical_formula_sum "Si O2"
_cell_formula_units_Z 16
_cell_length_a 5.204343
_cell_length_b 14.972944
_cell_length_c 8.872885
_cell_angle_alpha 90.000000
_cell_angle_beta 101.938052
_cell_angle_gamma 90.000000
_cell_volume 676.459657
_symmetry_space_group_name_H-M "P 2/C"
_symmetry_group_IT_number 13
_symmetry_cell_setting 'monoclinic'
loop_
_space_group_symop_operation_xyz
x,y,z
-x,y,1/2-z
-x,-y,-z
x,-y,1/2+z
loop_
_atom_site_type_symbol
_atom_site_label
_atom_site_fract_x
_atom_site_fract_y
_atom_site_fract_z
Si Si1 0.000000 0.990523 0.250000
Si Si2 0.000000 0.488150 0.750000
Si Si3 0.315351 0.425353 0.048357
Si Si4 0.827021 0.876150 0.486883
Si Si5 0.618898 0.221121 0.423440
O O1 0.813571 0.926936 0.326660
O O2 0.176342 0.050916 0.380320
O O3 0.232760 0.551973 0.712081
O O4 0.928983 0.426057 0.598748
O O5 0.425156 0.326359 0.061638
O O6 0.500000 0.500000 0.000000
O O7 0.557440 0.821427 0.466108
O O8 0.080273 0.810648 0.528731
O O9 0.500000 0.190156 0.250000
#
# Coordination Sequence:
#
# PCOD8122131 Si02
#       5
#     2   2   4   4   4
#     4  10  24  50  72 102 140 182 234 284 378 416
#     4  10  24  44  70 102 130 202 232 284 352 418
#     4  11  25  45  71  99 145 189 234 289 353 419
#     4  11  26  45  74 103 139 183 230 298 346 436
#     4  12  25  44  71 106 140 182 241 284 353 410
#
# _framework density 23.652557999999999
#
# number of rings (size 3 to 8) (size 9 to 14) (size 15 to 20)
#    0.000    1.000    2.500    2.250   10.500    8.000 
#    4.500    0.000    0.000    0.000    0.000    0.000 
#    0.000    0.000    0.000    0.000    0.000    0.000 
#
# Total GULP energy -198391.649959 kJ/mol
# GULP energy per Si atom -12399.478122 kJ/mol
# Density = 2.359872 g / cm^3
# Si number density = 23.652558 Si / 1000 Ang^3
#
#
#
# Elastic Constant Matrix: (Units=GPa)
#
#
# Indices 1 2 3 4 5 6 
#
# 1 127.0572 56.6540 18.9658 0.0000 -33.8032 0.0000
# 2 56.6540 143.8990 39.0414 0.0000 -32.3024 0.0000
# 3 18.9658 39.0414 104.6347 0.0000 -39.0539 0.0000
# 4 0.0000 0.0000 0.0000 20.8954 0.0000 -15.7952
# 5 -33.8032 -32.3024 -39.0539 0.0000 38.2358 0.0000
# 6 0.0000 0.0000 0.0000 -15.7952 0.0000 34.4035
#
#
#
# Elastic Compliance Matrix: (Units=1/GPa)
#
#
# Indices 1 2 3 4 5 6 
#
# 1 0.011640 -0.002964 0.003074 0.000000 0.010927 0.000000
# 2 -0.002964 0.009372 -0.001588 0.000000 0.003675 0.000000
# 3 0.003074 -0.001588 0.016332 0.000000 0.018058 0.000000
# 4 0.000000 0.000000 0.000000 0.073295 0.000000 0.033651
# 5 0.010927 0.003675 0.018058 0.000000 0.057364 0.000000
# 6 0.000000 0.000000 0.000000 0.033651 0.000000 0.044516
#
#
# Mechanical properties :
#
#
# Convention : Reuss Voigt Hill
#
# Bulk Modulus (GPa) = 29.07828 67.21261 48.14545
# Shear Modulus (GPa) = 22.03245 36.10226 29.06735
#
# Velocity S-wave (km/s) = 3.05537 3.91110 3.50941
# Velocity P-wave (km/s) = 4.97671 6.99099 6.06801
#
# Compressibility (1/GPa) = 0.03438993
#
# Stress axis : x y z
#
# Youngs Moduli (GPa) = 85.90816 106.69868 61.22805
#
# Poissons Ratio (x) = 0.31627 -0.18824
# Poissons Ratio (y) = 0.25464 0.09722
# Poissons Ratio (z) = -0.26412 0.16942
#
# Static dielectric constant tensor:
#      x y z
#    x 4.202300 0.000000 -0.077010 
#    y 0.000000 4.237840 0.000000 
#    z -0.077010 0.000000 4.794520 
# 
# 
# High freq. dielectric constant tensor:
#      x y z
#    x 1.935320 0.000000 -0.009220 
#    y 0.000000 1.936410 0.000000 
#    z -0.009220 0.000000 1.951110 
# 
# From -- ./inp_files/9005.got.cif
#   From: 2010.06.25/outbox.cif.g09.slc.cpg/sg13_5_cif.got.tgz:9005.got - 2010.06.28 04:50:58.
