data_PCOD8122611
_publ_section_title
;
Structure prediction by ZEFSAII (Michael W. Deem and Ramdas Pophale) SiO2 
 PCOD8122611
Probable space group: P 2/C
;
_chemical_formula_sum "Si O2"
_cell_formula_units_Z 20
_cell_length_a 9.412164
_cell_length_b 10.097331
_cell_length_c 9.180784
_cell_angle_alpha 90.000000
_cell_angle_beta 90.355344
_cell_angle_gamma 90.000000
_cell_volume 872.504140
_symmetry_space_group_name_H-M "P 2/C"
_symmetry_group_IT_number 13
_symmetry_cell_setting 'monoclinic'
loop_
_space_group_symop_operation_xyz
x,y,z
-x,y,1/2-z
-x,-y,-z
x,-y,1/2+z
loop_
_atom_site_type_symbol
_atom_site_label
_atom_site_fract_x
_atom_site_fract_y
_atom_site_fract_z
Si Si1 0.288191 0.444516 0.422759
Si Si2 0.484490 0.311868 0.907398
Si Si3 0.912145 0.911558 0.889810
Si Si4 0.590190 0.908727 0.895113
Si Si5 0.123877 0.610673 0.647519
O O1 0.358628 0.332086 0.524444
O O2 0.405695 0.550982 0.378879
O O3 0.159081 0.509541 0.515687
O O4 0.249252 0.375538 0.268846
O O5 0.500000 0.238987 0.750000
O O6 0.388756 0.229517 0.019236
O O7 0.749392 0.963299 0.869607
O O8 0.915885 0.753354 0.922028
O O9 0.000000 0.942760 0.750000
O O10 0.000000 0.000000 0.000000
O O11 0.500000 0.887433 0.750000
O O12 0.500000 0.000000 0.000000
O O13 0.000000 0.551396 0.750000
#
# Coordination Sequence:
#
# PCOD8122611 Si02
#       5
#     4   4   4   4   4
#     4  11  22  41  67 103 141 177 231 284 360 425
#     4  11  23  39  68 102 140 182 224 291 358 421
#     4  11  25  47  71 103 144 195 242 296 368 430
#     4  12  25  45  73 104 142 187 253 305 356 432
#     4  11  23  43  68 101 144 186 236 289 357 441
#
# _framework density 22.922526000000001
#
# number of rings (size 3 to 8) (size 9 to 14) (size 15 to 20)
#    0.000    0.800    4.000    3.600    0.000    1.600 
#    0.000    5.000    0.000    0.000    0.000    0.000 
#    0.000    0.000    0.000    0.000    0.000    0.000 
#
# Total GULP energy -247907.444997 kJ/mol
# GULP energy per Si atom -12395.372250 kJ/mol
# Density = 2.287035 g / cm^3
# Si number density = 22.922526 Si / 1000 Ang^3
#
#
#
# Elastic Constant Matrix: (Units=GPa)
#
#
# Indices 1 2 3 4 5 6 
#
# 1 143.4125 27.3553 36.1045 0.0000 -9.6323 0.0000
# 2 27.3553 78.8428 48.9495 0.0000 5.1012 0.0000
# 3 36.1045 48.9495 137.1189 0.0000 0.5532 0.0000
# 4 0.0000 0.0000 0.0000 39.8352 0.0000 0.7527
# 5 -9.6323 5.1012 0.5532 0.0000 45.5527 0.0000
# 6 0.0000 0.0000 0.0000 0.7527 0.0000 35.0092
#
#
#
# Elastic Compliance Matrix: (Units=1/GPa)
#
#
# Indices 1 2 3 4 5 6 
#
# 1 0.007822 -0.001995 -0.001355 0.000000 0.001894 0.000000
# 2 -0.001995 0.016945 -0.005515 0.000000 -0.002253 0.000000
# 3 -0.001355 -0.005515 0.009618 0.000000 0.000214 0.000000
# 4 0.000000 0.000000 0.000000 0.025114 0.000000 -0.000540
# 5 0.001894 -0.002253 0.000214 0.000000 0.022603 0.000000
# 6 0.000000 0.000000 0.000000 -0.000540 0.000000 0.028576
#
#
# Mechanical properties :
#
#
# Convention : Reuss Voigt Hill
#
# Bulk Modulus (GPa) = 60.04264 64.91030 62.47647
# Shear Modulus (GPa) = 37.32515 40.54375 38.93445
#
# Velocity S-wave (km/s) = 4.03962 4.21019 4.12579
# Velocity P-wave (km/s) = 6.92883 7.21200 7.07183
#
# Compressibility (1/GPa) = 0.01665483
#
# Stress axis : x y z
#
# Youngs Moduli (GPa) = 127.84832 59.01332 103.97657
#
# Poissons Ratio (x) = 0.11774 0.14088
# Poissons Ratio (y) = 0.25508 0.57341
# Poissons Ratio (z) = 0.17323 0.32545
#
# Static dielectric constant tensor:
#      x y z
#    x 4.350180 0.000000 -0.086280 
#    y 0.000000 4.186750 0.000000 
#    z -0.086280 0.000000 4.246880 
# 
# 
# High freq. dielectric constant tensor:
#      x y z
#    x 1.920260 0.000000 -0.009400 
#    y 0.000000 1.885460 0.000000 
#    z -0.009400 0.000000 1.919480 
# 
# From -- ./inp_files/11848.got.cif
#   From: 2010.06.25/outbox.cif.g09.slc.cpg/sg13_6_cif.got.tgz:11848.got - 2010.06.28 04:50:58.
