data_PCOD8122446
_publ_section_title
;
Structure prediction by ZEFSAII (Michael W. Deem and Ramdas Pophale) SiO2 
 PCOD8122446
Probable space group: P 2/C
;
_chemical_formula_sum "Si O2"
_cell_formula_units_Z 20
_cell_length_a 8.019740
_cell_length_b 9.266946
_cell_length_c 17.161654
_cell_angle_alpha 90.000000
_cell_angle_beta 52.070640
_cell_angle_gamma 90.000000
_cell_volume 1006.018596
_symmetry_space_group_name_H-M "P 2/C"
_symmetry_group_IT_number 13
_symmetry_cell_setting 'monoclinic'
loop_
_space_group_symop_operation_xyz
x,y,z
-x,y,1/2-z
-x,-y,-z
x,-y,1/2+z
loop_
_atom_site_type_symbol
_atom_site_label
_atom_site_fract_x
_atom_site_fract_y
_atom_site_fract_z
Si Si1 0.876988 0.702797 0.397389
Si Si2 0.500000 0.474476 0.750000
Si Si3 0.673033 0.237288 0.798724
Si Si4 0.040081 0.427274 0.407430
Si Si5 0.878321 0.144269 0.056615
Si Si6 0.500000 0.992086 0.750000
O O1 0.710858 0.753811 0.380298
O O2 0.802025 0.771387 0.500640
O O3 0.110199 0.761180 0.312351
O O4 0.898163 0.525546 0.389489
O O5 0.521279 0.370211 0.819364
O O6 0.709223 0.571103 0.683734
O O7 0.562414 0.087867 0.807285
O O8 0.977245 0.257357 0.433555
O O9 0.000000 0.500000 0.500000
O O10 0.684208 0.110450 0.167876
O O11 0.000000 0.000000 0.000000
#
# Coordination Sequence:
#
# PCOD8122446 Si02
#       6
#     4   2   4   4   4   2
#     4   9  18  37  58  83 114 147 193 237 272 334
#     4   9  17  34  58  82 110 144 190 234 274 328
#     4   9  18  33  61  84 110 153 190 229 284 336
#     4   9  19  34  57  80 106 147 188 229 279 330
#     4  11  21  36  58  83 115 152 184 234 286 341
#     4  11  21  34  60  86 116 156 188 228 298 352
#
# _framework density 19.880348999999999
#
# number of rings (size 3 to 8) (size 9 to 14) (size 15 to 20)
#    0.000    2.400    2.000    0.600    2.800    0.800 
#    0.000    4.000   22.000    0.000    0.000    0.000 
#    0.000    0.000    0.000    0.000    0.000    0.000 
#
# Total GULP energy -247777.221331 kJ/mol
# GULP energy per Si atom -12388.861067 kJ/mol
# Density = 1.983510 g / cm^3
# Si number density = 19.880349 Si / 1000 Ang^3
#
#
#
# Elastic Constant Matrix: (Units=GPa)
#
#
# Indices 1 2 3 4 5 6 
#
# 1 81.4641 40.8343 8.2711 0.0000 22.7637 0.0000
# 2 40.8343 158.4594 36.7989 0.0000 7.2156 0.0000
# 3 8.2711 36.7989 70.9589 0.0000 4.9499 0.0000
# 4 0.0000 0.0000 0.0000 23.1893 0.0000 -3.0886
# 5 22.7637 7.2156 4.9499 0.0000 24.6379 0.0000
# 6 0.0000 0.0000 0.0000 -3.0886 0.0000 19.6597
#
#
#
# Elastic Compliance Matrix: (Units=1/GPa)
#
#
# Indices 1 2 3 4 5 6 
#
# 1 0.018974 -0.004425 0.001233 0.000000 -0.016483 0.000000
# 2 -0.004425 0.008253 -0.003936 0.000000 0.002462 0.000000
# 3 0.001233 -0.003936 0.016216 0.000000 -0.003245 0.000000
# 4 0.000000 0.000000 0.000000 0.044045 0.000000 0.006920
# 5 -0.016483 0.002462 -0.003245 0.000000 0.055747 0.000000
# 6 0.000000 0.000000 0.000000 0.006920 0.000000 0.051953
#
#
# Mechanical properties :
#
#
# Convention : Reuss Voigt Hill
#
# Bulk Modulus (GPa) = 34.26165 53.63236 43.94700
# Shear Modulus (GPa) = 22.81293 28.49592 25.65442
#
# Velocity S-wave (km/s) = 3.39117 3.79010 3.59617
# Velocity P-wave (km/s) = 5.71005 6.79627 6.27670
#
# Compressibility (1/GPa) = 0.02918715
#
# Stress axis : x y z
#
# Youngs Moduli (GPa) = 52.70334 121.16698 61.66590
#
# Poissons Ratio (x) = 0.53621 -0.07604
# Poissons Ratio (y) = 0.23323 0.24271
# Poissons Ratio (z) = -0.06499 0.47691
#
# Static dielectric constant tensor:
#      x y z
#    x 3.726710 0.000000 0.133380 
#    y 0.000000 4.146560 0.000000 
#    z 0.133380 0.000000 3.460250 
# 
# 
# High freq. dielectric constant tensor:
#      x y z
#    x 1.739780 0.000000 -0.001860 
#    y 0.000000 1.784350 0.000000 
#    z -0.001860 0.000000 1.774330 
# 
# From -- ./inp_files/62814.got.cif
#   From: 2010.06.25/outbox.cif.g09.slc.cpg/sg13_32_cif.got.tgz:62814.got - 2010.06.28 04:50:58.
