data_PCOD8122688
_publ_section_title
;
Structure prediction by ZEFSAII (Michael W. Deem and Ramdas Pophale) SiO2 
 PCOD8122688
Probable space group: P 2/C
;
_chemical_formula_sum "Si O2"
_cell_formula_units_Z 26
_cell_length_a 11.398479
_cell_length_b 11.546243
_cell_length_c 9.411318
_cell_angle_alpha 90.000000
_cell_angle_beta 88.304005
_cell_angle_gamma 90.000000
_cell_volume 1238.077276
_symmetry_space_group_name_H-M "P 2/C"
_symmetry_group_IT_number 13
_symmetry_cell_setting 'monoclinic'
loop_
_space_group_symop_operation_xyz
x,y,z
-x,y,1/2-z
-x,-y,-z
x,-y,1/2+z
loop_
_atom_site_type_symbol
_atom_site_label
_atom_site_fract_x
_atom_site_fract_y
_atom_site_fract_z
Si Si1 0.908056 0.923455 0.920844
Si Si2 0.635232 0.476853 0.957830
Si Si3 0.611705 0.157540 0.156200
Si Si4 0.000000 0.715277 0.750000
Si Si5 0.765000 0.053866 0.695041
Si Si6 0.389143 0.770161 0.155108
Si Si7 0.247649 0.624231 0.778378
O O1 0.962373 0.797788 0.883090
O O2 0.868466 0.988210 0.777376
O O3 0.800731 0.908896 0.034561
O O4 0.000000 0.000000 0.000000
O O5 0.643559 0.363891 0.859340
O O6 0.694936 0.582745 0.871899
O O7 0.500000 0.500000 0.000000
O O8 0.707777 0.460576 0.099684
O O9 0.500000 0.193503 0.250000
O O10 0.716438 0.243530 0.194353
O O11 0.651481 0.027988 0.187946
O O12 0.577097 0.170656 0.994059
O O13 0.106429 0.627905 0.782560
O O14 0.727006 0.169314 0.778496
O O15 0.500000 0.787317 0.250000
#
# Coordination Sequence:
#
# PCOD8122688 Si02
#       7
#     4   4   4   2   4   4   4
#     4  12  23  43  67  94 134 188 229 269 342 414
#     4  11  24  46  74  98 136 180 233 295 353 418
#     4  11  23  40  65  97 138 182 222 285 357 421
#     4  12  26  44  74  96 140 186 234 288 348 416
#     4  12  24  41  66  99 137 176 227 282 342 426
#     4  11  25  40  63 102 135 172 227 276 350 425
#     4  11  24  45  70 100 134 181 237 282 352 420
#
# _framework density 21.000304
#
# number of rings (size 3 to 8) (size 9 to 14) (size 15 to 20)
#    0.000    0.615    4.615    3.692    4.308    4.308 
#    0.000    0.000    0.000    0.000    0.000    0.000 
#    0.000    0.000    0.000    0.000    0.000    0.000 
#
# Total GULP energy -322531.437538 kJ/mol
# GULP energy per Si atom -12405.055290 kJ/mol
# Density = 2.095251 g / cm^3
# Si number density = 21.000304 Si / 1000 Ang^3
#
#
#
# Elastic Constant Matrix: (Units=GPa)
#
#
# Indices 1 2 3 4 5 6 
#
# 1 127.8812 29.3225 49.2361 0.0000 7.0157 0.0000
# 2 29.3225 79.6502 36.7122 0.0000 -1.5243 0.0000
# 3 49.2361 36.7122 122.5978 0.0000 -10.2084 0.0000
# 4 0.0000 0.0000 0.0000 38.6665 0.0000 -9.1414
# 5 7.0157 -1.5243 -10.2084 0.0000 36.5901 0.0000
# 6 0.0000 0.0000 0.0000 -9.1414 0.0000 41.3088
#
#
#
# Elastic Compliance Matrix: (Units=1/GPa)
#
#
# Indices 1 2 3 4 5 6 
#
# 1 0.009828 -0.002021 -0.003589 0.000000 -0.002970 0.000000
# 2 -0.002021 0.014995 -0.003680 0.000000 -0.000015 0.000000
# 3 -0.003589 -0.003680 0.011000 0.000000 0.003604 0.000000
# 4 0.000000 0.000000 0.000000 0.027290 0.000000 0.006039
# 5 -0.002970 -0.000015 0.003604 0.000000 0.028904 0.000000
# 6 0.000000 0.000000 0.000000 0.006039 0.000000 0.025544
#
#
# Mechanical properties :
#
#
# Convention : Reuss Voigt Hill
#
# Bulk Modulus (GPa) = 57.99314 62.29673 60.14494
# Shear Modulus (GPa) = 35.23901 37.63697 36.43799
#
# Velocity S-wave (km/s) = 4.10081 4.23804 4.16999
# Velocity P-wave (km/s) = 7.07796 7.32647 7.20329
#
# Compressibility (1/GPa) = 0.01724342
#
# Stress axis : x y z
#
# Youngs Moduli (GPa) = 101.75134 66.69063 90.90713
#
# Poissons Ratio (x) = 0.13475 0.32628
# Poissons Ratio (y) = 0.20560 0.33453
# Poissons Ratio (z) = 0.36520 0.24542
#
# Static dielectric constant tensor:
#      x y z
#    x 3.738410 0.000000 -0.078910 
#    y 0.000000 3.713850 0.000000 
#    z -0.078910 0.000000 4.183920 
# 
# 
# High freq. dielectric constant tensor:
#      x y z
#    x 1.825490 0.000000 -0.000580 
#    y 0.000000 1.816360 0.000000 
#    z -0.000580 0.000000 1.837680 
# 
# From -- ./inp_files/15917.got.cif
#   From: 2010.06.25/outbox.cif.g09.slc.cpg/sg13_8_cif.got.tgz:15917.got - 2010.06.28 04:50:58.
