data_PCOD8122231
_publ_section_title
;
Structure prediction by ZEFSAII (Michael W. Deem and Ramdas Pophale) SiO2 
 PCOD8122231
Probable space group: P 2/C
;
_chemical_formula_sum "Si O2"
_cell_formula_units_Z 18
_cell_length_a 9.458025
_cell_length_b 10.220247
_cell_length_c 10.646548
_cell_angle_alpha 90.000000
_cell_angle_beta 41.532282
_cell_angle_gamma 90.000000
_cell_volume 682.357008
_symmetry_space_group_name_H-M "P 2/C"
_symmetry_group_IT_number 13
_symmetry_cell_setting 'monoclinic'
loop_
_space_group_symop_operation_xyz
x,y,z
-x,y,1/2-z
-x,-y,-z
x,-y,1/2+z
loop_
_atom_site_type_symbol
_atom_site_label
_atom_site_fract_x
_atom_site_fract_y
_atom_site_fract_z
Si Si1 0.231339 0.525077 0.139379
Si Si2 0.868855 0.972713 0.215318
Si Si3 0.175929 0.747316 0.784442
Si Si4 0.292682 0.732616 0.303061
Si Si5 0.500000 0.647304 0.750000
O O1 0.245687 0.368675 0.145667
O O2 0.288055 0.595941 0.231755
O O3 0.590725 0.444998 0.081256
O O4 0.000000 0.572865 0.250000
O O5 0.703215 0.855469 0.297279
O O6 0.000000 0.925906 0.250000
O O7 0.761350 0.113079 0.320214
O O8 0.000000 0.000000 0.000000
O O9 0.307038 0.737465 0.827671
O O10 0.922218 0.736892 0.971587
O O11 0.500000 0.742074 0.250000
#
# Coordination Sequence:
#
# PCOD8122231 Si02
#       5
#     4   4   4   4   2
#     4  12  26  50  81 116 165 203 266 329 406 480
#     4  10  24  48  81 114 162 212 270 330 401 483
#     4  11  26  49  78 116 163 206 270 329 405 473
#     4  11  26  49  82 119 159 211 268 331 401 481
#     4  12  28  46  82 118 158 214 260 332 402 480
#
# _framework density 26.379152999999999
#
# number of rings (size 3 to 8) (size 9 to 14) (size 15 to 20)
#    0.000    0.889    2.222    2.667    6.222    5.333 
#    0.000    5.556    0.000    1.333    0.000    0.000 
#    0.000    0.000    0.000    0.000    0.000    0.000 
#
# Total GULP energy -223195.413848 kJ/mol
# GULP energy per Si atom -12399.745214 kJ/mol
# Density = 2.631911 g / cm^3
# Si number density = 26.379153 Si / 1000 Ang^3
#
#
#
# Elastic Constant Matrix: (Units=GPa)
#
#
# Indices 1 2 3 4 5 6 
#
# 1 239.8385 63.1480 17.7692 0.0000 -32.1872 0.0000
# 2 63.1480 182.4551 1.6749 0.0000 -4.9625 0.0000
# 3 17.7692 1.6749 43.8459 0.0000 -17.7880 0.0000
# 4 0.0000 0.0000 0.0000 15.8992 0.0000 24.3735
# 5 -32.1872 -4.9625 -17.7880 0.0000 46.2928 0.0000
# 6 0.0000 0.0000 0.0000 24.3735 0.0000 78.3875
#
#
#
# Elastic Compliance Matrix: (Units=1/GPa)
#
#
# Indices 1 2 3 4 5 6 
#
# 1 0.005075 -0.001666 -0.000751 0.000000 0.003061 0.000000
# 2 -0.001666 0.006044 0.000281 0.000000 -0.000403 0.000000
# 3 -0.000751 0.000281 0.027130 0.000000 0.009933 0.000000
# 4 0.000000 0.000000 0.000000 0.120185 0.000000 -0.037370
# 5 0.003061 -0.000403 0.009933 0.000000 0.027504 0.000000
# 6 0.000000 0.000000 0.000000 -0.037370 0.000000 0.024377
#
#
# Mechanical properties :
#
#
# Convention : Reuss Voigt Hill
#
# Bulk Modulus (GPa) = 29.43193 70.14706 49.78949
# Shear Modulus (GPa) = 22.13252 53.68572 37.90912
#
# Velocity S-wave (km/s) = 2.89972 4.51617 3.79500
# Velocity P-wave (km/s) = 4.73209 7.33784 6.17400
#
# Compressibility (1/GPa) = 0.03397671
#
# Stress axis : x y z
#
# Youngs Moduli (GPa) = 197.05865 165.45496 36.85891
#
# Poissons Ratio (x) = 0.27568 0.02768
# Poissons Ratio (y) = 0.32834 -0.01036
# Poissons Ratio (z) = 0.14799 -0.04650
#
# Static dielectric constant tensor:
#      x y z
#    x 5.361660 0.000000 -0.072750 
#    y 0.000000 5.832390 0.000000 
#    z -0.072750 0.000000 4.528850 
# 
# 
# High freq. dielectric constant tensor:
#      x y z
#    x 2.086800 0.000000 -0.002780 
#    y 0.000000 2.076080 0.000000 
#    z -0.002780 0.000000 2.040820 
# 
# From -- ./inp_files/29255.got.cif
#   From: 2010.06.25/outbox.cif.g09.slc.cpg/sg13_15_cif.got.tgz:29255.got - 2010.06.28 04:50:58.
