data_PCOD8122852
_publ_section_title
;
Structure prediction by ZEFSAII (Michael W. Deem and Ramdas Pophale) SiO2 
 PCOD8122852
Probable space group: P 2/C
;
_chemical_formula_sum "Si O2"
_cell_formula_units_Z 26
_cell_length_a 7.341512
_cell_length_b 11.155587
_cell_length_c 13.804000
_cell_angle_alpha 90.000000
_cell_angle_beta 92.347605
_cell_angle_gamma 90.000000
_cell_volume 1129.583233
_symmetry_space_group_name_H-M "P 2/C"
_symmetry_group_IT_number 13
_symmetry_cell_setting 'monoclinic'
loop_
_space_group_symop_operation_xyz
x,y,z
-x,y,1/2-z
-x,-y,-z
x,-y,1/2+z
loop_
_atom_site_type_symbol
_atom_site_label
_atom_site_fract_x
_atom_site_fract_y
_atom_site_fract_z
Si Si1 0.157757 0.348606 0.426651
Si Si2 0.000000 0.213918 0.750000
Si Si3 0.640929 0.134420 0.833522
Si Si4 0.520572 0.707942 0.027754
Si Si5 0.270492 0.052852 0.010459
Si Si6 0.115295 0.611019 0.409635
Si Si7 0.940710 0.903166 0.640595
O O1 0.373948 0.348124 0.451725
O O2 0.093159 0.472847 0.374369
O O3 0.045736 0.342815 0.524667
O O4 0.126312 0.234783 0.356702
O O5 0.147395 0.132845 0.696244
O O6 0.121439 0.297939 0.820841
O O7 0.500000 0.087964 0.750000
O O8 0.623247 0.046317 0.924967
O O9 0.579636 0.266041 0.870678
O O10 0.599113 0.834823 0.995703
O O11 0.686192 0.614536 0.036249
O O12 0.098894 0.099176 0.065946
O O13 0.210583 0.997332 0.903961
O O14 0.000000 0.942270 0.750000
#
# Coordination Sequence:
#
# PCOD8122852 Si02
#       7
#     4   2   4   4   4   4   4
#     4  11  24  46  70  98 139 189 227 288 356 407
#     4  12  24  44  68 106 134 178 244 284 344 424
#     4  12  26  41  71 103 140 178 231 291 349 413
#     4  12  23  46  69 103 134 181 233 285 351 416
#     4  11  26  44  69 104 145 182 229 294 347 423
#     4  11  24  43  72 100 139 183 231 290 348 415
#     4  11  25  43  70 101 140 189 233 282 352 422
#
# _framework density 23.017337000000001
#
# number of rings (size 3 to 8) (size 9 to 14) (size 15 to 20)
#    0.000    0.615    6.154    0.923    6.462    0.000 
#    0.000    0.000    3.385    0.000    0.000    0.000 
#    0.000    0.000    0.000    0.000    0.000    0.000 
#
# Total GULP energy -322310.853617 kJ/mol
# GULP energy per Si atom -12396.571293 kJ/mol
# Density = 2.296495 g / cm^3
# Si number density = 23.017337 Si / 1000 Ang^3
#
#
#
# Elastic Constant Matrix: (Units=GPa)
#
#
# Indices 1 2 3 4 5 6 
#
# 1 96.5520 11.8853 13.0538 0.0000 9.6456 0.0000
# 2 11.8853 96.0684 27.2495 0.0000 -3.3291 0.0000
# 3 13.0538 27.2495 101.4313 0.0000 21.4506 0.0000
# 4 0.0000 0.0000 0.0000 6.6381 0.0000 2.1329
# 5 9.6456 -3.3291 21.4506 0.0000 37.3292 0.0000
# 6 0.0000 0.0000 0.0000 2.1329 0.0000 32.8675
#
#
#
# Elastic Compliance Matrix: (Units=1/GPa)
#
#
# Indices 1 2 3 4 5 6 
#
# 1 0.010846 -0.001294 -0.000491 0.000000 -0.002636 0.000000
# 2 -0.001294 0.011752 -0.003737 0.000000 0.003530 0.000000
# 3 -0.000491 -0.003737 0.012487 0.000000 -0.007382 0.000000
# 4 0.000000 0.000000 0.000000 0.153854 0.000000 -0.009984
# 5 -0.002636 0.003530 -0.007382 0.000000 0.032027 0.000000
# 6 0.000000 0.000000 0.000000 -0.009984 0.000000 0.031073
#
#
# Mechanical properties :
#
#
# Convention : Reuss Voigt Hill
#
# Bulk Modulus (GPa) = 41.59506 44.26987 42.93247
# Shear Modulus (GPa) = 18.44367 31.49116 24.96742
#
# Velocity S-wave (km/s) = 2.83379 3.70286 3.29709
# Velocity P-wave (km/s) = 5.36820 6.12835 5.76082
#
# Compressibility (1/GPa) = 0.02404132
#
# Stress axis : x y z
#
# Youngs Moduli (GPa) = 92.19915 85.09440 80.08230
#
# Poissons Ratio (x) = 0.11011 0.03930
# Poissons Ratio (y) = 0.11930 0.29927
# Poissons Ratio (z) = 0.04525 0.31800
#
# Static dielectric constant tensor:
#      x y z
#    x 4.434720 0.000000 0.028440 
#    y 0.000000 4.195700 0.000000 
#    z 0.028440 0.000000 3.910570 
# 
# 
# High freq. dielectric constant tensor:
#      x y z
#    x 1.932460 0.000000 0.002060 
#    y 0.000000 1.916560 0.000000 
#    z 0.002060 0.000000 1.882340 
# 
# From -- ./inp_files/46639.got.cif
#   From: 2010.06.25/outbox.cif.g09.slc.cpg/sg13_24_cif.got.tgz:46639.got - 2010.06.28 04:50:58.
