data_PCOD8122804
_publ_section_title
;
Structure prediction by ZEFSAII (Michael W. Deem and Ramdas Pophale) SiO2 
 PCOD8122804
Probable space group: P 2/C
;
_chemical_formula_sum "Si O2"
_cell_formula_units_Z 20
_cell_length_a 16.412116
_cell_length_b 5.543035
_cell_length_c 9.241616
_cell_angle_alpha 90.000000
_cell_angle_beta 102.541251
_cell_angle_gamma 90.000000
_cell_volume 820.676871
_symmetry_space_group_name_H-M "P 2/C"
_symmetry_group_IT_number 13
_symmetry_cell_setting 'monoclinic'
loop_
_space_group_symop_operation_xyz
x,y,z
-x,y,1/2-z
-x,-y,-z
x,-y,1/2+z
loop_
_atom_site_type_symbol
_atom_site_label
_atom_site_fract_x
_atom_site_fract_y
_atom_site_fract_z
Si Si1 0.929969 0.198747 0.991370
Si Si2 0.283165 0.237360 0.282577
Si Si3 0.879676 0.483456 0.710879
Si Si4 0.212259 0.901238 0.479615
Si Si5 0.527071 0.746409 0.591597
O O1 0.936695 0.402486 0.868794
O O2 0.835867 0.095256 0.937858
O O3 0.933138 0.306882 0.154802
O O4 0.000000 0.000000 0.000000
O O5 0.215061 0.443594 0.285164
O O6 0.285390 0.204497 0.109509
O O7 0.373975 0.295790 0.375845
O O8 0.254985 0.994378 0.351740
O O9 0.864980 0.273468 0.588819
O O10 0.500000 0.756361 0.750000
O O11 0.500000 0.500000 0.500000
O O12 0.500000 0.000000 0.500000
#
# Coordination Sequence:
#
# PCOD8122804 Si02
#       5
#     4   4   4   4   4
#     4  11  26  48  74 108 148 188 252 318 382 456
#     4  11  25  44  80 103 151 197 260 311 375 482
#     4  11  24  48  74 106 142 201 249 305 392 445
#     4  11  23  46  73 108 140 198 252 309 376 453
#     4  12  29  50  78 123 168 213 265 333 414 476
#
# _framework density 24.370128000000001
#
# number of rings (size 3 to 8) (size 9 to 14) (size 15 to 20)
#    0.000    0.800    4.000    1.800    5.600    1.600 
#    3.600    1.000    0.000    0.000    0.000    0.000 
#    0.000    0.000    0.000    0.000    0.000    0.000 
#
# Total GULP energy -247817.982800 kJ/mol
# GULP energy per Si atom -12390.899140 kJ/mol
# Density = 2.431466 g / cm^3
# Si number density = 24.370128 Si / 1000 Ang^3
#
#
#
# Elastic Constant Matrix: (Units=GPa)
#
#
# Indices 1 2 3 4 5 6 
#
# 1 134.0224 58.7429 63.3052 0.0000 16.4261 0.0000
# 2 58.7429 128.7333 63.1747 0.0000 -2.4992 0.0000
# 3 63.3052 63.1747 158.7160 0.0000 4.1424 0.0000
# 4 0.0000 0.0000 0.0000 48.7917 0.0000 5.6675
# 5 16.4261 -2.4992 4.1424 0.0000 35.7061 0.0000
# 6 0.0000 0.0000 0.0000 5.6675 0.0000 33.0774
#
#
#
# Elastic Compliance Matrix: (Units=1/GPa)
#
#
# Indices 1 2 3 4 5 6 
#
# 1 0.011040 -0.003776 -0.002769 0.000000 -0.005022 0.000000
# 2 -0.003776 0.010991 -0.002943 0.000000 0.002848 0.000000
# 3 -0.002769 -0.002943 0.008575 0.000000 0.000073 0.000000
# 4 0.000000 0.000000 0.000000 0.020911 0.000000 -0.003583
# 5 -0.005022 0.002848 0.000073 0.000000 0.030508 0.000000
# 6 0.000000 0.000000 0.000000 -0.003583 0.000000 0.030846
#
#
# Mechanical properties :
#
#
# Convention : Reuss Voigt Hill
#
# Bulk Modulus (GPa) = 85.99491 87.99079 86.99285
# Shear Modulus (GPa) = 36.83966 39.26497 38.05232
#
# Velocity S-wave (km/s) = 3.89224 4.01832 3.95578
# Velocity P-wave (km/s) = 7.45406 7.59695 7.52584
#
# Compressibility (1/GPa) = 0.01162860
#
# Stress axis : x y z
#
# Youngs Moduli (GPa) = 90.57818 90.98677 116.62428
#
# Poissons Ratio (x) = 0.34359 0.32297
# Poissons Ratio (y) = 0.34205 0.34320
# Poissons Ratio (z) = 0.25084 0.26775
#
# Static dielectric constant tensor:
#      x y z
#    x 4.336160 0.000000 -0.022110 
#    y 0.000000 4.663920 0.000000 
#    z -0.022110 0.000000 4.564220 
# 
# 
# High freq. dielectric constant tensor:
#      x y z
#    x 1.969240 0.000000 0.002100 
#    y 0.000000 1.975610 0.000000 
#    z 0.002100 0.000000 1.987410 
# 
# From -- ./inp_files/20512.got.cif
#   From: 2010.06.25/outbox.cif.g09.slc.cpg/sg13_11_cif.got.tgz:20512.got - 2010.06.28 04:50:58.
