data_PCOD8122671
_publ_section_title
;
Structure prediction by ZEFSAII (Michael W. Deem and Ramdas Pophale) SiO2 
 PCOD8122671
Probable space group: P 2/C
;
_chemical_formula_sum "Si O2"
_cell_formula_units_Z 26
_cell_length_a 25.614380
_cell_length_b 9.317431
_cell_length_c 10.797110
_cell_angle_alpha 90.000000
_cell_angle_beta 147.161550
_cell_angle_gamma 90.000000
_cell_volume 1397.348972
_symmetry_space_group_name_H-M "P 2/C"
_symmetry_group_IT_number 13
_symmetry_cell_setting 'monoclinic'
loop_
_space_group_symop_operation_xyz
x,y,z
-x,y,1/2-z
-x,-y,-z
x,-y,1/2+z
loop_
_atom_site_type_symbol
_atom_site_label
_atom_site_fract_x
_atom_site_fract_y
_atom_site_fract_z
Si Si1 0.100147 0.442748 0.650091
Si Si2 0.907688 0.930818 0.754456
Si Si3 0.611023 0.900163 0.604139
Si Si4 0.790760 0.281437 0.183727
Si Si5 0.603344 0.123390 0.808939
Si Si6 0.808806 0.216207 0.492040
Si Si7 0.000000 0.284899 0.250000
O O1 0.180554 0.566671 0.819001
O O2 0.133953 0.305936 0.793795
O O3 0.000000 0.500000 0.500000
O O4 0.080740 0.385714 0.473535
O O5 0.841797 0.855567 0.725256
O O6 0.939806 0.810931 0.723149
O O7 0.846060 0.052545 0.563014
O O8 0.000000 0.000000 0.000000
O O9 0.507479 0.823785 0.417822
O O10 0.620068 0.954865 0.477347
O O11 0.624126 0.025271 0.731090
O O12 0.694795 0.784433 0.796005
O O13 0.827441 0.288220 0.397306
O O14 0.675280 0.259490 0.943829
#
# Coordination Sequence:
#
# PCOD8122671 Si02
#       7
#     4   4   4   4   4   4   2
#     4  12  24  41  57  83 119 163 198 239 296 362
#     4  12  22  38  58  87 113 150 197 253 289 343
#     4   9  18  34  62  89 122 150 197 249 300 350
#     4  11  23  39  59  84 120 158 194 242 300 358
#     4   9  18  36  59  92 119 154 194 248 303 351
#     4  11  23  39  61  88 116 155 198 245 300 352
#     4  12  24  38  60  82 120 156 206 244 296 354
#
# _framework density 18.606663000000001
#
# number of rings (size 3 to 8) (size 9 to 14) (size 15 to 20)
#    0.000    1.231    4.615    1.846    0.000    1.231 
#    0.000    0.769    0.000    0.000    0.000    0.000 
#    0.000    0.000    0.000    0.000    0.000    0.000 
#
# Total GULP energy -322301.385899 kJ/mol
# GULP energy per Si atom -12396.207150 kJ/mol
# Density = 1.856431 g / cm^3
# Si number density = 18.606663 Si / 1000 Ang^3
#
#
#
# Elastic Constant Matrix: (Units=GPa)
#
#
# Indices 1 2 3 4 5 6 
#
# 1 88.6254 30.1140 40.9122 0.0000 3.2809 0.0000
# 2 30.1140 85.6205 40.8535 0.0000 6.2269 0.0000
# 3 40.9122 40.8535 112.3797 0.0000 6.0041 0.0000
# 4 0.0000 0.0000 0.0000 28.7675 0.0000 -0.4846
# 5 3.2809 6.2269 6.0041 0.0000 30.6281 0.0000
# 6 0.0000 0.0000 0.0000 -0.4846 0.0000 31.9691
#
#
#
# Elastic Compliance Matrix: (Units=1/GPa)
#
#
# Indices 1 2 3 4 5 6 
#
# 1 0.014195 -0.003051 -0.004053 0.000000 -0.000106 0.000000
# 2 -0.003051 0.014895 -0.004204 0.000000 -0.001877 0.000000
# 3 -0.004053 -0.004204 0.011958 0.000000 -0.001055 0.000000
# 4 0.000000 0.000000 0.000000 0.034770 0.000000 0.000527
# 5 -0.000106 -0.001877 -0.001055 0.000000 0.033250 0.000000
# 6 0.000000 0.000000 0.000000 0.000527 0.000000 0.031288
#
#
# Mechanical properties :
#
#
# Convention : Reuss Voigt Hill
#
# Bulk Modulus (GPa) = 54.25067 56.70946 55.48006
# Shear Modulus (GPa) = 29.56544 29.92265 29.74405
#
# Velocity S-wave (km/s) = 3.99051 4.01455 4.00255
# Velocity P-wave (km/s) = 7.10297 7.21339 7.15839
#
# Compressibility (1/GPa) = 0.01843295
#
# Stress axis : x y z
#
# Youngs Moduli (GPa) = 70.44710 67.13726 83.62280
#
# Poissons Ratio (x) = 0.20484 0.33892
# Poissons Ratio (y) = 0.21494 0.35153
# Poissons Ratio (z) = 0.28552 0.28222
#
# Static dielectric constant tensor:
#      x y z
#    x 2.987690 0.000000 -1.136120 
#    y 0.000000 3.109820 0.000000 
#    z -1.136120 0.000000 2.201640 
# 
# 
# High freq. dielectric constant tensor:
#      x y z
#    x 1.737900 0.000000 -0.001500 
#    y 0.000000 1.694300 0.000000 
#    z -0.001500 0.000000 1.736900 
# 
# From -- ./inp_files/35944.got.cif
#   From: 2010.06.25/outbox.cif.g09.slc.cpg/sg13_18_cif.got.tgz:35944.got - 2010.06.28 04:50:58.
