data_PCOD8122621
_publ_section_title
;
Structure prediction by ZEFSAII (Michael W. Deem and Ramdas Pophale) SiO2 
 PCOD8122621
Probable space group: P 2/C
;
_chemical_formula_sum "Si O2"
_cell_formula_units_Z 26
_cell_length_a 15.169191
_cell_length_b 8.236488
_cell_length_c 15.815243
_cell_angle_alpha 90.000000
_cell_angle_beta 143.059281
_cell_angle_gamma 90.000000
_cell_volume 1187.535071
_symmetry_space_group_name_H-M "P 2/C"
_symmetry_group_IT_number 13
_symmetry_cell_setting 'monoclinic'
loop_
_space_group_symop_operation_xyz
x,y,z
-x,y,1/2-z
-x,-y,-z
x,-y,1/2+z
loop_
_atom_site_type_symbol
_atom_site_label
_atom_site_fract_x
_atom_site_fract_y
_atom_site_fract_z
Si Si1 0.584837 0.199056 0.734526
Si Si2 0.000000 0.889573 0.750000
Si Si3 0.484111 0.308380 0.996087
Si Si4 0.897619 0.669035 0.515650
Si Si5 0.301413 0.110418 0.230500
Si Si6 0.933742 0.312503 0.523803
Si Si7 0.191752 0.882224 0.292734
O O1 0.500000 0.268167 0.750000
O O2 0.493963 0.247488 0.582210
O O3 0.587248 0.003276 0.736460
O O4 0.748107 0.271489 0.857835
O O5 0.942408 0.777333 0.629789
O O6 0.860320 0.000255 0.670656
O O7 0.335411 0.229043 0.921750
O O8 0.500000 0.500000 0.000000
O O9 0.618056 0.251005 0.156134
O O10 0.880655 0.479654 0.526800
O O11 0.025146 0.672532 0.543620
O O12 0.200182 0.186540 0.080214
O O13 0.213165 0.992739 0.226537
O O14 0.062504 0.244956 0.679717
#
# Coordination Sequence:
#
# PCOD8122621 Si02
#       7
#     4   2   4   4   4   4   4
#     4  11  24  43  67  97 134 177 226 278 332 398
#     4  12  26  40  68 104 136 172 226 288 332 388
#     4  11  25  45  69  96 136 181 225 272 340 405
#     4  11  24  41  71  98 134 174 223 283 336 392
#     4  11  22  42  70  97 128 182 224 270 333 409
#     4  11  22  45  70  96 130 179 227 271 340 403
#     4  11  23  43  68  98 134 177 224 275 333 407
#
# _framework density 21.894091
#
# number of rings (size 3 to 8) (size 9 to 14) (size 15 to 20)
#    0.000    0.923    4.615    4.154    6.462    0.615 
#    2.769    1.538    0.000    0.000    0.000    0.000 
#    0.000    0.000    0.000    0.000    0.000    0.000 
#
# Total GULP energy -322323.853556 kJ/mol
# GULP energy per Si atom -12397.071291 kJ/mol
# Density = 2.184426 g / cm^3
# Si number density = 21.894091 Si / 1000 Ang^3
#
#
#
# Elastic Constant Matrix: (Units=GPa)
#
#
# Indices 1 2 3 4 5 6 
#
# 1 84.8799 35.0742 15.0405 0.0000 -2.5308 0.0000
# 2 35.0742 158.0836 22.6294 0.0000 10.3589 0.0000
# 3 15.0405 22.6294 58.7410 0.0000 10.6086 0.0000
# 4 0.0000 0.0000 0.0000 42.8784 0.0000 1.2217
# 5 -2.5308 10.3589 10.6086 0.0000 20.7936 0.0000
# 6 0.0000 0.0000 0.0000 1.2217 0.0000 27.0045
#
#
#
# Elastic Compliance Matrix: (Units=1/GPa)
#
#
# Indices 1 2 3 4 5 6 
#
# 1 0.013692 -0.002884 -0.003255 0.000000 0.004764 0.000000
# 2 -0.002884 0.007397 -0.001523 0.000000 -0.003259 0.000000
# 3 -0.003255 -0.001523 0.020244 0.000000 -0.009966 0.000000
# 4 0.000000 0.000000 0.000000 0.023352 0.000000 -0.001056
# 5 0.004764 -0.003259 -0.009966 0.000000 0.055380 0.000000
# 6 0.000000 0.000000 0.000000 -0.001056 0.000000 0.037079
#
#
# Mechanical properties :
#
#
# Convention : Reuss Voigt Hill
#
# Bulk Modulus (GPa) = 38.44778 49.68810 44.06794
# Shear Modulus (GPa) = 27.60353 33.39933 30.50143
#
# Velocity S-wave (km/s) = 3.55459 3.91000 3.73652
# Velocity P-wave (km/s) = 5.86905 6.56720 6.22792
#
# Compressibility (1/GPa) = 0.02600931
#
# Stress axis : x y z
#
# Youngs Moduli (GPa) = 73.03564 135.18648 49.39799
#
# Poissons Ratio (x) = 0.38989 0.16080
# Poissons Ratio (y) = 0.21064 0.07521
# Poissons Ratio (z) = 0.23774 0.20584
#
# Static dielectric constant tensor:
#      x y z
#    x 3.936780 0.000000 0.070700 
#    y 0.000000 4.309900 0.000000 
#    z 0.070700 0.000000 3.956650 
# 
# 
# High freq. dielectric constant tensor:
#      x y z
#    x 1.842070 0.000000 0.003730 
#    y 0.000000 1.878580 0.000000 
#    z 0.003730 0.000000 1.862250 
# 
# From -- ./inp_files/53358.got.cif
#   From: 2010.06.25/outbox.cif.g09.slc.cpg/sg13_27_cif.got.tgz:53358.got - 2010.06.28 04:50:58.
