data_PCOD8122035
_publ_section_title
;
Structure prediction by ZEFSAII (Michael W. Deem and Ramdas Pophale) SiO2 
 PCOD8122035
Probable space group: P 2/C
;
_chemical_formula_sum "Si O2"
_cell_formula_units_Z 24
_cell_length_a 20.498396
_cell_length_b 6.383732
_cell_length_c 12.804970
_cell_angle_alpha 90.000000
_cell_angle_beta 41.052203
_cell_angle_gamma 90.000000
_cell_volume 1100.451179
_symmetry_space_group_name_H-M "P 2/C"
_symmetry_group_IT_number 13
_symmetry_cell_setting 'monoclinic'
loop_
_space_group_symop_operation_xyz
x,y,z
-x,y,1/2-z
-x,-y,-z
x,-y,1/2+z
loop_
_atom_site_type_symbol
_atom_site_label
_atom_site_fract_x
_atom_site_fract_y
_atom_site_fract_z
Si Si1 0.156582 0.779801 0.573481
Si Si2 0.500000 0.094687 0.250000
Si Si3 0.065404 0.106643 0.831998
Si Si4 0.248103 0.874001 0.249762
Si Si5 0.000000 0.566855 0.250000
Si Si6 0.569645 0.409527 0.004135
Si Si7 0.664294 0.208156 0.496132
O O1 0.194330 0.901597 0.425326
O O2 0.246945 0.712929 0.538511
O O3 0.098241 0.570564 0.612416
O O4 0.082948 0.935060 0.721752
O O5 0.504885 0.235086 0.140836
O O6 0.401351 0.955079 0.357878
O O7 0.168618 0.189744 0.756399
O O8 0.009565 0.299909 0.844958
O O9 0.000000 0.000000 0.000000
O O10 0.329798 0.691420 0.162922
O O11 0.296588 0.095541 0.156972
O O12 0.597448 0.594020 0.049394
O O13 0.500000 0.500000 0.000000
#
# Coordination Sequence:
#
# PCOD8122035 Si02
#       7
#     4   2   4   4   2   4   4
#     4  11  25  42  69 100 131 180 221 273 335 397
#     4  10  24  42  68  96 134 176 222 280 336 396
#     4  11  24  45  68  97 138 173 223 275 343 405
#     4  10  24  42  63 100 132 174 226 272 338 399
#     4  12  24  42  72  96 132 174 222 276 330 394
#     4  11  25  41  68 100 131 179 229 278 339 401
#     4  10  24  44  67  93 140 173 223 279 330 401
#
# _framework density 21.809238000000001
#
# number of rings (size 3 to 8) (size 9 to 14) (size 15 to 20)
#    0.000    1.333    0.000    4.000    7.000    8.000 
#    0.000    0.000    0.000    0.000    0.000    0.000 
#    0.000    0.000    0.000    0.000    0.000    0.000 
#
# Total GULP energy -297737.643202 kJ/mol
# GULP energy per Si atom -12405.735133 kJ/mol
# Density = 2.175960 g / cm^3
# Si number density = 21.809238 Si / 1000 Ang^3
#
#
#
# Elastic Constant Matrix: (Units=GPa)
#
#
# Indices 1 2 3 4 5 6 
#
# 1 115.0442 55.1425 41.7917 0.0000 -15.8891 0.0000
# 2 55.1425 109.1515 59.4063 0.0000 -6.5256 0.0000
# 3 41.7917 59.4063 147.9435 0.0000 11.9734 0.0000
# 4 0.0000 0.0000 0.0000 22.6783 0.0000 -4.0399
# 5 -15.8891 -6.5256 11.9734 0.0000 40.5056 0.0000
# 6 0.0000 0.0000 0.0000 -4.0399 0.0000 45.5596
#
#
#
# Elastic Compliance Matrix: (Units=1/GPa)
#
#
# Indices 1 2 3 4 5 6 
#
# 1 0.012391 -0.004959 -0.001883 0.000000 0.004618 0.000000
# 2 -0.004959 0.014173 -0.004423 0.000000 0.001645 0.000000
# 3 -0.001883 -0.004423 0.009410 0.000000 -0.004233 0.000000
# 4 0.000000 0.000000 0.000000 0.044803 0.000000 0.003973
# 5 0.004618 0.001645 -0.004233 0.000000 0.028016 0.000000
# 6 0.000000 0.000000 0.000000 0.003973 0.000000 0.022302
#
#
# Mechanical properties :
#
#
# Convention : Reuss Voigt Hill
#
# Bulk Modulus (GPa) = 74.38606 76.09113 75.23859
# Shear Modulus (GPa) = 31.62455 36.13528 33.87992
#
# Velocity S-wave (km/s) = 3.81209 4.07489 3.94568
# Velocity P-wave (km/s) = 7.31831 7.55677 7.43850
#
# Compressibility (1/GPa) = 0.01344338
#
# Stress axis : x y z
#
# Youngs Moduli (GPa) = 80.70345 70.55845 106.27108
#
# Poissons Ratio (x) = 0.34990 0.20008
# Poissons Ratio (y) = 0.40021 0.47007
# Poissons Ratio (z) = 0.15194 0.31210
#
# Static dielectric constant tensor:
#      x y z
#    x 4.133110 0.000000 -0.196680 
#    y 0.000000 3.946120 0.000000 
#    z -0.196680 0.000000 4.093780 
# 
# 
# High freq. dielectric constant tensor:
#      x y z
#    x 1.867320 0.000000 -0.009290 
#    y 0.000000 1.855690 0.000000 
#    z -0.009290 0.000000 1.866960 
# 
# From -- ./inp_files/56505.got.cif
#   From: 2010.06.25/outbox.cif.g09.slc.cpg/sg13_29_cif.got.tgz:56505.got - 2010.06.28 04:50:58.
