data_PCOD8122428
_publ_section_title
;
Structure prediction by ZEFSAII (Michael W. Deem and Ramdas Pophale) SiO2 
 PCOD8122428
Probable space group: P 2/C
;
_chemical_formula_sum "Si O2"
_cell_formula_units_Z 20
_cell_length_a 11.919753
_cell_length_b 11.279789
_cell_length_c 13.789794
_cell_angle_alpha 90.000000
_cell_angle_beta 32.238017
_cell_angle_gamma 90.000000
_cell_volume 989.030435
_symmetry_space_group_name_H-M "P 2/C"
_symmetry_group_IT_number 13
_symmetry_cell_setting 'monoclinic'
loop_
_space_group_symop_operation_xyz
x,y,z
-x,y,1/2-z
-x,-y,-z
x,-y,1/2+z
loop_
_atom_site_type_symbol
_atom_site_label
_atom_site_fract_x
_atom_site_fract_y
_atom_site_fract_z
Si Si1 0.261071 0.468125 0.154777
Si Si2 0.309222 0.280189 0.956608
Si Si3 0.079379 0.740467 0.894386
Si Si4 0.121163 0.728510 0.254605
Si Si5 0.450401 0.136797 0.028408
O O1 0.169527 0.392196 0.311843
O O2 0.128726 0.586895 0.241452
O O3 0.500000 0.500000 0.000000
O O4 0.238908 0.391476 0.073078
O O5 0.500000 0.323575 0.750000
O O6 0.382324 0.169801 0.968992
O O7 0.115832 0.235729 0.034047
O O8 0.260476 0.835945 0.740553
O O9 0.009593 0.762690 0.054872
O O10 0.000000 0.779932 0.250000
O O11 0.351866 0.783533 0.086918
O O12 0.500000 0.000000 0.000000
#
# Coordination Sequence:
#
# PCOD8122428 Si02
#       5
#     4   4   4   4   4
#     4  11  20  39  67  99 133 167 213 269 330 401
#     4  11  21  43  72  98 128 174 223 267 327 402
#     4  11  23  44  69  94 132 176 218 270 329 391
#     4  12  25  42  62  99 138 170 216 271 335 386
#     4  11  25  46  67  97 129 173 229 272 322 385
#
# _framework density 20.221823000000001
#
# number of rings (size 3 to 8) (size 9 to 14) (size 15 to 20)
#    0.000    0.800    6.000    4.200    0.000    4.800 
#    3.600    0.000    0.000    0.000    0.000    0.000 
#    0.000    0.000    0.000    0.000    0.000    0.000 
#
# Total GULP energy -248077.115080 kJ/mol
# GULP energy per Si atom -12403.855754 kJ/mol
# Density = 2.017580 g / cm^3
# Si number density = 20.221823 Si / 1000 Ang^3
#
#
#
# Elastic Constant Matrix: (Units=GPa)
#
#
# Indices 1 2 3 4 5 6 
#
# 1 160.2033 41.4843 75.9956 0.0000 3.1454 0.0000
# 2 41.4843 129.7778 41.8933 0.0000 -1.9738 0.0000
# 3 75.9956 41.8933 154.2333 0.0000 -1.0902 0.0000
# 4 0.0000 0.0000 0.0000 19.9681 0.0000 -4.5718
# 5 3.1454 -1.9738 -1.0902 0.0000 37.3489 0.0000
# 6 0.0000 0.0000 0.0000 -4.5718 0.0000 14.1208
#
#
#
# Elastic Compliance Matrix: (Units=1/GPa)
#
#
# Indices 1 2 3 4 5 6 
#
# 1 0.008427 -0.001496 -0.003752 0.000000 -0.000898 0.000000
# 2 -0.001496 0.008717 -0.001627 0.000000 0.000539 0.000000
# 3 -0.003752 -0.001627 0.008778 0.000000 0.000486 0.000000
# 4 0.000000 0.000000 0.000000 0.054089 0.000000 0.017512
# 5 -0.000898 0.000539 0.000486 0.000000 0.026893 0.000000
# 6 0.000000 0.000000 0.000000 0.017512 0.000000 0.076487
#
#
# Mechanical properties :
#
#
# Convention : Reuss Voigt Hill
#
# Bulk Modulus (GPa) = 82.15799 84.77344 83.46571
# Shear Modulus (GPa) = 24.85100 33.27695 29.06398
#
# Velocity S-wave (km/s) = 3.50940 4.06100 3.79523
# Velocity P-wave (km/s) = 7.55895 8.00010 7.78265
#
# Compressibility (1/GPa) = 0.01217167
#
# Stress axis : x y z
#
# Youngs Moduli (GPa) = 118.66488 114.71749 113.92344
#
# Poissons Ratio (x) = 0.17164 0.42747
# Poissons Ratio (y) = 0.17754 0.18532
# Poissons Ratio (z) = 0.44526 0.18661
#
# Static dielectric constant tensor:
#      x y z
#    x 3.737420 0.000000 -0.026580 
#    y 0.000000 3.651270 0.000000 
#    z -0.026580 0.000000 3.988610 
# 
# 
# High freq. dielectric constant tensor:
#      x y z
#    x 1.793150 0.000000 -0.009260 
#    y 0.000000 1.771260 0.000000 
#    z -0.009260 0.000000 1.813420 
# 
# From -- ./inp_files/50973.got.cif
#   From: 2010.06.25/outbox.cif.g09.slc.cpg/sg13_26_cif.got.tgz:50973.got - 2010.06.28 04:50:58.
