data_PCOD8122900
_publ_section_title
;
Structure prediction by ZEFSAII (Michael W. Deem and Ramdas Pophale) SiO2 
 PCOD8122900
Probable space group: P 2/C
;
_chemical_formula_sum "Si O2"
_cell_formula_units_Z 18
_cell_length_a 7.011233
_cell_length_b 6.555869
_cell_length_c 18.028597
_cell_angle_alpha 90.000000
_cell_angle_beta 85.990133
_cell_angle_gamma 90.000000
_cell_volume 826.650916
_symmetry_space_group_name_H-M "P 2/C"
_symmetry_group_IT_number 13
_symmetry_cell_setting 'monoclinic'
loop_
_space_group_symop_operation_xyz
x,y,z
-x,y,1/2-z
-x,-y,-z
x,-y,1/2+z
loop_
_atom_site_type_symbol
_atom_site_label
_atom_site_fract_x
_atom_site_fract_y
_atom_site_fract_z
Si Si1 0.236510 0.483532 0.079715
Si Si2 0.714827 0.379015 0.760880
Si Si3 0.000000 0.020906 0.750000
Si Si4 0.577635 0.785955 0.523113
Si Si5 0.867816 0.696272 0.638006
O O1 0.276276 0.483208 0.166280
O O2 0.384707 0.343247 0.032255
O O3 0.020744 0.398389 0.075348
O O4 0.271221 0.706327 0.042950
O O5 0.500000 0.318823 0.750000
O O6 0.807654 0.510392 0.692757
O O7 0.819272 0.164510 0.770476
O O8 0.036701 0.882196 0.820627
O O9 0.685489 0.785816 0.599336
O O10 0.500000 0.000000 0.500000
#
# Coordination Sequence:
#
# PCOD8122900 Si02
#       5
#     4   4   2   4   4
#     4  11  24  47  68 101 141 183 230 283 351 410
#     4  12  25  45  74 100 141 181 227 292 352 403
#     4  12  26  40  74 110 130 178 240 288 348 408
#     4  11  28  44  70 101 142 189 232 279 348 418
#     4  12  25  47  71 102 142 180 233 294 342 415
#
# _framework density 21.774611
#
# number of rings (size 3 to 8) (size 9 to 14) (size 15 to 20)
#    0.000    0.444    6.667    0.667    6.222    1.778 
#    0.000    0.000    0.000    0.000    0.000    0.000 
#    0.000    0.000    0.000    0.000    0.000    0.000 
#
# Total GULP energy -223229.353650 kJ/mol
# GULP energy per Si atom -12401.630758 kJ/mol
# Density = 2.172505 g / cm^3
# Si number density = 21.774611 Si / 1000 Ang^3
#
#
#
# Elastic Constant Matrix: (Units=GPa)
#
#
# Indices 1 2 3 4 5 6 
#
# 1 109.8045 54.9730 20.9673 0.0000 -13.4583 0.0000
# 2 54.9730 144.1868 43.3678 0.0000 -5.0389 0.0000
# 3 20.9673 43.3678 90.5273 0.0000 -8.3002 0.0000
# 4 0.0000 0.0000 0.0000 32.7486 0.0000 2.0991
# 5 -13.4583 -5.0389 -8.3002 0.0000 38.8197 0.0000
# 6 0.0000 0.0000 0.0000 2.0991 0.0000 19.1898
#
#
#
# Elastic Compliance Matrix: (Units=1/GPa)
#
#
# Indices 1 2 3 4 5 6 
#
# 1 0.011720 -0.004237 -0.000370 0.000000 0.003434 0.000000
# 2 -0.004237 0.009637 -0.003728 0.000000 -0.001015 0.000000
# 3 -0.000370 -0.003728 0.013119 0.000000 0.002193 0.000000
# 4 0.000000 0.000000 0.000000 0.030751 0.000000 -0.003364
# 5 0.003434 -0.001015 0.002193 0.000000 0.027288 0.000000
# 6 0.000000 0.000000 0.000000 -0.003364 0.000000 0.052479
#
#
# Mechanical properties :
#
#
# Convention : Reuss Voigt Hill
#
# Bulk Modulus (GPa) = 56.16256 64.79273 60.47764
# Shear Modulus (GPa) = 29.83303 33.16566 31.49934
#
# Velocity S-wave (km/s) = 3.70548 3.90697 3.80756
# Velocity P-wave (km/s) = 6.64501 7.08331 6.86765
#
# Compressibility (1/GPa) = 0.01780546
#
# Stress axis : x y z
#
# Youngs Moduli (GPa) = 85.32495 103.76888 76.22438
#
# Poissons Ratio (x) = 0.43968 0.02819
# Poissons Ratio (y) = 0.36153 0.28419
# Poissons Ratio (z) = 0.03155 0.38688
#
# Static dielectric constant tensor:
#      x y z
#    x 4.194610 0.000000 -0.040330 
#    y 0.000000 3.975600 0.000000 
#    z -0.040330 0.000000 3.990600 
# 
# 
# High freq. dielectric constant tensor:
#      x y z
#    x 1.873600 0.000000 -0.003080 
#    y 0.000000 1.855300 0.000000 
#    z -0.003080 0.000000 1.859070 
# 
# From -- ./inp_files/62084.got.cif
#   From: 2010.06.25/outbox.cif.g09.slc.cpg/sg13_32_cif.got.tgz:62084.got - 2010.06.28 04:50:58.
