data_PCOD8122379
_publ_section_title
;
Structure prediction by ZEFSAII (Michael W. Deem and Ramdas Pophale) SiO2 
 PCOD8122379
Probable space group: P 2/C
;
_chemical_formula_sum "Si O2"
_cell_formula_units_Z 32
_cell_length_a 19.009965
_cell_length_b 13.635474
_cell_length_c 12.625412
_cell_angle_alpha 90.000000
_cell_angle_beta 28.045166
_cell_angle_gamma 90.000000
_cell_volume 1538.684810
_symmetry_space_group_name_H-M "P 2/C"
_symmetry_group_IT_number 13
_symmetry_cell_setting 'monoclinic'
loop_
_space_group_symop_operation_xyz
x,y,z
-x,y,1/2-z
-x,-y,-z
x,-y,1/2+z
loop_
_atom_site_type_symbol
_atom_site_label
_atom_site_fract_x
_atom_site_fract_y
_atom_site_fract_z
Si Si1 0.615907 0.823429 0.001156
Si Si2 0.095119 0.864513 0.219173
Si Si3 0.437961 0.778197 0.027521
Si Si4 0.082413 0.725777 0.910751
Si Si5 0.347330 0.040857 0.515640
Si Si6 0.137102 0.554514 0.997487
Si Si7 0.702232 0.685607 0.565090
Si Si8 0.804769 0.357743 0.691978
O O1 0.749741 0.747844 0.851524
O O2 0.500000 0.816141 0.250000
O O3 0.541288 0.793340 0.990876
O O4 0.677585 0.933456 0.902360
O O5 0.000000 0.914249 0.250000
O O6 0.982592 0.828012 0.459428
O O7 0.210396 0.940998 0.117136
O O8 0.183893 0.771973 0.052460
O O9 0.302399 0.706229 0.241520
O O10 0.359028 0.878199 0.092373
O O11 0.535406 0.727860 0.804193
O O12 0.075266 0.642810 0.009621
O O13 0.974078 0.685248 0.961555
O O14 0.500000 0.043325 0.250000
O O15 0.271581 0.592321 0.893423
O O16 0.199632 0.469804 0.838627
O O17 0.000000 0.513856 0.250000
O O18 0.732791 0.653599 0.404401
#
# Coordination Sequence:
#
# PCOD8122379 Si02
#       8
#     4   4   4   4   4   4   4   4
#     4  11  27  45  62  92 135 178 221 273 344 393
#     4  11  18  36  68 101 125 165 220 274 321 378
#     4  12  21  45  68  94 134 177 221 273 327 401
#     4  11  21  43  63  89 134 171 216 272 324 389
#     4  11  22  40  69 101 130 173 219 270 332 400
#     4  12  22  40  67  98 130 177 220 263 333 395
#     4  11  20  40  68  97 134 167 222 270 323 390
#     4  11  25  38  68 106 127 168 227 273 326 388
#
# _framework density 20.796982
#
# number of rings (size 3 to 8) (size 9 to 14) (size 15 to 20)
#    0.000    0.750    8.750    1.125    0.000    2.000 
#    0.000    0.000    0.000    0.000    0.000    0.000 
#    0.000    0.000    0.000    0.000    0.000    0.000 
#
# Total GULP energy -396774.412257 kJ/mol
# GULP energy per Si atom -12399.200383 kJ/mol
# Density = 2.074965 g / cm^3
# Si number density = 20.796982 Si / 1000 Ang^3
#
#
#
# Elastic Constant Matrix: (Units=GPa)
#
#
# Indices 1 2 3 4 5 6 
#
# 1 109.7366 60.9033 45.8106 0.0000 -25.5048 0.0000
# 2 60.9033 101.6756 46.7406 0.0000 -10.5258 0.0000
# 3 45.8106 46.7406 85.5495 0.0000 -13.5968 0.0000
# 4 0.0000 0.0000 0.0000 46.6791 0.0000 -1.2044
# 5 -25.5048 -10.5258 -13.5968 0.0000 30.1319 0.0000
# 6 0.0000 0.0000 0.0000 -1.2044 0.0000 28.8255
#
#
#
# Elastic Compliance Matrix: (Units=1/GPa)
#
#
# Indices 1 2 3 4 5 6 
#
# 1 0.017179 -0.007674 -0.003363 0.000000 0.010343 0.000000
# 2 -0.007674 0.016621 -0.005474 0.000000 -0.003159 0.000000
# 3 -0.003363 -0.005474 0.016939 0.000000 0.002885 0.000000
# 4 0.000000 0.000000 0.000000 0.021446 0.000000 0.000896
# 5 0.010343 -0.003159 0.002885 0.000000 0.042141 0.000000
# 6 0.000000 0.000000 0.000000 0.000896 0.000000 0.034729
#
#
# Mechanical properties :
#
#
# Convention : Reuss Voigt Hill
#
# Bulk Modulus (GPa) = 56.43799 67.09673 61.76736
# Shear Modulus (GPa) = 26.59822 30.69446 28.64634
#
# Velocity S-wave (km/s) = 3.58012 3.84592 3.71540
# Velocity P-wave (km/s) = 6.65478 7.21486 6.94048
#
# Compressibility (1/GPa) = 0.01771856
#
# Stress axis : x y z
#
# Youngs Moduli (GPa) = 58.20916 60.16454 59.03471
#
# Poissons Ratio (x) = 0.46169 0.19853
# Poissons Ratio (y) = 0.44668 0.32316
# Poissons Ratio (z) = 0.19575 0.32934
#
# Static dielectric constant tensor:
#      x y z
#    x 3.797480 0.000000 -0.319350 
#    y 0.000000 3.775170 0.000000 
#    z -0.319350 0.000000 3.794460 
# 
# 
# High freq. dielectric constant tensor:
#      x y z
#    x 1.818000 0.000000 -0.022860 
#    y 0.000000 1.800520 0.000000 
#    z -0.022860 0.000000 1.806310 
# 
# From -- ./inp_files/39441.got.cif
#   From: 2010.06.25/outbox.cif.g09.slc.cpg/sg13_20_cif.got.tgz:39441.got - 2010.06.28 04:50:58.
