data_PCOD8122393
_publ_section_title
;
Structure prediction by ZEFSAII (Michael W. Deem and Ramdas Pophale) SiO2 
 PCOD8122393
Probable space group: P 2/C
;
_chemical_formula_sum "Si O2"
_cell_formula_units_Z 16
_cell_length_a 10.266113
_cell_length_b 7.028939
_cell_length_c 14.300446
_cell_angle_alpha 90.000000
_cell_angle_beta 135.987057
_cell_angle_gamma 90.000000
_cell_volume 716.998487
_symmetry_space_group_name_H-M "P 2/C"
_symmetry_group_IT_number 13
_symmetry_cell_setting 'monoclinic'
loop_
_space_group_symop_operation_xyz
x,y,z
-x,y,1/2-z
-x,-y,-z
x,-y,1/2+z
loop_
_atom_site_type_symbol
_atom_site_label
_atom_site_fract_x
_atom_site_fract_y
_atom_site_fract_z
Si Si1 0.240744 0.290231 0.050485
Si Si2 0.886943 0.858474 0.277080
Si Si3 0.372440 0.801951 0.811716
Si Si4 0.206447 0.531813 0.865013
O O1 0.408995 0.157677 0.095899
O O2 0.277991 0.323674 0.179601
O O3 0.250282 0.489694 0.997363
O O4 0.038886 0.190222 0.935873
O O5 0.788911 0.668256 0.187863
O O6 0.000000 0.957294 0.250000
O O7 0.728071 0.995184 0.234960
O O8 0.354993 0.678948 0.897936
O O9 0.000000 0.624438 0.750000
#
# Coordination Sequence:
#
# PCOD8122393 Si02
#       4
#     4   4   4   4
#     4   9  21  36  54  86 113 137 188 230 256 329
#     4   9  20  36  53  80 112 142 183 226 266 323
#     4  11  19  36  60  78 111 153 176 218 284 317
#     4   9  20  36  53  80 112 142 183 226 266 323
#
# _framework density 22.315248
#
# number of rings (size 3 to 8) (size 9 to 14) (size 15 to 20)
#    0.000    3.000    0.000    2.250    0.000    8.000 
#    0.000   15.000    0.000    0.000    0.000    0.000 
#    0.000    0.000    0.000    0.000    0.000    0.000 
#
# Total GULP energy -198293.008130 kJ/mol
# GULP energy per Si atom -12393.313008 kJ/mol
# Density = 2.226446 g / cm^3
# Si number density = 22.315248 Si / 1000 Ang^3
#
#
#
# Elastic Constant Matrix: (Units=GPa)
#
#
# Indices 1 2 3 4 5 6 
#
# 1 49.3124 19.1571 -16.4931 0.0000 5.2779 0.0000
# 2 19.1571 59.5148 3.7292 0.0000 3.6384 0.0000
# 3 -16.4931 3.7292 51.0699 0.0000 -3.9431 0.0000
# 4 0.0000 0.0000 0.0000 12.6314 0.0000 4.4372
# 5 5.2779 3.6384 -3.9431 0.0000 33.2542 0.0000
# 6 0.0000 0.0000 0.0000 4.4372 0.0000 28.4175
#
#
#
# Elastic Compliance Matrix: (Units=1/GPa)
#
#
# Indices 1 2 3 4 5 6 
#
# 1 0.027194 -0.009200 0.009284 0.000000 -0.002209 0.000000
# 2 -0.009200 0.020127 -0.004540 0.000000 -0.001280 0.000000
# 3 0.009284 -0.004540 0.023046 0.000000 0.001756 0.000000
# 4 0.000000 0.000000 0.000000 0.083762 0.000000 -0.013079
# 5 -0.002209 -0.001280 0.001756 0.000000 0.030770 0.000000
# 6 0.000000 0.000000 0.000000 -0.013079 0.000000 0.037232
#
#
# Mechanical properties :
#
#
# Convention : Reuss Voigt Hill
#
# Bulk Modulus (GPa) = 16.27206 19.18705 17.72955
# Shear Modulus (GPa) = 19.87840 25.09422 22.48631
#
# Velocity S-wave (km/s) = 2.98786 3.35704 3.17782
# Velocity P-wave (km/s) = 4.38302 4.86242 4.62893
#
# Compressibility (1/GPa) = 0.06145505
#
# Stress axis : x y z
#
# Youngs Moduli (GPa) = 36.77215 49.68523 43.39092
#
# Poissons Ratio (x) = 0.45712 -0.40283
# Poissons Ratio (y) = 0.33831 0.19698
# Poissons Ratio (z) = -0.34138 0.22556
#
# Static dielectric constant tensor:
#      x y z
#    x 4.070850 0.000000 -0.039600 
#    y 0.000000 3.412060 0.000000 
#    z -0.039600 0.000000 4.209070 
# 
# 
# High freq. dielectric constant tensor:
#      x y z
#    x 1.876890 0.000000 0.007660 
#    y 0.000000 1.832890 0.000000 
#    z 0.007660 0.000000 1.889490 
# 
# From -- ./inp_files/45655.got.cif
#   From: 2010.06.25/outbox.cif.g09.slc.cpg/sg13_23_cif.got.tgz:45655.got - 2010.06.28 04:50:58.
