data_PCOD8122604
_publ_section_title
;
Structure prediction by ZEFSAII (Michael W. Deem and Ramdas Pophale) SiO2 
 PCOD8122604
Probable space group: P 2/C
;
_chemical_formula_sum "Si O2"
_cell_formula_units_Z 26
_cell_length_a 6.495290
_cell_length_b 21.476861
_cell_length_c 14.342393
_cell_angle_alpha 90.000000
_cell_angle_beta 41.869333
_cell_angle_gamma 90.000000
_cell_volume 1335.363022
_symmetry_space_group_name_H-M "P 2/C"
_symmetry_group_IT_number 13
_symmetry_cell_setting 'monoclinic'
loop_
_space_group_symop_operation_xyz
x,y,z
-x,y,1/2-z
-x,-y,-z
x,-y,1/2+z
loop_
_atom_site_type_symbol
_atom_site_label
_atom_site_fract_x
_atom_site_fract_y
_atom_site_fract_z
Si Si1 0.603719 0.628995 0.616452
Si Si2 0.651996 0.055124 0.391884
Si Si3 0.651387 0.498079 0.350888
Si Si4 0.108874 0.829108 0.609258
Si Si5 0.698191 0.387600 0.602799
Si Si6 0.500000 0.887103 0.750000
Si Si7 0.722522 0.302656 0.416392
O O1 0.500000 0.659515 0.750000
O O2 0.367751 0.571435 0.684053
O O3 0.574051 0.683936 0.548801
O O4 0.947419 0.602793 0.488766
O O5 0.651301 0.113187 0.465656
O O6 0.483006 0.071064 0.350371
O O7 0.000000 0.035751 0.250000
O O8 0.500000 0.000000 0.500000
O O9 0.500000 0.500000 0.500000
O O10 0.473103 0.546198 0.345138
O O11 0.000000 0.519050 0.250000
O O12 0.275178 0.763859 0.529198
O O13 0.000000 0.818521 0.750000
O O14 0.810109 0.844421 0.645734
O O15 0.500000 0.351048 0.750000
O O16 0.707605 0.353133 0.501709
O O17 0.000000 0.312947 0.250000
#
# Coordination Sequence:
#
# PCOD8122604 Si02
#       7
#     4   4   4   4   4   2   4
#     4  12  23  41  65  89 111 153 205 251 299 366
#     4   9  18  33  57  89 125 157 203 245 294 347
#     4  12  23  41  63  82 119 154 193 253 308 365
#     4   8  18  33  57  88 116 155 204 250 292 341
#     4  12  26  40  61  89 121 159 190 247 325 376
#     4   8  16  34  60  88 124 162 198 250 304 336
#     4  11  22  41  62  89 121 150 211 257 285 365
#
# _framework density 19.470361
#
# number of rings (size 3 to 8) (size 9 to 14) (size 15 to 20)
#    0.000    1.846    3.077    3.231    0.000    6.154 
#    1.385    0.000    8.462    0.000    0.000    0.000 
#    0.000    0.000    0.000    0.000    0.000    0.000 
#
# Total GULP energy -322091.302575 kJ/mol
# GULP energy per Si atom -12388.127022 kJ/mol
# Density = 1.942605 g / cm^3
# Si number density = 19.470361 Si / 1000 Ang^3
#
#
#
# Elastic Constant Matrix: (Units=GPa)
#
#
# Indices 1 2 3 4 5 6 
#
# 1 148.4712 64.1039 40.1492 0.0000 -7.9444 0.0000
# 2 64.1039 122.7569 31.9188 0.0000 -1.3173 0.0000
# 3 40.1492 31.9188 92.8867 0.0000 -2.5427 0.0000
# 4 0.0000 0.0000 0.0000 23.8069 0.0000 -3.4183
# 5 -7.9444 -1.3173 -2.5427 0.0000 34.3219 0.0000
# 6 0.0000 0.0000 0.0000 -3.4183 0.0000 11.8898
#
#
#
# Elastic Compliance Matrix: (Units=1/GPa)
#
#
# Indices 1 2 3 4 5 6 
#
# 1 0.009329 -0.004191 -0.002543 0.000000 0.001810 0.000000
# 2 -0.004191 0.010829 -0.001929 0.000000 -0.000697 0.000000
# 3 -0.002543 -0.001929 0.012535 0.000000 0.000266 0.000000
# 4 0.000000 0.000000 0.000000 0.043813 0.000000 0.012596
# 5 0.001810 -0.000697 0.000266 0.000000 0.029548 0.000000
# 6 0.000000 0.000000 0.000000 0.012596 0.000000 0.087727
#
#
# Mechanical properties :
#
#
# Convention : Reuss Voigt Hill
#
# Bulk Modulus (GPa) = 65.07044 70.71762 67.89403
# Shear Modulus (GPa) = 23.12361 29.19992 26.16176
#
# Velocity S-wave (km/s) = 3.44994 3.87681 3.66959
# Velocity P-wave (km/s) = 7.02583 7.51259 7.27328
#
# Compressibility (1/GPa) = 0.01536796
#
# Stress axis : x y z
#
# Youngs Moduli (GPa) = 107.18816 92.34588 79.77742
#
# Poissons Ratio (x) = 0.38705 0.20285
# Poissons Ratio (y) = 0.44925 0.15386
# Poissons Ratio (z) = 0.27255 0.17810
#
# Static dielectric constant tensor:
#      x y z
#    x 4.116050 0.000000 -0.070810 
#    y 0.000000 -67.546150 0.000000 
#    z -0.070810 0.000000 3.536820 
# 
# 
# High freq. dielectric constant tensor:
#      x y z
#    x 1.779270 0.000000 0.006220 
#    y 0.000000 1.743720 0.000000 
#    z 0.006220 0.000000 1.730990 
# 
# From -- ./inp_files/44598.got.cif
#   From: 2010.06.25/outbox.cif.g09.slc.cpg/sg13_23_cif.got.tgz:44598.got - 2010.06.28 04:50:58.
