data_PCOD8122760
_publ_section_title
;
Structure prediction by ZEFSAII (Michael W. Deem and Ramdas Pophale) SiO2 
 PCOD8122760
Probable space group: P 2/C
;
_chemical_formula_sum "Si O2"
_cell_formula_units_Z 26
_cell_length_a 20.495378
_cell_length_b 6.515010
_cell_length_c 9.535306
_cell_angle_alpha 90.000000
_cell_angle_beta 101.570579
_cell_angle_gamma 90.000000
_cell_volume 1247.352422
_symmetry_space_group_name_H-M "P 2/C"
_symmetry_group_IT_number 13
_symmetry_cell_setting 'monoclinic'
loop_
_space_group_symop_operation_xyz
x,y,z
-x,y,1/2-z
-x,-y,-z
x,-y,1/2+z
loop_
_atom_site_type_symbol
_atom_site_label
_atom_site_fract_x
_atom_site_fract_y
_atom_site_fract_z
Si Si1 0.924486 0.236859 0.203808
Si Si2 0.130589 0.960453 0.550239
Si Si3 0.611095 0.704477 0.350757
Si Si4 0.500000 0.030589 0.250000
Si Si5 0.441471 0.612904 0.895119
Si Si6 0.758949 0.727263 0.341138
Si Si7 0.178919 0.571443 0.409054
O O1 0.906484 0.082195 0.320747
O O2 0.877030 0.433897 0.190189
O O3 0.000000 0.313975 0.250000
O O4 0.915863 0.119090 0.053388
O O5 0.140546 0.755085 0.467198
O O6 0.201964 0.062814 0.611684
O O7 0.618196 0.638193 0.517235
O O8 0.584023 0.513332 0.249147
O O9 0.681458 0.780342 0.322190
O O10 0.560008 0.891853 0.330735
O O11 0.529847 0.168199 0.138810
O O12 0.500000 0.500000 0.000000
O O13 0.771772 0.653158 0.188830
O O14 0.778119 0.551096 0.459299
#
# Coordination Sequence:
#
# PCOD8122760 Si02
#       7
#     4   4   4   2   4   4   4
#     4  11  24  42  69 100 131 174 217 267 325 381
#     4  11  23  44  66  95 135 169 219 271 316 384
#     4  12  26  42  70  96 128 171 217 265 332 384
#     4  12  24  42  70  92 132 164 216 268 322 386
#     4  12  23  46  64  94 132 164 208 274 324 384
#     4  11  25  44  66  96 128 175 217 267 321 387
#     4  11  23  45  68  91 137 170 215 267 320 384
#
# _framework density 20.844149999999999
#
# number of rings (size 3 to 8) (size 9 to 14) (size 15 to 20)
#    0.000    0.615    6.154    1.846    0.000    3.692 
#    0.000    0.000    0.000    0.000    0.000    0.000 
#    0.000    0.000    0.000    0.000    0.000    0.000 
#
# Total GULP energy -322534.375555 kJ/mol
# GULP energy per Si atom -12405.168291 kJ/mol
# Density = 2.079671 g / cm^3
# Si number density = 20.844150 Si / 1000 Ang^3
#
#
#
# Elastic Constant Matrix: (Units=GPa)
#
#
# Indices 1 2 3 4 5 6 
#
# 1 97.0169 18.1868 23.2737 0.0000 4.2811 0.0000
# 2 18.1868 83.9915 23.2752 0.0000 -4.1072 0.0000
# 3 23.2737 23.2752 90.7642 0.0000 -17.7848 0.0000
# 4 0.0000 0.0000 0.0000 27.5302 0.0000 -10.6107
# 5 4.2811 -4.1072 -17.7848 0.0000 33.2355 0.0000
# 6 0.0000 0.0000 0.0000 -10.6107 0.0000 26.9886
#
#
#
# Elastic Compliance Matrix: (Units=1/GPa)
#
#
# Indices 1 2 3 4 5 6 
#
# 1 0.011554 -0.001790 -0.003171 0.000000 -0.003406 0.000000
# 2 -0.001790 0.013095 -0.002834 0.000000 0.000332 0.000000
# 3 -0.003171 -0.002834 0.014041 0.000000 0.007572 0.000000
# 4 0.000000 0.000000 0.000000 0.042811 0.000000 0.016831
# 5 -0.003406 0.000332 0.007572 0.000000 0.034620 0.000000
# 6 0.000000 0.000000 0.000000 0.016831 0.000000 0.043670
#
#
# Mechanical properties :
#
#
# Convention : Reuss Voigt Hill
#
# Bulk Modulus (GPa) = 43.28913 44.58268 43.93590
# Shear Modulus (GPa) = 27.31031 31.35334 29.33182
#
# Velocity S-wave (km/s) = 3.62362 3.88258 3.75533
# Velocity P-wave (km/s) = 6.19036 6.44471 6.31881
#
# Compressibility (1/GPa) = 0.02310049
#
# Stress axis : x y z
#
# Youngs Moduli (GPa) = 86.54991 76.36458 71.21923
#
# Poissons Ratio (x) = 0.13666 0.22585
# Poissons Ratio (y) = 0.15489 0.20184
# Poissons Ratio (z) = 0.27447 0.21642
#
# Static dielectric constant tensor:
#      x y z
#    x 4.091680 0.000000 -0.407510 
#    y 0.000000 3.942660 0.000000 
#    z -0.407510 0.000000 4.175620 
# 
# 
# High freq. dielectric constant tensor:
#      x y z
#    x 1.815720 0.000000 -0.015880 
#    y 0.000000 1.822150 0.000000 
#    z -0.015880 0.000000 1.831070 
# 
# From -- ./inp_files/39634.got.cif
#   From: 2010.06.25/outbox.cif.g09.slc.cpg/sg13_20_cif.got.tgz:39634.got - 2010.06.28 04:50:58.
