data_PCOD8122584
_publ_section_title
;
Structure prediction by ZEFSAII (Michael W. Deem and Ramdas Pophale) SiO2 
 PCOD8122584
Probable space group: P 2/C
;
_chemical_formula_sum "Si O2"
_cell_formula_units_Z 28
_cell_length_a 6.521999
_cell_length_b 11.398585
_cell_length_c 19.344934
_cell_angle_alpha 90.000000
_cell_angle_beta 104.038842
_cell_angle_gamma 90.000000
_cell_volume 1395.177708
_symmetry_space_group_name_H-M "P 2/C"
_symmetry_group_IT_number 13
_symmetry_cell_setting 'monoclinic'
loop_
_space_group_symop_operation_xyz
x,y,z
-x,y,1/2-z
-x,-y,-z
x,-y,1/2+z
loop_
_atom_site_type_symbol
_atom_site_label
_atom_site_fract_x
_atom_site_fract_y
_atom_site_fract_z
Si Si1 0.214710 0.688271 0.070949
Si Si2 0.780491 0.054837 0.456940
Si Si3 0.461522 0.534019 0.576114
Si Si4 0.118127 0.299423 0.074533
Si Si5 0.088895 0.466813 0.333804
Si Si6 0.058750 0.263131 0.833967
Si Si7 0.552840 0.136381 0.574886
O O1 0.312348 0.562985 0.101962
O O2 0.401955 0.754865 0.047027
O O3 0.132078 0.769757 0.128844
O O4 0.034026 0.669134 0.000736
O O5 0.849655 0.159372 0.410078
O O6 0.669669 0.105927 0.514940
O O7 0.603757 0.967460 0.409027
O O8 0.000000 0.000000 0.500000
O O9 0.500000 0.500000 0.500000
O O10 0.345314 0.657479 0.568572
O O11 0.664621 0.560763 0.639557
O O12 0.040652 0.368467 0.135460
O O13 0.081792 0.601111 0.360296
O O14 0.000000 0.459470 0.250000
O O15 0.265747 0.180873 0.857301
O O16 0.000000 0.250897 0.750000
#
# Coordination Sequence:
#
# PCOD8122584 Si02
#       7
#     4   4   4   4   4   4   4
#     4  12  21  38  64 100 126 161 220 274 324 391
#     4  11  23  40  66  97 127 164 220 283 321 377
#     4  12  22  36  66  96 128 166 212 269 331 388
#     4  12  23  38  66  95 130 166 216 270 320 393
#     4  11  25  41  60  96 141 176 208 263 340 403
#     4  11  23  41  61  93 138 174 209 270 334 399
#     4  11  22  39  66  96 128 166 217 271 337 376
#
# _framework density 20.069129
#
# number of rings (size 3 to 8) (size 9 to 14) (size 15 to 20)
#    0.000    0.571    7.143    2.143    0.000    1.143 
#    0.000    0.000    0.000   12.857    0.000    0.000 
#    0.000    0.000    0.000    0.000    0.000    0.000 
#
# Total GULP energy -346902.086431 kJ/mol
# GULP energy per Si atom -12389.360230 kJ/mol
# Density = 2.002345 g / cm^3
# Si number density = 20.069129 Si / 1000 Ang^3
#
#
#
# Elastic Constant Matrix: (Units=GPa)
#
#
# Indices 1 2 3 4 5 6 
#
# 1 125.8767 51.5417 46.6063 0.0000 18.9074 0.0000
# 2 51.5417 128.7711 29.1893 0.0000 10.7948 0.0000
# 3 46.6063 29.1893 98.2276 0.0000 10.1757 0.0000
# 4 0.0000 0.0000 0.0000 17.9078 0.0000 -0.4882
# 5 18.9074 10.7948 10.1757 0.0000 29.9061 0.0000
# 6 0.0000 0.0000 0.0000 -0.4882 0.0000 42.0574
#
#
#
# Elastic Compliance Matrix: (Units=1/GPa)
#
#
# Indices 1 2 3 4 5 6 
#
# 1 0.011474 -0.003296 -0.003977 0.000000 -0.004711 0.000000
# 2 -0.003296 0.009421 -0.001139 0.000000 -0.000929 0.000000
# 3 -0.003977 -0.001139 0.012545 0.000000 -0.001343 0.000000
# 4 0.000000 0.000000 0.000000 0.055859 0.000000 0.000648
# 5 -0.004711 -0.000929 -0.001343 0.000000 0.037209 0.000000
# 6 0.000000 0.000000 0.000000 0.000648 0.000000 0.023785
#
#
# Mechanical properties :
#
#
# Convention : Reuss Voigt Hill
#
# Bulk Modulus (GPa) = 60.18370 67.50556 63.84463
# Shear Modulus (GPa) = 28.95937 33.01013 30.98475
#
# Velocity S-wave (km/s) = 3.80278 4.06004 3.93351
# Velocity P-wave (km/s) = 7.02387 7.46245 7.24648
#
# Compressibility (1/GPa) = 0.01661579
#
# Stress axis : x y z
#
# Youngs Moduli (GPa) = 87.15405 106.14345 79.71367
#
# Poissons Ratio (x) = 0.34987 0.31698
# Poissons Ratio (y) = 0.28728 0.09083
# Poissons Ratio (z) = 0.34657 0.12094
#
# Static dielectric constant tensor:
#      x y z
#    x 3.584210 0.000000 0.190690 
#    y 0.000000 4.053040 0.000000 
#    z 0.190690 0.000000 3.274460 
# 
# 
# High freq. dielectric constant tensor:
#      x y z
#    x 1.812220 0.000000 0.010440 
#    y 0.000000 1.787840 0.000000 
#    z 0.010440 0.000000 1.744540 
# 
# From -- ./inp_files/73372.got.cif
#   From: 2010.06.25/outbox.cif.g09.slc.cpg/sg13_37_cif.got.tgz:73372.got - 2010.06.28 04:50:58.
