data_PCOD8122199
_publ_section_title
;
Structure prediction by ZEFSAII (Michael W. Deem and Ramdas Pophale) SiO2 
 PCOD8122199
Probable space group: P 2/C
;
_chemical_formula_sum "Si O2"
_cell_formula_units_Z 28
_cell_length_a 13.844213
_cell_length_b 18.713623
_cell_length_c 8.360363
_cell_angle_alpha 90.000000
_cell_angle_beta 36.336819
_cell_angle_gamma 90.000000
_cell_volume 1283.400865
_symmetry_space_group_name_H-M "P 2/C"
_symmetry_group_IT_number 13
_symmetry_cell_setting 'monoclinic'
loop_
_space_group_symop_operation_xyz
x,y,z
-x,y,1/2-z
-x,-y,-z
x,-y,1/2+z
loop_
_atom_site_type_symbol
_atom_site_label
_atom_site_fract_x
_atom_site_fract_y
_atom_site_fract_z
Si Si1 0.265281 0.406675 0.236217
Si Si2 0.679256 0.450179 0.999971
Si Si3 0.000000 0.020792 0.250000
Si Si4 0.034893 0.228569 0.532587
Si Si5 0.053920 0.360630 0.004499
Si Si6 0.404137 0.253879 0.043462
Si Si7 0.500000 0.174633 0.250000
Si Si8 0.836242 0.091956 0.752134
O O1 0.236242 0.444882 0.442743
O O2 0.334276 0.466630 0.026052
O O3 0.085196 0.383216 0.432105
O O4 0.390259 0.340010 0.078147
O O5 0.777074 0.401236 0.745152
O O6 0.500000 0.417045 0.250000
O O7 0.129300 0.975746 0.181340
O O8 0.876977 0.069975 0.516463
O O9 0.933884 0.274744 0.534925
O O10 0.226584 0.221853 0.245558
O O11 0.967188 0.149894 0.628895
O O12 0.000000 0.266206 0.750000
O O13 0.000000 0.382208 0.250000
O O14 0.476000 0.221894 0.116918
O O15 0.500000 0.235173 0.750000
O O16 0.345928 0.122763 0.483995
#
# Coordination Sequence:
#
# PCOD8122199 Si02
#       8
#     4   4   2   4   4   4   2   4
#     4  11  25  46  64  97 135 181 234 294 369 431
#     4  12  25  42  68  93 132 175 227 300 362 423
#     4  10  24  46  72 108 148 192 218 286 338 430
#     4  11  22  46  67  99 144 183 231 288 355 418
#     4  11  25  43  69  98 130 182 234 291 353 440
#     4  11  26  45  71 104 145 182 242 306 353 421
#     4  12  26  46  76 114 138 196 238 294 346 414
#     4  11  24  44  74 106 148 186 236 274 351 418
#
# _framework density 21.817034
#
# number of rings (size 3 to 8) (size 9 to 14) (size 15 to 20)
#    0.000    0.857    2.143    4.286    4.000    4.000 
#    0.000    0.000    0.000    0.000    0.000    0.000 
#    0.000    0.000    0.000    0.000    0.000    0.000 
#
# Total GULP energy -347029.414658 kJ/mol
# GULP energy per Si atom -12393.907666 kJ/mol
# Density = 2.176738 g / cm^3
# Si number density = 21.817034 Si / 1000 Ang^3
#
#
#
# Elastic Constant Matrix: (Units=GPa)
#
#
# Indices 1 2 3 4 5 6 
#
# 1 98.3954 54.2827 63.6360 0.0000 16.0127 0.0000
# 2 54.2827 102.5655 70.7320 0.0000 0.4981 0.0000
# 3 63.6360 70.7320 176.7674 0.0000 7.0413 0.0000
# 4 0.0000 0.0000 0.0000 -51.0489 0.0000 103.4636
# 5 16.0127 0.4981 7.0413 0.0000 40.8205 0.0000
# 6 0.0000 0.0000 0.0000 103.4636 0.0000 -74.0535
#
#
#
# Elastic Compliance Matrix: (Units=1/GPa)
#
#
# Indices 1 2 3 4 5 6 
#
# 1 0.016894 -0.006743 -0.003144 0.000000 -0.006002 0.000000
# 2 -0.006743 0.016182 -0.004173 0.000000 0.003168 0.000000
# 3 -0.003144 -0.004173 0.008466 0.000000 -0.000176 0.000000
# 4 0.000000 0.000000 0.000000 0.010695 0.000000 0.014942
# 5 -0.006002 0.003168 -0.000176 0.000000 0.026844 0.000000
# 6 0.000000 0.000000 0.000000 0.014942 0.000000 0.007372
#
#
# Mechanical properties :
#
#
# Convention : Reuss Voigt Hill
#
# Bulk Modulus (GPa) = 74.52153 83.89218 79.20686
# Shear Modulus (GPa) = 42.00017 -4.25120 18.87449
#
# Velocity S-wave (km/s) = 4.39237 -1.39743 2.94449
# Velocity P-wave (km/s) = 7.74309 5.99436 6.92416
#
# Compressibility (1/GPa) = 0.01341894
#
# Stress axis : x y z
#
# Youngs Moduli (GPa) = 59.19411 61.79870 118.11846
#
# Poissons Ratio (x) = 0.41673 0.37139
# Poissons Ratio (y) = 0.39917 0.49297
# Poissons Ratio (z) = 0.18612 0.25792
#
# Static dielectric constant tensor:
#      x y z
#    x 4.114030 0.000000 0.210740 
#    y 0.000000 4.098610 0.000000 
#    z 0.210740 0.000000 4.054010 
# 
# 
# High freq. dielectric constant tensor:
#      x y z
#    x 1.863230 0.000000 0.010260 
#    y 0.000000 1.859280 0.000000 
#    z 0.010260 0.000000 1.869070 
# 
# From -- ./inp_files/20205.got.cif
#   From: 2010.06.25/outbox.cif.g09.slc.cpg/sg13_11_cif.got.tgz:20205.got - 2010.06.28 04:50:58.
