data_PCOD8122807
_publ_section_title
;
Structure prediction by ZEFSAII (Michael W. Deem and Ramdas Pophale) SiO2 
 PCOD8122807
Probable space group: P 2/C
;
_chemical_formula_sum "Si O2"
_cell_formula_units_Z 16
_cell_length_a 10.769545
_cell_length_b 5.068469
_cell_length_c 12.618166
_cell_angle_alpha 90.000000
_cell_angle_beta 97.102525
_cell_angle_gamma 90.000000
_cell_volume 683.478679
_symmetry_space_group_name_H-M "P 2/C"
_symmetry_group_IT_number 13
_symmetry_cell_setting 'monoclinic'
loop_
_space_group_symop_operation_xyz
x,y,z
-x,y,1/2-z
-x,-y,-z
x,-y,1/2+z
loop_
_atom_site_type_symbol
_atom_site_label
_atom_site_fract_x
_atom_site_fract_y
_atom_site_fract_z
Si Si1 0.301156 0.675428 0.971187
Si Si2 0.144730 0.521573 0.759671
Si Si3 0.462314 0.690523 0.638526
Si Si4 0.245895 0.020974 0.656135
O O1 0.359524 0.460929 0.057425
O O2 0.228159 0.901850 0.029770
O O3 0.195995 0.561197 0.883226
O O4 0.417158 0.787251 0.914775
O O5 0.219898 0.272326 0.725111
O O6 0.000000 0.449053 0.750000
O O7 0.161009 0.775059 0.684782
O O8 0.500000 0.527728 0.750000
O O9 0.392884 0.948261 0.678993
#
# Coordination Sequence:
#
# PCOD8122807 Si02
#       4
#     4   4   4   4
#     4  11  25  46  78 109 147 194 236 302 375 429
#     4  12  29  50  74 106 150 196 247 299 351 435
#     4  11  23  46  75 111 148 185 239 301 372 436
#     4  12  25  49  71 110 143 190 248 297 361 429
#
# _framework density 23.409655000000001
#
# number of rings (size 3 to 8) (size 9 to 14) (size 15 to 20)
#    0.000    0.500    5.000    1.500    3.500    7.000 
#    0.000    0.000    0.000    0.000    0.000    0.000 
#    0.000    0.000    0.000    0.000    0.000    0.000 
#
# Total GULP energy -198267.340552 kJ/mol
# GULP energy per Si atom -12391.708784 kJ/mol
# Density = 2.335637 g / cm^3
# Si number density = 23.409655 Si / 1000 Ang^3
#
#
#
# Elastic Constant Matrix: (Units=GPa)
#
#
# Indices 1 2 3 4 5 6 
#
# 1 116.3166 36.7554 87.1980 0.0000 23.1105 0.0000
# 2 36.7554 121.8675 61.5996 0.0000 -2.3173 0.0000
# 3 87.1980 61.5996 178.0923 0.0000 -0.2468 0.0000
# 4 0.0000 0.0000 0.0000 -1.4419 0.0000 -1.8094
# 5 23.1105 -2.3173 -0.2468 0.0000 30.7525 0.0000
# 6 0.0000 0.0000 0.0000 -1.8094 0.0000 24.9057
#
#
#
# Elastic Compliance Matrix: (Units=1/GPa)
#
#
# Indices 1 2 3 4 5 6 
#
# 1 0.018054 -0.001489 -0.008344 0.000000 -0.013747 0.000000
# 2 -0.001489 0.010083 -0.002756 0.000000 0.001857 0.000000
# 3 -0.008344 -0.002756 0.010662 0.000000 0.006148 0.000000
# 4 0.000000 0.000000 0.000000 -0.635567 0.000000 -0.046175
# 5 -0.013747 0.001857 0.006148 0.000000 0.043038 0.000000
# 6 0.000000 0.000000 0.000000 -0.046175 0.000000 0.036797
#
#
# Mechanical properties :
#
#
# Convention : Reuss Voigt Hill
#
# Bulk Modulus (GPa) = 73.41179 87.48697 80.44938
# Shear Modulus (GPa) = -10.26239 26.22481 7.98121
#
# Velocity S-wave (km/s) = -2.09603 3.35065 1.84845
# Velocity P-wave (km/s) = 5.05667 7.24034 6.24469
#
# Compressibility (1/GPa) = 0.01362179
#
# Stress axis : x y z
#
# Youngs Moduli (GPa) = 55.38962 99.17617 93.79066
#
# Poissons Ratio (x) = 0.14768 0.78255
# Poissons Ratio (y) = 0.08248 0.25848
# Poissons Ratio (z) = 0.46215 0.27332
#
# Static dielectric constant tensor:
#      x y z
#    x 4.258680 0.000000 -0.375510 
#    y 0.000000 4.234460 0.000000 
#    z -0.375510 0.000000 4.740990 
# 
# 
# High freq. dielectric constant tensor:
#      x y z
#    x 1.917510 0.000000 -0.018910 
#    y 0.000000 1.916000 0.000000 
#    z -0.018910 0.000000 1.952080 
# 
# From -- ./inp_files/31252.got.cif
#   From: 2010.06.25/outbox.cif.g09.slc.cpg/sg13_16_cif.got.tgz:31252.got - 2010.06.28 04:50:58.
