data_PCOD8122751
_publ_section_title
;
Structure prediction by ZEFSAII (Michael W. Deem and Ramdas Pophale) SiO2 
 PCOD8122751
Probable space group: P 2/C
;
_chemical_formula_sum "Si O2"
_cell_formula_units_Z 32
_cell_length_a 15.414181
_cell_length_b 6.097670
_cell_length_c 27.449845
_cell_angle_alpha 90.000000
_cell_angle_beta 33.148782
_cell_angle_gamma 90.000000
_cell_volume 1410.797525
_symmetry_space_group_name_H-M "P 2/C"
_symmetry_group_IT_number 13
_symmetry_cell_setting 'monoclinic'
loop_
_space_group_symop_operation_xyz
x,y,z
-x,y,1/2-z
-x,-y,-z
x,-y,1/2+z
loop_
_atom_site_type_symbol
_atom_site_label
_atom_site_fract_x
_atom_site_fract_y
_atom_site_fract_z
Si Si1 0.353687 0.942826 0.504664
Si Si2 0.790822 0.506508 0.551052
Si Si3 0.794817 0.929785 0.217023
Si Si4 0.078924 0.189703 0.433153
Si Si5 0.117092 0.718690 0.091021
Si Si6 0.826202 0.385521 0.347723
Si Si7 0.505906 0.638581 0.353002
Si Si8 0.377209 0.736119 0.637612
O O1 0.197222 0.044371 0.553989
O O2 0.477943 0.139327 0.458808
O O3 0.281736 0.819161 0.584797
O O4 0.430040 0.767138 0.433438
O O5 0.792261 0.686777 0.593391
O O6 0.801477 0.599608 0.491915
O O7 0.620463 0.384065 0.632000
O O8 0.939887 0.351121 0.484541
O O9 0.654965 0.774240 0.262438
O O10 0.931396 0.761712 0.169944
O O11 0.840514 0.094503 0.152547
O O12 0.743251 0.076555 0.287007
O O13 0.000000 0.000000 0.500000
O O14 0.153688 0.583507 0.123554
O O15 0.720163 0.442382 0.349616
O O16 0.000000 0.303828 0.250000
O O17 0.554931 0.396736 0.348270
#
# Coordination Sequence:
#
# PCOD8122751 Si02
#       8
#     4   4   4   4   4   4   4   4
#     4  11  23  43  70 100 135 195 233 290 347 424
#     4  11  24  45  76 102 137 182 240 287 364 423
#     4  11  26  43  74 103 145 189 234 296 370 418
#     4  11  25  45  78 104 133 180 239 297 352 442
#     4  12  24  44  74  98 141 189 238 292 350 424
#     4  12  26  40  66 105 143 188 243 296 347 418
#     4  11  24  46  73 102 145 189 226 296 358 423
#     4  11  25  45  67 101 147 189 237 291 357 422
#
# _framework density 22.682206999999998
#
# number of rings (size 3 to 8) (size 9 to 14) (size 15 to 20)
#    0.000    0.750    3.750    2.625    3.500    5.500 
#    0.000    3.750    0.000    0.000    0.000    0.000 
#    0.000    0.000    0.000    0.000    0.000    0.000 
#
# Total GULP energy -396699.108964 kJ/mol
# GULP energy per Si atom -12396.847155 kJ/mol
# Density = 2.263058 g / cm^3
# Si number density = 22.682207 Si / 1000 Ang^3
#
#
#
# Elastic Constant Matrix: (Units=GPa)
#
#
# Indices 1 2 3 4 5 6 
#
# 1 129.7018 35.2482 37.7687 0.0000 -21.3847 0.0000
# 2 35.2482 86.2518 32.3472 0.0000 -7.9214 0.0000
# 3 37.7687 32.3472 103.9994 0.0000 -14.5823 0.0000
# 4 0.0000 0.0000 0.0000 32.9122 0.0000 -3.7323
# 5 -21.3847 -7.9214 -14.5823 0.0000 34.3829 0.0000
# 6 0.0000 0.0000 0.0000 -3.7323 0.0000 44.9375
#
#
#
# Elastic Compliance Matrix: (Units=1/GPa)
#
#
# Indices 1 2 3 4 5 6 
#
# 1 0.009832 -0.002829 -0.002047 0.000000 0.004596 0.000000
# 2 -0.002829 0.014000 -0.003319 0.000000 0.000059 0.000000
# 3 -0.002047 -0.003319 0.011807 0.000000 0.002970 0.000000
# 4 0.000000 0.000000 0.000000 0.030673 0.000000 0.002548
# 5 0.004596 0.000059 0.002970 0.000000 0.033216 0.000000
# 6 0.000000 0.000000 0.000000 0.002548 0.000000 0.022465
#
#
# Mechanical properties :
#
#
# Convention : Reuss Voigt Hill
#
# Bulk Modulus (GPa) = 51.94398 58.96458 55.45428
# Shear Modulus (GPa) = 34.53074 36.75245 35.64159
#
# Velocity S-wave (km/s) = 3.90599 4.02969 3.96832
# Velocity P-wave (km/s) = 6.57973 6.90678 6.74524
#
# Compressibility (1/GPa) = 0.01925151
#
# Stress axis : x y z
#
# Youngs Moduli (GPa) = 101.70497 71.42855 84.69215
#
# Poissons Ratio (x) = 0.20204 0.17333
# Poissons Ratio (y) = 0.28768 0.28109
# Poissons Ratio (z) = 0.20815 0.23707
#
# Static dielectric constant tensor:
#      x y z
#    x 4.049990 0.000000 -0.349350 
#    y 0.000000 4.110780 0.000000 
#    z -0.349350 0.000000 3.890190 
# 
# 
# High freq. dielectric constant tensor:
#      x y z
#    x 1.900110 0.000000 -0.017060 
#    y 0.000000 1.900530 0.000000 
#    z -0.017060 0.000000 1.899800 
# 
# From -- ./inp_files/97169.got.cif
#   From: 2010.06.25/outbox.cif.g09.slc.cpg/sg13_49_cif.got.tgz:97169.got - 2010.06.28 04:50:58.
