data_PCOD8122302
_publ_section_title
;
Structure prediction by ZEFSAII (Michael W. Deem and Ramdas Pophale) SiO2 
 PCOD8122302
Probable space group: P 2/C
;
_chemical_formula_sum "Si O2"
_cell_formula_units_Z 30
_cell_length_a 15.023133
_cell_length_b 12.157875
_cell_length_c 11.083095
_cell_angle_alpha 90.000000
_cell_angle_beta 47.758992
_cell_angle_gamma 90.000000
_cell_volume 1498.652212
_symmetry_space_group_name_H-M "P 2/C"
_symmetry_group_IT_number 13
_symmetry_cell_setting 'monoclinic'
loop_
_space_group_symop_operation_xyz
x,y,z
-x,y,1/2-z
-x,-y,-z
x,-y,1/2+z
loop_
_atom_site_type_symbol
_atom_site_label
_atom_site_fract_x
_atom_site_fract_y
_atom_site_fract_z
Si Si1 0.835017 0.664186 0.054654
Si Si2 0.000000 0.536605 0.750000
Si Si3 0.306669 0.001383 0.085075
Si Si4 0.599755 0.231213 0.061855
Si Si5 0.378760 0.402868 0.915192
Si Si6 0.489038 0.189742 0.919574
Si Si7 0.774008 0.415014 0.865560
Si Si8 0.260758 0.897256 0.380224
O O1 0.721595 0.607270 0.095347
O O2 0.831791 0.628784 0.193426
O O3 0.830718 0.796096 0.048351
O O4 0.963864 0.620047 0.890421
O O5 0.113848 0.458851 0.662060
O O6 0.241734 0.970797 0.273379
O O7 0.363116 0.895198 0.971370
O O8 0.407826 0.087817 0.035078
O O9 0.229154 0.047121 0.040168
O O10 0.500000 0.254988 0.250000
O O11 0.548318 0.256025 0.976083
O O12 0.710775 0.312164 0.990306
O O13 0.500000 0.456010 0.750000
O O14 0.404672 0.279927 0.935305
O O15 0.324586 0.486892 0.064084
O O16 0.599215 0.143420 0.736770
#
# Coordination Sequence:
#
# PCOD8122302 Si02
#       8
#     4   2   4   4   4   4   4   4
#     4  11  21  43  61  87 118 162 213 259 316 371
#     4  10  26  42  68  82 108 164 220 274 312 372
#     4  11  20  34  58  94 135 175 200 242 296 387
#     4  11  21  34  54  94 139 166 194 247 313 373
#     4  11  20  34  58  91 129 162 197 242 311 385
#     4  11  19  33  54  91 133 174 200 234 294 384
#     4  11  23  39  61  89 118 162 208 264 316 368
#     4  11  20  35  61  88 131 165 208 245 303 373
#
# _framework density 20.017987000000002
#
# number of rings (size 3 to 8) (size 9 to 14) (size 15 to 20)
#    0.000    1.067    5.333    4.400    0.000    4.267 
#    0.000    0.000    0.000    1.600    0.000    0.000 
#    0.000    0.000    0.000    0.000    0.000    0.000 
#
# Total GULP energy -371645.815451 kJ/mol
# GULP energy per Si atom -12388.193848 kJ/mol
# Density = 1.997243 g / cm^3
# Si number density = 20.017987 Si / 1000 Ang^3
#
#
#
# Elastic Constant Matrix: (Units=GPa)
#
#
# Indices 1 2 3 4 5 6 
#
# 1 52.4698 40.6140 35.8228 0.0000 5.7783 0.0000
# 2 40.6140 113.8652 51.1509 0.0000 -3.7388 0.0000
# 3 35.8228 51.1509 86.4069 0.0000 1.9297 0.0000
# 4 0.0000 0.0000 0.0000 19.4668 0.0000 5.4823
# 5 5.7783 -3.7388 1.9297 0.0000 28.1308 0.0000
# 6 0.0000 0.0000 0.0000 5.4823 0.0000 27.5608
#
#
#
# Elastic Compliance Matrix: (Units=1/GPa)
#
#
# Indices 1 2 3 4 5 6 
#
# 1 0.031478 -0.007713 -0.008330 0.000000 -0.006919 0.000000
# 2 -0.007713 0.013976 -0.005161 0.000000 0.003796 0.000000
# 3 -0.008330 -0.005161 0.018086 0.000000 -0.000216 0.000000
# 4 0.000000 0.000000 0.000000 0.054418 0.000000 -0.010825
# 5 -0.006919 0.003796 -0.000216 0.000000 0.037489 0.000000
# 6 0.000000 0.000000 0.000000 -0.010825 0.000000 0.038437
#
#
# Mechanical properties :
#
#
# Convention : Reuss Voigt Hill
#
# Bulk Modulus (GPa) = 47.31805 56.43524 51.87665
# Shear Modulus (GPa) = 20.54777 23.37529 21.96153
#
# Velocity S-wave (km/s) = 3.20733 3.42089 3.31583
# Velocity P-wave (km/s) = 6.11596 6.62245 6.37424
#
# Compressibility (1/GPa) = 0.02113358
#
# Stress axis : x y z
#
# Youngs Moduli (GPa) = 31.76852 71.54921 55.29008
#
# Poissons Ratio (x) = 0.55185 0.46055
# Poissons Ratio (y) = 0.24503 0.28534
# Poissons Ratio (z) = 0.26462 0.36925
#
# Static dielectric constant tensor:
#      x y z
#    x 3.240360 0.000000 0.051430 
#    y 0.000000 3.936040 0.000000 
#    z 0.051430 0.000000 3.698740 
# 
# 
# High freq. dielectric constant tensor:
#      x y z
#    x 1.754950 0.000000 0.021690 
#    y 0.000000 1.796480 0.000000 
#    z 0.021690 0.000000 1.771930 
# 
# From -- ./inp_files/39175.got.cif
#   From: 2010.06.25/outbox.cif.g09.slc.cpg/sg13_20_cif.got.tgz:39175.got - 2010.06.28 04:50:58.
