data_PCOD8122833
_publ_section_title
;
Structure prediction by ZEFSAII (Michael W. Deem and Ramdas Pophale) SiO2 
 PCOD8122833
Probable space group: P 2/C
;
_chemical_formula_sum "Si O2"
_cell_formula_units_Z 14
_cell_length_a 9.435302
_cell_length_b 8.881018
_cell_length_c 10.190793
_cell_angle_alpha 90.000000
_cell_angle_beta 45.294342
_cell_angle_gamma 90.000000
_cell_volume 606.919637
_symmetry_space_group_name_H-M "P 2/C"
_symmetry_group_IT_number 13
_symmetry_cell_setting 'monoclinic'
loop_
_space_group_symop_operation_xyz
x,y,z
-x,y,1/2-z
-x,-y,-z
x,-y,1/2+z
loop_
_atom_site_type_symbol
_atom_site_label
_atom_site_fract_x
_atom_site_fract_y
_atom_site_fract_z
Si Si1 0.290804 0.684583 0.540496
Si Si2 0.000000 0.580308 0.250000
Si Si3 0.127012 0.041293 0.289343
Si Si4 0.272643 0.247450 0.760555
O O1 0.204972 0.786296 0.717347
O O2 0.527720 0.657473 0.400689
O O3 0.237537 0.770112 0.439793
O O4 0.189961 0.522417 0.592101
O O5 0.073661 0.679089 0.325832
O O6 0.000000 0.988702 0.250000
O O7 0.309417 0.920943 0.179324
O O8 0.000000 0.000000 0.500000
#
# Coordination Sequence:
#
# PCOD8122833 Si02
#       4
#     4   2   4   4
#     4  11  24  43  65  98 133 170 220 272 324 386
#     4  12  22  42  66  94 134 178 216 264 328 388
#     4  12  22  43  70  94 130 174 219 275 328 383
#     4  11  24  41  67  96 132 174 218 270 325 389
#
# _framework density 23.067302000000002
#
# number of rings (size 3 to 8) (size 9 to 14) (size 15 to 20)
#    0.000    0.571    5.714    2.571    0.000    0.000 
#    0.000    0.000    0.000    0.000    0.000    0.000 
#    0.000    0.000    0.000    0.000    0.000    0.000 
#
# Total GULP energy -173438.256825 kJ/mol
# GULP energy per Si atom -12388.446916 kJ/mol
# Density = 2.301480 g / cm^3
# Si number density = 23.067302 Si / 1000 Ang^3
#
#
#
# Elastic Constant Matrix: (Units=GPa)
#
#
# Indices 1 2 3 4 5 6 
#
# 1 117.1943 33.4060 37.9237 0.0000 2.2423 0.0000
# 2 33.4060 94.0860 24.8070 0.0000 0.5340 0.0000
# 3 37.9237 24.8070 115.2208 0.0000 2.6885 0.0000
# 4 0.0000 0.0000 0.0000 30.9128 0.0000 -4.7525
# 5 2.2423 0.5340 2.6885 0.0000 35.1712 0.0000
# 6 0.0000 0.0000 0.0000 -4.7525 0.0000 37.4458
#
#
#
# Elastic Compliance Matrix: (Units=1/GPa)
#
#
# Indices 1 2 3 4 5 6 
#
# 1 0.010259 -0.002918 -0.002739 0.000000 -0.000400 0.000000
# 2 -0.002918 0.012098 -0.001647 0.000000 0.000128 0.000000
# 3 -0.002739 -0.001647 0.009948 0.000000 -0.000561 0.000000
# 4 0.000000 0.000000 0.000000 0.032993 0.000000 0.004187
# 5 -0.000400 0.000128 -0.000561 0.000000 0.028499 0.000000
# 6 0.000000 0.000000 0.000000 0.004187 0.000000 0.027237
#
#
# Mechanical properties :
#
#
# Convention : Reuss Voigt Hill
#
# Bulk Modulus (GPa) = 56.50799 57.64162 57.07480
# Shear Modulus (GPa) = 35.32554 36.06358 35.69456
#
# Velocity S-wave (km/s) = 3.91757 3.95828 3.93798
# Velocity P-wave (km/s) = 6.70920 6.77742 6.74339
#
# Compressibility (1/GPa) = 0.01769661
#
# Stress axis : x y z
#
# Youngs Moduli (GPa) = 97.47945 82.65666 100.52035
#
# Poissons Ratio (x) = 0.24119 0.27532
# Poissons Ratio (y) = 0.28444 0.16559
# Poissons Ratio (z) = 0.26699 0.13616
#
# Static dielectric constant tensor:
#      x y z
#    x 4.407630 0.000000 -0.157930 
#    y 0.000000 4.309640 0.000000 
#    z -0.157930 0.000000 3.488590 
# 
# 
# High freq. dielectric constant tensor:
#      x y z
#    x 1.924180 0.000000 -0.000590 
#    y 0.000000 1.916660 0.000000 
#    z -0.000590 0.000000 1.897490 
# 
# From -- ./inp_files/10574.got.cif
#   From: 2010.06.25/outbox.cif.g09.slc.cpg/sg13_6_cif.got.tgz:10574.got - 2010.06.28 04:50:58.
