data_PCOD8122368
_publ_section_title
;
Structure prediction by ZEFSAII (Michael W. Deem and Ramdas Pophale) SiO2 
 PCOD8122368
Probable space group: P 2/C
;
_chemical_formula_sum "Si O2"
_cell_formula_units_Z 20
_cell_length_a 15.426510
_cell_length_b 5.425425
_cell_length_c 20.239706
_cell_angle_alpha 90.000000
_cell_angle_beta 29.580366
_cell_angle_gamma 90.000000
_cell_volume 836.217798
_symmetry_space_group_name_H-M "P 2/C"
_symmetry_group_IT_number 13
_symmetry_cell_setting 'monoclinic'
loop_
_space_group_symop_operation_xyz
x,y,z
-x,y,1/2-z
-x,-y,-z
x,-y,1/2+z
loop_
_atom_site_type_symbol
_atom_site_label
_atom_site_fract_x
_atom_site_fract_y
_atom_site_fract_z
Si Si1 0.647953 0.881873 0.780864
Si Si2 0.189721 0.624362 0.278839
Si Si3 0.830348 0.455214 0.961310
Si Si4 0.500000 0.677416 0.750000
Si Si5 0.289315 0.834635 0.081807
Si Si6 0.000000 0.179123 0.250000
O O1 0.750667 0.627691 0.726355
O O2 0.576901 0.862513 0.753838
O O3 0.760172 0.132090 0.712268
O O4 0.490711 0.914488 0.938613
O O5 0.275698 0.628907 0.148215
O O6 0.978778 0.628256 0.414561
O O7 0.792815 0.242790 0.933596
O O8 0.892202 0.686230 0.878439
O O9 0.650040 0.503262 0.120868
O O10 0.151514 0.046818 0.193508
#
# Coordination Sequence:
#
# PCOD8122368 Si02
#       6
#     4   4   4   2   4   2
#     4  11  28  44  73 103 151 192 239 306 360 434
#     4  12  23  45  72 112 144 186 243 308 359 423
#     4  11  24  44  76 103 152 192 241 298 364 442
#     4  10  28  54  64 108 144 208 242 292 374 444
#     4  11  23  42  69 113 143 190 237 300 369 430
#     4  12  20  42  78 106 140 196 242 294 356 432
#
# _framework density 23.917213
#
# number of rings (size 3 to 8) (size 9 to 14) (size 15 to 20)
#    0.000    0.800    4.000    2.400    5.600    2.400 
#    3.600    0.000    0.000    0.000    0.000    0.000 
#    0.000    0.000    0.000    0.000    0.000    0.000 
#
# Total GULP energy -247913.690841 kJ/mol
# GULP energy per Si atom -12395.684542 kJ/mol
# Density = 2.386278 g / cm^3
# Si number density = 23.917213 Si / 1000 Ang^3
#
#
#
# Elastic Constant Matrix: (Units=GPa)
#
#
# Indices 1 2 3 4 5 6 
#
# 1 127.7680 46.4516 41.4175 0.0000 -3.1125 0.0000
# 2 46.4516 128.8982 38.5829 0.0000 -10.5467 0.0000
# 3 41.4175 38.5829 136.4830 0.0000 6.8462 0.0000
# 4 0.0000 0.0000 0.0000 13.1925 0.0000 -1.3138
# 5 -3.1125 -10.5467 6.8462 0.0000 33.7790 0.0000
# 6 0.0000 0.0000 0.0000 -1.3138 0.0000 16.1805
#
#
#
# Elastic Compliance Matrix: (Units=1/GPa)
#
#
# Indices 1 2 3 4 5 6 
#
# 1 0.009533 -0.002760 -0.002135 0.000000 0.000450 0.000000
# 2 -0.002760 0.009622 -0.002042 0.000000 0.003164 0.000000
# 3 -0.002135 -0.002042 0.008682 0.000000 -0.002594 0.000000
# 4 0.000000 0.000000 0.000000 0.076419 0.000000 0.006205
# 5 0.000450 0.003164 -0.002594 0.000000 0.031159 0.000000
# 6 0.000000 0.000000 0.000000 0.006205 0.000000 0.062307
#
#
# Mechanical properties :
#
#
# Convention : Reuss Voigt Hill
#
# Bulk Modulus (GPa) = 71.60807 71.78368 71.69587
# Shear Modulus (GPa) = 23.12137 30.41020 26.76579
#
# Velocity S-wave (km/s) = 3.11259 3.56965 3.34893
# Velocity P-wave (km/s) = 6.55154 6.86064 6.70787
#
# Compressibility (1/GPa) = 0.01396491
#
# Stress axis : x y z
#
# Youngs Moduli (GPa) = 104.89763 103.92336 115.17863
#
# Poissons Ratio (x) = 0.28678 0.24595
# Poissons Ratio (y) = 0.28947 0.23514
# Poissons Ratio (z) = 0.22400 0.21216
#
# Static dielectric constant tensor:
#      x y z
#    x 4.604980 0.000000 -0.235220 
#    y 0.000000 3.995290 0.000000 
#    z -0.235220 0.000000 4.648070 
# 
# 
# High freq. dielectric constant tensor:
#      x y z
#    x 1.964990 0.000000 -0.013800 
#    y 0.000000 1.930780 0.000000 
#    z -0.013800 0.000000 1.952450 
# 
# From -- ./inp_files/56438.got.cif
#   From: 2010.06.25/outbox.cif.g09.slc.cpg/sg13_29_cif.got.tgz:56438.got - 2010.06.28 04:50:58.
