data_PCOD8122040
_publ_section_title
;
Structure prediction by ZEFSAII (Michael W. Deem and Ramdas Pophale) SiO2 
 PCOD8122040
Probable space group: P 2/C
;
_chemical_formula_sum "Si O2"
_cell_formula_units_Z 20
_cell_length_a 21.768251
_cell_length_b 4.824442
_cell_length_c 9.734369
_cell_angle_alpha 90.000000
_cell_angle_beta 45.466026
_cell_angle_gamma 90.000000
_cell_volume 728.731046
_symmetry_space_group_name_H-M "P 2/C"
_symmetry_group_IT_number 13
_symmetry_cell_setting 'monoclinic'
loop_
_space_group_symop_operation_xyz
x,y,z
-x,y,1/2-z
-x,-y,-z
x,-y,1/2+z
loop_
_atom_site_type_symbol
_atom_site_label
_atom_site_fract_x
_atom_site_fract_y
_atom_site_fract_z
Si Si1 0.149547 0.492560 0.849120
Si Si2 0.279852 0.205298 0.307631
Si Si3 0.500000 0.420963 0.750000
Si Si4 0.000000 0.303854 0.750000
Si Si5 0.606741 0.695772 0.335950
Si Si6 0.874848 0.991381 0.777190
O O1 0.241879 0.635075 0.733949
O O2 0.157495 0.167329 0.805301
O O3 0.113662 0.666179 0.774256
O O4 0.081023 0.508813 0.079971
O O5 0.324398 0.459523 0.319810
O O6 0.200207 0.040284 0.496606
O O7 0.352713 0.977805 0.167326
O O8 0.551905 0.602130 0.555226
O O9 0.442307 0.237259 0.732912
O O10 0.968223 0.103117 0.677225
#
# Coordination Sequence:
#
# PCOD8122040 Si02
#       6
#     4   4   2   2   4   4
#     4  11  24  42  67 100 135 188 231 294 349 418
#     4  11  26  42  72 101 139 182 236 286 358 421
#     4  10  28  48  76 108 144 186 240 284 372 424
#     4  10  24  42  64 100 140 180 242 282 356 412
#     4  11  26  48  74 106 143 186 232 296 349 440
#     4  11  24  42  67 100 135 188 231 294 349 418
#
# _framework density 27.444969
#
# number of rings (size 3 to 8) (size 9 to 14) (size 15 to 20)
#    0.000    1.200    0.000    3.600    8.400   11.200 
#    0.000    0.000    0.000    0.000    0.000    0.000 
#    0.000    0.000    0.000    0.000    0.000    0.000 
#
# Total GULP energy -247768.872208 kJ/mol
# GULP energy per Si atom -12388.443610 kJ/mol
# Density = 2.738250 g / cm^3
# Si number density = 27.444969 Si / 1000 Ang^3
#
#
#
# Elastic Constant Matrix: (Units=GPa)
#
#
# Indices 1 2 3 4 5 6 
#
# 1 100.9921 3.9548 38.5630 0.0000 7.6729 0.0000
# 2 3.9548 83.3455 4.3379 0.0000 0.0971 0.0000
# 3 38.5630 4.3379 67.7669 0.0000 25.2737 0.0000
# 4 0.0000 0.0000 0.0000 28.8069 0.0000 10.7204
# 5 7.6729 0.0971 25.2737 0.0000 37.4452 0.0000
# 6 0.0000 0.0000 0.0000 10.7204 0.0000 22.0092
#
#
#
# Elastic Compliance Matrix: (Units=1/GPa)
#
#
# Indices 1 2 3 4 5 6 
#
# 1 0.012916 -0.000175 -0.008488 0.000000 0.003083 0.000000
# 2 -0.000175 0.012053 -0.000900 0.000000 0.000612 0.000000
# 3 -0.008488 -0.000900 0.025385 0.000000 -0.015392 0.000000
# 4 0.000000 0.000000 0.000000 0.042400 0.000000 -0.020653
# 5 0.003083 0.000612 -0.015392 0.000000 0.036461 0.000000
# 6 0.000000 0.000000 0.000000 -0.020653 0.000000 0.055495
#
#
# Mechanical properties :
#
#
# Convention : Reuss Voigt Hill
#
# Bulk Modulus (GPa) = 32.02444 38.42399 35.22422
# Shear Modulus (GPa) = 23.33776 31.33549 27.33662
#
# Velocity S-wave (km/s) = 2.91924 3.38266 3.15945
# Velocity P-wave (km/s) = 4.80172 5.41177 5.11585
#
# Compressibility (1/GPa) = 0.03122615
#
# Stress axis : x y z
#
# Youngs Moduli (GPa) = 77.42593 82.96904 39.39357
#
# Poissons Ratio (x) = 0.01449 0.33439
# Poissons Ratio (y) = 0.01352 0.03547
# Poissons Ratio (z) = 0.65722 0.07471
#
# Static dielectric constant tensor:
#      x y z
#    x 5.535630 0.000000 -0.093430 
#    y 0.000000 4.805960 0.000000 
#    z -0.093430 0.000000 4.707360 
# 
# 
# High freq. dielectric constant tensor:
#      x y z
#    x 2.123970 0.000000 -0.003080 
#    y 0.000000 2.105620 0.000000 
#    z -0.003080 0.000000 2.096140 
# 
# From -- ./inp_files/23697.got.cif
#   From: 2010.06.25/outbox.cif.g09.slc.cpg/sg13_12_cif.got.tgz:23697.got - 2010.06.28 04:50:58.
