data_PCOD8122741
_publ_section_title
;
Structure prediction by ZEFSAII (Michael W. Deem and Ramdas Pophale) SiO2 
 PCOD8122741
Probable space group: P 2/C
;
_chemical_formula_sum "Si O2"
_cell_formula_units_Z 22
_cell_length_a 12.651729
_cell_length_b 11.481857
_cell_length_c 12.342649
_cell_angle_alpha 90.000000
_cell_angle_beta 144.910470
_cell_angle_gamma 90.000000
_cell_volume 1030.692850
_symmetry_space_group_name_H-M "P 2/C"
_symmetry_group_IT_number 13
_symmetry_cell_setting 'monoclinic'
loop_
_space_group_symop_operation_xyz
x,y,z
-x,y,1/2-z
-x,-y,-z
x,-y,1/2+z
loop_
_atom_site_type_symbol
_atom_site_label
_atom_site_fract_x
_atom_site_fract_y
_atom_site_fract_z
Si Si1 0.943195 0.621884 0.321198
Si Si2 0.581184 0.744221 0.524946
Si Si3 0.500000 0.388335 0.750000
Si Si4 0.283687 0.457830 0.231998
Si Si5 0.805041 0.139378 0.772292
Si Si6 0.071570 0.895080 0.691994
O O1 0.106233 0.611665 0.543940
O O2 0.000000 0.579037 0.250000
O O3 0.770533 0.545243 0.216229
O O4 0.890297 0.756855 0.273809
O O5 0.600957 0.695336 0.420009
O O6 0.566687 0.633819 0.595541
O O7 0.410637 0.832653 0.392585
O O8 0.767625 0.809719 0.710855
O O9 0.644397 0.469399 0.809387
O O10 0.840148 0.023826 0.732327
O O11 0.898899 0.121414 0.967744
O O12 0.000000 0.862945 0.750000
#
# Coordination Sequence:
#
# PCOD8122741 Si02
#       6
#     4   4   2   4   4   4
#     4  11  23  43  67  96 138 182 224 278 342 406
#     4  12  24  44  70 100 137 179 226 279 338 404
#     4  12  24  40  68 102 140 178 222 280 328 408
#     4  11  25  41  65 104 134 184 225 276 338 406
#     4  11  24  46  67 100 135 174 230 280 341 405
#     4  11  25  45  71  97 134 179 228 284 342 403
#
# _framework density 21.344864999999999
#
# number of rings (size 3 to 8) (size 9 to 14) (size 15 to 20)
#    0.000    0.727    3.636    3.818    2.545    0.727 
#    0.000    0.000    0.000    0.000    0.000    0.000 
#    0.000    0.000    0.000    0.000    0.000    0.000 
#
# Total GULP energy -272865.964968 kJ/mol
# GULP energy per Si atom -12402.998408 kJ/mol
# Density = 2.129628 g / cm^3
# Si number density = 21.344865 Si / 1000 Ang^3
#
#
#
# Elastic Constant Matrix: (Units=GPa)
#
#
# Indices 1 2 3 4 5 6 
#
# 1 114.2666 26.7087 14.7775 0.0000 8.9150 0.0000
# 2 26.7087 99.5646 21.6612 0.0000 11.3832 0.0000
# 3 14.7775 21.6612 79.0046 0.0000 12.1249 0.0000
# 4 0.0000 0.0000 0.0000 32.8290 0.0000 16.9932
# 5 8.9150 11.3832 12.1249 0.0000 30.9521 0.0000
# 6 0.0000 0.0000 0.0000 16.9932 0.0000 -68.6370
#
#
#
# Elastic Compliance Matrix: (Units=1/GPa)
#
#
# Indices 1 2 3 4 5 6 
#
# 1 0.009502 -0.002164 -0.000943 0.000000 -0.001572 0.000000
# 2 -0.002164 0.011435 -0.002320 0.000000 -0.002673 0.000000
# 3 -0.000943 -0.002320 0.014148 0.000000 -0.004417 0.000000
# 4 0.000000 0.000000 0.000000 0.027001 0.000000 0.006685
# 5 -0.001572 -0.002673 -0.004417 0.000000 0.035474 0.000000
# 6 0.000000 0.000000 0.000000 0.006685 0.000000 -0.012914
#
#
# Mechanical properties :
#
#
# Convention : Reuss Voigt Hill
#
# Bulk Modulus (GPa) = 41.27034 46.57006 43.92020
# Shear Modulus (GPa) = 48.27399 14.34140 31.30769
#
# Velocity S-wave (km/s) = 4.76081 2.59490 3.83398
# Velocity P-wave (km/s) = 7.04254 5.55367 6.34195
#
# Compressibility (1/GPa) = 0.02423048
#
# Stress axis : x y z
#
# Youngs Moduli (GPa) = 105.24277 87.45359 70.68205
#
# Poissons Ratio (x) = 0.18926 0.06663
# Poissons Ratio (y) = 0.22776 0.16399
# Poissons Ratio (z) = 0.09922 0.20290
#
# Static dielectric constant tensor:
#      x y z
#    x 3.730490 0.000000 0.047900 
#    y 0.000000 4.004060 0.000000 
#    z 0.047900 0.000000 3.840210 
# 
# 
# High freq. dielectric constant tensor:
#      x y z
#    x 1.831900 0.000000 0.003960 
#    y 0.000000 1.849790 0.000000 
#    z 0.003960 0.000000 1.847490 
# 
# From -- ./inp_files/34043.got.cif
#   From: 2010.06.25/outbox.cif.g09.slc.cpg/sg13_18_cif.got.tgz:34043.got - 2010.06.28 04:50:58.
