data_PCOD8122749
_publ_section_title
;
Structure prediction by ZEFSAII (Michael W. Deem and Ramdas Pophale) SiO2 
 PCOD8122749
Probable space group: P 2/C
;
_chemical_formula_sum "Si O2"
_cell_formula_units_Z 14
_cell_length_a 10.100186
_cell_length_b 5.369270
_cell_length_c 11.120921
_cell_angle_alpha 90.000000
_cell_angle_beta 100.039988
_cell_angle_gamma 90.000000
_cell_volume 593.858908
_symmetry_space_group_name_H-M "P 2/C"
_symmetry_group_IT_number 13
_symmetry_cell_setting 'monoclinic'
loop_
_space_group_symop_operation_xyz
x,y,z
-x,y,1/2-z
-x,-y,-z
x,-y,1/2+z
loop_
_atom_site_type_symbol
_atom_site_label
_atom_site_fract_x
_atom_site_fract_y
_atom_site_fract_z
Si Si1 0.844831 0.139489 0.195772
Si Si2 0.720151 0.628776 0.103706
Si Si3 0.620591 0.188620 0.348488
Si Si4 0.500000 0.270608 0.750000
O O1 0.815536 0.385342 0.110236
O O2 0.763482 0.164107 0.306558
O O3 0.000000 0.127732 0.250000
O O4 0.804716 0.886087 0.120609
O O5 0.625929 0.590766 0.205542
O O6 0.632031 0.641526 0.967901
O O7 0.500000 0.323768 0.250000
O O8 0.562619 0.910877 0.364491
#
# Coordination Sequence:
#
# PCOD8122749 Si02
#       4
#     4   4   4   2
#     4  11  26  43  64  97 132 173 218 259 323 388
#     4  11  23  43  69  94 134 167 214 272 320 379
#     4   9  22  43  66 102 124 173 212 269 323 383
#     4   8  20  38  66 100 126 160 214 266 324 376
#
# _framework density 23.574622999999999
#
# number of rings (size 3 to 8) (size 9 to 14) (size 15 to 20)
#    0.857    1.143    0.000    1.714    2.000    8.000 
#    0.000    0.000    0.000    0.000    0.000    0.000 
#    0.000    0.000    0.000    0.000    0.000    0.000 
#
# Total GULP energy -173444.686177 kJ/mol
# GULP energy per Si atom -12388.906155 kJ/mol
# Density = 2.352097 g / cm^3
# Si number density = 23.574623 Si / 1000 Ang^3
#
#
#
# Elastic Constant Matrix: (Units=GPa)
#
#
# Indices 1 2 3 4 5 6 
#
# 1 161.8059 54.7845 40.5820 0.0000 23.2227 0.0000
# 2 54.7845 183.9885 28.1522 0.0000 22.3561 0.0000
# 3 40.5820 28.1522 90.6431 0.0000 22.8482 0.0000
# 4 0.0000 0.0000 0.0000 193.3988 0.0000 83.0518
# 5 23.2227 22.3561 22.8482 0.0000 27.0417 0.0000
# 6 0.0000 0.0000 0.0000 83.0518 0.0000 67.7490
#
#
#
# Elastic Compliance Matrix: (Units=1/GPa)
#
#
# Indices 1 2 3 4 5 6 
#
# 1 0.007744 -0.001549 -0.002074 0.000000 -0.003617 0.000000
# 2 -0.001549 0.006396 -0.000375 0.000000 -0.003640 0.000000
# 3 -0.002074 -0.000375 0.014676 0.000000 -0.010308 0.000000
# 4 0.000000 0.000000 0.000000 0.010918 0.000000 -0.013385
# 5 -0.003617 -0.003640 -0.010308 0.000000 0.051806 0.000000
# 6 0.000000 0.000000 0.000000 -0.013385 0.000000 0.031168
#
#
# Mechanical properties :
#
#
# Convention : Reuss Voigt Hill
#
# Bulk Modulus (GPa) = 48.03311 75.94165 61.98738
# Shear Modulus (GPa) = 36.32513 78.49915 57.41214
#
# Velocity S-wave (km/s) = 3.92963 5.77672 4.94027
# Velocity P-wave (km/s) = 6.40379 8.76226 7.67417
#
# Compressibility (1/GPa) = 0.02081897
#
# Stress axis : x y z
#
# Youngs Moduli (GPa) = 129.13080 156.34441 68.13868
#
# Poissons Ratio (x) = 0.24217 0.14134
# Poissons Ratio (y) = 0.20002 0.02558
# Poissons Ratio (z) = 0.26785 0.05869
#
# Static dielectric constant tensor:
#      x y z
#    x 3.985050 0.000000 0.069820 
#    y 0.000000 4.756190 0.000000 
#    z 0.069820 0.000000 3.885910 
# 
# 
# High freq. dielectric constant tensor:
#      x y z
#    x 1.929340 0.000000 0.002160 
#    y 0.000000 1.983050 0.000000 
#    z 0.002160 0.000000 1.902630 
# 
# From -- ./inp_files/27169.got.cif
#   From: 2010.06.25/outbox.cif.g09.slc.cpg/sg13_14_cif.got.tgz:27169.got - 2010.06.28 04:50:58.
