data_PCOD8122740
_publ_section_title
;
Structure prediction by ZEFSAII (Michael W. Deem and Ramdas Pophale) SiO2 
 PCOD8122740
Probable space group: P 2/C
;
_chemical_formula_sum "Si O2"
_cell_formula_units_Z 22
_cell_length_a 6.858404
_cell_length_b 11.508178
_cell_length_c 14.160700
_cell_angle_alpha 90.000000
_cell_angle_beta 86.572395
_cell_angle_gamma 90.000000
_cell_volume 1115.672603
_symmetry_space_group_name_H-M "P 2/C"
_symmetry_group_IT_number 13
_symmetry_cell_setting 'monoclinic'
loop_
_space_group_symop_operation_xyz
x,y,z
-x,y,1/2-z
-x,-y,-z
x,-y,1/2+z
loop_
_atom_site_type_symbol
_atom_site_label
_atom_site_fract_x
_atom_site_fract_y
_atom_site_fract_z
Si Si1 0.983859 0.424662 0.406357
Si Si2 0.500000 0.925562 0.250000
Si Si3 0.723912 0.491869 0.757326
Si Si4 0.310580 0.991500 0.439343
Si Si5 0.180138 0.763192 0.190610
Si Si6 0.988622 0.810993 0.497822
O O1 0.786335 0.454683 0.355817
O O2 0.000000 0.500000 0.500000
O O3 0.166875 0.451298 0.334092
O O4 0.970769 0.287338 0.426120
O O5 0.375053 0.000798 0.327613
O O6 0.364043 0.847638 0.187008
O O7 0.500000 0.518875 0.750000
O O8 0.769113 0.355248 0.756945
O O9 0.193928 0.871407 0.463123
O O10 0.500000 0.000000 0.500000
O O11 0.162916 0.096733 0.457236
O O12 0.114046 0.743430 0.085487
O O13 0.000000 0.824308 0.250000
#
# Coordination Sequence:
#
# PCOD8122740 Si02
#       6
#     4   2   4   4   4   4
#     4  11  23  43  67  95 135 176 213 272 332 395
#     4  12  24  40  70  96 128 168 224 286 318 382
#     4  11  24  41  63 101 135 173 222 264 332 397
#     4  11  25  44  66  98 128 171 223 271 332 388
#     4  12  20  39  69  95 127 168 223 275 322 384
#     4  11  24  44  67  93 136 174 217 274 330 388
#
# _framework density 19.719045999999999
#
# number of rings (size 3 to 8) (size 9 to 14) (size 15 to 20)
#    0.000    0.727    8.182    0.000    0.000    2.182 
#    8.182    0.000    0.000    0.000    0.000    0.000 
#    0.000    0.000    0.000    0.000    0.000    0.000 
#
# Total GULP energy -272828.306991 kJ/mol
# GULP energy per Si atom -12401.286681 kJ/mol
# Density = 1.967417 g / cm^3
# Si number density = 19.719046 Si / 1000 Ang^3
#
#
#
# Elastic Constant Matrix: (Units=GPa)
#
#
# Indices 1 2 3 4 5 6 
#
# 1 150.2883 36.1130 57.3179 0.0000 7.6424 0.0000
# 2 36.1130 88.4171 46.2848 0.0000 -5.3145 0.0000
# 3 57.3179 46.2848 139.6596 0.0000 -3.2211 0.0000
# 4 0.0000 0.0000 0.0000 34.0720 0.0000 2.6604
# 5 7.6424 -5.3145 -3.2211 0.0000 35.2674 0.0000
# 6 0.0000 0.0000 0.0000 2.6604 0.0000 22.9839
#
#
#
# Elastic Compliance Matrix: (Units=1/GPa)
#
#
# Indices 1 2 3 4 5 6 
#
# 1 0.008339 -0.002091 -0.002784 0.000000 -0.002377 0.000000
# 2 -0.002091 0.014305 -0.003830 0.000000 0.002259 0.000000
# 3 -0.002784 -0.003830 0.009593 0.000000 0.000902 0.000000
# 4 0.000000 0.000000 0.000000 0.029617 0.000000 -0.003428
# 5 -0.002377 0.002259 0.000902 0.000000 0.029293 0.000000
# 6 0.000000 0.000000 0.000000 -0.003428 0.000000 0.043906
#
#
# Mechanical properties :
#
#
# Convention : Reuss Voigt Hill
#
# Bulk Modulus (GPa) = 67.45165 73.08850 70.27007
# Shear Modulus (GPa) = 31.76480 34.37460 33.06970
#
# Velocity S-wave (km/s) = 4.01792 4.17972 4.09961
# Velocity P-wave (km/s) = 7.47031 7.77424 7.62379
#
# Compressibility (1/GPa) = 0.01482543
#
# Stress axis : x y z
#
# Youngs Moduli (GPa) = 119.91670 69.90458 104.24062
#
# Poissons Ratio (x) = 0.14620 0.29022
# Poissons Ratio (y) = 0.25080 0.39929
# Poissons Ratio (z) = 0.33387 0.26777
#
# Static dielectric constant tensor:
#      x y z
#    x 4.025550 0.000000 0.123470 
#    y 0.000000 3.523000 0.000000 
#    z 0.123470 0.000000 3.691530 
# 
# 
# High freq. dielectric constant tensor:
#      x y z
#    x 1.781500 0.000000 0.000850 
#    y 0.000000 1.760410 0.000000 
#    z 0.000850 0.000000 1.777630 
# 
# From -- ./inp_files/43605.got.cif
#   From: 2010.06.25/outbox.cif.g09.slc.cpg/sg13_22_cif.got.tgz:43605.got - 2010.06.28 04:50:58.
