data_PCOD8122877
_publ_section_title
;
Structure prediction by ZEFSAII (Michael W. Deem and Ramdas Pophale) SiO2 
 PCOD8122877
Probable space group: P 2/C
;
_chemical_formula_sum "Si O2"
_cell_formula_units_Z 26
_cell_length_a 10.896076
_cell_length_b 6.627836
_cell_length_c 18.518792
_cell_angle_alpha 90.000000
_cell_angle_beta 67.172466
_cell_angle_gamma 90.000000
_cell_volume 1232.631315
_symmetry_space_group_name_H-M "P 2/C"
_symmetry_group_IT_number 13
_symmetry_cell_setting 'monoclinic'
loop_
_space_group_symop_operation_xyz
x,y,z
-x,y,1/2-z
-x,-y,-z
x,-y,1/2+z
loop_
_atom_site_type_symbol
_atom_site_label
_atom_site_fract_x
_atom_site_fract_y
_atom_site_fract_z
Si Si1 0.200917 0.850492 0.094011
Si Si2 0.402428 0.782229 0.171182
Si Si3 0.884993 0.461500 0.469205
Si Si4 0.012522 0.168324 0.327026
Si Si5 0.318825 0.131452 0.951243
Si Si6 0.500000 0.437893 0.250000
Si Si7 0.304420 0.093041 0.309840
O O1 0.271966 0.771508 0.150753
O O2 0.172364 0.669859 0.046461
O O3 0.061554 0.953818 0.147153
O O4 0.293225 0.011186 0.031063
O O5 0.524131 0.832717 0.090405
O O6 0.431719 0.569070 0.202596
O O7 0.389129 0.951386 0.236270
O O8 0.761406 0.341508 0.531932
O O9 0.000000 0.500000 0.500000
O O10 0.948961 0.336818 0.390713
O O11 0.167324 0.145003 0.304214
O O12 0.000000 0.253509 0.250000
O O13 0.267982 0.012455 0.892972
O O14 0.384608 0.297203 0.309268
#
# Coordination Sequence:
#
# PCOD8122877 Si02
#       7
#     4   4   4   4   4   2   4
#     4  11  26  45  70 100 139 178 229 290 343 409
#     4  12  25  44  67 105 135 181 238 277 344 412
#     4  11  26  45  68 105 137 179 237 278 346 417
#     4  11  25  44  71  99 136 185 222 288 349 403
#     4  11  24  45  68  98 137 186 222 284 352 406
#     4  12  26  40  72 102 134 186 232 286 340 404
#     4  12  24  46  71  97 143 177 232 279 344 416
#
# _framework density 21.09309
#
# number of rings (size 3 to 8) (size 9 to 14) (size 15 to 20)
#    0.000    0.615    4.615    2.308    6.462    4.923 
#    0.000    0.000    0.000    0.000    0.000    0.000 
#    0.000    0.000    0.000    0.000    0.000    0.000 
#
# Total GULP energy -322520.561778 kJ/mol
# GULP energy per Si atom -12404.636991 kJ/mol
# Density = 2.104508 g / cm^3
# Si number density = 21.093090 Si / 1000 Ang^3
#
#
#
# Elastic Constant Matrix: (Units=GPa)
#
#
# Indices 1 2 3 4 5 6 
#
# 1 87.4687 24.1857 10.9538 0.0000 0.0839 0.0000
# 2 24.1857 97.8125 24.8192 0.0000 -2.9131 0.0000
# 3 10.9538 24.8192 87.1318 0.0000 -3.5543 0.0000
# 4 0.0000 0.0000 0.0000 49.5332 0.0000 8.0631
# 5 0.0839 -2.9131 -3.5543 0.0000 44.8299 0.0000
# 6 0.0000 0.0000 0.0000 8.0631 0.0000 36.8805
#
#
#
# Elastic Compliance Matrix: (Units=1/GPa)
#
#
# Indices 1 2 3 4 5 6 
#
# 1 0.012318 -0.002865 -0.000743 0.000000 -0.000268 0.000000
# 2 -0.002865 0.011696 -0.002950 0.000000 0.000532 0.000000
# 3 -0.000743 -0.002950 0.012443 0.000000 0.000796 0.000000
# 4 0.000000 0.000000 0.000000 0.020933 0.000000 -0.004577
# 5 -0.000268 0.000532 0.000796 0.000000 0.022405 0.000000
# 6 0.000000 0.000000 0.000000 -0.004577 0.000000 0.028115
#
#
# Mechanical properties :
#
#
# Convention : Reuss Voigt Hill
#
# Bulk Modulus (GPa) = 42.84326 43.59227 43.21777
# Shear Modulus (GPa) = 38.81737 40.41233 39.61485
#
# Velocity S-wave (km/s) = 4.29451 4.38185 4.33840
# Velocity P-wave (km/s) = 6.70418 6.80532 6.75494
#
# Compressibility (1/GPa) = 0.02334089
#
# Stress axis : x y z
#
# Youngs Moduli (GPa) = 81.18017 85.49612 80.36622
#
# Poissons Ratio (x) = 0.24497 0.05974
# Poissons Ratio (y) = 0.23260 0.23706
# Poissons Ratio (z) = 0.06035 0.25220
#
# Static dielectric constant tensor:
#      x y z
#    x 3.971060 0.000000 -0.048060 
#    y 0.000000 3.903840 0.000000 
#    z -0.048060 0.000000 3.903130 
# 
# 
# High freq. dielectric constant tensor:
#      x y z
#    x 1.840690 0.000000 -0.002870 
#    y 0.000000 1.831190 0.000000 
#    z -0.002870 0.000000 1.838520 
# 
# From -- ./inp_files/77328.got.cif
#   From: 2010.06.25/outbox.cif.g09.slc.cpg/sg13_39_cif.got.tgz:77328.got - 2010.06.28 04:50:58.
