data_PCOD8122387
_publ_section_title
;
Structure prediction by ZEFSAII (Michael W. Deem and Ramdas Pophale) SiO2 
 PCOD8122387
Probable space group: P 2/C
;
_chemical_formula_sum "Si O2"
_cell_formula_units_Z 28
_cell_length_a 27.671108
_cell_length_b 8.990718
_cell_length_c 8.066305
_cell_angle_alpha 90.000000
_cell_angle_beta 137.485798
_cell_angle_gamma 90.000000
_cell_volume 1356.114502
_symmetry_space_group_name_H-M "P 2/C"
_symmetry_group_IT_number 13
_symmetry_cell_setting 'monoclinic'
loop_
_space_group_symop_operation_xyz
x,y,z
-x,y,1/2-z
-x,-y,-z
x,-y,1/2+z
loop_
_atom_site_type_symbol
_atom_site_label
_atom_site_fract_x
_atom_site_fract_y
_atom_site_fract_z
Si Si1 0.188274 0.533501 0.779820
Si Si2 0.786975 0.031723 0.660420
Si Si3 0.644517 0.135804 0.696219
Si Si4 0.551210 0.908837 0.247004
Si Si5 0.955578 0.624917 0.483197
Si Si6 0.744025 0.694298 0.251796
Si Si7 0.855689 0.197748 0.536644
O O1 0.116398 0.440428 0.620772
O O2 0.253851 0.420364 0.898109
O O3 0.179151 0.645739 0.603296
O O4 0.202085 0.626827 0.978376
O O5 0.772270 0.142203 0.776422
O O6 0.805978 0.130864 0.552636
O O7 0.716476 0.936063 0.449839
O O8 0.853040 0.921585 0.879245
O O9 0.599045 0.191728 0.743158
O O10 0.665461 0.279839 0.636064
O O11 0.601804 0.019149 0.477536
O O12 0.500000 0.819816 0.250000
O O13 0.500000 0.000000 0.000000
O O14 0.935262 0.762196 0.307573
O O15 0.000000 0.500000 0.500000
O O16 0.000000 0.690464 0.750000
#
# Coordination Sequence:
#
# PCOD8122387 Si02
#       7
#     4   4   4   4   4   4   4
#     4  12  23  41  64  90 123 159 209 258 315 377
#     4  12  22  38  64  94 131 153 192 271 338 358
#     4  11  19  34  61  94 127 159 198 249 316 359
#     4   9  19  34  54  90 134 166 202 242 289 357
#     4  12  24  42  66  84 113 165 216 250 297 388
#     4  12  22  38  62  94 129 157 200 259 326 364
#     4  12  23  41  64  90 126 159 200 262 327 365
#
# _framework density 20.647224999999999
#
# number of rings (size 3 to 8) (size 9 to 14) (size 15 to 20)
#    0.000    0.571    8.571    0.000    0.000    0.000 
#    0.000    0.714    0.000    0.000    0.000   13.000 
#    0.000    0.000    0.000    0.000    0.000    0.000 
#
# Total GULP energy -346887.308619 kJ/mol
# GULP energy per Si atom -12388.832451 kJ/mol
# Density = 2.060023 g / cm^3
# Si number density = 20.647225 Si / 1000 Ang^3
#
#
#
# Elastic Constant Matrix: (Units=GPa)
#
#
# Indices 1 2 3 4 5 6 
#
# 1 117.0259 25.2132 -4.4088 0.0000 0.1319 0.0000
# 2 25.2132 64.9319 21.0248 0.0000 -3.5202 0.0000
# 3 -4.4088 21.0248 92.2811 0.0000 -8.7553 0.0000
# 4 0.0000 0.0000 0.0000 23.7238 0.0000 -3.4440
# 5 0.1319 -3.5202 -8.7553 0.0000 22.3379 0.0000
# 6 0.0000 0.0000 0.0000 -3.4440 0.0000 27.9096
#
#
#
# Elastic Compliance Matrix: (Units=1/GPa)
#
#
# Indices 1 2 3 4 5 6 
#
# 1 0.009490 -0.004141 0.001381 0.000000 -0.000167 0.000000
# 2 -0.004141 0.018464 -0.004286 0.000000 0.001255 0.000000
# 3 0.001381 -0.004286 0.012270 0.000000 0.004126 0.000000
# 4 0.000000 0.000000 0.000000 0.042921 0.000000 0.005296
# 5 -0.000167 0.001255 0.004126 0.000000 0.046583 0.000000
# 6 0.000000 0.000000 0.000000 0.005296 0.000000 0.036483
#
#
# Mechanical properties :
#
#
# Convention : Reuss Voigt Hill
#
# Bulk Modulus (GPa) = 38.26607 39.76634 39.01621
# Shear Modulus (GPa) = 26.45315 30.28825 28.37070
#
# Velocity S-wave (km/s) = 3.58326 3.83422 3.71086
# Velocity P-wave (km/s) = 5.97438 6.23726 6.10723
#
# Compressibility (1/GPa) = 0.02613281
#
# Stress axis : x y z
#
# Youngs Moduli (GPa) = 105.37949 54.15828 81.49769
#
# Poissons Ratio (x) = 0.22427 -0.11254
# Poissons Ratio (y) = 0.43638 0.34927
# Poissons Ratio (z) = -0.14552 0.23210
#
# Static dielectric constant tensor:
#      x y z
#    x 4.394950 0.000000 -0.209320 
#    y 0.000000 3.833750 0.000000 
#    z -0.209320 0.000000 4.135470 
# 
# 
# High freq. dielectric constant tensor:
#      x y z
#    x 1.823120 0.000000 -0.029130 
#    y 0.000000 1.776270 0.000000 
#    z -0.029130 0.000000 1.806870 
# 
# From -- ./inp_files/24887.got.cif
#   From: 2010.06.25/outbox.cif.g09.slc.cpg/sg13_13_cif.got.tgz:24887.got - 2010.06.28 04:50:58.
