data_PCOD8122709
_publ_section_title
;
Structure prediction by ZEFSAII (Michael W. Deem and Ramdas Pophale) SiO2 
 PCOD8122709
Probable space group: P 2/C
;
_chemical_formula_sum "Si O2"
_cell_formula_units_Z 20
_cell_length_a 12.962245
_cell_length_b 7.548069
_cell_length_c 9.639137
_cell_angle_alpha 90.000000
_cell_angle_beta 76.123403
_cell_angle_gamma 90.000000
_cell_volume 915.567789
_symmetry_space_group_name_H-M "P 2/C"
_symmetry_group_IT_number 13
_symmetry_cell_setting 'monoclinic'
loop_
_space_group_symop_operation_xyz
x,y,z
-x,y,1/2-z
-x,-y,-z
x,-y,1/2+z
loop_
_atom_site_type_symbol
_atom_site_label
_atom_site_fract_x
_atom_site_fract_y
_atom_site_fract_z
Si Si1 0.072715 0.980828 0.109137
Si Si2 0.622066 0.841283 0.235542
Si Si3 0.113600 0.379312 0.162255
Si Si4 0.243659 0.499942 0.375754
Si Si5 0.300062 0.847157 0.983472
O O1 0.114262 0.167287 0.154008
O O2 0.000000 0.887196 0.250000
O O3 0.172900 0.858799 0.043971
O O4 0.000000 0.000000 0.000000
O O5 0.500000 0.798455 0.250000
O O6 0.689382 0.677812 0.158233
O O7 0.639268 0.876218 0.392476
O O8 0.657446 0.014387 0.141499
O O9 0.205491 0.436430 0.238210
O O10 0.000000 0.451554 0.250000
O O11 0.140816 0.462389 0.004496
O O12 0.319767 0.349837 0.417940
#
# Coordination Sequence:
#
# PCOD8122709 Si02
#       5
#     4   4   4   4   4
#     4  11  23  41  69 105 142 185 228 279 350 431
#     4  12  28  49  73 102 137 188 246 305 361 418
#     4  11  23  43  68 104 147 188 231 280 354 430
#     4  12  25  46  70 106 145 185 236 296 353 431
#     4  12  25  47  74 101 143 185 237 296 359 431
#
# _framework density 21.844367999999999
#
# number of rings (size 3 to 8) (size 9 to 14) (size 15 to 20)
#    0.000    0.400    4.000    6.000    0.000    2.400 
#    0.000    0.000    0.000    0.000    0.000    0.000 
#    0.000    0.000    0.000    0.000    0.000    0.000 
#
# Total GULP energy -248143.808923 kJ/mol
# GULP energy per Si atom -12407.190446 kJ/mol
# Density = 2.179465 g / cm^3
# Si number density = 21.844368 Si / 1000 Ang^3
#
#
#
# Elastic Constant Matrix: (Units=GPa)
#
#
# Indices 1 2 3 4 5 6 
#
# 1 96.3637 3.9375 19.4236 0.0000 10.0110 0.0000
# 2 3.9375 106.1548 18.7444 0.0000 -5.3363 0.0000
# 3 19.4236 18.7444 95.7125 0.0000 16.8032 0.0000
# 4 0.0000 0.0000 0.0000 28.3866 0.0000 13.9364
# 5 10.0110 -5.3363 16.8032 0.0000 38.7771 0.0000
# 6 0.0000 0.0000 0.0000 13.9364 0.0000 2.0629
#
#
#
# Elastic Compliance Matrix: (Units=1/GPa)
#
#
# Indices 1 2 3 4 5 6 
#
# 1 0.010968 -0.000188 -0.001826 0.000000 -0.002066 0.000000
# 2 -0.000188 0.009963 -0.002340 0.000000 0.002434 0.000000
# 3 -0.001826 -0.002340 0.012177 0.000000 -0.005127 0.000000
# 4 0.000000 0.000000 0.000000 -0.015206 0.000000 0.102727
# 5 -0.002066 0.002434 -0.005127 0.000000 0.028878 0.000000
# 6 0.000000 0.000000 0.000000 0.102727 0.000000 -0.209241
#
#
# Mechanical properties :
#
#
# Convention : Reuss Voigt Hill
#
# Bulk Modulus (GPa) = 40.98636 42.49356 41.73996
# Shear Modulus (GPa) = -34.33613 30.92035 -1.70789
#
# Velocity S-wave (km/s) = -3.96896 3.76637 -0.88518
# Velocity P-wave (km/s) = 1.48321 6.19751 4.25496
#
# Compressibility (1/GPa) = 0.02439836
#
# Stress axis : x y z
#
# Youngs Moduli (GPa) = 91.17615 100.37399 82.12216
#
# Poissons Ratio (x) = 0.01889 0.14997
# Poissons Ratio (y) = 0.01716 0.19218
# Poissons Ratio (z) = 0.16650 0.23489
#
# Static dielectric constant tensor:
#      x y z
#    x 3.839070 0.000000 -0.078690 
#    y 0.000000 4.113210 0.000000 
#    z -0.078690 0.000000 4.243280 
# 
# 
# High freq. dielectric constant tensor:
#      x y z
#    x 1.846690 0.000000 0.005670 
#    y 0.000000 1.870200 0.000000 
#    z 0.005670 0.000000 1.880580 
# 
# From -- ./inp_files/14835.got.cif
#   From: 2010.06.25/outbox.cif.g09.slc.cpg/sg13_8_cif.got.tgz:14835.got - 2010.06.28 04:50:58.
