data_PCOD8122702
_publ_section_title
;
Structure prediction by ZEFSAII (Michael W. Deem and Ramdas Pophale) SiO2 
 PCOD8122702
Probable space group: P 2/C
;
_chemical_formula_sum "Si O2"
_cell_formula_units_Z 24
_cell_length_a 11.668351
_cell_length_b 12.399817
_cell_length_c 22.552967
_cell_angle_alpha 90.000000
_cell_angle_beta 21.455652
_cell_angle_gamma 90.000000
_cell_volume 1193.574512
_symmetry_space_group_name_H-M "P 2/C"
_symmetry_group_IT_number 13
_symmetry_cell_setting 'monoclinic'
loop_
_space_group_symop_operation_xyz
x,y,z
-x,y,1/2-z
-x,-y,-z
x,-y,1/2+z
loop_
_atom_site_type_symbol
_atom_site_label
_atom_site_fract_x
_atom_site_fract_y
_atom_site_fract_z
Si Si1 0.131205 0.618556 0.940352
Si Si2 0.190462 0.686298 0.519414
Si Si3 0.072547 0.299876 0.834782
Si Si4 0.198585 0.501927 0.104285
Si Si5 0.155930 0.907929 0.110921
Si Si6 0.882983 0.133627 0.244104
O O1 0.500000 0.620430 0.750000
O O2 0.939435 0.686362 0.984447
O O3 0.000000 0.500000 0.000000
O O4 0.063833 0.665893 0.036812
O O5 0.554792 0.712850 0.345313
O O6 0.179169 0.567790 0.554101
O O7 0.956972 0.770783 0.663042
O O8 0.930863 0.379172 0.852055
O O9 0.965609 0.178662 0.876800
O O10 0.000000 0.443789 0.250000
O O11 0.500000 0.500000 0.000000
O O12 0.000000 0.884690 0.250000
O O13 0.527520 0.898336 0.928706
O O14 0.064541 0.027575 0.133760
O O15 0.000000 0.177845 0.250000
#
# Coordination Sequence:
#
# PCOD8122702 Si02
#       6
#     4   4   4   4   4   4
#     4  12  26  44  65  92 128 176 223 268 322 385
#     4  12  25  43  67  94 132 172 220 268 326 387
#     4  12  25  43  66  94 131 173 218 270 325 387
#     4  12  26  39  61  96 134 170 210 266 328 388
#     4  11  23  41  67  97 134 171 217 266 327 386
#     4  11  23  41  66  98 132 173 215 268 326 388
#
# _framework density 20.107668
#
# number of rings (size 3 to 8) (size 9 to 14) (size 15 to 20)
#    0.000    0.333    3.333    7.500    7.000    0.000 
#    0.000    0.833    0.000    0.000    0.000    0.000 
#    0.000    0.000    0.000    0.000    0.000    0.000 
#
# Total GULP energy -297318.012418 kJ/mol
# GULP energy per Si atom -12388.250517 kJ/mol
# Density = 2.006190 g / cm^3
# Si number density = 20.107668 Si / 1000 Ang^3
#
#
#
# Elastic Constant Matrix: (Units=GPa)
#
#
# Indices 1 2 3 4 5 6 
#
# 1 113.5440 37.8048 31.9488 0.0000 -4.6368 0.0000
# 2 37.8048 92.1040 18.4479 0.0000 2.7698 0.0000
# 3 31.9488 18.4479 149.6837 0.0000 -13.8661 0.0000
# 4 0.0000 0.0000 0.0000 37.0808 0.0000 -1.9569
# 5 -4.6368 2.7698 -13.8661 0.0000 42.4132 0.0000
# 6 0.0000 0.0000 0.0000 -1.9569 0.0000 45.9658
#
#
#
# Elastic Compliance Matrix: (Units=1/GPa)
#
#
# Indices 1 2 3 4 5 6 
#
# 1 0.010675 -0.004068 -0.001696 0.000000 0.000878 0.000000
# 2 -0.004068 0.012743 -0.000846 0.000000 -0.001554 0.000000
# 3 -0.001696 -0.000846 0.007358 0.000000 0.002275 0.000000
# 4 0.000000 0.000000 0.000000 0.027029 0.000000 0.001151
# 5 0.000878 -0.001554 0.002275 0.000000 0.024519 0.000000
# 6 0.000000 0.000000 0.000000 0.001151 0.000000 0.021804
#
#
# Mechanical properties :
#
#
# Convention : Reuss Voigt Hill
#
# Bulk Modulus (GPa) = 56.96191 59.08165 58.02178
# Shear Modulus (GPa) = 40.58444 42.90063 41.74254
#
# Velocity S-wave (km/s) = 4.49749 4.62404 4.56120
# Velocity P-wave (km/s) = 7.44042 7.61285 7.52713
#
# Compressibility (1/GPa) = 0.01755559
#
# Stress axis : x y z
#
# Youngs Moduli (GPa) = 93.67945 78.47233 135.91123
#
# Poissons Ratio (x) = 0.31925 0.23046
# Poissons Ratio (y) = 0.38112 0.11500
# Poissons Ratio (z) = 0.15885 0.06640
#
# Static dielectric constant tensor:
#      x y z
#    x 3.984280 0.000000 -0.121410 
#    y 0.000000 3.762870 0.000000 
#    z -0.121410 0.000000 3.948270 
# 
# 
# High freq. dielectric constant tensor:
#      x y z
#    x 1.785740 0.000000 -0.006010 
#    y 0.000000 1.785210 0.000000 
#    z -0.006010 0.000000 1.815280 
# 
# From -- ./inp_files/15811.got.cif
#   From: 2010.06.25/outbox.cif.g09.slc.cpg/sg13_8_cif.got.tgz:15811.got - 2010.06.28 04:50:58.
