data_PCOD8122737
_publ_section_title
;
Structure prediction by ZEFSAII (Michael W. Deem and Ramdas Pophale) SiO2 
 PCOD8122737
Probable space group: P 2/C
;
_chemical_formula_sum "Si O2"
_cell_formula_units_Z 30
_cell_length_a 11.286058
_cell_length_b 6.658791
_cell_length_c 20.379295
_cell_angle_alpha 90.000000
_cell_angle_beta 114.214823
_cell_angle_gamma 90.000000
_cell_volume 1396.781065
_symmetry_space_group_name_H-M "P 2/C"
_symmetry_group_IT_number 13
_symmetry_cell_setting 'monoclinic'
loop_
_space_group_symop_operation_xyz
x,y,z
-x,y,1/2-z
-x,-y,-z
x,-y,1/2+z
loop_
_atom_site_type_symbol
_atom_site_label
_atom_site_fract_x
_atom_site_fract_y
_atom_site_fract_z
Si Si1 0.420518 0.728367 0.296843
Si Si2 0.827029 0.121070 0.510148
Si Si3 0.195389 0.024489 0.228757
Si Si4 0.148475 0.475215 0.892752
Si Si5 0.971182 0.790116 0.915447
Si Si6 0.537248 0.015414 0.431465
Si Si7 0.000000 0.739963 0.250000
Si Si8 0.665430 0.669509 0.652142
O O1 0.500000 0.670566 0.250000
O O2 0.318861 0.885752 0.243651
O O3 0.355687 0.523639 0.306993
O O4 0.493700 0.825684 0.376656
O O5 0.793003 0.287535 0.555729
O O6 0.913715 0.230371 0.474831
O O7 0.691335 0.030104 0.454744
O O8 0.911755 0.947858 0.562523
O O9 0.075405 0.883031 0.217904
O O10 0.153614 0.146602 0.155174
O O11 0.227348 0.183294 0.292452
O O12 0.097347 0.402577 0.810944
O O13 0.272584 0.614927 0.904726
O O14 0.031559 0.579617 0.905862
O O15 0.470859 0.217894 0.389052
O O16 0.500000 0.000000 0.500000
#
# Coordination Sequence:
#
# PCOD8122737 Si02
#       8
#     4   4   4   4   4   4   2   4
#     4  11  25  45  68  98 133 174 225 279 333 399
#     4  11  25  43  63  95 135 176 219 266 334 395
#     4  11  23  43  66  96 128 166 214 270 333 388
#     4  12  23  41  65  98 128 170 220 273 327 393
#     4  11  24  42  66  95 134 175 213 275 333 399
#     4  11  25  45  69  96 135 184 226 277 331 402
#     4  12  22  40  68  96 128 164 210 278 326 390
#     4  11  25  42  69  97 129 169 223 276 333 388
#
# _framework density 21.477952999999999
#
# number of rings (size 3 to 8) (size 9 to 14) (size 15 to 20)
#    0.000    0.800    2.667    4.400    1.867    6.400 
#    0.000    0.000    0.000    0.000    0.000    0.000 
#    0.000    0.000    0.000    0.000    0.000    0.000 
#
# Total GULP energy -372021.411566 kJ/mol
# GULP energy per Si atom -12400.713719 kJ/mol
# Density = 2.142907 g / cm^3
# Si number density = 21.477953 Si / 1000 Ang^3
#
#
#
# Elastic Constant Matrix: (Units=GPa)
#
#
# Indices 1 2 3 4 5 6 
#
# 1 93.9206 20.6983 16.1480 0.0000 1.4333 0.0000
# 2 20.6983 73.9049 15.7734 0.0000 0.3442 0.0000
# 3 16.1480 15.7734 79.6721 0.0000 5.4229 0.0000
# 4 0.0000 0.0000 0.0000 7.2759 0.0000 -8.1616
# 5 1.4333 0.3442 5.4229 0.0000 42.0080 0.0000
# 6 0.0000 0.0000 0.0000 -8.1616 0.0000 29.0774
#
#
#
# Elastic Compliance Matrix: (Units=1/GPa)
#
#
# Indices 1 2 3 4 5 6 
#
# 1 0.011586 -0.002866 -0.001771 0.000000 -0.000143 0.000000
# 2 -0.002866 0.014839 -0.002376 0.000000 0.000283 0.000000
# 3 -0.001771 -0.002376 0.013494 0.000000 -0.001662 0.000000
# 4 0.000000 0.000000 0.000000 0.200600 0.000000 0.056305
# 5 -0.000143 0.000283 -0.001662 0.000000 0.024022 0.000000
# 6 0.000000 0.000000 0.000000 0.056305 0.000000 0.050195
#
#
# Mechanical properties :
#
#
# Convention : Reuss Voigt Hill
#
# Bulk Modulus (GPa) = 38.62149 39.19299 38.90724
# Shear Modulus (GPa) = 14.81950 28.66410 21.74180
#
# Velocity S-wave (km/s) = 2.62961 3.65716 3.18509
# Velocity P-wave (km/s) = 5.21927 6.01005 5.62856
#
# Compressibility (1/GPa) = 0.02589232
#
# Stress axis : x y z
#
# Youngs Moduli (GPa) = 86.31401 67.38797 74.10711
#
# Poissons Ratio (x) = 0.19314 0.13124
# Poissons Ratio (y) = 0.24738 0.17610
# Poissons Ratio (z) = 0.15286 0.16013
#
# Static dielectric constant tensor:
#      x y z
#    x 3.857180 0.000000 0.083440 
#    y 0.000000 3.894190 0.000000 
#    z 0.083440 0.000000 3.879320 
# 
# 
# High freq. dielectric constant tensor:
#      x y z
#    x 1.849790 0.000000 0.001670 
#    y 0.000000 1.851350 0.000000 
#    z 0.001670 0.000000 1.846410 
# 
# From -- ./inp_files/77566.got.cif
#   From: 2010.06.25/outbox.cif.g09.slc.cpg/sg13_39_cif.got.tgz:77566.got - 2010.06.28 04:50:58.
