data_PCOD8122917
_publ_section_title
;
Structure prediction by ZEFSAII (Michael W. Deem and Ramdas Pophale) SiO2 
 PCOD8122917
Probable space group: P 2/C
;
_chemical_formula_sum "Si O2"
_cell_formula_units_Z 18
_cell_length_a 19.744768
_cell_length_b 6.826848
_cell_length_c 10.282813
_cell_angle_alpha 90.000000
_cell_angle_beta 144.371949
_cell_angle_gamma 90.000000
_cell_volume 807.413075
_symmetry_space_group_name_H-M "P 2/C"
_symmetry_group_IT_number 13
_symmetry_cell_setting 'monoclinic'
loop_
_space_group_symop_operation_xyz
x,y,z
-x,y,1/2-z
-x,-y,-z
x,-y,1/2+z
loop_
_atom_site_type_symbol
_atom_site_label
_atom_site_fract_x
_atom_site_fract_y
_atom_site_fract_z
Si Si1 0.500000 0.473919 0.250000
Si Si2 0.373770 0.857433 0.697330
Si Si3 0.122481 0.328763 0.091106
Si Si4 0.356961 0.837193 0.959881
Si Si5 0.864973 0.340125 0.680435
O O1 0.551697 0.337071 0.216883
O O2 0.601460 0.611751 0.465750
O O3 0.396179 0.924080 0.881201
O O4 0.236992 0.817089 0.459652
O O5 0.411604 0.034999 0.661851
O O6 0.216726 0.155242 0.251244
O O7 0.153245 0.484561 0.248811
O O8 0.137766 0.424887 0.971316
O O9 0.992064 0.242536 0.904966
#
# Coordination Sequence:
#
# PCOD8122917 Si02
#       5
#     2   4   4   4   4
#     4  12  24  44  66  88 118 168 210 264 298 358
#     4  11  25  42  64  94 125 161 206 255 308 367
#     4   9  18  36  62  91 122 158 200 248 304 364
#     4  11  25  42  64  94 125 161 206 255 308 367
#     4   9  18  36  62  91 122 158 200 248 304 364
#
# _framework density 22.293422
#
# number of rings (size 3 to 8) (size 9 to 14) (size 15 to 20)
#    0.000    1.778    2.222    1.333    0.000    8.000 
#    0.000    0.000    0.000    0.000    0.000    0.000 
#    0.000    0.000    0.000    0.000    0.000    0.000 
#
# Total GULP energy -223139.600444 kJ/mol
# GULP energy per Si atom -12396.644469 kJ/mol
# Density = 2.224268 g / cm^3
# Si number density = 22.293422 Si / 1000 Ang^3
#
#
#
# Elastic Constant Matrix: (Units=GPa)
#
#
# Indices 1 2 3 4 5 6 
#
# 1 141.4263 53.3748 49.2243 0.0000 -11.8941 0.0000
# 2 53.3748 85.3437 20.9285 0.0000 -16.5545 0.0000
# 3 49.2243 20.9285 85.2745 0.0000 -13.7838 0.0000
# 4 0.0000 0.0000 0.0000 20.3839 0.0000 -8.1387
# 5 -11.8941 -16.5545 -13.7838 0.0000 47.6297 0.0000
# 6 0.0000 0.0000 0.0000 -8.1387 0.0000 30.9263
#
#
#
# Elastic Compliance Matrix: (Units=1/GPa)
#
#
# Indices 1 2 3 4 5 6 
#
# 1 0.010921 -0.005741 -0.005011 0.000000 -0.000718 0.000000
# 2 -0.005741 0.016109 0.000035 0.000000 0.004176 0.000000
# 3 -0.005011 0.000035 0.015118 0.000000 0.003136 0.000000
# 4 0.000000 0.000000 0.000000 0.054818 0.000000 0.014426
# 5 -0.000718 0.004176 0.003136 0.000000 0.023175 0.000000
# 6 0.000000 0.000000 0.000000 0.014426 0.000000 0.036131
#
#
# Mechanical properties :
#
#
# Convention : Reuss Voigt Hill
#
# Bulk Modulus (GPa) = 48.27604 62.12220 55.19912
# Shear Modulus (GPa) = 27.08395 32.35575 29.71985
#
# Velocity S-wave (km/s) = 3.48930 3.81380 3.65516
# Velocity P-wave (km/s) = 6.15918 6.87893 6.52898
#
# Compressibility (1/GPa) = 0.02071421
#
# Stress axis : x y z
#
# Youngs Moduli (GPa) = 91.56496 62.07746 66.14675
#
# Poissons Ratio (x) = 0.35636 0.33149
# Poissons Ratio (y) = 0.52564 -0.00233
# Poissons Ratio (z) = 0.45887 -0.00218
#
# Static dielectric constant tensor:
#      x y z
#    x 4.357500 0.000000 0.218890 
#    y 0.000000 3.371610 0.000000 
#    z 0.218890 0.000000 4.244870 
# 
# 
# High freq. dielectric constant tensor:
#      x y z
#    x 1.906960 0.000000 0.015350 
#    y 0.000000 1.823270 0.000000 
#    z 0.015350 0.000000 1.904290 
# 
# From -- ./inp_files/39598.got.cif
#   From: 2010.06.25/outbox.cif.g09.slc.cpg/sg13_20_cif.got.tgz:39598.got - 2010.06.28 04:50:58.
