data_PCOD8122935
_publ_section_title
;
Structure prediction by ZEFSAII (Michael W. Deem and Ramdas Pophale) SiO2 
 PCOD8122935
Probable space group: P 2/C
;
_chemical_formula_sum "Si O2"
_cell_formula_units_Z 20
_cell_length_a 23.081139
_cell_length_b 6.521484
_cell_length_c 16.090274
_cell_angle_alpha 90.000000
_cell_angle_beta 21.048139
_cell_angle_gamma 90.000000
_cell_volume 869.852554
_symmetry_space_group_name_H-M "P 2/C"
_symmetry_group_IT_number 13
_symmetry_cell_setting 'monoclinic'
loop_
_space_group_symop_operation_xyz
x,y,z
-x,y,1/2-z
-x,-y,-z
x,-y,1/2+z
loop_
_atom_site_type_symbol
_atom_site_label
_atom_site_fract_x
_atom_site_fract_y
_atom_site_fract_z
Si Si1 0.000000 0.695928 0.250000
Si Si2 0.426616 0.461737 0.972622
Si Si3 0.926616 0.038263 0.472622
Si Si4 0.740466 0.610464 0.143498
Si Si5 0.759534 0.889535 0.856501
Si Si6 0.500000 0.195927 0.250000
O O1 0.842165 0.553824 0.454910
O O2 0.993175 0.832374 0.341812
O O3 0.575952 0.339999 0.814432
O O4 0.493175 0.667626 0.841812
O O5 0.295516 0.519682 0.217397
O O6 0.341470 0.320203 0.017467
O O7 0.841470 0.179797 0.517467
O O8 0.075952 0.160002 0.314431
O O9 0.795517 0.980317 0.717396
O O10 0.657835 0.053824 0.045090
#
# Coordination Sequence:
#
# PCOD8122935 Si02
#       6
#     2   4   4   4   4   2
#     4  12  24  44  72 102 130 180 222 278 330 404
#     4  11  25  45  70 101 136 177 224 277 333 397
#     4  11  25  45  70 101 136 177 224 277 333 397
#     4  11  25  45  70 101 136 177 224 277 333 397
#     4  11  25  45  70 101 136 177 224 277 333 397
#     4  12  24  44  72 102 130 180 222 278 330 404
#
# _framework density 22.992401000000001
#
# number of rings (size 3 to 8) (size 9 to 14) (size 15 to 20)
#    0.000    0.800    4.000    2.400    0.000   11.200 
#    0.000    0.000    0.000    0.000    0.000    0.000 
#    0.000    0.000    0.000    0.000    0.000    0.000 
#
# Total GULP energy -248171.001995 kJ/mol
# GULP energy per Si atom -12408.550100 kJ/mol
# Density = 2.294007 g / cm^3
# Si number density = 22.992401 Si / 1000 Ang^3
#
#
#
# Elastic Constant Matrix: (Units=GPa)
#
#
# Indices 1 2 3 4 5 6 
#
# 1 42.9789 10.2052 16.7274 0.0000 -8.5295 0.0000
# 2 10.2052 93.4836 48.5528 0.0000 -1.3087 0.0000
# 3 16.7274 48.5528 124.9240 0.0000 6.5782 0.0000
# 4 0.0000 0.0000 0.0000 36.8017 0.0000 5.1682
# 5 -8.5295 -1.3087 6.5782 0.0000 30.7115 0.0000
# 6 0.0000 0.0000 0.0000 5.1682 0.0000 36.1440
#
#
#
# Elastic Compliance Matrix: (Units=1/GPa)
#
#
# Indices 1 2 3 4 5 6 
#
# 1 0.026498 -0.000896 -0.003626 0.000000 0.008098 0.000000
# 2 -0.000896 0.013522 -0.005211 0.000000 0.001444 0.000000
# 3 -0.003626 -0.005211 0.010701 0.000000 -0.003521 0.000000
# 4 0.000000 0.000000 0.000000 0.027729 0.000000 -0.003965
# 5 0.008098 0.001444 -0.003521 0.000000 0.035626 0.000000
# 6 0.000000 0.000000 0.000000 -0.003965 0.000000 0.028234
#
#
# Mechanical properties :
#
#
# Convention : Reuss Voigt Hill
#
# Bulk Modulus (GPa) = 31.99578 45.81747 38.90662
# Shear Modulus (GPa) = 29.03663 33.12486 31.08075
#
# Velocity S-wave (km/s) = 3.55756 3.79976 3.68065
# Velocity P-wave (km/s) = 5.55166 6.26269 5.91787
#
# Compressibility (1/GPa) = 0.03125412
#
# Stress axis : x y z
#
# Youngs Moduli (GPa) = 37.73809 73.95507 93.44650
#
# Poissons Ratio (x) = 0.06626 0.33887
# Poissons Ratio (y) = 0.03381 0.48699
# Poissons Ratio (z) = 0.13685 0.38541
#
# Static dielectric constant tensor:
#      x y z
#    x 3.767170 0.000000 0.148830 
#    y 0.000000 3.983580 0.000000 
#    z 0.148830 0.000000 4.387990 
# 
# 
# High freq. dielectric constant tensor:
#      x y z
#    x 1.895930 0.000000 0.008500 
#    y 0.000000 1.902720 0.000000 
#    z 0.008500 0.000000 1.934690 
# 
# From -- ./inp_files/35192.got.cif
#   From: 2010.06.25/outbox.cif.g09.slc.cpg/sg13_18_cif.got.tgz:35192.got - 2010.06.28 04:50:58.
