data_PCOD8122583
_publ_section_title
;
Structure prediction by ZEFSAII (Michael W. Deem and Ramdas Pophale) SiO2 
 PCOD8122583
Probable space group: P 2/C
;
_chemical_formula_sum "Si O2"
_cell_formula_units_Z 30
_cell_length_a 10.723599
_cell_length_b 9.272360
_cell_length_c 13.976711
_cell_angle_alpha 90.000000
_cell_angle_beta 89.714022
_cell_angle_gamma 90.000000
_cell_volume 1389.729978
_symmetry_space_group_name_H-M "P 2/C"
_symmetry_group_IT_number 13
_symmetry_cell_setting 'monoclinic'
loop_
_space_group_symop_operation_xyz
x,y,z
-x,y,1/2-z
-x,-y,-z
x,-y,1/2+z
loop_
_atom_site_type_symbol
_atom_site_label
_atom_site_fract_x
_atom_site_fract_y
_atom_site_fract_z
Si Si1 0.159165 0.611760 0.456605
Si Si2 0.116724 0.362600 0.587241
Si Si3 0.730725 0.151678 0.436952
Si Si4 0.240744 0.461574 0.761029
Si Si5 0.149233 0.787723 0.760713
Si Si6 0.749393 0.151565 0.031861
Si Si7 0.500000 0.548153 0.750000
Si Si8 0.484742 0.656103 0.949961
O O1 0.194314 0.488223 0.532667
O O2 0.158787 0.766312 0.507587
O O3 0.255036 0.598950 0.368244
O O4 0.025135 0.586859 0.410228
O O5 0.161861 0.351631 0.696344
O O6 0.136013 0.212288 0.532068
O O7 0.772546 0.136940 0.325956
O O8 0.610449 0.251104 0.456551
O O9 0.709504 0.001501 0.489681
O O10 0.175239 0.617620 0.759039
O O11 0.380254 0.457070 0.716396
O O12 0.203264 0.857052 0.858574
O O13 0.000000 0.815788 0.750000
O O14 0.631735 0.254282 0.009786
O O15 0.451965 0.643649 0.837972
O O16 0.500000 0.500000 0.000000
#
# Coordination Sequence:
#
# PCOD8122583 Si02
#       8
#     4   4   4   4   4   4   2   4
#     4  11  22  39  64  96 132 172 225 279 324 390
#     4  11  22  39  64  96 132 172 225 279 324 390
#     4  12  26  44  67 101 139 178 223 275 345 411
#     4  12  22  39  66 104 127 173 232 287 334 384
#     4  12  24  43  70  96 135 184 224 275 337 403
#     4  12  26  44  67 101 139 178 223 275 345 411
#     4  12  20  38  70  94 130 166 220 280 332 398
#     4  12  23  45  71  98 134 174 229 281 333 395
#
# _framework density 21.586926999999999
#
# number of rings (size 3 to 8) (size 9 to 14) (size 15 to 20)
#    0.000    0.267    5.333    4.800    0.000    3.200 
#    0.000    1.333    0.000    0.000    0.000    0.000 
#    0.000    0.000    0.000    0.000    0.000    0.000 
#
# Total GULP energy -371946.969368 kJ/mol
# GULP energy per Si atom -12398.232312 kJ/mol
# Density = 2.153779 g / cm^3
# Si number density = 21.586927 Si / 1000 Ang^3
#
#
#
# Elastic Constant Matrix: (Units=GPa)
#
#
# Indices 1 2 3 4 5 6 
#
# 1 95.2660 33.2285 20.3146 0.0000 2.0582 0.0000
# 2 33.2285 117.8293 50.8037 0.0000 3.5125 0.0000
# 3 20.3146 50.8037 123.6377 0.0000 4.5298 0.0000
# 4 0.0000 0.0000 0.0000 30.5073 0.0000 -1.1594
# 5 2.0582 3.5125 4.5298 0.0000 29.9779 0.0000
# 6 0.0000 0.0000 0.0000 -1.1594 0.0000 21.1134
#
#
#
# Elastic Compliance Matrix: (Units=1/GPa)
#
#
# Indices 1 2 3 4 5 6 
#
# 1 0.011694 -0.002995 -0.000678 0.000000 -0.000350 0.000000
# 2 -0.002995 0.011091 -0.004048 0.000000 -0.000482 0.000000
# 3 -0.000678 -0.004048 0.009898 0.000000 -0.000975 0.000000
# 4 0.000000 0.000000 0.000000 0.032848 0.000000 0.001804
# 5 -0.000350 -0.000482 -0.000975 0.000000 0.033586 0.000000
# 6 0.000000 0.000000 0.000000 0.001804 0.000000 0.047462
#
#
# Mechanical properties :
#
#
# Convention : Reuss Voigt Hill
#
# Bulk Modulus (GPa) = 57.99739 60.60297 59.30018
# Shear Modulus (GPa) = 29.80319 31.81212 30.80765
#
# Velocity S-wave (km/s) = 3.71969 3.84301 3.78185
# Velocity P-wave (km/s) = 6.73598 6.91567 6.82642
#
# Compressibility (1/GPa) = 0.01724215
#
# Stress axis : x y z
#
# Youngs Moduli (GPa) = 85.51639 90.16313 101.02594
#
# Poissons Ratio (x) = 0.27004 0.06849
# Poissons Ratio (y) = 0.25612 0.40891
# Poissons Ratio (z) = 0.05797 0.36495
#
# Static dielectric constant tensor:
#      x y z
#    x 4.072330 0.000000 -0.057550 
#    y 0.000000 3.558200 0.000000 
#    z -0.057550 0.000000 4.120960 
# 
# 
# High freq. dielectric constant tensor:
#      x y z
#    x 1.866790 0.000000 0.001090 
#    y 0.000000 1.809840 0.000000 
#    z 0.001090 0.000000 1.864630 
# 
# From -- ./inp_files/50056.got.cif
#   From: 2010.06.25/outbox.cif.g09.slc.cpg/sg13_26_cif.got.tgz:50056.got - 2010.06.28 04:50:58.
