data_PCOD8122081
_publ_section_title
;
Structure prediction by ZEFSAII (Michael W. Deem and Ramdas Pophale) SiO2 
 PCOD8122081
Probable space group: P 2/C
;
_chemical_formula_sum "Si O2"
_cell_formula_units_Z 28
_cell_length_a 8.358487
_cell_length_b 13.367280
_cell_length_c 13.630613
_cell_angle_alpha 90.000000
_cell_angle_beta 59.313051
_cell_angle_gamma 90.000000
_cell_volume 1309.690475
_symmetry_space_group_name_H-M "P 2/C"
_symmetry_group_IT_number 13
_symmetry_cell_setting 'monoclinic'
loop_
_space_group_symop_operation_xyz
x,y,z
-x,y,1/2-z
-x,-y,-z
x,-y,1/2+z
loop_
_atom_site_type_symbol
_atom_site_label
_atom_site_fract_x
_atom_site_fract_y
_atom_site_fract_z
Si Si1 0.292640 0.734990 0.041016
Si Si2 0.500000 0.801478 0.250000
Si Si3 0.293787 0.286032 0.317875
Si Si4 0.215732 0.866128 0.677047
Si Si5 0.337392 0.293944 0.992941
Si Si6 0.004908 0.445147 0.099179
Si Si7 0.000000 0.387172 0.750000
Si Si8 0.227045 0.090690 0.687025
O O1 0.489312 0.678447 0.990666
O O2 0.313252 0.850285 0.067251
O O3 0.160595 0.684766 0.162237
O O4 0.223921 0.734682 0.950801
O O5 0.599380 0.729555 0.138260
O O6 0.669753 0.865934 0.246403
O O7 0.500000 0.331897 0.250000
O O8 0.295002 0.188425 0.249129
O O9 0.150736 0.365943 0.321506
O O10 0.250711 0.807386 0.564992
O O11 0.000000 0.879506 0.750000
O O12 0.299065 0.977619 0.651067
O O13 0.203117 0.389692 0.045808
O O14 0.946146 0.538637 0.181686
O O15 0.000000 0.500000 0.000000
O O16 0.000000 0.101593 0.750000
#
# Coordination Sequence:
#
# PCOD8122081 Si02
#       8
#     4   2   4   4   4   4   2   4
#     4  11  25  45  72  97 142 176 230 284 339 411
#     4  10  26  42  70 102 148 178 234 282 340 416
#     4  12  25  44  69 103 137 179 223 284 340 413
#     4  11  23  44  71 100 141 180 224 277 343 410
#     4  11  25  45  68 100 138 182 223 291 339 403
#     4  12  27  44  70  97 131 176 231 281 348 408
#     4  12  26  46  70  96 134 178 224 292 346 404
#     4  10  24  42  70 104 139 186 229 278 344 416
#
# _framework density 21.379097000000002
#
# number of rings (size 3 to 8) (size 9 to 14) (size 15 to 20)
#    0.000    0.857    5.000    0.857    7.000    5.143 
#    0.000    2.857    0.000    0.000    0.000    0.000 
#    0.000    0.000    0.000    0.000    0.000    0.000 
#
# Total GULP energy -346872.191553 kJ/mol
# GULP energy per Si atom -12388.292555 kJ/mol
# Density = 2.133044 g / cm^3
# Si number density = 21.379097 Si / 1000 Ang^3
#
#
#
# Elastic Constant Matrix: (Units=GPa)
#
#
# Indices 1 2 3 4 5 6 
#
# 1 89.3818 28.2062 12.8623 0.0000 -7.4387 0.0000
# 2 28.2062 111.1731 44.9776 0.0000 -4.9152 0.0000
# 3 12.8623 44.9776 110.8898 0.0000 13.1901 0.0000
# 4 0.0000 0.0000 0.0000 17.7537 0.0000 17.1529
# 5 -7.4387 -4.9152 13.1901 0.0000 40.1603 0.0000
# 6 0.0000 0.0000 0.0000 17.1529 0.0000 18.0122
#
#
#
# Elastic Compliance Matrix: (Units=1/GPa)
#
#
# Indices 1 2 3 4 5 6 
#
# 1 0.012331 -0.002817 -0.000540 0.000000 0.002116 0.000000
# 2 -0.002817 0.011730 -0.004724 0.000000 0.002466 0.000000
# 3 -0.000540 -0.004724 0.011528 0.000000 -0.004464 0.000000
# 4 0.000000 0.000000 0.000000 0.704645 0.000000 -0.671027
# 5 0.002116 0.002466 -0.004464 0.000000 0.027060 0.000000
# 6 0.000000 0.000000 0.000000 -0.671027 0.000000 0.694532
#
#
# Mechanical properties :
#
#
# Convention : Reuss Voigt Hill
#
# Bulk Modulus (GPa) = 51.47380 53.72634 52.60007
# Shear Modulus (GPa) = 3.36822 30.21183 16.79003
#
# Velocity S-wave (km/s) = 1.25654 3.76326 2.80545
# Velocity P-wave (km/s) = 5.12193 6.63835 5.92882
#
# Compressibility (1/GPa) = 0.01942736
#
# Stress axis : x y z
#
# Youngs Moduli (GPa) = 81.09928 85.25218 86.74707
#
# Poissons Ratio (x) = 0.24012 0.04681
# Poissons Ratio (y) = 0.22842 0.40982
# Poissons Ratio (z) = 0.04376 0.40276
#
# Static dielectric constant tensor:
#      x y z
#    x 3.999000 0.000000 0.026590 
#    y 0.000000 4.236060 0.000000 
#    z 0.026590 0.000000 3.570220 
# 
# 
# High freq. dielectric constant tensor:
#      x y z
#    x 1.847930 0.000000 -0.001720 
#    y 0.000000 1.840250 0.000000 
#    z -0.001720 0.000000 1.853130 
# 
# From -- ./inp_files/47155.got.cif
#   From: 2010.06.25/outbox.cif.g09.slc.cpg/sg13_24_cif.got.tgz:47155.got - 2010.06.28 04:50:58.
