data_PCOD8122597
_publ_section_title
;
Structure prediction by ZEFSAII (Michael W. Deem and Ramdas Pophale) SiO2 
 PCOD8122597
Probable space group: P 2/C
;
_chemical_formula_sum "Si O2"
_cell_formula_units_Z 28
_cell_length_a 8.714946
_cell_length_b 19.875592
_cell_length_c 14.866132
_cell_angle_alpha 90.000000
_cell_angle_beta 28.706615
_cell_angle_gamma 90.000000
_cell_volume 1236.852001
_symmetry_space_group_name_H-M "P 2/C"
_symmetry_group_IT_number 13
_symmetry_cell_setting 'monoclinic'
loop_
_space_group_symop_operation_xyz
x,y,z
-x,y,1/2-z
-x,-y,-z
x,-y,1/2+z
loop_
_atom_site_type_symbol
_atom_site_label
_atom_site_fract_x
_atom_site_fract_y
_atom_site_fract_z
Si Si1 0.729059 0.469182 0.453378
Si Si2 0.365323 0.703809 0.588979
Si Si3 0.620977 0.654616 0.282136
Si Si4 0.635050 0.943351 0.777362
Si Si5 0.382208 0.910667 0.405232
Si Si6 0.306251 0.394139 0.440374
Si Si7 0.626012 0.158550 0.951133
O O1 0.500000 0.500000 0.500000
O O2 0.570095 0.414502 0.599767
O O3 0.835421 0.533091 0.458263
O O4 0.000000 0.436342 0.250000
O O5 0.564964 0.704342 0.393552
O O6 0.473155 0.642188 0.597909
O O7 0.450881 0.776516 0.586647
O O8 0.000000 0.695729 0.750000
O O9 0.500000 0.684821 0.250000
O O10 0.999311 0.649979 0.077732
O O11 0.500000 0.922163 0.750000
O O12 0.007429 0.926873 0.595010
O O13 0.586530 0.022259 0.819953
O O14 0.427774 0.904400 0.956945
O O15 0.500000 0.879894 0.250000
O O16 0.458782 0.855899 0.441515
O O17 0.500000 0.403678 0.250000
O O18 0.000000 0.172401 0.750000
#
# Coordination Sequence:
#
# PCOD8122597 Si02
#       7
#     4   4   4   4   4   4   4
#     4  12  23  41  70  97 133 168 210 265 325 380
#     4  12  26  47  68  92 127 168 215 271 321 379
#     4  12  26  43  68  97 130 169 215 262 322 384
#     4  11  22  40  65  98 134 171 215 265 321 377
#     4  11  22  40  65  98 134 171 215 265 321 378
#     4  12  26  44  67  97 129 170 215 263 321 384
#     4  12  25  43  67  94 129 171 217 264 322 382
#
# _framework density 22.638117999999999
#
# number of rings (size 3 to 8) (size 9 to 14) (size 15 to 20)
#    0.000    0.286    2.857    8.143    2.000    2.286 
#    0.000    5.714    0.000    0.000    0.000    0.000 
#    0.000    0.000    0.000    0.000    0.000    0.000 
#
# Total GULP energy -347201.944862 kJ/mol
# GULP energy per Si atom -12400.069459 kJ/mol
# Density = 2.258659 g / cm^3
# Si number density = 22.638118 Si / 1000 Ang^3
#
#
#
# Elastic Constant Matrix: (Units=GPa)
#
#
# Indices 1 2 3 4 5 6 
#
# 1 107.7482 17.7420 33.0879 0.0000 -4.1202 0.0000
# 2 17.7420 68.3634 8.9663 0.0000 4.3094 0.0000
# 3 33.0879 8.9663 122.4775 0.0000 -11.1088 0.0000
# 4 0.0000 0.0000 0.0000 25.5024 0.0000 -6.1487
# 5 -4.1202 4.3094 -11.1088 0.0000 60.0993 0.0000
# 6 0.0000 0.0000 0.0000 -6.1487 0.0000 23.8615
#
#
#
# Elastic Compliance Matrix: (Units=1/GPa)
#
#
# Indices 1 2 3 4 5 6 
#
# 1 0.010498 -0.002406 -0.002623 0.000000 0.000407 0.000000
# 2 -0.002406 0.015419 -0.000604 0.000000 -0.001382 0.000000
# 3 -0.002623 -0.000604 0.009057 0.000000 0.001538 0.000000
# 4 0.000000 0.000000 0.000000 0.041810 0.000000 0.010774
# 5 0.000407 -0.001382 0.001538 0.000000 0.017050 0.000000
# 6 0.000000 0.000000 0.000000 0.010774 0.000000 0.044685
#
#
# Mechanical properties :
#
#
# Convention : Reuss Voigt Hill
#
# Bulk Modulus (GPa) = 42.18131 46.46462 44.32296
# Shear Modulus (GPa) = 31.70831 37.81219 34.76025
#
# Velocity S-wave (km/s) = 3.74660 4.09135 3.92276
# Velocity P-wave (km/s) = 6.11468 6.54892 6.33552
#
# Compressibility (1/GPa) = 0.02370718
#
# Stress axis : x y z
#
# Youngs Moduli (GPa) = 95.25463 64.85705 110.41092
#
# Poissons Ratio (x) = 0.15606 0.28961
# Poissons Ratio (y) = 0.22920 0.06670
# Poissons Ratio (z) = 0.24986 0.03918
#
# Static dielectric constant tensor:
#      x y z
#    x 4.183420 0.000000 -0.004980 
#    y 0.000000 4.119650 0.000000 
#    z -0.004980 0.000000 3.673140 
# 
# 
# High freq. dielectric constant tensor:
#      x y z
#    x 1.902810 0.000000 -0.006340 
#    y 0.000000 1.887480 0.000000 
#    z -0.006340 0.000000 1.908390 
# 
# From -- ./inp_files/48203.got.cif
#   From: 2010.06.25/outbox.cif.g09.slc.cpg/sg13_25_cif.got.tgz:48203.got - 2010.06.28 04:50:58.
