data_PCOD8122742
_publ_section_title
;
Structure prediction by ZEFSAII (Michael W. Deem and Ramdas Pophale) SiO2 
 PCOD8122742
Probable space group: P 2/C
;
_chemical_formula_sum "Si O2"
_cell_formula_units_Z 18
_cell_length_a 8.473902
_cell_length_b 7.587163
_cell_length_c 18.267450
_cell_angle_alpha 90.000000
_cell_angle_beta 43.107236
_cell_angle_gamma 90.000000
_cell_volume 802.590721
_symmetry_space_group_name_H-M "P 2/C"
_symmetry_group_IT_number 13
_symmetry_cell_setting 'monoclinic'
loop_
_space_group_symop_operation_xyz
x,y,z
-x,y,1/2-z
-x,-y,-z
x,-y,1/2+z
loop_
_atom_site_type_symbol
_atom_site_label
_atom_site_fract_x
_atom_site_fract_y
_atom_site_fract_z
Si Si1 0.243964 0.783810 0.463534
Si Si2 0.500000 0.710560 0.750000
Si Si3 0.186541 0.535748 0.086331
Si Si4 0.806273 0.826797 0.524725
Si Si5 0.680424 0.430512 0.799880
O O1 0.157293 0.652101 0.556510
O O2 0.498624 0.728513 0.348381
O O3 0.074405 0.779576 0.450409
O O4 0.236391 0.982828 0.498169
O O5 0.682641 0.832244 0.645912
O O6 0.626255 0.595466 0.767920
O O7 0.344363 0.516888 0.105365
O O8 0.942035 0.622454 0.193000
O O9 0.298708 0.675690 0.991786
#
# Coordination Sequence:
#
# PCOD8122742 Si02
#       5
#     4   2   4   4   4
#     4  11  23  43  67  97 130 174 217 273 325 393
#     4  12  22  42  64  98 126 174 220 272 330 392
#     4  11  23  46  64 100 131 177 216 271 333 390
#     4  11  25  41  69  96 133 170 222 267 332 393
#     4  11  24  41  72  93 136 172 220 275 328 389
#
# _framework density 22.427372999999999
#
# number of rings (size 3 to 8) (size 9 to 14) (size 15 to 20)
#    0.000    0.889    4.444    2.667    0.000    5.333 
#    0.000    2.222    0.000    0.000    0.000    0.000 
#    0.000    0.000    0.000    0.000    0.000    0.000 
#
# Total GULP energy -223179.961716 kJ/mol
# GULP energy per Si atom -12398.886762 kJ/mol
# Density = 2.237633 g / cm^3
# Si number density = 22.427373 Si / 1000 Ang^3
#
#
#
# Elastic Constant Matrix: (Units=GPa)
#
#
# Indices 1 2 3 4 5 6 
#
# 1 99.1508 66.0662 33.6579 0.0000 3.0641 0.0000
# 2 66.0662 168.5486 49.5752 0.0000 15.4219 0.0000
# 3 33.6579 49.5752 103.0373 0.0000 13.3412 0.0000
# 4 0.0000 0.0000 0.0000 24.9497 0.0000 -6.4809
# 5 3.0641 15.4219 13.3412 0.0000 37.1163 0.0000
# 6 0.0000 0.0000 0.0000 -6.4809 0.0000 17.6218
#
#
#
# Elastic Compliance Matrix: (Units=1/GPa)
#
#
# Indices 1 2 3 4 5 6 
#
# 1 0.014202 -0.005007 -0.002463 0.000000 0.001793 0.000000
# 2 -0.005007 0.008787 -0.002279 0.000000 -0.002419 0.000000
# 3 -0.002463 -0.002279 0.012017 0.000000 -0.003169 0.000000
# 4 0.000000 0.000000 0.000000 0.044314 0.000000 0.016298
# 5 0.001793 -0.002419 -0.003169 0.000000 0.028938 0.000000
# 6 0.000000 0.000000 0.000000 0.016298 0.000000 0.062742
#
#
# Mechanical properties :
#
#
# Convention : Reuss Voigt Hill
#
# Bulk Modulus (GPa) = 64.47805 74.37057 69.42431
# Shear Modulus (GPa) = 25.55370 30.70005 28.12687
#
# Velocity S-wave (km/s) = 3.37916 3.70383 3.54521
# Velocity P-wave (km/s) = 6.63604 7.17801 6.91234
#
# Compressibility (1/GPa) = 0.01550915
#
# Stress axis : x y z
#
# Youngs Moduli (GPa) = 70.41178 113.80279 83.21841
#
# Poissons Ratio (x) = 0.56976 0.20493
# Poissons Ratio (y) = 0.35252 0.18967
# Poissons Ratio (z) = 0.17339 0.25938
#
# Static dielectric constant tensor:
#      x y z
#    x 4.164450 0.000000 -0.146570 
#    y 0.000000 3.725680 0.000000 
#    z -0.146570 0.000000 4.380270 
# 
# 
# High freq. dielectric constant tensor:
#      x y z
#    x 1.892380 0.000000 -0.011080 
#    y 0.000000 1.862110 0.000000 
#    z -0.011080 0.000000 1.898510 
# 
# From -- ./inp_files/45477.got.cif
#   From: 2010.06.25/outbox.cif.g09.slc.cpg/sg13_23_cif.got.tgz:45477.got - 2010.06.28 04:50:58.
