data_PCOD8122588
_publ_section_title
;
Structure prediction by ZEFSAII (Michael W. Deem and Ramdas Pophale) SiO2 
 PCOD8122588
Probable space group: P 2/C
;
_chemical_formula_sum "Si O2"
_cell_formula_units_Z 32
_cell_length_a 13.605499
_cell_length_b 11.959872
_cell_length_c 16.992870
_cell_angle_alpha 90.000000
_cell_angle_beta 32.249436
_cell_angle_gamma 90.000000
_cell_volume 1475.463943
_symmetry_space_group_name_H-M "P 2/C"
_symmetry_group_IT_number 13
_symmetry_cell_setting 'monoclinic'
loop_
_space_group_symop_operation_xyz
x,y,z
-x,y,1/2-z
-x,-y,-z
x,-y,1/2+z
loop_
_atom_site_type_symbol
_atom_site_label
_atom_site_fract_x
_atom_site_fract_y
_atom_site_fract_z
Si Si1 0.059079 0.091304 0.621205
Si Si2 0.743759 0.283692 0.244129
Si Si3 0.657712 0.264503 0.040980
Si Si4 0.844880 0.582889 0.527815
Si Si5 0.557212 0.391865 0.508713
Si Si6 0.306874 0.360319 0.918844
Si Si7 0.815110 0.291105 0.765455
Si Si8 0.960386 0.841796 0.870463
O O1 0.255715 0.152555 0.480204
O O2 0.000000 0.076024 0.750000
O O3 0.902632 0.169183 0.684307
O O4 0.087423 0.967311 0.568320
O O5 0.553723 0.239483 0.335270
O O6 0.839922 0.372439 0.120729
O O7 0.711205 0.336324 0.351169
O O8 0.874339 0.181933 0.180016
O O9 0.676942 0.362570 0.092098
O O10 0.777494 0.300160 0.884098
O O11 0.813483 0.448753 0.550557
O O12 0.041071 0.612267 0.355975
O O13 0.500000 0.500000 0.500000
O O14 0.654522 0.421521 0.524217
O O15 0.379924 0.311539 0.645973
O O16 0.500000 0.330142 0.750000
O O17 0.203046 0.243583 0.999620
O O18 0.000000 0.834306 0.750000
#
# Coordination Sequence:
#
# PCOD8122588 Si02
#       8
#     4   4   4   4   4   4   4   4
#     4   8  17  39  65  90 123 165 213 265 305 368
#     4  11  23  40  62  97 124 165 210 258 311 381
#     4   9  18  39  65  95 123 158 211 261 315 363
#     4  11  22  39  67  93 124 160 208 262 314 375
#     4  11  23  40  62  94 130 163 212 259 318 388
#     4  12  26  42  60  88 132 167 201 259 326 375
#     4   9  20  38  66  93 123 165 211 259 314 372
#     4  11  24  44  62  91 129 170 212 257 312 378
#
# _framework density 21.688094
#
# number of rings (size 3 to 8) (size 9 to 14) (size 15 to 20)
#    0.000    1.750    1.250    4.500    3.500    1.500 
#    2.250    7.500    0.000    0.000    0.000    0.000 
#    0.000    0.000    0.000    0.000    0.000    0.000 
#
# Total GULP energy -396607.888866 kJ/mol
# GULP energy per Si atom -12393.996527 kJ/mol
# Density = 2.163873 g / cm^3
# Si number density = 21.688094 Si / 1000 Ang^3
#
#
#
# Elastic Constant Matrix: (Units=GPa)
#
#
# Indices 1 2 3 4 5 6 
#
# 1 81.7378 20.5262 25.2854 0.0000 -6.0813 0.0000
# 2 20.5262 142.4511 45.1938 0.0000 -5.6440 0.0000
# 3 25.2854 45.1938 111.8875 0.0000 -5.9183 0.0000
# 4 0.0000 0.0000 0.0000 -32.3128 0.0000 12.4874
# 5 -6.0813 -5.6440 -5.9183 0.0000 15.0726 0.0000
# 6 0.0000 0.0000 0.0000 12.4874 0.0000 23.9240
#
#
#
# Elastic Compliance Matrix: (Units=1/GPa)
#
#
# Indices 1 2 3 4 5 6 
#
# 1 0.013550 -0.001017 -0.002433 0.000000 0.004131 0.000000
# 2 -0.001017 0.008175 -0.002994 0.000000 0.001475 0.000000
# 3 -0.002433 -0.002994 0.010810 0.000000 0.002142 0.000000
# 4 0.000000 0.000000 0.000000 -0.025753 0.000000 0.013442
# 5 0.004131 0.001475 0.002142 0.000000 0.069405 0.000000
# 6 0.000000 0.000000 0.000000 0.013442 0.000000 0.034783
#
#
# Mechanical properties :
#
#
# Convention : Reuss Voigt Hill
#
# Bulk Modulus (GPa) = 50.89918 57.56522 54.23220
# Shear Modulus (GPa) = 38.34167 17.67485 28.00826
#
# Velocity S-wave (km/s) = 4.20916 2.85784 3.59752
# Velocity P-wave (km/s) = 6.86603 6.12288 6.50508
#
# Compressibility (1/GPa) = 0.01964668
#
# Stress axis : x y z
#
# Youngs Moduli (GPa) = 73.80332 122.32646 92.50669
#
# Poissons Ratio (x) = 0.12439 0.22505
# Poissons Ratio (y) = 0.07505 0.27698
# Poissons Ratio (z) = 0.17955 0.36626
#
# Static dielectric constant tensor:
#      x y z
#    x 4.165360 0.000000 -0.209300 
#    y 0.000000 3.455730 0.000000 
#    z -0.209300 0.000000 4.159540 
# 
# 
# High freq. dielectric constant tensor:
#      x y z
#    x 1.853790 0.000000 -0.002580 
#    y 0.000000 1.836030 0.000000 
#    z -0.002580 0.000000 1.855850 
# 
# From -- ./inp_files/68646.got.cif
#   From: 2010.06.25/outbox.cif.g09.slc.cpg/sg13_35_cif.got.tgz:68646.got - 2010.06.28 04:50:58.
