data_PCOD8122440
_publ_section_title
;
Structure prediction by ZEFSAII (Michael W. Deem and Ramdas Pophale) SiO2 
 PCOD8122440
Probable space group: P 2/C
;
_chemical_formula_sum "Si O2"
_cell_formula_units_Z 24
_cell_length_a 23.031296
_cell_length_b 10.742661
_cell_length_c 23.600980
_cell_angle_alpha 90.000000
_cell_angle_beta 167.959325
_cell_angle_gamma 90.000000
_cell_volume 1218.111825
_symmetry_space_group_name_H-M "P 2/C"
_symmetry_group_IT_number 13
_symmetry_cell_setting 'monoclinic'
loop_
_space_group_symop_operation_xyz
x,y,z
-x,y,1/2-z
-x,-y,-z
x,-y,1/2+z
loop_
_atom_site_type_symbol
_atom_site_label
_atom_site_fract_x
_atom_site_fract_y
_atom_site_fract_z
Si Si1 0.014773 0.326925 0.830660
Si Si2 0.785361 0.047077 0.093974
Si Si3 0.706135 0.999309 0.247931
Si Si4 0.495782 0.809315 0.854027
Si Si5 0.763093 0.163587 0.905286
Si Si6 0.799690 0.402551 0.008523
O O1 0.000000 0.300785 0.750000
O O2 0.715138 0.302524 0.575774
O O3 0.246726 0.236315 0.077289
O O4 0.091223 0.469948 0.914817
O O5 0.000000 0.076177 0.250000
O O6 0.954898 0.085697 0.312519
O O7 0.507295 0.125675 0.815944
O O8 0.694363 0.904377 0.009353
O O9 0.682768 0.873318 0.263961
O O10 0.639337 0.123447 0.220709
O O11 0.000000 0.000000 0.500000
O O12 0.500000 0.000000 0.000000
O O13 0.808028 0.308332 0.962856
O O14 0.500000 0.424673 0.750000
O O15 0.000000 0.353076 0.250000
#
# Coordination Sequence:
#
# PCOD8122440 Si02
#       6
#     4   4   4   4   4   4
#     4  11  22  37  57  86 122 157 185 217 272 347
#     4  11  21  33  53  85 119 145 177 229 288 349
#     4  11  23  41  61  82 109 147 196 253 303 332
#     4  11  22  37  58  84 114 150 191 234 286 344
#     4  11  22  37  58  84 113 151 193 233 285 343
#     4  11  22  37  58  85 122 160 188 219 269 346
#
# _framework density 19.702625999999999
#
# number of rings (size 3 to 8) (size 9 to 14) (size 15 to 20)
#    0.000    1.000    0.000   11.000    0.000    2.667 
#    0.000    3.333    0.000    6.000    0.000    0.000 
#    0.000    0.000    0.000    0.000    0.000    0.000 
#
# Total GULP energy -297471.169364 kJ/mol
# GULP energy per Si atom -12394.632057 kJ/mol
# Density = 1.965778 g / cm^3
# Si number density = 19.702626 Si / 1000 Ang^3
#
#
#
# Elastic Constant Matrix: (Units=GPa)
#
#
# Indices 1 2 3 4 5 6 
#
# 1 103.1809 74.8935 49.6770 0.0000 1.1148 0.0000
# 2 74.8935 127.6898 58.0117 0.0000 -9.0100 0.0000
# 3 49.6770 58.0117 150.4015 0.0000 -2.8047 0.0000
# 4 0.0000 0.0000 0.0000 38.0833 0.0000 -5.8097
# 5 1.1148 -9.0100 -2.8047 0.0000 44.0845 0.0000
# 6 0.0000 0.0000 0.0000 -5.8097 0.0000 25.6633
#
#
#
# Elastic Compliance Matrix: (Units=1/GPa)
#
#
# Indices 1 2 3 4 5 6 
#
# 1 0.017736 -0.009577 -0.002211 0.000000 -0.002547 0.000000
# 2 -0.009577 0.014798 -0.002486 0.000000 0.003108 0.000000
# 3 -0.002211 -0.002486 0.008340 0.000000 0.000078 0.000000
# 4 0.000000 0.000000 0.000000 0.027197 0.000000 0.006157
# 5 -0.002547 0.003108 0.000078 0.000000 0.023388 0.000000
# 6 0.000000 0.000000 0.000000 0.006157 0.000000 0.040360
#
#
# Mechanical properties :
#
#
# Convention : Reuss Voigt Hill
#
# Bulk Modulus (GPa) = 81.14970 82.93740 82.04355
# Shear Modulus (GPa) = 30.39934 34.81222 32.60578
#
# Velocity S-wave (km/s) = 3.93225 4.20799 4.07245
# Velocity P-wave (km/s) = 7.86724 8.11145 7.99027
#
# Compressibility (1/GPa) = 0.01232290
#
# Stress axis : x y z
#
# Youngs Moduli (GPa) = 56.38350 67.57734 119.90781
#
# Poissons Ratio (x) = 0.64722 0.26516
# Poissons Ratio (y) = 0.54001 0.29813
# Poissons Ratio (z) = 0.12468 0.16802
#
# Static dielectric constant tensor:
#      x y z
#    x 3.182840 0.000000 -0.063410 
#    y 0.000000 3.664930 0.000000 
#    z -0.063410 0.000000 4.173260 
# 
# 
# High freq. dielectric constant tensor:
#      x y z
#    x 1.732790 0.000000 0.004400 
#    y 0.000000 1.762340 0.000000 
#    z 0.004400 0.000000 1.808000 
# 
# From -- ./inp_files/89123.got.cif
#   From: 2010.06.25/outbox.cif.g09.slc.cpg/sg13_45_cif.got.tgz:89123.got - 2010.06.28 04:50:58.
