data_PCOD8122330
_publ_section_title
;
Structure prediction by ZEFSAII (Michael W. Deem and Ramdas Pophale) SiO2 
 PCOD8122330
Probable space group: P 2/C
;
_chemical_formula_sum "Si O2"
_cell_formula_units_Z 22
_cell_length_a 11.070719
_cell_length_b 6.305044
_cell_length_c 15.229140
_cell_angle_alpha 90.000000
_cell_angle_beta 94.656398
_cell_angle_gamma 90.000000
_cell_volume 1059.506312
_symmetry_space_group_name_H-M "P 2/C"
_symmetry_group_IT_number 13
_symmetry_cell_setting 'monoclinic'
loop_
_space_group_symop_operation_xyz
x,y,z
-x,y,1/2-z
-x,-y,-z
x,-y,1/2+z
loop_
_atom_site_type_symbol
_atom_site_label
_atom_site_fract_x
_atom_site_fract_y
_atom_site_fract_z
Si Si1 0.806038 0.800371 0.669608
Si Si2 0.459348 0.720922 0.463183
Si Si3 0.619663 0.536472 0.214089
Si Si4 0.711264 0.037712 0.984665
Si Si5 0.000000 0.484619 0.750000
Si Si6 0.190809 0.176979 0.690948
O O1 0.684148 0.672304 0.681693
O O2 0.796639 0.890311 0.570475
O O3 0.916847 0.634442 0.684076
O O4 0.822968 0.993378 0.737863
O O5 0.500000 0.500000 0.500000
O O6 0.414670 0.708530 0.360893
O O7 0.580040 0.856367 0.477449
O O8 0.337169 0.795912 0.508482
O O9 0.500000 0.440563 0.250000
O O10 0.695295 0.669373 0.289086
O O11 0.792881 0.069066 0.903139
O O12 0.925883 0.330995 0.811549
#
# Coordination Sequence:
#
# PCOD8122330 Si02
#       6
#     4   4   4   4   2   4
#     4  11  24  44  66  93 127 173 218 273 329 380
#     4  11  22  38  57 101 143 168 208 254 316 398
#     4  11  22  37  65  95 139 175 207 261 319 393
#     4  11  24  38  68  97 134 176 210 264 323 394
#     4  10  26  48  68  86 126 166 226 290 318 384
#     4  11  24  44  65  96 128 170 224 269 328 382
#
# _framework density 20.764386999999999
#
# number of rings (size 3 to 8) (size 9 to 14) (size 15 to 20)
#    0.000    1.091    5.455    0.545    2.545    1.455 
#    0.000    3.636    0.000    0.000    0.000    0.000 
#    0.000    0.000    0.000    0.000    0.000    0.000 
#
# Total GULP energy -272654.061047 kJ/mol
# GULP energy per Si atom -12393.366411 kJ/mol
# Density = 2.071713 g / cm^3
# Si number density = 20.764387 Si / 1000 Ang^3
#
#
#
# Elastic Constant Matrix: (Units=GPa)
#
#
# Indices 1 2 3 4 5 6 
#
# 1 126.9232 48.0532 56.7440 0.0000 -3.5900 0.0000
# 2 48.0532 95.9175 53.1426 0.0000 0.2260 0.0000
# 3 56.7440 53.1426 142.1920 0.0000 -0.3641 0.0000
# 4 0.0000 0.0000 0.0000 24.3002 0.0000 12.9280
# 5 -3.5900 0.2260 -0.3641 0.0000 22.3176 0.0000
# 6 0.0000 0.0000 0.0000 12.9280 0.0000 -4.6795
#
#
#
# Elastic Compliance Matrix: (Units=1/GPa)
#
#
# Indices 1 2 3 4 5 6 
#
# 1 0.010612 -0.003754 -0.002828 0.000000 0.001699 0.000000
# 2 -0.003754 0.014477 -0.003915 0.000000 -0.000814 0.000000
# 3 -0.002828 -0.003915 0.009624 0.000000 -0.000258 0.000000
# 4 0.000000 0.000000 0.000000 0.016662 0.000000 0.046032
# 5 0.001699 -0.000814 -0.000258 0.000000 0.045085 0.000000
# 6 0.000000 0.000000 0.000000 0.046032 0.000000 -0.086525
#
#
# Mechanical properties :
#
#
# Convention : Reuss Voigt Hill
#
# Bulk Modulus (GPa) = 72.88408 75.65694 74.27051
# Shear Modulus (GPa) = 140.84101 22.19384 81.51743
#
# Velocity S-wave (km/s) = 8.24472 3.27286 6.27244
# Velocity P-wave (km/s) = 11.21653 7.12721 9.39701
#
# Compressibility (1/GPa) = 0.01372042
#
# Stress axis : x y z
#
# Youngs Moduli (GPa) = 94.23079 69.07451 103.91163
#
# Poissons Ratio (x) = 0.25930 0.29383
# Poissons Ratio (y) = 0.35374 0.40678
# Poissons Ratio (z) = 0.26645 0.27040
#
# Static dielectric constant tensor:
#      x y z
#    x 4.047840 0.000000 0.297390 
#    y 0.000000 3.777840 0.000000 
#    z 0.297390 0.000000 3.818060 
# 
# 
# High freq. dielectric constant tensor:
#      x y z
#    x 1.815970 0.000000 0.009310 
#    y 0.000000 1.826600 0.000000 
#    z 0.009310 0.000000 1.803620 
# 
# From -- ./inp_files/48951.got.cif
#   From: 2010.06.25/outbox.cif.g09.slc.cpg/sg13_25_cif.got.tgz:48951.got - 2010.06.28 04:50:58.
