data_PCOD8122151
_publ_section_title
;
Structure prediction by ZEFSAII (Michael W. Deem and Ramdas Pophale) SiO2 
 PCOD8122151
Probable space group: P 2/C
;
_chemical_formula_sum "Si O2"
_cell_formula_units_Z 20
_cell_length_a 7.361270
_cell_length_b 5.061388
_cell_length_c 26.387787
_cell_angle_alpha 90.000000
_cell_angle_beta 49.709471
_cell_angle_gamma 90.000000
_cell_volume 749.932080
_symmetry_space_group_name_H-M "P 2/C"
_symmetry_group_IT_number 13
_symmetry_cell_setting 'monoclinic'
loop_
_space_group_symop_operation_xyz
x,y,z
-x,y,1/2-z
-x,-y,-z
x,-y,1/2+z
loop_
_atom_site_type_symbol
_atom_site_label
_atom_site_fract_x
_atom_site_fract_y
_atom_site_fract_z
Si Si1 0.090361 0.284667 0.180830
Si Si2 0.111082 0.179355 0.555009
Si Si3 0.362796 0.792814 0.108015
Si Si4 0.748909 0.837888 0.574231
Si Si5 0.286136 0.466833 0.324970
O O1 0.876959 0.271613 0.178777
O O2 0.000000 0.396315 0.250000
O O3 0.306848 0.482840 0.126068
O O4 0.179111 0.985452 0.170551
O O5 0.886267 0.302806 0.624806
O O6 0.330855 0.141679 0.553806
O O7 0.211532 0.328035 0.485771
O O8 0.008924 0.901544 0.551546
O O9 0.618975 0.883976 0.082777
O O10 0.606860 0.676322 0.643765
O O11 0.500000 0.572598 0.250000
#
# Coordination Sequence:
#
# PCOD8122151 Si02
#       5
#     4   4   4   4   4
#     4  11  24  44  65 103 141 184 234 294 345 427
#     4  10  24  45  64 104 135 180 234 290 341 427
#     4  11  24  44  69 101 138 185 234 288 351 412
#     4  11  23  43  71  96 137 185 227 289 355 413
#     4  11  24  42  69  99 139 182 236 289 354 416
#
# _framework density 26.669082
#
# number of rings (size 3 to 8) (size 9 to 14) (size 15 to 20)
#    0.000    1.200    2.000    3.000    5.600    0.800 
#    0.000    3.000    0.000    0.000    0.000    0.000 
#    0.000    0.000    0.000    0.000    0.000    0.000 
#
# Total GULP energy -247764.350647 kJ/mol
# GULP energy per Si atom -12388.217532 kJ/mol
# Density = 2.660838 g / cm^3
# Si number density = 26.669082 Si / 1000 Ang^3
#
#
#
# Elastic Constant Matrix: (Units=GPa)
#
#
# Indices 1 2 3 4 5 6 
#
# 1 94.9791 -4.3680 27.0221 0.0000 33.6504 0.0000
# 2 -4.3680 49.0859 16.9689 0.0000 13.8053 0.0000
# 3 27.0221 16.9689 196.3107 0.0000 20.3931 0.0000
# 4 0.0000 0.0000 0.0000 26.8524 0.0000 1.2977
# 5 33.6504 13.8053 20.3931 0.0000 45.9576 0.0000
# 6 0.0000 0.0000 0.0000 1.2977 0.0000 34.5440
#
#
#
# Elastic Compliance Matrix: (Units=1/GPa)
#
#
# Indices 1 2 3 4 5 6 
#
# 1 0.015537 0.005321 -0.001311 0.000000 -0.012393 0.000000
# 2 0.005321 0.024390 -0.001756 0.000000 -0.010444 0.000000
# 3 -0.001311 -0.001756 0.005526 0.000000 -0.000965 0.000000
# 4 0.000000 0.000000 0.000000 0.037308 0.000000 -0.001402
# 5 -0.012393 -0.010444 -0.000965 0.000000 0.034399 0.000000
# 6 0.000000 0.000000 0.000000 -0.001402 0.000000 0.029001
#
#
# Mechanical properties :
#
#
# Convention : Reuss Voigt Hill
#
# Bulk Modulus (GPa) = 20.01498 46.62464 33.31981
# Shear Modulus (GPa) = 31.58405 41.52100 36.55252
#
# Velocity S-wave (km/s) = 3.44509 3.95003 3.70617
# Velocity P-wave (km/s) = 4.83178 6.19066 5.55294
#
# Compressibility (1/GPa) = 0.04996259
#
# Stress axis : x y z
#
# Youngs Moduli (GPa) = 64.36170 40.99993 180.94794
#
# Poissons Ratio (x) = -0.21818 0.23727
# Poissons Ratio (y) = -0.34250 0.31772
# Poissons Ratio (z) = 0.08439 0.07199
#
# Static dielectric constant tensor:
#      x y z
#    x 5.183630 0.000000 0.482810 
#    y 0.000000 4.180170 0.000000 
#    z 0.482810 0.000000 5.212250 
# 
# 
# High freq. dielectric constant tensor:
#      x y z
#    x 2.093060 0.000000 0.018510 
#    y 0.000000 2.031890 0.000000 
#    z 0.018510 0.000000 2.081280 
# 
# From -- ./inp_files/90758.got.cif
#   From: 2010.06.25/outbox.cif.g09.slc.cpg/sg13_46_cif.got.tgz:90758.got - 2010.06.28 04:50:58.
