data_PCOD8122872
_publ_section_title
;
Structure prediction by ZEFSAII (Michael W. Deem and Ramdas Pophale) SiO2 
 PCOD8122872
Probable space group: P 2/C
;
_chemical_formula_sum "Si O2"
_cell_formula_units_Z 18
_cell_length_a 7.083475
_cell_length_b 7.042712
_cell_length_c 17.951602
_cell_angle_alpha 90.000000
_cell_angle_beta 70.184839
_cell_angle_gamma 90.000000
_cell_volume 842.524827
_symmetry_space_group_name_H-M "P 2/C"
_symmetry_group_IT_number 13
_symmetry_cell_setting 'monoclinic'
loop_
_space_group_symop_operation_xyz
x,y,z
-x,y,1/2-z
-x,-y,-z
x,-y,1/2+z
loop_
_atom_site_type_symbol
_atom_site_label
_atom_site_fract_x
_atom_site_fract_y
_atom_site_fract_z
Si Si1 0.746173 0.358035 0.400897
Si Si2 0.695946 0.547944 0.560885
Si Si3 0.057088 0.892349 0.918496
Si Si4 0.000000 0.572106 0.250000
Si Si5 0.706681 0.776262 0.179409
O O1 0.775460 0.495804 0.468287
O O2 0.510272 0.333090 0.417560
O O3 0.851038 0.152269 0.400776
O O4 0.840783 0.444392 0.314263
O O5 0.855312 0.683897 0.578253
O O6 0.670876 0.356691 0.612447
O O7 0.219975 0.014216 0.852551
O O8 0.000000 0.000000 0.000000
O O9 0.118981 0.698934 0.292049
O O10 0.500000 0.799706 0.250000
#
# Coordination Sequence:
#
# PCOD8122872 Si02
#       5
#     4   4   4   2   4
#     4  11  24  44  74 100 135 186 227 282 348 413
#     4  11  24  48  71  96 142 186 228 279 352 420
#     4  12  25  43  72 103 137 182 234 285 348 415
#     4  12  24  42  72 100 136 178 236 280 346 406
#     4  12  26  45  70 104 139 182 233 292 344 417
#
# _framework density 21.364355
#
# number of rings (size 3 to 8) (size 9 to 14) (size 15 to 20)
#    0.000    0.444    6.667    2.000    0.000    6.222 
#    0.000    0.000    0.000    0.000    0.000    0.000 
#    0.000    0.000    0.000    0.000    0.000    0.000 
#
# Total GULP energy -223262.075965 kJ/mol
# GULP energy per Si atom -12403.448665 kJ/mol
# Density = 2.131573 g / cm^3
# Si number density = 21.364355 Si / 1000 Ang^3
#
#
#
# Elastic Constant Matrix: (Units=GPa)
#
#
# Indices 1 2 3 4 5 6 
#
# 1 97.6733 29.5256 10.5962 0.0000 -7.2606 0.0000
# 2 29.5256 75.8074 19.5551 0.0000 -13.9040 0.0000
# 3 10.5962 19.5551 109.9239 0.0000 -16.7990 0.0000
# 4 0.0000 0.0000 0.0000 29.1065 0.0000 -4.3545
# 5 -7.2606 -13.9040 -16.7990 0.0000 39.0408 0.0000
# 6 0.0000 0.0000 0.0000 -4.3545 0.0000 32.5482
#
#
#
# Elastic Compliance Matrix: (Units=1/GPa)
#
#
# Indices 1 2 3 4 5 6 
#
# 1 0.011624 -0.004368 -0.000268 0.000000 0.000491 0.000000
# 2 -0.004368 0.016121 -0.001813 0.000000 0.004149 0.000000
# 3 -0.000268 -0.001813 0.009997 0.000000 0.003606 0.000000
# 4 0.000000 0.000000 0.000000 0.035058 0.000000 0.004690
# 5 0.000491 0.004149 0.003606 0.000000 0.028735 0.000000
# 6 0.000000 0.000000 0.000000 0.004690 0.000000 0.031351
#
#
# Mechanical properties :
#
#
# Convention : Reuss Voigt Hill
#
# Bulk Modulus (GPa) = 40.25234 44.75094 42.50164
# Shear Modulus (GPa) = 32.45356 35.05428 33.75392
#
# Velocity S-wave (km/s) = 3.90173 4.05505 3.97913
# Velocity P-wave (km/s) = 6.25938 6.55108 6.40689
#
# Compressibility (1/GPa) = 0.02484328
#
# Stress axis : x y z
#
# Youngs Moduli (GPa) = 86.02685 62.02992 100.03358
#
# Poissons Ratio (x) = 0.27096 0.02686
# Poissons Ratio (y) = 0.37578 0.18134
# Poissons Ratio (z) = 0.02310 0.11245
#
# Static dielectric constant tensor:
#      x y z
#    x 4.079770 0.000000 -0.063170 
#    y 0.000000 3.896050 0.000000 
#    z -0.063170 0.000000 4.051360 
# 
# 
# High freq. dielectric constant tensor:
#      x y z
#    x 1.857640 0.000000 -0.007660 
#    y 0.000000 1.824910 0.000000 
#    z -0.007660 0.000000 1.854400 
# 
# From -- ./inp_files/62258.got.cif
#   From: 2010.06.25/outbox.cif.g09.slc.cpg/sg13_32_cif.got.tgz:62258.got - 2010.06.28 04:50:58.
