data_PCOD8122352
_publ_section_title
;
Structure prediction by ZEFSAII (Michael W. Deem and Ramdas Pophale) SiO2 
 PCOD8122352
Probable space group: P 2/C
;
_chemical_formula_sum "Si O2"
_cell_formula_units_Z 14
_cell_length_a 19.317714
_cell_length_b 4.877139
_cell_length_c 8.884557
_cell_angle_alpha 90.000000
_cell_angle_beta 139.137702
_cell_angle_gamma 90.000000
_cell_volume 547.640967
_symmetry_space_group_name_H-M "P 2/C"
_symmetry_group_IT_number 13
_symmetry_cell_setting 'monoclinic'
loop_
_space_group_symop_operation_xyz
x,y,z
-x,y,1/2-z
-x,-y,-z
x,-y,1/2+z
loop_
_atom_site_type_symbol
_atom_site_label
_atom_site_fract_x
_atom_site_fract_y
_atom_site_fract_z
Si Si1 0.889274 0.844659 0.812362
Si Si2 0.398715 0.323445 0.834327
Si Si3 0.500000 0.009511 0.750000
Si Si4 0.816441 0.656519 0.019912
O O1 0.896845 0.570681 0.721556
O O2 0.807570 0.067382 0.606810
O O3 0.855204 0.751243 0.921090
O O4 0.000000 0.000000 0.000000
O O5 0.409275 0.164467 0.695047
O O6 0.296614 0.513417 0.674232
O O7 0.500000 0.500000 0.000000
O O8 0.412425 0.142609 0.005069
#
# Coordination Sequence:
#
# PCOD8122352 Si02
#       4
#     4   4   2   4
#     4  12  29  56  85 123 165 218 287 356 418 493
#     4  11  27  46  79 116 168 217 273 335 408 505
#     4  10  26  50  74 112 178 212 278 336 410 476
#     4  12  30  52  88 121 167 224 278 341 431 496
#
# _framework density 25.564195999999999
#
# number of rings (size 3 to 8) (size 9 to 14) (size 15 to 20)
#    0.000    0.571    0.000    4.286   16.000    2.286 
#    0.000    0.000    0.000    0.000    0.000    0.000 
#    0.000    0.000    0.000    0.000    0.000    0.000 
#
# Total GULP energy -173476.506421 kJ/mol
# GULP energy per Si atom -12391.179030 kJ/mol
# Density = 2.550601 g / cm^3
# Si number density = 25.564196 Si / 1000 Ang^3
#
#
#
# Elastic Constant Matrix: (Units=GPa)
#
#
# Indices 1 2 3 4 5 6 
#
# 1 209.1990 110.2093 121.8179 0.0000 -22.9706 0.0000
# 2 110.2093 193.6226 72.8927 0.0000 -37.7129 0.0000
# 3 121.8179 72.8927 131.8895 0.0000 -32.9330 0.0000
# 4 0.0000 0.0000 0.0000 129.6049 0.0000 -58.9359
# 5 -22.9706 -37.7129 -32.9330 0.0000 44.7306 0.0000
# 6 0.0000 0.0000 0.0000 -58.9359 0.0000 122.9021
#
#
#
# Elastic Compliance Matrix: (Units=1/GPa)
#
#
# Indices 1 2 3 4 5 6 
#
# 1 0.012532 -0.004110 -0.010490 0.000000 -0.004753 0.000000
# 2 -0.004110 0.008345 0.000507 0.000000 0.005298 0.000000
# 3 -0.010490 0.000507 0.019301 0.000000 0.009251 0.000000
# 4 0.000000 0.000000 0.000000 0.009867 0.000000 0.004732
# 5 -0.004753 0.005298 0.009251 0.000000 0.031193 0.000000
# 6 0.000000 0.000000 0.000000 0.004732 0.000000 0.010406
#
#
# Mechanical properties :
#
#
# Convention : Reuss Voigt Hill
#
# Bulk Modulus (GPa) = 83.39211 127.17232 105.28221
# Shear Modulus (GPa) = 40.37841 74.76694 57.57268
#
# Velocity S-wave (km/s) = 3.97859 5.41389 4.75076
# Velocity P-wave (km/s) = 7.33465 9.43051 8.44783
#
# Compressibility (1/GPa) = 0.01199154
#
# Stress axis : x y z
#
# Youngs Moduli (GPa) = 79.79666 119.83060 51.80987
#
# Poissons Ratio (x) = 0.49245 0.54351
# Poissons Ratio (y) = 0.32793 -0.02624
# Poissons Ratio (z) = 0.83710 -0.06070
#
# Static dielectric constant tensor:
#      x y z
#    x 5.804570 0.000000 -0.205520 
#    y 0.000000 5.511030 0.000000 
#    z -0.205520 0.000000 4.995620 
# 
# 
# High freq. dielectric constant tensor:
#      x y z
#    x 2.027220 0.000000 -0.011630 
#    y 0.000000 2.051640 0.000000 
#    z -0.011630 0.000000 2.045010 
# 
# From -- ./inp_files/22136.got.cif
#   From: 2010.06.25/outbox.cif.g09.slc.cpg/sg13_12_cif.got.tgz:22136.got - 2010.06.28 04:50:58.
