data_PCOD8122229
_publ_section_title
;
Structure prediction by ZEFSAII (Michael W. Deem and Ramdas Pophale) SiO2 
 PCOD8122229
Probable space group: P 2/C
;
_chemical_formula_sum "Si O2"
_cell_formula_units_Z 14
_cell_length_a 4.976341
_cell_length_b 8.141199
_cell_length_c 16.832471
_cell_angle_alpha 90.000000
_cell_angle_beta 48.802543
_cell_angle_gamma 90.000000
_cell_volume 513.122010
_symmetry_space_group_name_H-M "P 2/C"
_symmetry_group_IT_number 13
_symmetry_cell_setting 'monoclinic'
loop_
_space_group_symop_operation_xyz
x,y,z
-x,y,1/2-z
-x,-y,-z
x,-y,1/2+z
loop_
_atom_site_type_symbol
_atom_site_label
_atom_site_fract_x
_atom_site_fract_y
_atom_site_fract_z
Si Si1 0.500000 0.412174 0.750000
Si Si2 0.080906 0.188870 0.942912
Si Si3 0.130419 0.277343 0.347157
Si Si4 0.733170 0.016426 0.867929
O O1 0.399943 0.301416 0.844923
O O2 0.842857 0.536914 0.694318
O O3 0.311648 0.027178 0.926589
O O4 0.790299 0.132026 0.934231
O O5 0.905720 0.286260 0.050178
O O6 0.500000 0.182090 0.250000
O O7 0.808793 0.176033 0.369960
O O8 0.000000 0.087593 0.750000
#
# Coordination Sequence:
#
# PCOD8122229 Si02
#       4
#     2   4   4   4
#     4  10  24  48  76 108 156 190 246 300 380 434
#     4  12  24  50  75 108 144 203 239 307 364 446
#     4  10  25  45  76 110 152 187 252 301 372 428
#     4  12  24  47  76 106 146 191 256 298 365 431
#
# _framework density 27.283958999999999
#
# number of rings (size 3 to 8) (size 9 to 14) (size 15 to 20)
#    0.857    0.000    2.857    4.286    0.000    2.286 
#    5.143    2.857    0.000    0.000    0.000    0.000 
#    0.000    0.000    0.000    0.000    0.000    0.000 
#
# Total GULP energy -173534.726014 kJ/mol
# GULP energy per Si atom -12395.337572 kJ/mol
# Density = 2.722186 g / cm^3
# Si number density = 27.283959 Si / 1000 Ang^3
#
#
#
# Elastic Constant Matrix: (Units=GPa)
#
#
# Indices 1 2 3 4 5 6 
#
# 1 120.1666 14.6465 38.3198 0.0000 -14.2047 0.0000
# 2 14.6465 105.2407 19.5158 0.0000 5.2590 0.0000
# 3 38.3198 19.5158 203.9229 0.0000 28.6765 0.0000
# 4 0.0000 0.0000 0.0000 36.3194 0.0000 -1.9700
# 5 -14.2047 5.2590 28.6765 0.0000 45.4756 0.0000
# 6 0.0000 0.0000 0.0000 -1.9700 0.0000 7.0950
#
#
#
# Elastic Compliance Matrix: (Units=1/GPa)
#
#
# Indices 1 2 3 4 5 6 
#
# 1 0.009778 -0.001153 -0.002387 0.000000 0.004693 0.000000
# 2 -0.001153 0.009824 -0.000563 0.000000 -0.001141 0.000000
# 3 -0.002387 -0.000563 0.006037 0.000000 -0.004488 0.000000
# 4 0.000000 0.000000 0.000000 0.027954 0.000000 0.007762
# 5 0.004693 -0.001141 -0.004488 0.000000 0.026417 0.000000
# 6 0.000000 0.000000 0.000000 0.007762 0.000000 0.143100
#
#
# Mechanical properties :
#
#
# Convention : Reuss Voigt Hill
#
# Bulk Modulus (GPa) = 57.36016 63.81048 60.58532
# Shear Modulus (GPa) = 21.08562 41.56788 31.32675
#
# Velocity S-wave (km/s) = 2.78298 3.90747 3.39215
# Velocity P-wave (km/s) = 5.60319 6.61786 6.13155
#
# Compressibility (1/GPa) = 0.01743370
#
# Stress axis : x y z
#
# Youngs Moduli (GPa) = 102.26814 101.79268 165.63614
#
# Poissons Ratio (x) = 0.11734 0.39539
# Poissons Ratio (y) = 0.11788 0.09327
# Poissons Ratio (z) = 0.24412 0.05732
#
# Static dielectric constant tensor:
#      x y z
#    x 4.413900 0.000000 0.245890 
#    y 0.000000 4.824010 0.000000 
#    z 0.245890 0.000000 5.774160 
# 
# 
# High freq. dielectric constant tensor:
#      x y z
#    x 2.066030 0.000000 0.009030 
#    y 0.000000 2.082840 0.000000 
#    z 0.009030 0.000000 2.159640 
# 
# From -- ./inp_files/25297.got.cif
#   From: 2010.06.25/outbox.cif.g09.slc.cpg/sg13_13_cif.got.tgz:25297.got - 2010.06.28 04:50:58.
