data_PCOD8122779
_publ_section_title
;
Structure prediction by ZEFSAII (Michael W. Deem and Ramdas Pophale) SiO2 
 PCOD8122779
Probable space group: P 2/C
;
_chemical_formula_sum "Si O2"
_cell_formula_units_Z 28
_cell_length_a 27.538087
_cell_length_b 9.093465
_cell_length_c 8.980665
_cell_angle_alpha 90.000000
_cell_angle_beta 35.794888
_cell_angle_gamma 90.000000
_cell_volume 1315.353172
_symmetry_space_group_name_H-M "P 2/C"
_symmetry_group_IT_number 13
_symmetry_cell_setting 'monoclinic'
loop_
_space_group_symop_operation_xyz
x,y,z
-x,y,1/2-z
-x,-y,-z
x,-y,1/2+z
loop_
_atom_site_type_symbol
_atom_site_label
_atom_site_fract_x
_atom_site_fract_y
_atom_site_fract_z
Si Si1 0.502909 0.157668 0.563624
Si Si2 0.898542 0.833098 0.296177
Si Si3 0.914521 0.826289 0.761039
Si Si4 0.827315 0.331375 0.235332
Si Si5 0.644553 0.659564 0.571239
Si Si6 0.638015 0.349679 0.733030
Si Si7 0.171448 0.672875 0.286556
O O1 0.500000 0.155428 0.750000
O O2 0.589122 0.220505 0.289947
O O3 0.424786 0.242866 0.691901
O O4 0.500000 0.000000 0.500000
O O5 0.883066 0.783016 0.503174
O O6 0.831387 0.732129 0.375670
O O7 0.884052 0.006803 0.312830
O O8 0.992556 0.796306 0.020686
O O9 0.852051 0.710200 0.840551
O O10 0.901363 0.776589 0.963967
O O11 0.730094 0.301283 0.456179
O O12 0.850523 0.500822 0.147684
O O13 0.620303 0.510004 0.713481
O O14 0.625980 0.649873 0.441306
O O15 0.739463 0.704536 0.363250
#
# Coordination Sequence:
#
# PCOD8122779 Si02
#       7
#     4   4   4   4   4   4   4
#     4  12  27  46  71 104 142 178 224 274 331 400
#     4  11  25  39  67  90 135 178 223 281 344 411
#     4  11  23  45  59  96 131 178 225 277 346 411
#     4  11  24  41  67  97 131 173 228 280 337 401
#     4  11  24  45  71  99 136 177 224 276 340 406
#     4  11  24  45  71  99 136 177 224 276 340 406
#     4  11  24  41  67  97 131 173 228 280 337 401
#
# _framework density 21.28706
#
# number of rings (size 3 to 8) (size 9 to 14) (size 15 to 20)
#    0.000    0.857    1.429    5.143    8.000    8.000 
#    0.000    0.000    0.000    0.000    0.000    0.000 
#    0.000    0.000    0.000    0.000    0.000    0.000 
#
# Total GULP energy -347200.711720 kJ/mol
# GULP energy per Si atom -12400.025419 kJ/mol
# Density = 2.123861 g / cm^3
# Si number density = 21.287060 Si / 1000 Ang^3
#
#
#
# Elastic Constant Matrix: (Units=GPa)
#
#
# Indices 1 2 3 4 5 6 
#
# 1 112.6548 59.0144 29.9185 0.0000 9.9004 0.0000
# 2 59.0144 127.5026 78.9552 0.0000 -11.6646 0.0000
# 3 29.9185 78.9552 115.4698 0.0000 11.3427 0.0000
# 4 0.0000 0.0000 0.0000 196.1119 0.0000 -21.4532
# 5 9.9004 -11.6646 11.3427 0.0000 34.2122 0.0000
# 6 0.0000 0.0000 0.0000 -21.4532 0.0000 45.0566
#
#
#
# Elastic Compliance Matrix: (Units=1/GPa)
#
#
# Indices 1 2 3 4 5 6 
#
# 1 0.013483 -0.009255 0.003647 0.000000 -0.008266 0.000000
# 2 -0.009255 0.022451 -0.014439 0.000000 0.015120 0.000000
# 3 0.003647 -0.014439 0.018787 0.000000 -0.012207 0.000000
# 4 0.000000 0.000000 0.000000 0.005379 0.000000 0.002561
# 5 -0.008266 0.015120 -0.012207 0.000000 0.040824 0.000000
# 6 0.000000 0.000000 0.000000 0.002561 0.000000 0.023414
#
#
# Mechanical properties :
#
#
# Convention : Reuss Voigt Hill
#
# Bulk Modulus (GPa) = 68.36427 76.82259 72.59343
# Shear Modulus (GPa) = 29.53211 67.59209 48.56210
#
# Velocity S-wave (km/s) = 3.72872 5.64106 4.78147
# Velocity P-wave (km/s) = 7.12201 8.86544 8.04111
#
# Compressibility (1/GPa) = 0.01462752
#
# Stress axis : x y z
#
# Youngs Moduli (GPa) = 74.16776 44.54146 53.22792
#
# Poissons Ratio (x) = 0.41224 -0.19412
# Poissons Ratio (y) = 0.68644 0.76854
# Poissons Ratio (z) = -0.27049 0.64312
#
# Static dielectric constant tensor:
#      x y z
#    x 4.093690 0.000000 0.066740 
#    y 0.000000 3.735590 0.000000 
#    z 0.066740 0.000000 3.909520 
# 
# 
# High freq. dielectric constant tensor:
#      x y z
#    x 1.852800 0.000000 0.008420 
#    y 0.000000 1.840940 0.000000 
#    z 0.008420 0.000000 1.848490 
# 
# From -- ./inp_files/24560.got.cif
#   From: 2010.06.25/outbox.cif.g09.slc.cpg/sg13_13_cif.got.tgz:24560.got - 2010.06.28 04:50:58.
