data_PCOD8122777
_publ_section_title
;
Structure prediction by ZEFSAII (Michael W. Deem and Ramdas Pophale) SiO2 
 PCOD8122777
Probable space group: P 2/C
;
_chemical_formula_sum "Si O2"
_cell_formula_units_Z 22
_cell_length_a 9.803273
_cell_length_b 6.309177
_cell_length_c 17.011864
_cell_angle_alpha 90.000000
_cell_angle_beta 65.849635
_cell_angle_gamma 90.000000
_cell_volume 960.100358
_symmetry_space_group_name_H-M "P 2/C"
_symmetry_group_IT_number 13
_symmetry_cell_setting 'monoclinic'
loop_
_space_group_symop_operation_xyz
x,y,z
-x,y,1/2-z
-x,-y,-z
x,-y,1/2+z
loop_
_atom_site_type_symbol
_atom_site_label
_atom_site_fract_x
_atom_site_fract_y
_atom_site_fract_z
Si Si1 0.411418 0.189981 0.983393
Si Si2 0.000000 0.967497 0.750000
Si Si3 0.187855 0.674861 0.801677
Si Si4 0.070369 0.333874 0.625931
Si Si5 0.649211 0.492396 0.862647
Si Si6 0.834578 0.908629 0.535667
O O1 0.516446 0.322328 0.899214
O O2 0.271606 0.100200 0.967456
O O3 0.361053 0.332863 0.067409
O O4 0.500000 0.000000 0.000000
O O5 0.861872 0.815953 0.761587
O O6 0.985381 0.103447 0.833053
O O7 0.342274 0.575349 0.730008
O O8 0.226534 0.818262 0.867740
O O9 0.061675 0.502508 0.856153
O O10 0.184748 0.395961 0.667406
O O11 0.163422 0.293567 0.523704
O O12 0.000000 0.000000 0.500000
#
# Coordination Sequence:
#
# PCOD8122777 Si02
#       6
#     4   2   4   4   4   4
#     4  11  25  47  76  98 138 199 235 289 361 438
#     4  12  20  38  70 104 136 186 236 284 366 420
#     4  12  24  40  70 110 143 183 239 309 357 425
#     4  12  22  42  73 105 139 184 237 299 355 432
#     4  11  23  44  76  99 141 191 247 283 360 444
#     4  12  25  44  74 107 145 183 240 299 363 421
#
# _framework density 22.914269000000001
#
# number of rings (size 3 to 8) (size 9 to 14) (size 15 to 20)
#    0.000    0.364    7.273    2.727    0.000    0.000 
#    0.000    0.909    8.000    0.000    0.000    0.000 
#    0.000    0.000    0.000    0.000    0.000    0.000 
#
# Total GULP energy -272701.225008 kJ/mol
# GULP energy per Si atom -12395.510228 kJ/mol
# Density = 2.286211 g / cm^3
# Si number density = 22.914269 Si / 1000 Ang^3
#
#
#
# Elastic Constant Matrix: (Units=GPa)
#
#
# Indices 1 2 3 4 5 6 
#
# 1 105.4861 52.8691 43.1558 0.0000 -8.1363 0.0000
# 2 52.8691 123.3904 55.7358 0.0000 -5.5900 0.0000
# 3 43.1558 55.7358 144.5738 0.0000 -9.2197 0.0000
# 4 0.0000 0.0000 0.0000 45.6757 0.0000 0.7351
# 5 -8.1363 -5.5900 -9.2197 0.0000 31.4361 0.0000
# 6 0.0000 0.0000 0.0000 0.7351 0.0000 32.9683
#
#
#
# Elastic Compliance Matrix: (Units=1/GPa)
#
#
# Indices 1 2 3 4 5 6 
#
# 1 0.012656 -0.004461 -0.001936 0.000000 0.001914 0.000000
# 2 -0.004461 0.011399 -0.003064 0.000000 -0.000026 0.000000
# 3 -0.001936 -0.003064 0.008773 0.000000 0.001527 0.000000
# 4 0.000000 0.000000 0.000000 0.021901 0.000000 -0.000488
# 5 0.001914 -0.000026 0.001527 0.000000 0.032749 0.000000
# 6 0.000000 0.000000 0.000000 -0.000488 0.000000 0.030343
#
#
# Mechanical properties :
#
#
# Convention : Reuss Voigt Hill
#
# Bulk Modulus (GPa) = 71.91718 75.21910 73.56814
# Shear Modulus (GPa) = 35.36574 36.79532 36.08053
#
# Velocity S-wave (km/s) = 3.93287 4.01157 3.97241
# Velocity P-wave (km/s) = 7.21642 7.37255 7.29490
#
# Compressibility (1/GPa) = 0.01390488
#
# Stress axis : x y z
#
# Youngs Moduli (GPa) = 79.01668 87.72715 113.97989
#
# Poissons Ratio (x) = 0.39139 0.22063
# Poissons Ratio (y) = 0.35253 0.34928
# Poissons Ratio (z) = 0.15295 0.26883
#
# Static dielectric constant tensor:
#      x y z
#    x 4.048090 0.000000 0.037760 
#    y 0.000000 4.124920 0.000000 
#    z 0.037760 0.000000 4.343400 
# 
# 
# High freq. dielectric constant tensor:
#      x y z
#    x 1.880860 0.000000 -0.006590 
#    y 0.000000 1.923660 0.000000 
#    z -0.006590 0.000000 1.918080 
# 
# From -- ./inp_files/65093.got.cif
#   From: 2010.06.25/outbox.cif.g09.slc.cpg/sg13_33_cif.got.tgz:65093.got - 2010.06.28 04:50:58.
