data_PCOD8122567
_publ_section_title
;
Structure prediction by ZEFSAII (Michael W. Deem and Ramdas Pophale) SiO2 
 PCOD8122567
Probable space group: P 2/C
;
_chemical_formula_sum "Si O2"
_cell_formula_units_Z 18
_cell_length_a 12.794666
_cell_length_b 8.377053
_cell_length_c 9.393158
_cell_angle_alpha 90.000000
_cell_angle_beta 125.229440
_cell_angle_gamma 90.000000
_cell_volume 822.381659
_symmetry_space_group_name_H-M "P 2/C"
_symmetry_group_IT_number 13
_symmetry_cell_setting 'monoclinic'
loop_
_space_group_symop_operation_xyz
x,y,z
-x,y,1/2-z
-x,-y,-z
x,-y,1/2+z
loop_
_atom_site_type_symbol
_atom_site_label
_atom_site_fract_x
_atom_site_fract_y
_atom_site_fract_z
Si Si1 0.854513 0.656145 0.672718
Si Si2 0.257102 0.476007 0.147236
Si Si3 0.500000 0.325008 0.250000
Si Si4 0.146293 0.979040 0.658196
Si Si5 0.745789 0.823886 0.017125
O O1 0.773286 0.639699 0.461781
O O2 0.802835 0.521390 0.742646
O O3 0.000000 0.621541 0.750000
O O4 0.833167 0.830129 0.720356
O O5 0.409918 0.438369 0.278001
O O6 0.188661 0.334914 0.999163
O O7 0.593182 0.210735 0.417593
O O8 0.193210 0.133704 0.782887
O O9 0.230554 0.963284 0.581699
O O10 0.000000 0.000000 0.500000
#
# Coordination Sequence:
#
# PCOD8122567 Si02
#       5
#     4   4   2   4   4
#     4  11  22  38  61  93 120 155 203 251 311 361
#     4   9  22  40  61  86 121 160 199 251 302 359
#     4   8  20  46  58  84 124 164 204 244 306 358
#     4  11  22  39  62  93 123 156 201 253 307 361
#     4   9  21  40  62  86 122 162 196 252 302 357
#
# _framework density 21.887647999999999
#
# number of rings (size 3 to 8) (size 9 to 14) (size 15 to 20)
#    1.333    0.889    0.000    2.667    0.000    8.889 
#    0.000    1.111    0.000    0.000    0.000    0.000 
#    0.000    0.000    0.000    0.000    0.000    0.000 
#
# Total GULP energy -222999.529401 kJ/mol
# GULP energy per Si atom -12388.862744 kJ/mol
# Density = 2.183783 g / cm^3
# Si number density = 21.887648 Si / 1000 Ang^3
#
#
#
# Elastic Constant Matrix: (Units=GPa)
#
#
# Indices 1 2 3 4 5 6 
#
# 1 130.5508 5.9880 43.9062 0.0000 9.9698 0.0000
# 2 5.9880 14.0542 10.6458 0.0000 3.7836 0.0000
# 3 43.9062 10.6458 93.9729 0.0000 11.3742 0.0000
# 4 0.0000 0.0000 0.0000 33.9090 0.0000 -17.6227
# 5 9.9698 3.7836 11.3742 0.0000 43.3129 0.0000
# 6 0.0000 0.0000 0.0000 -17.6227 0.0000 2.5859
#
#
#
# Elastic Compliance Matrix: (Units=1/GPa)
#
#
# Indices 1 2 3 4 5 6 
#
# 1 0.009134 -0.000530 -0.004089 0.000000 -0.000983 0.000000
# 2 -0.000530 0.078772 -0.008116 0.000000 -0.004628 0.000000
# 3 -0.004089 -0.008116 0.013707 0.000000 -0.001949 0.000000
# 4 0.000000 0.000000 0.000000 -0.011603 0.000000 -0.079071
# 5 -0.000983 -0.004628 -0.001949 0.000000 0.024230 0.000000
# 6 0.000000 0.000000 0.000000 -0.079071 0.000000 -0.152146
#
#
# Mechanical properties :
#
#
# Convention : Reuss Voigt Hill
#
# Bulk Modulus (GPa) = 13.13299 39.96199 26.54749
# Shear Modulus (GPa) = 386.20539 27.83076 207.01807
#
# Velocity S-wave (km/s) = 13.29782 3.56972 9.73589
# Velocity P-wave (km/s) = 15.54958 5.94036 11.77024
#
# Compressibility (1/GPa) = 0.07614410
#
# Stress axis : x y z
#
# Youngs Moduli (GPa) = 109.47719 12.69481 72.95492
#
# Poissons Ratio (x) = 0.00673 0.29830
# Poissons Ratio (y) = 0.05804 0.59210
# Poissons Ratio (z) = 0.44763 0.10303
#
# Static dielectric constant tensor:
#      x y z
#    x 3.878390 0.000000 -0.196350 
#    y 0.000000 3.792770 0.000000 
#    z -0.196350 0.000000 3.787190 
# 
# 
# High freq. dielectric constant tensor:
#      x y z
#    x 1.854030 0.000000 -0.012900 
#    y 0.000000 1.847210 0.000000 
#    z -0.012900 0.000000 1.851600 
# 
# From -- ./inp_files/15081.got.cif
#   From: 2010.06.25/outbox.cif.g09.slc.cpg/sg13_8_cif.got.tgz:15081.got - 2010.06.28 04:50:58.
