data_PCOD8122640
_publ_section_title
;
Structure prediction by ZEFSAII (Michael W. Deem and Ramdas Pophale) SiO2 
 PCOD8122640
Probable space group: P 2/C
;
_chemical_formula_sum "Si O2"
_cell_formula_units_Z 20
_cell_length_a 12.726902
_cell_length_b 7.494842
_cell_length_c 12.989784
_cell_angle_alpha 90.000000
_cell_angle_beta 133.410729
_cell_angle_gamma 90.000000
_cell_volume 900.099346
_symmetry_space_group_name_H-M "P 2/C"
_symmetry_group_IT_number 13
_symmetry_cell_setting 'monoclinic'
loop_
_space_group_symop_operation_xyz
x,y,z
-x,y,1/2-z
-x,-y,-z
x,-y,1/2+z
loop_
_atom_site_type_symbol
_atom_site_label
_atom_site_fract_x
_atom_site_fract_y
_atom_site_fract_z
Si Si1 0.155904 0.543601 0.145802
Si Si2 0.431478 0.752857 0.598341
Si Si3 0.637195 0.356511 0.896130
Si Si4 0.154679 0.137279 0.803989
Si Si5 0.298685 0.793134 0.848169
O O1 0.240677 0.617118 0.105711
O O2 0.148068 0.685965 0.231384
O O3 0.229442 0.365200 0.236476
O O4 0.000000 0.500000 0.000000
O O5 0.500000 0.827112 0.750000
O O6 0.421283 0.539347 0.593154
O O7 0.272813 0.835238 0.474073
O O8 0.535182 0.815266 0.575165
O O9 0.500000 0.259447 0.750000
O O10 0.703808 0.237548 0.031064
O O11 0.000000 0.097903 0.750000
O O12 0.203232 0.970680 0.765510
#
# Coordination Sequence:
#
# PCOD8122640 Si02
#       5
#     4   4   4   4   4
#     4  12  27  46  73 102 147 190 237 298 362 419
#     4  11  22  47  76 105 143 188 237 299 353 426
#     4  11  22  44  76 102 136 188 239 291 358 428
#     4  12  29  46  72 109 148 186 242 298 358 429
#     4  12  26  46  75 105 142 189 244 292 361 430
#
# _framework density 22.21977
#
# number of rings (size 3 to 8) (size 9 to 14) (size 15 to 20)
#    0.000    0.400    6.000    3.600    2.800    3.200 
#    0.000    0.000    0.000    0.000    0.000    0.000 
#    0.000    0.000    0.000    0.000    0.000    0.000 
#
# Total GULP energy -248109.743564 kJ/mol
# GULP energy per Si atom -12405.487178 kJ/mol
# Density = 2.216920 g / cm^3
# Si number density = 22.219770 Si / 1000 Ang^3
#
#
#
# Elastic Constant Matrix: (Units=GPa)
#
#
# Indices 1 2 3 4 5 6 
#
# 1 124.9411 18.9806 56.0683 0.0000 23.2350 0.0000
# 2 18.9806 61.3377 10.6583 0.0000 5.7571 0.0000
# 3 56.0683 10.6583 144.3166 0.0000 14.5384 0.0000
# 4 0.0000 0.0000 0.0000 11.4861 0.0000 8.8133
# 5 23.2350 5.7571 14.5384 0.0000 43.4957 0.0000
# 6 0.0000 0.0000 0.0000 8.8133 0.0000 26.5525
#
#
#
# Elastic Compliance Matrix: (Units=1/GPa)
#
#
# Indices 1 2 3 4 5 6 
#
# 1 0.010749 -0.002306 -0.003578 0.000000 -0.004240 0.000000
# 2 -0.002306 0.017154 -0.000276 0.000000 -0.000946 0.000000
# 3 -0.003578 -0.000276 0.008427 0.000000 -0.000869 0.000000
# 4 0.000000 0.000000 0.000000 0.116811 0.000000 -0.038772
# 5 -0.004240 -0.000946 -0.000869 0.000000 0.025672 0.000000
# 6 0.000000 0.000000 0.000000 -0.038772 0.000000 0.050530
#
#
# Mechanical properties :
#
#
# Convention : Reuss Voigt Hill
#
# Bulk Modulus (GPa) = 41.65097 55.77888 48.71492
# Shear Modulus (GPa) = 20.02677 32.63274 26.32975
#
# Velocity S-wave (km/s) = 3.00543 3.83644 3.44607
# Velocity P-wave (km/s) = 5.55240 6.69194 6.14863
#
# Compressibility (1/GPa) = 0.02400905
#
# Stress axis : x y z
#
# Youngs Moduli (GPa) = 93.03582 58.29700 118.66159
#
# Poissons Ratio (x) = 0.13445 0.42462
# Poissons Ratio (y) = 0.21457 0.03269
# Poissons Ratio (z) = 0.33292 0.01606
#
# Static dielectric constant tensor:
#      x y z
#    x 4.068830 0.000000 0.076730 
#    y 0.000000 4.048860 0.000000 
#    z 0.076730 0.000000 4.217820 
# 
# 
# High freq. dielectric constant tensor:
#      x y z
#    x 1.883200 0.000000 0.004350 
#    y 0.000000 1.874740 0.000000 
#    z 0.004350 0.000000 1.886610 
# 
# From -- ./inp_files/32755.got.cif
#   From: 2010.06.25/outbox.cif.g09.slc.cpg/sg13_17_cif.got.tgz:32755.got - 2010.06.28 04:50:58.
