data_PCOD8122424
_publ_section_title
;
Structure prediction by ZEFSAII (Michael W. Deem and Ramdas Pophale) SiO2 
 PCOD8122424
Probable space group: P 2/C
;
_chemical_formula_sum "Si O2"
_cell_formula_units_Z 22
_cell_length_a 22.314126
_cell_length_b 8.856228
_cell_length_c 13.961291
_cell_angle_alpha 90.000000
_cell_angle_beta 158.735015
_cell_angle_gamma 90.000000
_cell_volume 1000.644906
_symmetry_space_group_name_H-M "P 2/C"
_symmetry_group_IT_number 13
_symmetry_cell_setting 'monoclinic'
loop_
_space_group_symop_operation_xyz
x,y,z
-x,y,1/2-z
-x,-y,-z
x,-y,1/2+z
loop_
_atom_site_type_symbol
_atom_site_label
_atom_site_fract_x
_atom_site_fract_y
_atom_site_fract_z
Si Si1 0.681178 0.703382 0.503084
Si Si2 0.023005 0.206242 0.466139
Si Si3 0.122932 0.532117 0.555419
Si Si4 0.000000 0.982377 0.750000
Si Si5 0.157637 0.219172 0.860773
Si Si6 0.663179 0.483174 0.302418
O O1 0.500000 0.780481 0.250000
O O2 0.720053 0.589070 0.648473
O O3 0.669442 0.612043 0.388491
O O4 0.830326 0.824308 0.709456
O O5 0.039795 0.387076 0.480940
O O6 0.145410 0.151180 0.734280
O O7 0.075764 0.119757 0.448005
O O8 0.181016 0.490275 0.535426
O O9 0.996627 0.668631 0.360403
O O10 0.855453 0.085839 0.580227
O O11 0.323610 0.315426 0.129327
O O12 0.500000 0.500000 0.000000
#
# Coordination Sequence:
#
# PCOD8122424 Si02
#       6
#     4   4   4   2   4   4
#     4  11  21  37  60  97 126 162 209 277 332 373
#     4  11  23  40  66  96 128 171 225 266 316 391
#     4  11  20  38  67  90 125 163 219 279 324 370
#     4  12  24  38  66  96 132 180 222 256 316 392
#     4  11  22  41  63  95 129 168 215 274 322 378
#     4  12  21  34  62  96 127 159 206 273 338 376
#
# _framework density 21.985821000000001
#
# number of rings (size 3 to 8) (size 9 to 14) (size 15 to 20)
#    0.000    0.727    7.273    2.727    0.000    0.000 
#    0.000    0.000    0.000   20.727    0.000    0.000 
#    0.000    0.000    0.000    0.000    0.000    0.000 
#
# Total GULP energy -272705.111113 kJ/mol
# GULP energy per Si atom -12395.686869 kJ/mol
# Density = 2.193578 g / cm^3
# Si number density = 21.985821 Si / 1000 Ang^3
#
#
#
# Elastic Constant Matrix: (Units=GPa)
#
#
# Indices 1 2 3 4 5 6 
#
# 1 119.9132 30.4038 29.0228 0.0000 -28.8597 0.0000
# 2 30.4038 67.5058 31.0950 0.0000 -10.8599 0.0000
# 3 29.0228 31.0950 108.1464 0.0000 -22.0853 0.0000
# 4 0.0000 0.0000 0.0000 11.3530 0.0000 -7.7256
# 5 -28.8597 -10.8599 -22.0853 0.0000 35.7503 0.0000
# 6 0.0000 0.0000 0.0000 -7.7256 0.0000 35.2208
#
#
#
# Elastic Compliance Matrix: (Units=1/GPa)
#
#
# Indices 1 2 3 4 5 6 
#
# 1 0.011208 -0.003628 -0.000391 0.000000 0.007704 0.000000
# 2 -0.003628 0.018442 -0.004329 0.000000 -0.000001 0.000000
# 3 -0.000391 -0.004329 0.011745 0.000000 0.005625 0.000000
# 4 0.000000 0.000000 0.000000 0.103537 0.000000 0.022711
# 5 0.007704 -0.000001 0.005625 0.000000 0.037665 0.000000
# 6 0.000000 0.000000 0.000000 0.022711 0.000000 0.033374
#
#
# Mechanical properties :
#
#
# Convention : Reuss Voigt Hill
#
# Bulk Modulus (GPa) = 40.49018 52.95653 46.72336
# Shear Modulus (GPa) = 20.75546 30.13441 25.44494
#
# Velocity S-wave (km/s) = 3.07585 3.70622 3.40565
# Velocity P-wave (km/s) = 5.57414 6.51565 6.06320
#
# Compressibility (1/GPa) = 0.02469734
#
# Stress axis : x y z
#
# Youngs Moduli (GPa) = 89.22060 54.22538 85.14176
#
# Poissons Ratio (x) = 0.19675 0.03332
# Poissons Ratio (y) = 0.32373 0.36858
# Poissons Ratio (z) = 0.03492 0.23474
#
# Static dielectric constant tensor:
#      x y z
#    x 4.605950 0.000000 -0.383380 
#    y 0.000000 3.890230 0.000000 
#    z -0.383380 0.000000 4.439360 
# 
# 
# High freq. dielectric constant tensor:
#      x y z
#    x 1.886510 0.000000 -0.031980 
#    y 0.000000 1.838360 0.000000 
#    z -0.031980 0.000000 1.847250 
# 
# From -- ./inp_files/49848.got.cif
#   From: 2010.06.25/outbox.cif.g09.slc.cpg/sg13_25_cif.got.tgz:49848.got - 2010.06.28 04:50:58.
