data_PCOD8122508
_publ_section_title
;
Structure prediction by ZEFSAII (Michael W. Deem and Ramdas Pophale) SiO2 
 PCOD8122508
Probable space group: P 2/C
;
_chemical_formula_sum "Si O2"
_cell_formula_units_Z 30
_cell_length_a 22.072662
_cell_length_b 11.994377
_cell_length_c 12.835678
_cell_angle_alpha 90.000000
_cell_angle_beta 154.306678
_cell_angle_gamma 90.000000
_cell_volume 1473.311157
_symmetry_space_group_name_H-M "P 2/C"
_symmetry_group_IT_number 13
_symmetry_cell_setting 'monoclinic'
loop_
_space_group_symop_operation_xyz
x,y,z
-x,y,1/2-z
-x,-y,-z
x,-y,1/2+z
loop_
_atom_site_type_symbol
_atom_site_label
_atom_site_fract_x
_atom_site_fract_y
_atom_site_fract_z
Si Si1 0.305058 0.800740 0.119031
Si Si2 0.279159 0.606161 0.532230
Si Si3 0.100803 0.599775 0.808437
Si Si4 0.808168 0.149602 0.280875
Si Si5 0.401762 0.701283 0.927211
Si Si6 0.137751 0.924175 0.026098
Si Si7 0.067733 0.747870 0.092480
Si Si8 0.500000 0.528934 0.250000
O O1 0.470811 0.787414 0.384647
O O2 0.257629 0.889930 0.130908
O O3 0.231773 0.682224 0.027135
O O4 0.269204 0.847210 0.949604
O O5 0.157438 0.524640 0.383338
O O6 0.375577 0.645718 0.775628
O O7 0.208791 0.713947 0.369966
O O8 0.374180 0.547100 0.593927
O O9 0.000000 0.604005 0.750000
O O10 0.014495 0.637168 0.572704
O O11 0.735266 0.233070 0.248649
O O12 0.970156 0.183991 0.520915
O O13 0.801212 0.024486 0.311839
O O14 0.437789 0.604025 0.062874
O O15 0.100310 0.821157 0.041875
O O16 0.000000 0.961157 0.750000
#
# Coordination Sequence:
#
# PCOD8122508 Si02
#       8
#     4   4   4   4   4   4   4   2
#     4  11  22  47  69  95 134 182 225 274 342 409
#     4  12  29  37  72 105 136 184 226 280 332 412
#     4  11  21  41  68  98 135 179 222 274 339 398
#     4  11  25  43  71  97 134 176 227 285 344 398
#     4  12  26  47  67  99 139 183 225 280 334 412
#     4  12  24  43  76  99 131 180 226 289 348 401
#     4  11  24  45  64 106 139 170 227 291 339 401
#     4  12  24  48  68  94 142 192 226 262 346 404
#
# _framework density 20.362297000000002
#
# number of rings (size 3 to 8) (size 9 to 14) (size 15 to 20)
#    0.000    0.533    6.667    2.000    7.467    0.533 
#    0.000    1.333    0.000    0.000    0.000    0.000 
#    0.000    0.000    0.000    0.000    0.000    0.000 
#
# Total GULP energy -372228.389045 kJ/mol
# GULP energy per Si atom -12407.612968 kJ/mol
# Density = 2.031595 g / cm^3
# Si number density = 20.362297 Si / 1000 Ang^3
#
#
#
# Elastic Constant Matrix: (Units=GPa)
#
#
# Indices 1 2 3 4 5 6 
#
# 1 110.4621 37.3639 36.7553 0.0000 8.4094 0.0000
# 2 37.3639 85.5047 42.8565 0.0000 -2.5532 0.0000
# 3 36.7553 42.8565 101.5422 0.0000 -9.4576 0.0000
# 4 0.0000 0.0000 0.0000 23.9952 0.0000 12.4303
# 5 8.4094 -2.5532 -9.4576 0.0000 21.6571 0.0000
# 6 0.0000 0.0000 0.0000 12.4303 0.0000 5.6816
#
#
#
# Elastic Compliance Matrix: (Units=1/GPa)
#
#
# Indices 1 2 3 4 5 6 
#
# 1 0.011926 -0.003726 -0.003353 0.000000 -0.006534 0.000000
# 2 -0.003726 0.016019 -0.005318 0.000000 0.001013 0.000000
# 3 -0.003353 -0.005318 0.013936 0.000000 0.006761 0.000000
# 4 0.000000 0.000000 0.000000 -0.312496 0.000000 0.683684
# 5 -0.006534 0.001013 0.006761 0.000000 0.051783 0.000000
# 6 0.000000 0.000000 0.000000 0.683684 0.000000 -1.319769
#
#
# Mechanical properties :
#
#
# Convention : Reuss Voigt Hill
#
# Bulk Modulus (GPa) = 58.52228 59.05114 58.78671
# Shear Modulus (GPa) = -3.31541 22.30234 9.49347
#
# Velocity S-wave (km/s) = -1.27740 3.31309 2.16157
# Velocity P-wave (km/s) = 5.16016 6.61049 5.92983
#
# Compressibility (1/GPa) = 0.01708751
#
# Stress axis : x y z
#
# Youngs Moduli (GPa) = 83.84762 62.42512 71.75690
#
# Poissons Ratio (x) = 0.23261 0.24060
# Poissons Ratio (y) = 0.31243 0.38159
# Poissons Ratio (z) = 0.28114 0.33197
#
# Static dielectric constant tensor:
#      x y z
#    x 3.914050 0.000000 0.071420 
#    y 0.000000 3.641240 0.000000 
#    z 0.071420 0.000000 3.666530 
# 
# 
# High freq. dielectric constant tensor:
#      x y z
#    x 1.813850 0.000000 0.002680 
#    y 0.000000 1.790810 0.000000 
#    z 0.002680 0.000000 1.792190 
# 
# From -- ./inp_files/40892.got.cif
#   From: 2010.06.25/outbox.cif.g09.slc.cpg/sg13_21_cif.got.tgz:40892.got - 2010.06.28 04:50:58.
