data_PCOD8122169
_publ_section_title
;
Structure prediction by ZEFSAII (Michael W. Deem and Ramdas Pophale) SiO2 
 PCOD8122169
Probable space group: P 2/C
;
_chemical_formula_sum "Si O2"
_cell_formula_units_Z 28
_cell_length_a 7.628565
_cell_length_b 14.922138
_cell_length_c 13.626056
_cell_angle_alpha 90.000000
_cell_angle_beta 54.706959
_cell_angle_gamma 90.000000
_cell_volume 1266.032332
_symmetry_space_group_name_H-M "P 2/C"
_symmetry_group_IT_number 13
_symmetry_cell_setting 'monoclinic'
loop_
_space_group_symop_operation_xyz
x,y,z
-x,y,1/2-z
-x,-y,-z
x,-y,1/2+z
loop_
_atom_site_type_symbol
_atom_site_label
_atom_site_fract_x
_atom_site_fract_y
_atom_site_fract_z
Si Si1 0.703635 0.182427 0.747177
Si Si2 0.500000 0.491813 0.250000
Si Si3 0.415490 0.355936 0.441944
Si Si4 0.120813 0.203296 0.494804
Si Si5 0.306732 0.793391 0.739965
Si Si6 0.000000 0.071206 0.250000
Si Si7 0.750503 0.618455 0.305045
Si Si8 0.287686 0.057677 0.566927
O O1 0.500000 0.154918 0.750000
O O2 0.695142 0.282465 0.789056
O O3 0.731545 0.116482 0.828520
O O4 0.895191 0.172757 0.608293
O O5 0.386949 0.430255 0.368118
O O6 0.687446 0.550602 0.238539
O O7 0.201234 0.295127 0.518058
O O8 0.624155 0.293195 0.347724
O O9 0.413375 0.401248 0.550237
O O10 0.111808 0.223141 0.380691
O O11 0.287362 0.123076 0.472215
O O12 0.500000 0.821565 0.750000
O O13 0.215345 0.871794 0.701956
O O14 0.920243 0.008716 0.366195
O O15 0.000000 0.602681 0.250000
O O16 0.500000 0.000000 0.500000
#
# Coordination Sequence:
#
# PCOD8122169 Si02
#       8
#     4   2   4   4   4   2   4   4
#     4  12  25  44  71 104 142 196 238 294 370 429
#     4  12  26  48  72 118 136 186 248 296 360 442
#     4  11  22  47  77 102 149 187 236 299 365 432
#     4  11  21  46  72  94 140 195 231 292 366 425
#     4  10  24  45  71 101 142 190 231 296 358 420
#     4  12  26  44  68 108 138 188 248 294 348 424
#     4  12  25  46  74 105 147 189 238 297 364 434
#     4  12  25  43  69 102 144 186 247 299 350 429
#
# _framework density 22.116339
#
# number of rings (size 3 to 8) (size 9 to 14) (size 15 to 20)
#    0.000    0.571    7.143    2.143    2.000    2.857 
#    1.286    0.000    0.000    0.000    0.000    0.000 
#    0.000    0.000    0.000    0.000    0.000    0.000 
#
# Total GULP energy -346971.187956 kJ/mol
# GULP energy per Si atom -12391.828141 kJ/mol
# Density = 2.206600 g / cm^3
# Si number density = 22.116339 Si / 1000 Ang^3
#
#
#
# Elastic Constant Matrix: (Units=GPa)
#
#
# Indices 1 2 3 4 5 6 
#
# 1 76.0230 40.5305 23.9259 0.0000 -1.1531 0.0000
# 2 40.5305 112.8864 49.7361 0.0000 -0.7188 0.0000
# 3 23.9259 49.7361 139.5988 0.0000 4.6644 0.0000
# 4 0.0000 0.0000 0.0000 34.5637 0.0000 -0.0673
# 5 -1.1531 -0.7188 4.6644 0.0000 30.6409 0.0000
# 6 0.0000 0.0000 0.0000 -0.0673 0.0000 11.5694
#
#
#
# Elastic Compliance Matrix: (Units=1/GPa)
#
#
# Indices 1 2 3 4 5 6 
#
# 1 0.016363 -0.005488 -0.000870 0.000000 0.000619 0.000000
# 2 -0.005488 0.012369 -0.003487 0.000000 0.000614 0.000000
# 3 -0.000870 -0.003487 0.008602 0.000000 -0.001424 0.000000
# 4 0.000000 0.000000 0.000000 0.028932 0.000000 0.000168
# 5 0.000619 0.000614 -0.001424 0.000000 0.032891 0.000000
# 6 0.000000 0.000000 0.000000 0.000168 0.000000 0.086436
#
#
# Mechanical properties :
#
#
# Convention : Reuss Voigt Hill
#
# Bulk Modulus (GPa) = 56.67261 61.87702 59.27482
# Shear Modulus (GPa) = 23.67834 29.64250 26.66042
#
# Velocity S-wave (km/s) = 3.27559 3.66498 3.47574
# Velocity P-wave (km/s) = 6.32348 6.77851 6.55494
#
# Compressibility (1/GPa) = 0.01764521
#
# Stress axis : x y z
#
# Youngs Moduli (GPa) = 61.11442 80.84824 116.24742
#
# Poissons Ratio (x) = 0.44366 0.10114
# Poissons Ratio (y) = 0.33537 0.40533
# Poissons Ratio (z) = 0.05317 0.28190
#
# Static dielectric constant tensor:
#      x y z
#    x 3.767960 0.000000 0.076640 
#    y 0.000000 4.169760 0.000000 
#    z 0.076640 0.000000 4.538780 
# 
# 
# High freq. dielectric constant tensor:
#      x y z
#    x 1.844910 0.000000 0.001550 
#    y 0.000000 1.875360 0.000000 
#    z 0.001550 0.000000 1.895570 
# 
# From -- ./inp_files/47669.got.cif
#   From: 2010.06.25/outbox.cif.g09.slc.cpg/sg13_24_cif.got.tgz:47669.got - 2010.06.28 04:50:58.
