data_PCOD8122309
_publ_section_title
;
Structure prediction by ZEFSAII (Michael W. Deem and Ramdas Pophale) SiO2 
 PCOD8122309
Probable space group: P 2/C
;
_chemical_formula_sum "Si O2"
_cell_formula_units_Z 20
_cell_length_a 10.184164
_cell_length_b 5.021034
_cell_length_c 23.866071
_cell_angle_alpha 90.000000
_cell_angle_beta 136.062076
_cell_angle_gamma 90.000000
_cell_volume 846.804142
_symmetry_space_group_name_H-M "P 2/C"
_symmetry_group_IT_number 13
_symmetry_cell_setting 'monoclinic'
loop_
_space_group_symop_operation_xyz
x,y,z
-x,y,1/2-z
-x,-y,-z
x,-y,1/2+z
loop_
_atom_site_type_symbol
_atom_site_label
_atom_site_fract_x
_atom_site_fract_y
_atom_site_fract_z
Si Si1 0.285088 0.537209 0.667485
Si Si2 0.675300 0.784619 0.168413
Si Si3 0.309262 0.160282 0.950711
Si Si4 0.430565 0.695676 0.600710
Si Si5 0.099625 0.039578 0.661118
O O1 0.500000 0.474255 0.750000
O O2 0.271633 0.652408 0.599713
O O3 0.165609 0.265909 0.637202
O O4 0.203555 0.763443 0.682732
O O5 0.741297 0.716342 0.125264
O O6 0.597565 0.506900 0.167947
O O7 0.851825 0.868257 0.260667
O O8 0.507269 0.002542 0.122294
O O9 0.125741 0.988430 0.912722
O O10 0.345330 0.372051 0.012326
O O11 0.500000 0.000000 0.000000
#
# Coordination Sequence:
#
# PCOD8122309 Si02
#       5
#     4   4   4   4   4
#     4  12  23  42  68  99 131 164 221 273 321 385
#     4  11  21  42  67  94 128 171 218 264 320 385
#     4  10  26  45  65  97 136 173 216 269 324 384
#     4  11  23  41  67  93 133 172 205 272 329 376
#     4  12  24  41  71  98 126 175 219 264 326 387
#
# _framework density 23.618212
#
# number of rings (size 3 to 8) (size 9 to 14) (size 15 to 20)
#    0.000    0.800    4.000    3.000    0.000    8.000 
#    0.000    6.000    0.000    0.000    0.000    0.000 
#    0.000    0.000    0.000    0.000    0.000    0.000 
#
# Total GULP energy -247894.234137 kJ/mol
# GULP energy per Si atom -12394.711707 kJ/mol
# Density = 2.356446 g / cm^3
# Si number density = 23.618212 Si / 1000 Ang^3
#
#
#
# Elastic Constant Matrix: (Units=GPa)
#
#
# Indices 1 2 3 4 5 6 
#
# 1 129.6770 24.5644 65.7747 0.0000 -0.7174 0.0000
# 2 24.5644 84.5565 14.6073 0.0000 5.8520 0.0000
# 3 65.7747 14.6073 76.6866 0.0000 7.9050 0.0000
# 4 0.0000 0.0000 0.0000 22.5852 0.0000 -4.2490
# 5 -0.7174 5.8520 7.9050 0.0000 50.5896 0.0000
# 6 0.0000 0.0000 0.0000 -4.2490 0.0000 24.6093
#
#
#
# Elastic Compliance Matrix: (Units=1/GPa)
#
#
# Indices 1 2 3 4 5 6 
#
# 1 0.014254 -0.002222 -0.012044 0.000000 0.002341 0.000000
# 2 -0.002222 0.012632 -0.000352 0.000000 -0.001438 0.000000
# 3 -0.012044 -0.000352 0.023835 0.000000 -0.003854 0.000000
# 4 0.000000 0.000000 0.000000 0.045763 0.000000 0.007901
# 5 0.002341 -0.001438 -0.003854 0.000000 0.020569 0.000000
# 6 0.000000 0.000000 0.000000 0.007901 0.000000 0.041999
#
#
# Mechanical properties :
#
#
# Convention : Reuss Voigt Hill
#
# Bulk Modulus (GPa) = 46.54458 55.64589 51.09524
# Shear Modulus (GPa) = 25.58183 31.95506 28.76844
#
# Velocity S-wave (km/s) = 3.29468 3.68228 3.49386
# Velocity P-wave (km/s) = 5.85005 6.45683 6.16092
#
# Compressibility (1/GPa) = 0.02148478
#
# Stress axis : x y z
#
# Youngs Moduli (GPa) = 70.15354 79.16196 41.95547
#
# Poissons Ratio (x) = 0.17593 0.50532
# Poissons Ratio (y) = 0.15591 0.01476
# Poissons Ratio (z) = 0.84494 0.02785
#
# Static dielectric constant tensor:
#      x y z
#    x 4.752040 0.000000 -0.523650 
#    y 0.000000 3.923080 0.000000 
#    z -0.523650 0.000000 4.524300 
# 
# 
# High freq. dielectric constant tensor:
#      x y z
#    x 1.947880 0.000000 -0.022100 
#    y 0.000000 1.913850 0.000000 
#    z -0.022100 0.000000 1.935630 
# 
# From -- ./inp_files/74231.got.cif
#   From: 2010.06.25/outbox.cif.g09.slc.cpg/sg13_38_cif.got.tgz:74231.got - 2010.06.28 04:50:58.
